p,p'-DDT
  SciTegic01221513273D

 19 20  0  0  0  0            999 V2000
   -0.8363    2.1464    3.9044 Cl  0  0  0  0  0  0  0  0  0  1  0  0
    0.4384    1.8922    2.6965 C   0  0  0  0  0  0  0  0  0  2  0  0
    1.5661    3.2475    2.8778 Cl  0  0  0  0  0  0  0  0  0  3  0  0
   -0.1928    1.8238    1.2333 C   0  0  0  0  0  0  0  0  0  4  0  0
   -1.3049    0.7410    1.0681 C   0  0  0  0  0  0  0  0  0  5  0  0
   -2.0635    0.6967   -0.1018 C   0  0  0  0  0  0  0  0  0  6  0  0
   -3.0733   -0.2447   -0.2606 C   0  0  0  0  0  0  0  0  0  7  0  0
   -3.3431   -1.1512    0.7568 C   0  0  0  0  0  0  0  0  0  8  0  0
   -2.6032   -1.1096    1.9316 C   0  0  0  0  0  0  0  0  0  9  0  0
   -1.5941   -0.1656    2.0843 C   0  0  0  0  0  0  0  0  0 10  0  0
   -4.5977   -2.3232    0.5629 Cl  0  0  0  0  0  0  0  0  0 11  0  0
    0.9066    1.6978    0.1289 C   0  0  0  0  0  0  0  0  0 12  0  0
    1.8735    2.6880   -0.0143 C   0  0  0  0  0  0  0  0  0 13  0  0
    2.8607    2.5897   -0.9884 C   0  0  0  0  0  0  0  0  0 14  0  0
    2.8926    1.4895   -1.8349 C   0  0  0  0  0  0  0  0  0 15  0  0
    1.9355    0.4915   -1.7028 C   0  0  0  0  0  0  0  0  0 16  0  0
    0.9520    0.5984   -0.7271 C   0  0  0  0  0  0  0  0  0 17  0  0
    4.1173    1.3622   -3.0469 Cl  0  0  0  0  0  0  0  0  0 18  0  0
    1.3142    0.3938    3.0565 Cl  0  0  0  0  0  0  0  0  0 19  0  0
  2 19  1  0
 15 18  1  0
 17 12  4  0
 16 17  4  0
 15 16  4  0
 14 15  4  0
 13 14  4  0
 12 13  4  0
  4 12  1  0
  8 11  1  0
 10  5  4  0
  9 10  4  0
  8  9  4  0
  7  8  4  0
  6  7  4  0
  5  6  4  0
  4  5  1  0
  2  4  1  0
  2  3  1  0
  1  2  1  0
M  END
> <Name>
p,p'-DDT

> <CAS RN>
000050-29-3

> <Log Koc>
5.33

> <VP-0>
13.3656

> <nAromBond>
12

> <MAXDP>
0.398593

> <nHBAcc>
0

> <Splitting>
1

$$$$
Nicotine
  SciTegic01221513273D

 13 14  0  0  0  0            999 V2000
    1.7089    0.5335    1.6283 C   0  0  0  0  0  0  0  0  0  1  0  0
    0.9027   -0.7539    2.0565 C   0  0  0  0  0  0  0  0  0  2  0  0
   -0.5065   -0.4987    1.4636 C   0  0  0  0  0  0  0  0  0  3  0  0
   -0.1626    0.4221    0.2881 C   0  0  1  0  0  0  0  0  0  4  0  0
   -1.0651    0.8898   -0.1289 H   0  0  0  0  0  0  0  0  0  5  0  0
    0.7036    1.4222    0.9436 N   0  0  0  0  0  0  0  0  0  6  0  0
   -0.0888    2.1239    1.9784 C   0  0  0  0  0  0  0  0  0  7  0  0
    0.5460   -0.3064   -0.8681 C   0  0  0  0  0  0  0  0  0  8  0  0
    1.4279    0.3783   -1.7011 C   0  0  0  0  0  0  0  0  0  9  0  0
    2.0233   -0.2366   -2.7181 N   0  0  0  0  0  0  0  0  0 10  0  0
    1.7953   -1.5181   -2.9859 C   0  0  0  0  0  0  0  0  0 11  0  0
    0.9148   -2.2581   -2.2054 C   0  0  0  0  0  0  0  0  0 12  0  0
    0.2774   -1.6451   -1.1358 C   0  0  0  0  0  0  0  0  0 13  0  0
 13  8  4  0
 12 13  4  0
 11 12  4  0
 10 11  4  0
  9 10  4  0
  8  9  4  0
  4  8  1  0
  6  7  1  0
  6  1  1  0
  4  6  1  0
  4  5  1  0
  3  4  1  0
  2  3  1  0
  1  2  1  0
M  END
> <Name>
Nicotine

> <CAS RN>
000054-11-5

> <Log Koc>
2.01

> <VP-0>
7.4025

> <nAromBond>
6

> <MAXDP>
1.13704

> <nHBAcc>
2

> <Splitting>
1

$$$$
Fenthion
  SciTegic01221513273D

 16 16  0  0  0  0            999 V2000
    4.0332    5.7566    0.0071 C   0  0  0  0  0  0  0  0  0  1  0  0
    4.0138    4.5005   -1.2965 S   0  0  0  0  0  0  0  0  0  2  0  0
    3.0889    3.0920   -0.7496 C   0  0  0  0  0  0  0  0  0  3  0  0
    3.7558    1.9700   -0.2761 C   0  0  0  0  0  0  0  0  0  4  0  0
    5.2558    1.9509   -0.2278 C   0  0  0  0  0  0  0  0  0  5  0  0
    3.0343    0.8626    0.1559 C   0  0  0  0  0  0  0  0  0  6  0  0
    1.6456    0.8674    0.1149 C   0  0  0  0  0  0  0  0  0  7  0  0
    0.9809    1.9954   -0.3615 C   0  0  0  0  0  0  0  0  0  8  0  0
    1.6989    3.1053   -0.7918 C   0  0  0  0  0  0  0  0  0  9  0  0
    0.9525   -0.2898    0.5690 O   0  0  0  0  0  0  0  0  0 10  0  0
   -0.6189   -0.2326    0.4769 P   0  0  0  0  0  0  0  0  0 11  0  0
   -1.1137   -0.0660   -1.1529 S   0  0  0  0  0  0  0  0  0 12  0  0
   -1.1931    0.9419    1.3429 O   0  0  0  0  0  0  0  0  0 13  0  0
   -0.7994    0.8056    2.7259 C   0  0  0  0  0  0  0  0  0 14  0  0
   -1.1823   -1.5871    1.0010 O   0  0  0  0  0  0  0  0  0 15  0  0
   -2.6046   -1.6479    0.8004 C   0  0  0  0  0  0  0  0  0 16  0  0
 15 16  1  0
 11 15  1  0
 13 14  1  0
 11 13  1  0
 11 12  2  0
 10 11  1  0
  7 10  1  0
  9  3  4  0
  8  9  4  0
  7  8  4  0
  6  7  4  0
  4  6  4  0
  4  5  1  0
  3  4  4  0
  2  3  1  0
  1  2  1  0
M  END
> <Name>
Fenthion

> <CAS RN>
000055-38-9

> <Log Koc>
3.18

> <VP-0>
12.2479

> <nAromBond>
6

> <MAXDP>
2.47259

> <nHBAcc>
2

> <Splitting>
1

$$$$
Amitrole
  SciTegic01221513273D

  7  7  0  0  0  0            999 V2000
    0.6612    1.0945   -0.4826 C   0  0  0  0  0  0  0  0  0  1  0  0
    0.1720    2.2916   -1.0084 N   0  0  0  0  0  0  0  0  0  2  0  0
    1.7822    0.5008   -0.8646 N   0  0  0  0  0  0  0  0  0  3  0  0
    1.8776   -0.5963   -0.1244 C   0  0  0  0  0  0  0  0  0  4  0  0
    0.8128   -0.6168    0.6701 N   0  0  0  0  0  0  0  0  0  5  0  0
    0.6232   -1.3307    1.3359 H   0  0  0  0  0  0  0  0  0  6  0  0
    0.0714    0.3879    0.4708 N   0  0  0  0  0  0  0  0  0  7  0  0
  7  1  4  0
  5  7  4  0
  5  6  1  0
  4  5  4  0
  3  4  4  0
  1  3  4  0
  1  2  1  0
M  END
> <Name>
Amitrole

> <CAS RN>
000061-82-5

> <Log Koc>
1.64

> <VP-0>
3.04913

> <nAromBond>
5

> <MAXDP>
1.02431

> <nHBAcc>
4

> <Splitting>
1

$$$$
Benzoic Acid
  SciTegic01221513273D

  9  9  0  0  0  0            999 V2000
    0.9293    0.0167   -0.0002 C   0  0  0  0  0  0  0  0  0  1  0  0
    1.6298    1.2176    0.0000 C   0  0  0  0  0  0  0  0  0  2  0  0
    3.0200    1.2106    0.0002 C   0  0  0  0  0  0  0  0  0  3  0  0
    3.7090    0.0028    0.0003 C   0  0  0  0  0  0  0  0  0  4  0  0
    3.0080   -1.1980    0.0001 C   0  0  0  0  0  0  0  0  0  5  0  0
    1.6177   -1.1911   -0.0001 C   0  0  0  0  0  0  0  0  0  6  0  0
   -0.5304    0.0240   -0.0004 C   0  0  0  0  0  0  0  0  0  7  0  0
   -1.1425    1.0977   -0.0004 O   0  0  0  0  0  0  0  0  0  8  0  0
   -1.2310   -1.1774   -0.0006 O   0  0  0  0  0  0  0  0  0  9  0  0
  7  9  1  0
  7  8  2  0
  1  7  1  0
  6  1  4  0
  5  6  4  0
  4  5  4  0
  3  4  4  0
  2  3  4  0
  1  2  4  0
M  END
> <Name>
Benzoic Acid

> <CAS RN>
000065-85-0

> <Log Koc>
1.5

> <VP-0>
4.74221

> <nAromBond>
6

> <MAXDP>
3.20093

> <nHBAcc>
2

> <Splitting>
1

$$$$
1-Butanol
  SciTegic01221513273D

  5  4  0  0  0  0            999 V2000
    0.1013    0.0852   -0.9788 O   0  0  0  0  0  0  0  0  0  1  0  0
    1.3617   -0.2518   -0.3898 C   0  0  0  0  0  0  0  0  0  2  0  0
    1.5223    0.3429    1.0431 C   0  0  0  0  0  0  0  0  0  3  0  0
    0.5319   -0.2735    2.0794 C   0  0  0  0  0  0  0  0  0  4  0  0
   -0.9377    0.1019    1.7899 C   0  0  0  0  0  0  0  0  0  5  0  0
  4  5  1  0
  3  4  1  0
  2  3  1  0
  1  2  1  0
M  END
> <Name>
1-Butanol

> <CAS RN>
000071-36-3

> <Log Koc>
0.5

> <VP-0>
3.56853

> <nAromBond>
0

> <MAXDP>
2.06625

> <nHBAcc>
1

> <Splitting>
1

$$$$
4,4'-DDE
  SciTegic01221513273D

 18 19  0  0  0  0            999 V2000
   -1.1676    2.9243    3.2294 Cl  0  0  0  0  0  0  0  0  0  1  0  0
   -0.1566    1.7367    2.4543 C   0  0  0  0  0  0  0  0  0  2  0  0
    0.0220    1.6432    1.0853 C   0  0  0  0  0  0  0  0  0  3  0  0
   -0.7178    2.6864    0.1026 C   0  0  0  0  0  0  0  0  0  4  0  0
   -1.4291    3.7793    0.5949 C   0  0  0  0  0  0  0  0  0  5  0  0
   -2.0753    4.6873   -0.2356 C   0  0  0  0  0  0  0  0  0  6  0  0
   -2.0275    4.5213   -1.6114 C   0  0  0  0  0  0  0  0  0  7  0  0
   -1.3308    3.4446   -2.1371 C   0  0  0  0  0  0  0  0  0  8  0  0
   -0.6920    2.5507   -1.2851 C   0  0  0  0  0  0  0  0  0  9  0  0
   -2.8264    5.6413   -2.6566 Cl  0  0  0  0  0  0  0  0  0 10  0  0
    0.9702    0.4914    0.4722 C   0  0  0  0  0  0  0  0  0 11  0  0
    1.2945    0.4353   -0.8830 C   0  0  0  0  0  0  0  0  0 12  0  0
    2.1150   -0.5520   -1.4167 C   0  0  0  0  0  0  0  0  0 13  0  0
    2.6447   -1.5305   -0.5901 C   0  0  0  0  0  0  0  0  0 14  0  0
    2.3445   -1.5055    0.7633 C   0  0  0  0  0  0  0  0  0 15  0  0
    1.5222   -0.5074    1.2726 C   0  0  0  0  0  0  0  0  0 16  0  0
    3.6662   -2.7643   -1.2377 Cl  0  0  0  0  0  0  0  0  0 17  0  0
    0.6012    0.6805    3.6135 Cl  0  0  0  0  0  0  0  0  0 18  0  0
  2 18  1  0
 14 17  1  0
 16 11  4  0
 15 16  4  0
 14 15  4  0
 13 14  4  0
 12 13  4  0
 11 12  4  0
  3 11  1  0
  7 10  1  0
  9  4  4  0
  8  9  4  0
  7  8  4  0
  6  7  4  0
  5  6  4  0
  4  5  4  0
  3  4  1  0
  2  3  2  0
  1  2  1  0
M  END
> <Name>
4,4'-DDE

> <CAS RN>
000072-55-9

> <Log Koc>
4.76

> <VP-0>
12.1544

> <nAromBond>
12

> <MAXDP>
0.309341

> <nHBAcc>
0

> <Splitting>
1

$$$$
Methyl bromide
  SciTegic01221513273D

  2  1  0  0  0  0            999 V2000
   -0.4727    0.0014    0.0021 Br  0  0  0  0  0  0  0  0  0  1  0  0
    1.4673   -0.0001   -0.0004 C   0  0  0  0  0  0  0  0  0  2  0  0
  1  2  1  0
M  END
> <Name>
Methyl bromide

> <CAS RN>
000074-83-9

> <Log Koc>
1.34

> <VP-0>
2.96396

> <nAromBond>
0

> <MAXDP>
0.233796

> <nHBAcc>
0

> <Splitting>
1

$$$$
Bromodichloromethane
  SciTegic01221513273D

  4  3  0  0  0  0            999 V2000
   -0.7208   -0.1860   -0.0665 Cl  0  0  0  0  0  0  0  0  0  1  0  0
    1.0462   -0.1932   -0.0659 C   0  0  0  0  0  0  0  0  0  2  0  0
    1.6355   -0.1818    1.5999 Cl  0  0  0  0  0  0  0  0  0  3  0  0
    1.7005    1.3792   -0.9951 Br  0  0  0  0  0  0  0  0  0  4  0  0
  2  4  1  0
  2  3  1  0
  1  2  1  0
M  END
> <Name>
Bromodichloromethane

> <CAS RN>
000075-27-4

> <Log Koc>
1.79

> <VP-0>
4.8091

> <nAromBond>
0

> <MAXDP>
0.0609568

> <nHBAcc>
0

> <Splitting>
1

$$$$
Dalapon
  SciTegic01221513273D

  7  6  0  0  0  0            999 V2000
    1.6853    1.5290    0.0001 C   0  0  0  0  0  0  0  0  0  1  0  0
    1.1603    0.0813   -0.0005 C   0  0  0  0  0  0  0  0  0  2  0  0
   -0.3401    0.0542   -0.0003 C   0  0  0  0  0  0  0  0  0  3  0  0
   -0.9780    1.1131    0.0008 O   0  0  0  0  0  0  0  0  0  4  0  0
   -1.0127   -1.1633   -0.0014 O   0  0  0  0  0  0  0  0  0  5  0  0
    1.7451   -0.8019    1.4134 Cl  0  0  0  0  0  0  0  0  0  6  0  0
    1.7448   -0.8007   -1.4153 Cl  0  0  0  0  0  0  0  0  0  7  0  0
  2  7  1  0
  2  6  1  0
  3  5  1  0
  3  4  2  0
  2  3  1  0
  1  2  1  0
M  END
> <Name>
Dalapon

> <CAS RN>
000075-99-0

> <Log Koc>
0.44

> <VP-0>
5.12325

> <nAromBond>
0

> <MAXDP>
3.10262

> <nHBAcc>
2

> <Splitting>
1

$$$$
1,1,2-Trichloroethane
  SciTegic01221513273D

  5  4  0  0  0  0            999 V2000
   -0.3477   -0.2475   -0.2813 C   0  0  0  0  0  0  0  0  0  1  0  0
    1.1814   -0.2697   -0.1067 C   0  0  0  0  0  0  0  0  0  2  0  0
    1.5809   -0.0658    1.6021 Cl  0  0  0  0  0  0  0  0  0  3  0  0
    1.8987    1.0476   -1.0404 Cl  0  0  0  0  0  0  0  0  0  4  0  0
   -0.9815    1.2979    0.2937 Cl  0  0  0  0  0  0  0  0  0  5  0  0
  1  5  1  0
  2  4  1  0
  2  3  1  0
  1  2  1  0
M  END
> <Name>
1,1,2-Trichloroethane

> <CAS RN>
000079-00-5

> <Log Koc>
1.81

> <VP-0>
4.68614

> <nAromBond>
0

> <MAXDP>
0.11454

> <nHBAcc>
0

> <Splitting>
1

$$$$
Acenaphthene
  SciTegic01221513273D

 12 14  0  0  0  0            999 V2000
   -0.1771    4.0648    0.5249 C   0  0  0  0  0  0  0  0  0  1  0  0
   -0.0522    3.0905   -0.4560 C   0  0  0  0  0  0  0  0  0  2  0  0
   -0.3140    3.2089   -1.9471 C   0  0  0  0  0  0  0  0  0  3  0  0
    0.0286    1.7089   -2.4759 C   0  0  0  0  0  0  0  0  0  4  0  0
    0.4252    0.9997   -1.1931 C   0  0  0  0  0  0  0  0  0  5  0  0
    0.3549    1.8334   -0.1151 C   0  0  0  0  0  0  0  0  0  6  0  0
    0.6592    1.4508    1.1673 C   0  0  0  0  0  0  0  0  0  7  0  0
    0.5430    2.4073    2.1720 C   0  0  0  0  0  0  0  0  0  8  0  0
    0.1266    3.7039    1.8424 C   0  0  0  0  0  0  0  0  0  9  0  0
    1.0621    0.1340    1.3706 C   0  0  0  0  0  0  0  0  0 10  0  0
    1.1408   -0.7379    0.2766 C   0  0  0  0  0  0  0  0  0 11  0  0
    0.8239   -0.3188   -1.0204 C   0  0  0  0  0  0  0  0  0 12  0  0
 12  5  4  0
 11 12  4  0
 10 11  4  0
  7 10  4  0
  9  1  4  0
  8  9  4  0
  7  8  4  0
  6  7  4  0
  6  2  4  0
  5  6  4  0
  4  5  1  0
  3  4  1  0
  2  3  1  0
  1  2  4  0
M  END
> <Name>
Acenaphthene

> <CAS RN>
000083-32-9

> <Log Koc>
3.85

> <VP-0>
6.87832

> <nAromBond>
11

> <MAXDP>
0.248843

> <nHBAcc>
0

> <Splitting>
1

$$$$
Fenac
  SciTegic01221513273D

 13 13  0  0  0  0            999 V2000
   -1.1755    2.9909    1.4583 C   0  0  0  0  0  0  0  0  0  1  0  0
   -2.1382    3.5989    1.9388 O   0  0  0  0  0  0  0  0  0  2  0  0
   -1.3878    1.6271    0.8369 C   0  0  0  0  0  0  0  0  0  3  0  0
   -0.1425    1.0662    0.1668 C   0  0  0  0  0  0  0  0  0  4  0  0
    0.5709    1.7750   -0.8022 C   0  0  0  0  0  0  0  0  0  5  0  0
    1.7006    1.2086   -1.3824 C   0  0  0  0  0  0  0  0  0  6  0  0
    2.1230   -0.0601   -1.0051 C   0  0  0  0  0  0  0  0  0  7  0  0
    1.4109   -0.7689   -0.0463 C   0  0  0  0  0  0  0  0  0  8  0  0
    0.2808   -0.2066    0.5347 C   0  0  0  0  0  0  0  0  0  9  0  0
   -0.6019   -1.0920    1.7271 Cl  0  0  0  0  0  0  0  0  0 10  0  0
    2.5799    2.0862   -2.5825 Cl  0  0  0  0  0  0  0  0  0 11  0  0
    0.0762    3.3534   -1.3238 Cl  0  0  0  0  0  0  0  0  0 12  0  0
    0.1030    3.5348    1.5621 O   0  0  0  0  0  0  0  0  0 13  0  0
  1 13  1  0
  5 12  1  0
  6 11  1  0
  9 10  1  0
  9  4  4  0
  8  9  4  0
  7  8  4  0
  6  7  4  0
  5  6  4  0
  4  5  4  0
  3  4  1  0
  1  3  1  0
  1  2  2  0
M  END
> <Name>
Fenac

> <CAS RN>
000085-34-7

> <Log Koc>
1.55

> <VP-0>
8.61895

> <nAromBond>
6

> <MAXDP>
3.63416

> <nHBAcc>
2

> <Splitting>
1

$$$$
2-Butoxy-2-oxoethyl butyl phthalate
  SciTegic01221513273D

 24 24  0  0  0  0            999 V2000
    4.4005   -1.1427    0.4177 C   0  0  0  0  0  0  0  0  0  1  0  0
    3.7209   -2.1891   -0.1847 C   0  0  0  0  0  0  0  0  0  2  0  0
    2.3383   -2.1340   -0.2888 C   0  0  0  0  0  0  0  0  0  3  0  0
    1.6095   -1.0521    0.1997 C   0  0  0  0  0  0  0  0  0  4  0  0
    2.2981    0.0061    0.8176 C   0  0  0  0  0  0  0  0  0  5  0  0
    3.6862   -0.0609    0.9122 C   0  0  0  0  0  0  0  0  0  6  0  0
    1.7014    1.2365    1.4204 C   0  0  0  0  0  0  0  0  0  7  0  0
    2.4825    2.0769    1.8818 O   0  0  0  0  0  0  0  0  0  8  0  0
    0.3367    1.4615    1.5467 O   0  0  0  0  0  0  0  0  0  9  0  0
    0.1114    2.7218    2.1981 C   0  0  0  0  0  0  0  0  0 10  0  0
    0.2801    3.8679    1.2332 C   0  0  0  0  0  0  0  0  0 11  0  0
    0.3893    5.0196    1.6710 O   0  0  0  0  0  0  0  0  0 12  0  0
    0.2501    3.6340   -0.1516 O   0  0  0  0  0  0  0  0  0 13  0  0
    0.4131    4.8693   -0.8732 C   0  0  0  0  0  0  0  0  0 14  0  0
    1.9099    5.2840   -1.0075 C   0  0  0  0  0  0  0  0  0 15  0  0
    2.6636    4.4297   -2.0755 C   0  0  0  0  0  0  0  0  0 16  0  0
    2.7041    2.9302   -1.7261 C   0  0  0  0  0  0  0  0  0 17  0  0
    0.1373   -1.1538   -0.0128 C   0  0  0  0  0  0  0  0  0 18  0  0
   -0.3017   -2.1883   -0.5280 O   0  0  0  0  0  0  0  0  0 19  0  0
   -0.7518   -0.1471    0.2849 O   0  0  0  0  0  0  0  0  0 20  0  0
   -2.0729   -0.5634   -0.0697 C   0  0  0  0  0  0  0  0  0 21  0  0
   -3.0487    0.6114    0.1109 C   0  0  0  0  0  0  0  0  0 22  0  0
   -2.6303    1.7736   -0.8142 C   0  0  0  0  0  0  0  0  0 23  0  0
   -2.6619    1.3118   -2.2860 C   0  0  0  0  0  0  0  0  0 24  0  0
 23 24  1  0
 22 23  1  0
 21 22  1  0
 20 21  1  0
 18 20  1  0
 18 19  2  0
  4 18  1  0
 16 17  1  0
 15 16  1  0
 14 15  1  0
 13 14  1  0
 11 13  1  0
 11 12  2  0
 10 11  1  0
  9 10  1  0
  7  9  1  0
  7  8  2  0
  5  7  1  0
  6  1  4  0
  5  6  4  0
  4  5  4  0
  3  4  4  0
  2  3  4  0
  1  2  4  0
M  END
> <Name>
2-Butoxy-2-oxoethyl butyl phthalate

> <CAS RN>
000085-70-1

> <Log Koc>
3.7

> <VP-0>
14.2086

> <nAromBond>
6

> <MAXDP>
5.09657

> <nHBAcc>
6

> <Splitting>
1

$$$$
Carbazole
  SciTegic01221513273D

 14 16  0  0  0  0            999 V2000
    1.9745    2.0259    3.2289 C   0  0  0  0  0  0  0  0  0  1  0  0
    2.9099    1.5589    2.2978 C   0  0  0  0  0  0  0  0  0  2  0  0
    2.5217    1.1774    1.0134 C   0  0  0  0  0  0  0  0  0  3  0  0
    1.1732    1.2874    0.7198 C   0  0  0  0  0  0  0  0  0  4  0  0
    0.2468    1.7463    1.6311 C   0  0  0  0  0  0  0  0  0  5  0  0
    0.6197    2.1281    2.9094 C   0  0  0  0  0  0  0  0  0  6  0  0
   -0.9624    1.7428    1.0711 N   0  0  0  0  0  0  0  0  0  7  0  0
   -1.8070    2.0263    1.5103 H   0  0  0  0  0  0  0  0  0  8  0  0
   -0.8460    1.2944   -0.1784 C   0  0  0  0  0  0  0  0  0  9  0  0
    0.4752    0.9987   -0.4360 C   0  0  0  0  0  0  0  0  0 10  0  0
    0.9092    0.5105   -1.6567 C   0  0  0  0  0  0  0  0  0 11  0  0
   -0.0687    0.3270   -2.6343 C   0  0  0  0  0  0  0  0  0 12  0  0
   -1.4128    0.6250   -2.3800 C   0  0  0  0  0  0  0  0  0 13  0  0
   -1.8263    1.1165   -1.1408 C   0  0  0  0  0  0  0  0  0 14  0  0
 14  9  4  0
 13 14  4  0
 12 13  4  0
 11 12  4  0
 10 11  4  0
 10  4  4  0
  9 10  4  0
  7  9  4  0
  7  8  1  0
  5  7  4  0
  6  1  4  0
  5  6  4  0
  4  5  4  0
  3  4  4  0
  2  3  4  0
  1  2  4  0
M  END
> <Name>
Carbazole

> <CAS RN>
000086-74-8

> <Log Koc>
3.68

> <VP-0>
7.1188

> <nAromBond>
15

> <MAXDP>
0.877963

> <nHBAcc>
1

> <Splitting>
1

$$$$
1-Naphthalene acetamide
  SciTegic01221513273D

 14 15  0  0  0  0            999 V2000
   -1.0379    5.1721    2.1356 O   0  0  0  0  0  0  0  0  0  1  0  0
   -0.8931    4.3060    1.2660 C   0  0  0  0  0  0  0  0  0  2  0  0
   -1.6282    2.9958    1.3806 C   0  0  0  0  0  0  0  0  0  3  0  0
   -1.2915    2.1095    0.2101 C   0  0  0  0  0  0  0  0  0  4  0  0
   -0.1701    1.2849    0.2429 C   0  0  0  0  0  0  0  0  0  5  0  0
    0.1259    0.4734   -0.8478 C   0  0  0  0  0  0  0  0  0  6  0  0
   -0.6970    0.4839   -1.9683 C   0  0  0  0  0  0  0  0  0  7  0  0
   -1.8174    1.3052   -1.9998 C   0  0  0  0  0  0  0  0  0  8  0  0
   -2.1141    2.1169   -0.9112 C   0  0  0  0  0  0  0  0  0  9  0  0
    1.2448   -0.3506   -0.8207 C   0  0  0  0  0  0  0  0  0 10  0  0
    2.0711   -0.3662    0.2971 C   0  0  0  0  0  0  0  0  0 11  0  0
    1.7771    0.4425    1.3887 C   0  0  0  0  0  0  0  0  0 12  0  0
    0.6581    1.2661    1.3612 C   0  0  0  0  0  0  0  0  0 13  0  0
   -0.0378    4.5383    0.1859 N   0  0  0  0  0  0  0  0  0 14  0  0
  2 14  1  0
 13  5  4  0
 12 13  4  0
 11 12  4  0
 10 11  4  0
  6 10  4  0
  9  4  4  0
  8  9  4  0
  7  8  4  0
  6  7  4  0
  5  6  4  0
  4  5  4  0
  3  4  1  0
  2  3  1  0
  1  2  2  0
M  END
> <Name>
1-Naphthalene acetamide

> <CAS RN>
000086-86-2

> <Log Koc>
2

> <VP-0>
7.73416

> <nAromBond>
11

> <MAXDP>
3.83462

> <nHBAcc>
2

> <Splitting>
1

$$$$
1-Naphthol
  SciTegic01221513273D

 11 12  0  0  0  0            999 V2000
   -0.2278    3.1115    0.2926 C   0  0  0  0  0  0  0  0  0  1  0  0
   -1.2511    3.2098    1.2284 C   0  0  0  0  0  0  0  0  0  2  0  0
   -1.7008    2.0723    1.8896 C   0  0  0  0  0  0  0  0  0  3  0  0
   -1.1273    0.8358    1.6154 C   0  0  0  0  0  0  0  0  0  4  0  0
   -0.1040    0.7372    0.6797 C   0  0  0  0  0  0  0  0  0  5  0  0
    0.3456    1.8752    0.0184 C   0  0  0  0  0  0  0  0  0  6  0  0
    1.3687    1.7768   -0.9171 C   0  0  0  0  0  0  0  0  0  7  0  0
    1.9428    0.5409   -1.1920 C   0  0  0  0  0  0  0  0  0  8  0  0
    1.4933   -0.5968   -0.5310 C   0  0  0  0  0  0  0  0  0  9  0  0
    0.4699   -0.4987    0.4049 C   0  0  0  0  0  0  0  0  0 10  0  0
    1.8172    2.9150   -1.5774 O   0  0  0  0  0  0  0  0  0 11  0  0
  7 11  1  0
 10  5  4  0
  9 10  4  0
  8  9  4  0
  7  8  4  0
  6  7  4  0
  6  1  4  0
  5  6  4  0
  4  5  4  0
  3  4  4  0
  2  3  4  0
  1  2  4  0
M  END
> <Name>
1-Naphthol

> <CAS RN>
000090-15-3

> <Log Koc>
3.03

> <VP-0>
5.98867

> <nAromBond>
11

> <MAXDP>
3.3712

> <nHBAcc>
0

> <Splitting>
1

$$$$
2,4,5-Trichlorophenol
  SciTegic01221513273D

 10 10  0  0  0  0            999 V2000
    0.2211    1.4597    1.1022 C   0  0  0  0  0  0  0  0  0  1  0  0
    0.7840    2.2718    0.1242 C   0  0  0  0  0  0  0  0  0  2  0  0
    1.3757    1.7018   -0.9973 C   0  0  0  0  0  0  0  0  0  3  0  0
    1.9384    2.5150   -1.9749 O   0  0  0  0  0  0  0  0  0  4  0  0
    1.4050    0.3193   -1.1415 C   0  0  0  0  0  0  0  0  0  5  0  0
    0.8421   -0.4927   -0.1635 C   0  0  0  0  0  0  0  0  0  6  0  0
    0.2504    0.0773    0.9580 C   0  0  0  0  0  0  0  0  0  7  0  0
   -0.4486   -0.9332    2.1724 Cl  0  0  0  0  0  0  0  0  0  8  0  0
    0.8776   -2.2108   -0.3411 Cl  0  0  0  0  0  0  0  0  0  9  0  0
    0.7484    3.9898    0.3019 Cl  0  0  0  0  0  0  0  0  0 10  0  0
  2 10  1  0
  6  9  1  0
  7  8  1  0
  7  1  4  0
  6  7  4  0
  5  6  4  0
  3  5  4  0
  3  4  1  0
  2  3  4  0
  1  2  4  0
M  END
> <Name>
2,4,5-Trichlorophenol

> <CAS RN>
000095-95-4

> <Log Koc>
2.96

> <VP-0>
7.00359

> <nAromBond>
6

> <MAXDP>
3.30978

> <nHBAcc>
0

> <Splitting>
1

$$$$
1,2-Dibromo-3-chloropropane
  SciTegic01221513273D

  7  6  0  0  0  0            999 V2000
   -0.1652    0.0527   -0.2270 C   0  0  2  0  0  0  0  0  0  1  0  0
    0.8763   -0.1776    0.0411 H   0  0  0  0  0  0  0  0  0  2  0  0
   -0.3674    1.5784   -0.2335 C   0  0  0  0  0  0  0  0  0  3  0  0
    0.8285    2.3805   -1.5323 Br  0  0  0  0  0  0  0  0  0  4  0  0
   -1.1135   -0.5857    0.8035 C   0  0  0  0  0  0  0  0  0  5  0  0
   -0.7599    0.0635    2.4078 Cl  0  0  0  0  0  0  0  0  0  6  0  0
   -0.5513   -0.6575   -1.9902 Br  0  0  0  0  0  0  0  0  0  7  0  0
  1  7  1  0
  5  6  1  0
  1  5  1  0
  3  4  1  0
  1  3  1  0
  1  2  1  0
M  END
> <Name>
1,2-Dibromo-3-chloropropane

> <CAS RN>
000096-12-8

> <Log Koc>
1.98

> <VP-0>
7.05338

> <nAromBond>
0

> <MAXDP>
0.208462

> <nHBAcc>
0

> <Splitting>
1

$$$$
3,4-Dichloronitrobenzene
  SciTegic01221513273D

 11 11  0  0  0  0            999 V2000
   -1.7488    3.2392    1.0324 O   0  0  0  0  0  0  0  0  0  1  0  0
   -1.3968    1.9659    1.1247 N   0  0  0  0  0  0  0  0  0  2  0  0
   -0.2251    1.5218    0.5152 C   0  0  0  0  0  0  0  0  0  3  0  0
    0.5733    2.4157   -0.1893 C   0  0  0  0  0  0  0  0  0  4  0  0
    1.7422    1.9725   -0.7974 C   0  0  0  0  0  0  0  0  0  5  0  0
    2.1119    0.6357   -0.7005 C   0  0  0  0  0  0  0  0  0  6  0  0
    1.3132   -0.2577    0.0041 C   0  0  0  0  0  0  0  0  0  7  0  0
    0.1442    0.1851    0.6123 C   0  0  0  0  0  0  0  0  0  8  0  0
    1.7739   -1.9183    0.1236 Cl  0  0  0  0  0  0  0  0  0  9  0  0
    3.5644    0.0839   -1.4557 Cl  0  0  0  0  0  0  0  0  0 10  0  0
   -2.1571    1.1144    1.7957 O   0  0  0  0  0  0  0  0  0 11  0  0
  2 11  1  0
  6 10  1  0
  7  9  1  0
  8  3  4  0
  7  8  4  0
  6  7  4  0
  5  6  4  0
  4  5  4  0
  3  4  4  0
  2  3  1  0
  1  2  1  0
M  END
> <Name>
3,4-Dichloronitrobenzene

> <CAS RN>
000099-54-7

> <Log Koc>
2.53

> <VP-0>
6.61519

> <nAromBond>
6

> <MAXDP>
3.30153

> <nHBAcc>
0

> <Splitting>
1

$$$$
N-methylaniline
  SciTegic01221513273D

  8  8  0  0  0  0            999 V2000
   -1.1347    0.9561   -0.0006 C   0  0  0  0  0  0  0  0  0  1  0  0
   -0.4090    2.1420    0.0000 C   0  0  0  0  0  0  0  0  0  2  0  0
    0.9809    2.1066    0.0007 C   0  0  0  0  0  0  0  0  0  3  0  0
    1.6460    0.8857    0.0008 C   0  0  0  0  0  0  0  0  0  4  0  0
    0.9194   -0.3004    0.0001 C   0  0  0  0  0  0  0  0  0  5  0  0
   -0.4705   -0.2653   -0.0006 C   0  0  0  0  0  0  0  0  0  6  0  0
    3.0456    0.8561    0.0014 N   0  0  0  0  0  0  0  0  0  7  0  0
    3.7472   -0.3977    0.0015 C   0  0  0  0  0  0  0  0  0  8  0  0
  7  8  1  0
  4  7  1  0
  6  1  4  0
  5  6  4  0
  4  5  4  0
  3  4  4  0
  2  3  4  0
  1  2  4  0
M  END
> <Name>
N-methylaniline

> <CAS RN>
000100-61-8

> <Log Koc>
2.28

> <VP-0>
4.88675

> <nAromBond>
6

> <MAXDP>
0.526944

> <nHBAcc>
1

> <Splitting>
1

$$$$
Ethyl Phenylacetate
  SciTegic01221513273D

 12 12  0  0  0  0            999 V2000
    0.7149    5.7445   -0.0165 C   0  0  0  0  0  0  0  0  0  1  0  0
    1.4324    4.8568    1.0297 C   0  0  0  0  0  0  0  0  0  2  0  0
    1.1455    3.4647    0.7973 O   0  0  0  0  0  0  0  0  0  3  0  0
   -0.1658    3.1149    1.1809 C   0  0  0  0  0  0  0  0  0  4  0  0
   -0.8978    3.9593    1.7116 O   0  0  0  0  0  0  0  0  0  5  0  0
   -0.6937    1.6867    1.0396 C   0  0  0  0  0  0  0  0  0  6  0  0
    0.1012    0.7547    0.1245 C   0  0  0  0  0  0  0  0  0  7  0  0
    1.0453    1.2303   -0.7805 C   0  0  0  0  0  0  0  0  0  8  0  0
    1.7392    0.3514   -1.6040 C   0  0  0  0  0  0  0  0  0  9  0  0
    1.4898   -1.0135   -1.5290 C   0  0  0  0  0  0  0  0  0 10  0  0
    0.5443   -1.4947   -0.6311 C   0  0  0  0  0  0  0  0  0 11  0  0
   -0.1482   -0.6121    0.1901 C   0  0  0  0  0  0  0  0  0 12  0  0
 12  7  4  0
 11 12  4  0
 10 11  4  0
  9 10  4  0
  8  9  4  0
  7  8  4  0
  6  7  1  0
  4  6  1  0
  4  5  2  0
  3  4  1  0
  2  3  1  0
  1  2  1  0
M  END
> <Name>
Ethyl Phenylacetate

> <CAS RN>
000101-97-3

> <Log Koc>
1.89

> <VP-0>
7.11746

> <nAromBond>
6

> <MAXDP>
3.99024

> <nHBAcc>
2

> <Splitting>
1

$$$$
2-Propenal
  SciTegic01221513273D

  4  3  0  0  0  0            999 V2000
    1.2137   -0.1322   -0.0002 C   0  0  0  0  0  0  0  0  0  1  0  0
    1.8919    1.0134   -0.0005 C   0  0  0  0  0  0  0  0  0  2  0  0
   -0.2488   -0.1151    0.0006 C   0  0  0  0  0  0  0  0  0  3  0  0
   -0.8536    0.9630    0.0011 O   0  0  0  0  0  0  0  0  0  4  0  0
  3  4  2  0
  1  3  1  0
  1  2  2  0
M  END
> <Name>
2-Propenal

> <CAS RN>
000107-02-8

> <Log Koc>
-0.31

> <VP-0>
2.27006

> <nAromBond>
0

> <MAXDP>
2.05556

> <nHBAcc>
1

> <Splitting>
1

$$$$
m-Cresol
  SciTegic01221513273D

  8  8  0  0  0  0            999 V2000
   -0.9527    0.9496    0.0008 C   0  0  0  0  0  0  0  0  0  1  0  0
   -0.2585    2.1542    0.0013 C   0  0  0  0  0  0  0  0  0  2  0  0
    1.1319    2.1553    0.0006 C   0  0  0  0  0  0  0  0  0  3  0  0
    1.8280    0.9517   -0.0005 C   0  0  0  0  0  0  0  0  0  4  0  0
    1.1340   -0.2531   -0.0010 C   0  0  0  0  0  0  0  0  0  5  0  0
   -0.2563   -0.2539   -0.0004 C   0  0  0  0  0  0  0  0  0  6  0  0
   -0.9506   -1.4588   -0.0008 O   0  0  0  0  0  0  0  0  0  7  0  0
    3.3286    0.9528   -0.0013 C   0  0  0  0  0  0  0  0  0  8  0  0
  4  8  1  0
  6  7  1  0
  6  1  4  0
  5  6  4  0
  4  5  4  0
  3  4  4  0
  2  3  4  0
  1  2  4  0
M  END
> <Name>
m-Cresol

> <CAS RN>
000108-39-4

> <Log Koc>
1.54

> <VP-0>
4.75661

> <nAromBond>
6

> <MAXDP>
2.81306

> <nHBAcc>
0

> <Splitting>
1

$$$$
1-Hexanol
  SciTegic01221513273D

  7  6  0  0  0  0            999 V2000
    0.8257   -1.8110   -0.4979 C   0  0  0  0  0  0  0  0  0  1  0  0
    1.8866   -1.5031    0.5864 C   0  0  0  0  0  0  0  0  0  2  0  0
    1.7798   -0.0659    1.2226 C   0  0  0  0  0  0  0  0  0  3  0  0
    0.5488    0.1599    2.1843 C   0  0  0  0  0  0  0  0  0  4  0  0
   -0.8568    0.3154    1.5110 C   0  0  0  0  0  0  0  0  0  5  0  0
   -0.9733    1.6208    0.6713 C   0  0  0  0  0  0  0  0  0  6  0  0
   -0.0805    1.6112   -0.4463 O   0  0  0  0  0  0  0  0  0  7  0  0
  6  7  1  0
  5  6  1  0
  4  5  1  0
  3  4  1  0
  2  3  1  0
  1  2  1  0
M  END
> <Name>
1-Hexanol

> <CAS RN>
000111-27-3

> <Log Koc>
1.01

> <VP-0>
4.98275

> <nAromBond>
0

> <MAXDP>
2.29288

> <nHBAcc>
1

> <Splitting>
1

$$$$
1-Decanol
  SciTegic01221513273D

 11 10  0  0  0  0            999 V2000
   -1.9193   -0.2696   -0.3732 C   0  0  0  0  0  0  0  0  0  1  0  0
   -0.4364   -0.5612    0.0665 C   0  0  0  0  0  0  0  0  0  2  0  0
   -0.1623   -0.3859    1.5898 C   0  0  0  0  0  0  0  0  0  3  0  0
    1.3276   -0.6504    2.0265 C   0  0  0  0  0  0  0  0  0  4  0  0
    2.3641    0.4676    1.6122 C   0  0  0  0  0  0  0  0  0  5  0  0
    2.7587    0.4832    0.1065 C   0  0  0  0  0  0  0  0  0  6  0  0
    3.4940   -0.8230   -0.2806 C   0  0  0  0  0  0  0  0  0  7  0  0
    4.8151   -0.9429    0.5101 C   0  0  0  0  0  0  0  0  0  8  0  0
   -2.3308    1.2513   -0.4101 C   0  0  0  0  0  0  0  0  0  9  0  0
   -2.5129    1.9107    0.9795 C   0  0  0  0  0  0  0  0  0 10  0  0
   -2.8795    3.2819    0.8118 O   0  0  0  0  0  0  0  0  0 11  0  0
 10 11  1  0
  9 10  1  0
  1  9  1  0
  7  8  1  0
  6  7  1  0
  5  6  1  0
  4  5  1  0
  3  4  1  0
  2  3  1  0
  1  2  1  0
M  END
> <Name>
1-Decanol

> <CAS RN>
000112-30-1

> <Log Koc>
2.59

> <VP-0>
7.81117

> <nAromBond>
0

> <MAXDP>
2.50701

> <nHBAcc>
1

> <Splitting>
1

$$$$
Propoxur
  SciTegic01221513273D

 15 15  0  0  0  0            999 V2000
    0.5855    2.4913    0.3624 C   0  0  0  0  0  0  0  0  0  1  0  0
    1.1713    3.7480    0.4035 C   0  0  0  0  0  0  0  0  0  2  0  0
    2.5430    3.8609    0.2527 C   0  0  0  0  0  0  0  0  0  3  0  0
    3.3023    2.7152    0.0637 C   0  0  0  0  0  0  0  0  0  4  0  0
    2.7298    1.4462    0.0200 C   0  0  0  0  0  0  0  0  0  5  0  0
    1.3347    1.3314    0.1734 C   0  0  0  0  0  0  0  0  0  6  0  0
    0.6869    0.0527    0.1376 O   0  0  0  0  0  0  0  0  0  7  0  0
   -0.7381   -0.0533    0.2953 C   0  0  0  0  0  0  0  0  0  8  0  0
   -1.4870    0.9152    0.4676 O   0  0  0  0  0  0  0  0  0  9  0  0
   -1.3081   -1.3256    0.2510 N   0  0  0  0  0  0  0  0  0 10  0  0
   -2.7255   -1.4816    0.4034 C   0  0  0  0  0  0  0  0  0 11  0  0
    3.7137    0.3684   -0.1894 O   0  0  0  0  0  0  0  0  0 12  0  0
    3.3943   -1.0626   -0.2769 C   0  0  0  0  0  0  0  0  0 13  0  0
    2.5821   -1.4741   -1.5324 C   0  0  0  0  0  0  0  0  0 14  0  0
    2.8837   -1.6989    1.0421 C   0  0  0  0  0  0  0  0  0 15  0  0
 13 15  1  0
 13 14  1  0
 12 13  1  0
  5 12  1  0
 10 11  1  0
  8 10  1  0
  8  9  2  0
  7  8  1  0
  6  7  1  0
  6  1  4  0
  5  6  4  0
  4  5  4  0
  3  4  4  0
  2  3  4  0
  1  2  4  0
M  END
> <Name>
Propoxur

> <CAS RN>
000114-26-1

> <Log Koc>
1.45

> <VP-0>
9.1115

> <nAromBond>
6

> <MAXDP>
4.03033

> <nHBAcc>
2

> <Splitting>
1

$$$$
Di-2-ethylhexyl phthalate
  SciTegic01221513273D

 30 30  0  0  0  0            999 V2000
   -6.7962    1.4051   -6.2848 C   0  0  0  0  0  0  0  0  0  1  0  0
   -5.7434    2.2972   -5.5077 C   0  0  1  0  0  0  0  0  0  2  0  0
   -5.8055    3.3389   -5.8527 H   0  0  0  0  0  0  0  0  0  3  0  0
   -6.1288    2.2407   -4.0194 C   0  0  0  0  0  0  0  0  0  4  0  0
   -6.0827    0.8712   -3.5804 O   0  0  0  0  0  0  0  0  0  5  0  0
   -5.6186    0.4772   -2.2395 C   0  0  0  0  0  0  0  0  0  6  0  0
   -5.6498   -0.7372   -2.0722 O   0  0  0  0  0  0  0  0  0  7  0  0
   -5.0101    1.3908   -1.0930 C   0  0  0  0  0  0  0  0  0  8  0  0
   -4.4909    0.8710    0.1145 C   0  0  0  0  0  0  0  0  0  9  0  0
   -3.9119    1.7294    1.0446 C   0  0  0  0  0  0  0  0  0 10  0  0
   -3.8418    3.0982    0.8387 C   0  0  0  0  0  0  0  0  0 11  0  0
   -4.3592    3.6247   -0.3307 C   0  0  0  0  0  0  0  0  0 12  0  0
   -4.9209    2.7720   -1.2698 C   0  0  0  0  0  0  0  0  0 13  0  0
   -4.4818   -0.5689    0.5378 C   0  0  0  0  0  0  0  0  0 14  0  0
   -3.7201   -0.8907    1.4553 O   0  0  0  0  0  0  0  0  0 15  0  0
   -5.3698   -1.5133   -0.0018 O   0  0  0  0  0  0  0  0  0 16  0  0
   -5.2460   -2.8794    0.4809 C   0  0  0  0  0  0  0  0  0 17  0  0
   -5.4024   -3.1756    2.0289 C   0  0  1  0  0  0  0  0  0 18  0  0
   -4.6069   -2.6591    2.5805 H   0  0  0  0  0  0  0  0  0 19  0  0
   -6.7933   -2.8437    2.7197 C   0  0  0  0  0  0  0  0  0 20  0  0
   -7.1936   -1.3367    2.8556 C   0  0  0  0  0  0  0  0  0 21  0  0
   -7.8408   -0.7330    1.5972 C   0  0  0  0  0  0  0  0  0 22  0  0
   -8.1555    0.7508    1.8673 C   0  0  0  0  0  0  0  0  0 23  0  0
   -5.1943   -4.6986    2.1797 C   0  0  0  0  0  0  0  0  0 24  0  0
   -6.3019   -5.4632    1.4194 C   0  0  0  0  0  0  0  0  0 25  0  0
   -4.2368    1.8087   -5.5624 C   0  0  0  0  0  0  0  0  0 26  0  0
   -3.5300    1.8801   -6.9389 C   0  0  0  0  0  0  0  0  0 27  0  0
   -2.0680    1.4095   -6.7920 C   0  0  0  0  0  0  0  0  0 28  0  0
   -2.0324   -0.0435   -6.2782 C   0  0  0  0  0  0  0  0  0 29  0  0
   -6.6675    1.3898   -7.8293 C   0  0  0  0  0  0  0  0  0 30  0  0
  1 30  1  0
 28 29  1  0
 27 28  1  0
 26 27  1  0
  2 26  1  0
 24 25  1  0
 18 24  1  0
 22 23  1  0
 21 22  1  0
 20 21  1  0
 18 20  1  0
 18 19  1  0
 17 18  1  0
 16 17  1  0
 14 16  1  0
 14 15  2  0
  9 14  1  0
 13  8  4  0
 12 13  4  0
 11 12  4  0
 10 11  4  0
  9 10  4  0
  8  9  4  0
  6  8  1  0
  6  7  2  0
  5  6  1  0
  4  5  1  0
  2  4  1  0
  2  3  1  0
  1  2  1  0
M  END
> <Name>
Di-2-ethylhexyl phthalate

> <CAS RN>
000117-81-7

> <Log Koc>
4.97

> <VP-0>
18.1682

> <nAromBond>
6

> <MAXDP>
5.56978

> <nHBAcc>
4

> <Splitting>
1

$$$$
Benzophenone
  SciTegic01221513273D

 14 15  0  0  0  0            999 V2000
    2.1955    2.0684    4.4132 C   0  0  0  0  0  0  0  0  0  1  0  0
    1.2965    3.0750    4.0834 C   0  0  0  0  0  0  0  0  0  2  0  0
    0.6538    3.0574    2.8508 C   0  0  0  0  0  0  0  0  0  3  0  0
    0.8986    2.0392    1.9348 C   0  0  0  0  0  0  0  0  0  4  0  0
    1.8015    1.0349    2.2754 C   0  0  0  0  0  0  0  0  0  5  0  0
    2.4475    1.0467    3.5062 C   0  0  0  0  0  0  0  0  0  6  0  0
    0.1592    2.0955    0.6204 C   0  0  0  0  0  0  0  0  0  7  0  0
   -0.6123    3.0466    0.4550 O   0  0  0  0  0  0  0  0  0  8  0  0
    0.2700    1.1037   -0.5116 C   0  0  0  0  0  0  0  0  0  9  0  0
   -0.5014    1.3382   -1.6455 C   0  0  0  0  0  0  0  0  0 10  0  0
   -0.4539    0.4697   -2.7301 C   0  0  0  0  0  0  0  0  0 11  0  0
    0.3703   -0.6480   -2.6903 C   0  0  0  0  0  0  0  0  0 12  0  0
    1.1449   -0.8919   -1.5632 C   0  0  0  0  0  0  0  0  0 13  0  0
    1.0929   -0.0197   -0.4820 C   0  0  0  0  0  0  0  0  0 14  0  0
 14  9  4  0
 13 14  4  0
 12 13  4  0
 11 12  4  0
 10 11  4  0
  9 10  4  0
  7  9  1  0
  7  8  2  0
  4  7  1  0
  6  1  4  0
  5  6  4  0
  4  5  4  0
  3  4  4  0
  2  3  4  0
  1  2  4  0
M  END
> <Name>
Benzophenone

> <CAS RN>
000119-61-9

> <Log Koc>
2.67

> <VP-0>
7.68175

> <nAromBond>
12

> <MAXDP>
4.8463

> <nHBAcc>
1

> <Splitting>
1

$$$$
N,N-Dimethylaniline
  SciTegic01221513273D

  9  9  0  0  0  0            999 V2000
   -1.0249    1.2214   -0.3348 C   0  0  0  0  0  0  0  0  0  1  0  0
   -0.2987    2.3970   -0.1817 C   0  0  0  0  0  0  0  0  0  2  0  0
    1.0563    2.3417    0.1242 C   0  0  0  0  0  0  0  0  0  3  0  0
    1.6848    1.1109    0.2770 C   0  0  0  0  0  0  0  0  0  4  0  0
    0.9597   -0.0662    0.1241 C   0  0  0  0  0  0  0  0  0  5  0  0
   -0.3960   -0.0091   -0.1820 C   0  0  0  0  0  0  0  0  0  6  0  0
    1.5947   -1.3093    0.2785 N   0  0  0  0  0  0  0  0  0  7  0  0
    0.8472   -2.5262    0.1209 C   0  0  0  0  0  0  0  0  0  8  0  0
    2.9950   -1.3701    0.5946 C   0  0  0  0  0  0  0  0  0  9  0  0
  7  9  1  0
  7  8  1  0
  5  7  1  0
  6  1  4  0
  5  6  4  0
  4  5  4  0
  3  4  4  0
  2  3  4  0
  1  2  4  0
M  END
> <Name>
N,N-Dimethylaniline

> <CAS RN>
000121-69-7

> <Log Koc>
2.26

> <VP-0>
5.83396

> <nAromBond>
6

> <MAXDP>
0.0833333

> <nHBAcc>
1

> <Splitting>
1

$$$$
3,5-Dinitrobenzamide
  SciTegic01221513273D

 15 15  0  0  0  0            999 V2000
    2.6199   -1.1902    0.2021 C   0  0  0  0  0  0  0  0  0  1  0  0
    1.2405   -1.1932    0.0311 C   0  0  0  0  0  0  0  0  0  2  0  0
    0.5507    0.0096   -0.0648 C   0  0  0  0  0  0  0  0  0  3  0  0
    1.2390    1.2149    0.0101 C   0  0  0  0  0  0  0  0  0  4  0  0
    2.6184    1.2166    0.1811 C   0  0  0  0  0  0  0  0  0  5  0  0
    3.3095    0.0143    0.2772 C   0  0  0  0  0  0  0  0  0  6  0  0
    3.3087    2.4241    0.2563 N   0  0  0  0  0  0  0  0  0  7  0  0
    4.6228    2.4257    0.4192 O   0  0  0  0  0  0  0  0  0  8  0  0
    2.6500    3.5692    0.1647 O   0  0  0  0  0  0  0  0  0  9  0  0
   -0.8973    0.0070   -0.2443 C   0  0  0  0  0  0  0  0  0 10  0  0
   -1.5108    1.0766   -0.3297 O   0  0  0  0  0  0  0  0  0 11  0  0
   -1.5881   -1.2034   -0.3195 N   0  0  0  0  0  0  0  0  0 12  0  0
    3.3116   -2.3954    0.2984 N   0  0  0  0  0  0  0  0  0 13  0  0
    2.6543   -3.5427    0.2268 O   0  0  0  0  0  0  0  0  0 14  0  0
    4.6258   -2.3926    0.4613 O   0  0  0  0  0  0  0  0  0 15  0  0
 13 15  1  0
 13 14  1  0
  1 13  1  0
 10 12  1  0
 10 11  2  0
  3 10  1  0
  7  9  1  0
  7  8  1  0
  5  7  1  0
  6  1  4  0
  5  6  4  0
  4  5  4  0
  3  4  4  0
  2  3  4  0
  1  2  4  0
M  END
> <Name>
3,5-Dinitrobenzamide

> <CAS RN>
000121-81-3

> <Log Koc>
2.31

> <VP-0>
6.94836

> <nAromBond>
6

> <MAXDP>
3.72759

> <nHBAcc>
2

> <Splitting>
1

$$$$
Propham
  SciTegic01221513273D

 13 13  0  0  0  0            999 V2000
    1.7435    1.2989   -0.0664 C   0  0  0  0  0  0  0  0  0  1  0  0
    1.0584    2.4734    0.2312 C   0  0  0  0  0  0  0  0  0  2  0  0
    1.7393    3.6820    0.3228 C   0  0  0  0  0  0  0  0  0  3  0  0
    3.1131    3.7227    0.1168 C   0  0  0  0  0  0  0  0  0  4  0  0
    3.8026    2.5532   -0.1807 C   0  0  0  0  0  0  0  0  0  5  0  0
    3.1183    1.3463   -0.2716 C   0  0  0  0  0  0  0  0  0  6  0  0
    1.0837    0.0427   -0.1691 N   0  0  0  0  0  0  0  0  0  7  0  0
   -0.3094   -0.1630    0.0182 C   0  0  0  0  0  0  0  0  0  8  0  0
   -1.0594    0.7822    0.2943 O   0  0  0  0  0  0  0  0  0  9  0  0
   -0.8070   -1.4910   -0.1231 O   0  0  0  0  0  0  0  0  0 10  0  0
   -2.2420   -1.6619    0.0774 C   0  0  0  0  0  0  0  0  0 11  0  0
   -3.0851   -0.9011   -0.9754 C   0  0  0  0  0  0  0  0  0 12  0  0
   -2.6865   -1.3165    1.5200 C   0  0  0  0  0  0  0  0  0 13  0  0
 11 13  1  0
 11 12  1  0
 10 11  1  0
  8 10  1  0
  8  9  2  0
  7  8  1  0
  1  7  1  0
  6  1  4  0
  5  6  4  0
  4  5  4  0
  3  4  4  0
  2  3  4  0
  1  2  4  0
M  END
> <Name>
Propham

> <CAS RN>
000122-42-9

> <Log Koc>
1.77

> <VP-0>
7.7806

> <nAromBond>
6

> <MAXDP>
4.08954

> <nHBAcc>
3

> <Splitting>
1

$$$$
Thiram
  SciTegic01221513273D

 12 11  0  0  0  0            999 V2000
    1.2315    3.8111    0.4609 N   0  0  0  0  0  0  0  0  0  1  0  0
    2.3697    4.2307   -0.3046 C   0  0  0  0  0  0  0  0  0  2  0  0
    0.3639    4.7892    1.0517 C   0  0  0  0  0  0  0  0  0  3  0  0
    0.9675    2.4514    0.6297 C   0  0  0  0  0  0  0  0  0  4  0  0
   -0.2739    1.9939    1.4654 S   0  0  0  0  0  0  0  0  0  5  0  0
    2.0406    1.2439   -0.0985 S   0  0  0  0  0  0  0  0  0  6  0  0
    1.3027   -0.6612    0.2862 S   0  0  0  0  0  0  0  0  0  7  0  0
   -0.2597   -0.8668   -0.5236 C   0  0  0  0  0  0  0  0  0  8  0  0
   -0.8113    0.2591   -1.4597 S   0  0  0  0  0  0  0  0  0  9  0  0
   -0.9986   -2.0338   -0.3253 N   0  0  0  0  0  0  0  0  0 10  0  0
   -2.2646   -2.2014   -0.9792 C   0  0  0  0  0  0  0  0  0 11  0  0
   -0.4943   -3.0635    0.5366 C   0  0  0  0  0  0  0  0  0 12  0  0
 10 12  1  0
 10 11  1  0
  8 10  1  0
  8  9  2  0
  7  8  1  0
  6  7  1  0
  4  6  1  0
  4  5  2  0
  1  4  1  0
  1  3  1  0
  1  2  1  0
M  END
> <Name>
Thiram

> <CAS RN>
000137-26-8

> <Log Koc>
2.83

> <VP-0>
10.4639

> <nAromBond>
0

> <MAXDP>
0.4291

> <nHBAcc>
2

> <Splitting>
1

$$$$
Chrysene
  SciTegic01221513273D

 18 21  0  0  0  0            999 V2000
   -2.9882    4.9471    1.8450 C   0  0  0  0  0  0  0  0  0  1  0  0
   -2.2468    6.0203    1.3638 C   0  0  0  0  0  0  0  0  0  2  0  0
   -1.0664    5.7926    0.6657 C   0  0  0  0  0  0  0  0  0  3  0  0
   -0.6274    4.4916    0.4488 C   0  0  0  0  0  0  0  0  0  4  0  0
   -1.3688    3.4177    0.9299 C   0  0  0  0  0  0  0  0  0  5  0  0
   -2.5493    3.6460    1.6280 C   0  0  0  0  0  0  0  0  0  6  0  0
   -0.9290    2.1170    0.7124 C   0  0  0  0  0  0  0  0  0  7  0  0
    0.2521    1.8905    0.0138 C   0  0  0  0  0  0  0  0  0  8  0  0
    0.9925    2.9646   -0.4667 C   0  0  0  0  0  0  0  0  0  9  0  0
    0.5529    4.2651   -0.2494 C   0  0  0  0  0  0  0  0  0 10  0  0
    0.6919    0.5898   -0.2037 C   0  0  0  0  0  0  0  0  0 11  0  0
   -0.0494   -0.4841    0.2774 C   0  0  0  0  0  0  0  0  0 12  0  0
   -1.2298   -0.2576    0.9755 C   0  0  0  0  0  0  0  0  0 13  0  0
   -1.6694    1.0429    1.1929 C   0  0  0  0  0  0  0  0  0 14  0  0
    0.3895   -1.7851    0.0605 C   0  0  0  0  0  0  0  0  0 15  0  0
    1.5700   -2.0128   -0.6377 C   0  0  0  0  0  0  0  0  0 16  0  0
    2.3114   -0.9396   -1.1188 C   0  0  0  0  0  0  0  0  0 17  0  0
    1.8724    0.3615   -0.9018 C   0  0  0  0  0  0  0  0  0 18  0  0
 18 11  4  0
 17 18  4  0
 16 17  4  0
 15 16  4  0
 12 15  4  0
 14  7  4  0
 13 14  4  0
 12 13  4  0
 11 12  4  0
  8 11  4  0
 10  4  4  0
  9 10  4  0
  8  9  4  0
  7  8  4  0
  5  7  4  0
  6  1  4  0
  5  6  4  0
  4  5  4  0
  3  4  4  0
  2  3  4  0
  1  2  4  0
M  END
> <Name>
Chrysene

> <CAS RN>
000218-01-9

> <Log Koc>
5.5

> <VP-0>
9.9282

> <nAromBond>
21

> <MAXDP>
0.236111

> <nHBAcc>
0

> <Splitting>
1

$$$$
Dibenz[a,j]anthracene
  SciTegic01221513273D

 22 26  0  0  0  0            999 V2000
    0.0490    7.7923    0.5991 C   0  0  0  0  0  0  0  0  0  1  0  0
   -1.2496    7.4409    0.9497 C   0  0  0  0  0  0  0  0  0  2  0  0
   -1.6206    6.1018    0.9883 C   0  0  0  0  0  0  0  0  0  3  0  0
   -0.6929    5.1137    0.6763 C   0  0  0  0  0  0  0  0  0  4  0  0
    0.6057    5.4654    0.3257 C   0  0  0  0  0  0  0  0  0  5  0  0
    0.9766    6.8047    0.2871 C   0  0  0  0  0  0  0  0  0  6  0  0
   -1.0650    3.7750    0.7153 C   0  0  0  0  0  0  0  0  0  7  0  0
   -2.3643    3.4247    1.0662 C   0  0  0  0  0  0  0  0  0  8  0  0
   -3.2912    4.4125    1.3779 C   0  0  0  0  0  0  0  0  0  9  0  0
   -2.9193    5.7513    1.3390 C   0  0  0  0  0  0  0  0  0 10  0  0
   -2.7373    2.0864    1.1054 C   0  0  0  0  0  0  0  0  0 11  0  0
   -1.8110    1.0983    0.7937 C   0  0  0  0  0  0  0  0  0 12  0  0
   -0.5116    1.4482    0.4428 C   0  0  0  0  0  0  0  0  0 13  0  0
   -0.1390    2.7866    0.4037 C   0  0  0  0  0  0  0  0  0 14  0  0
    0.4141    0.4592    0.1313 C   0  0  0  0  0  0  0  0  0 15  0  0
    0.0399   -0.8797    0.1709 C   0  0  0  0  0  0  0  0  0 16  0  0
   -1.2590   -1.2292    0.5217 C   0  0  0  0  0  0  0  0  0 17  0  0
   -2.1846   -0.2400    0.8332 C   0  0  0  0  0  0  0  0  0 18  0  0
    0.9648   -1.8696   -0.1404 C   0  0  0  0  0  0  0  0  0 19  0  0
    2.2640   -1.5210   -0.4914 C   0  0  0  0  0  0  0  0  0 20  0  0
    2.6384   -0.1825   -0.5310 C   0  0  0  0  0  0  0  0  0 21  0  0
    1.7135    0.8076   -0.2197 C   0  0  0  0  0  0  0  0  0 22  0  0
 22 15  4  0
 21 22  4  0
 20 21  4  0
 19 20  4  0
 16 19  4  0
 18 12  4  0
 17 18  4  0
 16 17  4  0
 15 16  4  0
 13 15  4  0
 14  7  4  0
 13 14  4  0
 12 13  4  0
 11 12  4  0
  8 11  4  0
 10  3  4  0
  9 10  4  0
  8  9  4  0
  7  8  4  0
  4  7  4  0
  6  1  4  0
  5  6  4  0
  4  5  4  0
  3  4  4  0
  2  3  4  0
  1  2  4  0
M  END
> <Name>
Dibenz[a,j]anthracene

> <CAS RN>
000224-41-9

> <Log Koc>
6.02

> <VP-0>
12.0829

> <nAromBond>
26

> <MAXDP>
0.356481

> <nHBAcc>
0

> <Splitting>
1

$$$$
Benz[a]acridine
  SciTegic01221513273D

 18 21  0  0  0  0            999 V2000
   -0.9477    3.5723    0.2025 C   0  0  0  0  0  0  0  0  0  1  0  0
   -2.2526    3.3391    0.6210 C   0  0  0  0  0  0  0  0  0  2  0  0
   -2.6132    2.0875    1.1078 C   0  0  0  0  0  0  0  0  0  3  0  0
   -1.6695    1.0686    1.1765 C   0  0  0  0  0  0  0  0  0  4  0  0
   -0.3640    1.2998    0.7584 C   0  0  0  0  0  0  0  0  0  5  0  0
   -0.0060    2.5525    0.2719 C   0  0  0  0  0  0  0  0  0  6  0  0
    1.2988    2.7755   -0.1434 C   0  0  0  0  0  0  0  0  0  7  0  0
    2.2083    1.7310   -0.0577 C   0  0  0  0  0  0  0  0  0  8  0  0
    1.7910    0.5004    0.4376 C   0  0  0  0  0  0  0  0  0  9  0  0
    2.6954   -0.5515    0.5270 C   0  0  0  0  0  0  0  0  0 10  0  0
    4.0133   -0.3733    0.1222 C   0  0  0  0  0  0  0  0  0 11  0  0
    4.4285    0.8576   -0.3726 C   0  0  0  0  0  0  0  0  0 12  0  0
    3.5255    1.9113   -0.4629 C   0  0  0  0  0  0  0  0  0 13  0  0
    3.9409    3.1423   -0.9578 C   0  0  0  0  0  0  0  0  0 14  0  0
    5.2590    3.3195   -1.3624 C   0  0  0  0  0  0  0  0  0 15  0  0
    6.1617    2.2659   -1.2720 C   0  0  0  0  0  0  0  0  0 16  0  0
    5.7465    1.0348   -0.7771 C   0  0  0  0  0  0  0  0  0 17  0  0
    0.5328    0.3213    0.8269 N   0  0  0  0  0  0  0  0  0 18  0  0
 18  5  4  0
  9 18  4  0
 17 12  4  0
 16 17  4  0
 15 16  4  0
 14 15  4  0
 13 14  4  0
 13  8  4  0
 12 13  4  0
 11 12  4  0
 10 11  4  0
  9 10  4  0
  8  9  4  0
  7  8  4  0
  6  7  4  0
  6  1  4  0
  5  6  4  0
  4  5  4  0
  3  4  4  0
  2  3  4  0
  1  2  4  0
M  END
> <Name>
Benz[a]acridine

> <CAS RN>
000225-11-6

> <Log Koc>
4.39

> <VP-0>
9.79807

> <nAromBond>
21

> <MAXDP>
1.72782

> <nHBAcc>
1

> <Splitting>
1

$$$$
Phorate
  SciTegic01221513273D

 13 12  0  0  0  0            999 V2000
   -0.0197    3.0134   -1.6823 S   0  0  0  0  0  0  0  0  0  1  0  0
    1.2423    1.7185   -1.7405 C   0  0  0  0  0  0  0  0  0  2  0  0
    0.5274    0.1221   -1.2505 S   0  0  0  0  0  0  0  0  0  3  0  0
   -0.1032    0.1793    0.5818 P   0  0  0  0  0  0  0  0  0  4  0  0
   -1.2550    1.4373    0.7035 S   0  0  0  0  0  0  0  0  0  5  0  0
    1.1084    0.5198    1.5319 O   0  0  0  0  0  0  0  0  0  6  0  0
    2.3123   -0.2602    1.2576 C   0  0  0  0  0  0  0  0  0  7  0  0
    2.1718   -1.7553    1.6079 C   0  0  0  0  0  0  0  0  0  8  0  0
   -0.7547   -1.2228    0.9370 O   0  0  0  0  0  0  0  0  0  9  0  0
   -1.3268   -1.2964    2.2786 C   0  0  0  0  0  0  0  0  0 10  0  0
   -2.7578   -0.7169    2.3430 C   0  0  0  0  0  0  0  0  0 11  0  0
    0.7227    4.5963   -2.1446 C   0  0  0  0  0  0  0  0  0 12  0  0
    1.8575    4.9351   -1.1604 C   0  0  0  0  0  0  0  0  0 13  0  0
 12 13  1  0
  1 12  1  0
 10 11  1  0
  9 10  1  0
  4  9  1  0
  7  8  1  0
  6  7  1  0
  4  6  1  0
  4  5  2  0
  3  4  1  0
  2  3  1  0
  1  2  1  0
M  END
> <Name>
Phorate

> <CAS RN>
000298-02-2

> <Log Koc>
3.11

> <VP-0>
11.6608

> <nAromBond>
0

> <MAXDP>
2.5357

> <nHBAcc>
2

> <Splitting>
1

$$$$
Naled
  SciTegic01221513273D

 14 13  0  0  0  0            999 V2000
   -0.1501    4.8182   -1.6047 C   0  0  0  0  0  0  0  0  0  1  0  0
   -0.8747    3.7794   -0.9198 O   0  0  0  0  0  0  0  0  0  2  0  0
   -0.3828    2.3069   -1.2468 P   0  0  0  0  0  0  0  0  0  3  0  0
    0.9937    2.2441   -1.1676 O   0  0  0  0  0  0  0  0  0  4  0  0
   -0.8787    1.7700   -2.6544 O   0  0  0  0  0  0  0  0  0  5  0  0
   -0.1565    2.2983   -3.7849 C   0  0  0  0  0  0  0  0  0  6  0  0
   -0.9823    1.4029   -0.1201 O   0  0  0  0  0  0  0  0  0  7  0  0
   -0.4684    0.0520   -0.1469 C   0  0  1  0  0  0  0  0  0  8  0  0
    0.6280    0.0742   -0.0713 H   0  0  0  0  0  0  0  0  0  9  0  0
   -1.0421   -0.7054    1.0591 C   0  0  0  0  0  0  0  0  0 10  0  0
   -2.8041   -0.7422    0.9435 Cl  0  0  0  0  0  0  0  0  0 11  0  0
   -0.5647    0.1160    2.5480 Cl  0  0  0  0  0  0  0  0  0 12  0  0
   -0.3544   -2.5186    1.0686 Br  0  0  0  0  0  0  0  0  0 13  0  0
   -0.9978   -0.8955   -1.7587 Br  0  0  0  0  0  0  0  0  0 14  0  0
  8 14  1  0
 10 13  1  0
 10 12  1  0
 10 11  1  0
  8 10  1  0
  8  9  1  0
  7  8  1  0
  3  7  1  0
  5  6  1  0
  3  5  1  0
  3  4  2  0
  2  3  1  0
  1  2  1  0
M  END
> <Name>
Naled

> <CAS RN>
000300-76-5

> <Log Koc>
2.23

> <VP-0>
11.5772

> <nAromBond>
0

> <MAXDP>
4.7643

> <nHBAcc>
4

> <Splitting>
1

$$$$
alpha-HCH
  SciTegic01221513273D

 18 18  0  0  0  0            999 V2000
   -0.6003    0.1570    0.2462 C   0  0  0  0  0  0  0  0  0  1  0  0
   -0.7384    0.9371   -0.5151 H   0  0  0  0  0  0  0  0  0  2  0  0
   -0.3539    0.7093    1.7894 C   0  0  0  0  0  0  0  0  0  3  0  0
   -0.4055   -0.0893    2.5418 H   0  0  0  0  0  0  0  0  0  4  0  0
    1.1334    1.3999    2.0930 C   0  0  0  0  0  0  0  0  0  5  0  0
    1.0563    1.9879    3.0180 H   0  0  0  0  0  0  0  0  0  6  0  0
    1.4260    2.1085    0.8740 C   0  0  0  0  0  0  0  0  0  7  0  0
    2.3367    2.7230    0.8617 H   0  0  0  0  0  0  0  0  0  8  0  0
    1.6364    0.8643   -0.1949 C   0  0  0  0  0  0  0  0  0  9  0  0
    2.6250    0.3937   -0.1129 H   0  0  0  0  0  0  0  0  0 10  0  0
    0.6177   -0.4326   -0.0466 C   0  0  0  0  0  0  0  0  0 11  0  0
    0.8159   -1.0795    0.8209 H   0  0  0  0  0  0  0  0  0 12  0  0
    0.7315   -1.3766   -1.5335 Cl  0  0  0  0  0  0  0  0  0 13  0  0
    1.5095    1.6691   -1.7619 Cl  0  0  0  0  0  0  0  0  0 14  0  0
    0.0655    3.1928    0.5103 Cl  0  0  0  0  0  0  0  0  0 15  0  0
    2.4829    0.2479    2.2987 Cl  0  0  0  0  0  0  0  0  0 16  0  0
   -1.7404    1.7894    2.0526 Cl  0  0  0  0  0  0  0  0  0 17  0  0
   -2.0119   -0.9019    0.2786 Cl  0  0  0  0  0  0  0  0  0 18  0  0
  1 18  1  0
  3 17  1  0
  5 16  1  0
  7 15  1  0
  9 14  1  0
 11 13  1  0
 11  1  1  0
 11 12  1  0
  9 11  1  0
  9 10  1  0
  7  9  1  0
  7  8  1  0
  5  7  1  0
  5  6  1  0
  3  5  1  0
  3  4  1  0
  1  3  1  0
  1  2  1  0
M  END
> <Name>
alpha-HCH

> <CAS RN>
000319-84-6

> <Log Koc>
3.25

> <VP-0>
10.2675

> <nAromBond>
0

> <MAXDP>
0.00786694

> <nHBAcc>
0

> <Splitting>
1

$$$$
Diuron
  SciTegic01221513273D

 14 14  0  0  0  0            999 V2000
    2.6603    1.2076    0.2104 C   0  0  0  0  0  0  0  0  0  1  0  0
    1.2781    1.1182    0.0856 C   0  0  0  0  0  0  0  0  0  2  0  0
    0.5360    2.2761   -0.1284 C   0  0  0  0  0  0  0  0  0  3  0  0
    1.1682    3.5110   -0.2167 C   0  0  0  0  0  0  0  0  0  4  0  0
    2.5497    3.5936   -0.0913 C   0  0  0  0  0  0  0  0  0  5  0  0
    3.2958    2.4410    0.1223 C   0  0  0  0  0  0  0  0  0  6  0  0
    5.0134    2.5414    0.2783 Cl  0  0  0  0  0  0  0  0  0  7  0  0
    3.3390    5.1265   -0.2008 Cl  0  0  0  0  0  0  0  0  0  8  0  0
    0.6677   -0.1613    0.1817 N   0  0  0  0  0  0  0  0  0  9  0  0
   -0.7263   -0.4036    0.0629 C   0  0  0  0  0  0  0  0  0 10  0  0
   -1.5353    0.5086   -0.1411 O   0  0  0  0  0  0  0  0  0 11  0  0
   -1.1966   -1.7115    0.1795 N   0  0  0  0  0  0  0  0  0 12  0  0
   -2.6005   -1.9818    0.0623 C   0  0  0  0  0  0  0  0  0 13  0  0
   -0.2760   -2.7858    0.4170 C   0  0  0  0  0  0  0  0  0 14  0  0
 12 14  1  0
 12 13  1  0
 10 12  1  0
 10 11  2  0
  9 10  1  0
  2  9  1  0
  5  8  1  0
  6  7  1  0
  6  1  4  0
  5  6  4  0
  4  5  4  0
  3  4  4  0
  2  3  4  0
  1  2  4  0
M  END
> <Name>
Diuron

> <CAS RN>
000330-54-1

> <Log Koc>
2.5

> <VP-0>
9.3553

> <nAromBond>
6

> <MAXDP>
4.34685

> <nHBAcc>
3

> <Splitting>
1

$$$$
3-(4-Fluorophenyl)-1,1-dimethylurea
  SciTegic01221513273D

 13 13  0  0  0  0            999 V2000
    2.2472    3.4471    1.0338 C   0  0  0  0  0  0  0  0  0  1  0  0
    0.9664    4.0427    1.2997 N   0  0  0  0  0  0  0  0  0  2  0  0
    0.9673    5.3603    1.8666 C   0  0  0  0  0  0  0  0  0  3  0  0
   -0.3322    3.4073    1.1014 C   0  0  0  0  0  0  0  0  0  4  0  0
   -1.3037    4.0696    1.4828 O   0  0  0  0  0  0  0  0  0  5  0  0
   -0.6337    2.0410    0.6665 N   0  0  0  0  0  0  0  0  0  6  0  0
    0.1665    1.0553    0.0097 C   0  0  0  0  0  0  0  0  0  7  0  0
    1.0279    1.3795   -1.0350 C   0  0  0  0  0  0  0  0  0  8  0  0
    1.7628    0.3884   -1.6753 C   0  0  0  0  0  0  0  0  0  9  0  0
    1.6300   -0.9377   -1.2814 C   0  0  0  0  0  0  0  0  0 10  0  0
    0.7575   -1.2701   -0.2522 C   0  0  0  0  0  0  0  0  0 11  0  0
    0.0241   -0.2760    0.3856 C   0  0  0  0  0  0  0  0  0 12  0  0
    2.3384   -1.8950   -1.8969 F   0  0  0  0  0  0  0  0  0 13  0  0
 10 13  1  0
 12  7  4  0
 11 12  4  0
 10 11  4  0
  9 10  4  0
  8  9  4  0
  7  8  4  0
  6  7  1  0
  4  6  1  0
  4  5  2  0
  2  4  1  0
  2  3  1  0
  1  2  1  0
M  END
> <Name>
3-(4-Fluorophenyl)-1,1-dimethylurea

> <CAS RN>
000332-33-2

> <Log Koc>
1.43

> <VP-0>
7.54283

> <nAromBond>
6

> <MAXDP>
4.45955

> <nHBAcc>
3

> <Splitting>
1

$$$$
3-Fluoroacetanilide
  SciTegic01221513273D

 11 11  0  0  0  0            999 V2000
   -0.5173    4.1040    2.6229 C   0  0  0  0  0  0  0  0  0  1  0  0
   -0.2476    3.3600    1.3481 C   0  0  0  0  0  0  0  0  0  2  0  0
   -0.3792    3.9534    0.2715 O   0  0  0  0  0  0  0  0  0  3  0  0
    0.1287    2.0718    1.4169 N   0  0  0  0  0  0  0  0  0  4  0  0
    0.4193    1.2354    0.2992 C   0  0  0  0  0  0  0  0  0  5  0  0
    0.3372    1.6909   -1.0138 C   0  0  0  0  0  0  0  0  0  6  0  0
    0.6295    0.8413   -2.0745 C   0  0  0  0  0  0  0  0  0  7  0  0
    1.0068   -0.4732   -1.8279 C   0  0  0  0  0  0  0  0  0  8  0  0
    1.0907   -0.9340   -0.5195 C   0  0  0  0  0  0  0  0  0  9  0  0
    0.7976   -0.0813    0.5388 C   0  0  0  0  0  0  0  0  0 10  0  0
    1.4543   -2.2015   -0.2776 F   0  0  0  0  0  0  0  0  0 11  0  0
  9 11  1  0
 10  5  4  0
  9 10  4  0
  8  9  4  0
  7  8  4  0
  6  7  4  0
  5  6  4  0
  4  5  1  0
  2  4  1  0
  2  3  2  0
  1  2  1  0
M  END
> <Name>
3-Fluoroacetanilide

> <CAS RN>
000351-28-0

> <Log Koc>
1.57

> <VP-0>
6.09561

> <nAromBond>
6

> <MAXDP>
4.46628

> <nHBAcc>
2

> <Splitting>
1

$$$$
Auramine
  SciTegic01221513273D

 20 21  0  0  0  0            999 V2000
    2.5033    1.8630    3.7347 C   0  0  0  0  0  0  0  0  0  1  0  0
    1.9167    1.5865    2.5066 C   0  0  0  0  0  0  0  0  0  2  0  0
    0.8701    2.3641    2.0204 C   0  0  0  0  0  0  0  0  0  3  0  0
    0.4142    3.4281    2.7935 C   0  0  0  0  0  0  0  0  0  4  0  0
    1.0004    3.7144    4.0215 C   0  0  0  0  0  0  0  0  0  5  0  0
    2.0505    2.9337    4.4930 C   0  0  0  0  0  0  0  0  0  6  0  0
    2.6615    3.2284    5.7205 N   0  0  0  0  0  0  0  0  0  7  0  0
    3.7393    2.4081    6.2025 C   0  0  0  0  0  0  0  0  0  8  0  0
    2.2430    4.3722    6.4802 C   0  0  0  0  0  0  0  0  0  9  0  0
    0.2216    2.1446    0.6720 C   0  0  0  0  0  0  0  0  0 10  0  0
   -0.7359    2.9179    0.3568 N   0  0  0  0  0  0  0  0  0 11  0  0
    0.6901    1.1641   -0.3796 C   0  0  0  0  0  0  0  0  0 12  0  0
    0.0898    1.2231   -1.6342 C   0  0  0  0  0  0  0  0  0 13  0  0
    0.5069    0.3820   -2.6599 C   0  0  0  0  0  0  0  0  0 14  0  0
    1.5298   -0.5341   -2.4394 C   0  0  0  0  0  0  0  0  0 15  0  0
    2.1252   -0.6093   -1.1879 C   0  0  0  0  0  0  0  0  0 16  0  0
    1.7076    0.2382   -0.1699 C   0  0  0  0  0  0  0  0  0 17  0  0
    1.9708   -1.3716   -3.4744 N   0  0  0  0  0  0  0  0  0 18  0  0
    3.0189   -2.3250   -3.2308 C   0  0  0  0  0  0  0  0  0 19  0  0
    1.4082   -1.2529   -4.7897 C   0  0  0  0  0  0  0  0  0 20  0  0
 18 20  1  0
 18 19  1  0
 15 18  1  0
 17 12  4  0
 16 17  4  0
 15 16  4  0
 14 15  4  0
 13 14  4  0
 12 13  4  0
 10 12  1  0
 10 11  2  0
  3 10  1  0
  7  9  1  0
  7  8  1  0
  6  7  1  0
  6  1  4  0
  5  6  4  0
  4  5  4  0
  3  4  4  0
  2  3  4  0
  1  2  4  0
M  END
> <Name>
Auramine

> <CAS RN>
000492-80-8

> <Log Koc>
3.31

> <VP-0>
12.5132

> <nAromBond>
12

> <MAXDP>
3.29921

> <nHBAcc>
3

> <Splitting>
1

$$$$
1,2,3-Trimethylbenzene
  SciTegic01221513273D

  9  9  0  0  0  0            999 V2000
   -0.7912    1.0372    0.0002 C   0  0  0  0  0  0  0  0  0  1  0  0
   -0.0949    2.2406   -0.0006 C   0  0  0  0  0  0  0  0  0  2  0  0
    1.2951    2.2409   -0.0011 C   0  0  0  0  0  0  0  0  0  3  0  0
    1.9895    1.0368   -0.0009 C   0  0  0  0  0  0  0  0  0  4  0  0
    1.2951   -0.1677   -0.0001 C   0  0  0  0  0  0  0  0  0  5  0  0
   -0.0967   -0.1690    0.0005 C   0  0  0  0  0  0  0  0  0  6  0  0
   -0.8503   -1.4738    0.0013 C   0  0  0  0  0  0  0  0  0  7  0  0
    2.0548   -1.4651    0.0002 C   0  0  0  0  0  0  0  0  0  8  0  0
   -2.2946    1.0468    0.0008 C   0  0  0  0  0  0  0  0  0  9  0  0
  1  9  1  0
  5  8  1  0
  6  7  1  0
  6  1  4  0
  5  6  4  0
  4  5  4  0
  3  4  4  0
  2  3  4  0
  1  2  4  0
M  END
> <Name>
1,2,3-Trimethylbenzene

> <CAS RN>
000526-73-8

> <Log Koc>
2.8

> <VP-0>
6.23205

> <nAromBond>
6

> <MAXDP>
0.157407

> <nHBAcc>
0

> <Splitting>
1

$$$$
Ethyl pentanoate
  SciTegic01221513273D

  9  8  0  0  0  0            999 V2000
    0.6835    2.9223   -1.4525 C   0  0  0  0  0  0  0  0  0  1  0  0
    0.9380    2.5485    0.0229 C   0  0  0  0  0  0  0  0  0  2  0  0
    1.8792    1.3193    0.1037 C   0  0  0  0  0  0  0  0  0  3  0  0
    1.2396    0.0799   -0.5749 C   0  0  0  0  0  0  0  0  0  4  0  0
    0.0227   -0.4051    0.1819 C   0  0  0  0  0  0  0  0  0  5  0  0
   -0.2742    0.0995    1.2727 O   0  0  0  0  0  0  0  0  0  6  0  0
   -0.7359   -1.4628   -0.3504 O   0  0  0  0  0  0  0  0  0  7  0  0
   -1.8624   -1.7991    0.4832 C   0  0  0  0  0  0  0  0  0  8  0  0
   -2.9663   -0.7168    0.3791 C   0  0  0  0  0  0  0  0  0  9  0  0
  8  9  1  0
  7  8  1  0
  5  7  1  0
  5  6  2  0
  4  5  1  0
  3  4  1  0
  2  3  1  0
  1  2  1  0
M  END
> <Name>
Ethyl pentanoate

> <CAS RN>
000539-82-2

> <Log Koc>
1.97

> <VP-0>
6.14492

> <nAromBond>
0

> <MAXDP>
3.57972

> <nHBAcc>
2

> <Splitting>
1

$$$$
1,3-Dichlorobenzene
  SciTegic01221513273D

  8  8  0  0  0  0            999 V2000
   -1.0305    0.8660   -0.0001 C   0  0  0  0  0  0  0  0  0  1  0  0
   -0.3353    2.0701    0.0002 C   0  0  0  0  0  0  0  0  0  2  0  0
    1.0552    2.0700    0.0010 C   0  0  0  0  0  0  0  0  0  3  0  0
    1.7505    0.8660    0.0013 C   0  0  0  0  0  0  0  0  0  4  0  0
    1.0552   -0.3379    0.0010 C   0  0  0  0  0  0  0  0  0  5  0  0
   -0.3353   -0.3380    0.0003 C   0  0  0  0  0  0  0  0  0  6  0  0
    1.9190   -1.8342    0.0015 Cl  0  0  0  0  0  0  0  0  0  7  0  0
    1.9191    3.5663    0.0014 Cl  0  0  0  0  0  0  0  0  0  8  0  0
  3  8  1  0
  5  7  1  0
  6  1  4  0
  5  6  4  0
  4  5  4  0
  3  4  4  0
  2  3  4  0
  1  2  4  0
M  END
> <Name>
1,3-Dichlorobenzene

> <CAS RN>
000541-73-1

> <Log Koc>
2.48

> <VP-0>
5.57719

> <nAromBond>
6

> <MAXDP>
0.312071

> <nHBAcc>
0

> <Splitting>
1

$$$$
2,4-Dichloroaniline
  SciTegic01221513273D

  9  9  0  0  0  0            999 V2000
   -0.7856    0.8360    0.0004 C   0  0  0  0  0  0  0  0  0  1  0  0
   -0.0892    2.0392    0.0005 C   0  0  0  0  0  0  0  0  0  2  0  0
    1.3011    2.0370    0.0006 C   0  0  0  0  0  0  0  0  0  3  0  0
    1.9949    0.8320    0.0006 C   0  0  0  0  0  0  0  0  0  4  0  0
    1.2983   -0.3712    0.0005 C   0  0  0  0  0  0  0  0  0  5  0  0
   -0.0921   -0.3689    0.0004 C   0  0  0  0  0  0  0  0  0  6  0  0
   -0.7921   -1.5762    0.0003 N   0  0  0  0  0  0  0  0  0  7  0  0
    2.1670    3.5321    0.0007 Cl  0  0  0  0  0  0  0  0  0  8  0  0
   -2.5131    0.8373    0.0003 Cl  0  0  0  0  0  0  0  0  0  9  0  0
  1  9  1  0
  3  8  1  0
  6  7  1  0
  6  1  4  0
  5  6  4  0
  4  5  4  0
  3  4  4  0
  2  3  4  0
  1  2  4  0
M  END
> <Name>
2,4-Dichloroaniline

> <CAS RN>
000554-00-7

> <Log Koc>
2.72

> <VP-0>
6.07719

> <nAromBond>
6

> <MAXDP>
1.64777

> <nHBAcc>
1

> <Splitting>
1

$$$$
2-Chlorobenzamide
  SciTegic01221513273D

 10 10  0  0  0  0            999 V2000
    3.0248    1.3183    0.0012 C   0  0  0  0  0  0  0  0  0  1  0  0
    3.7357    0.1249    0.0013 C   0  0  0  0  0  0  0  0  0  2  0  0
    3.0539   -1.0860    0.0008 C   0  0  0  0  0  0  0  0  0  3  0  0
    1.6633   -1.1114    0.0003 C   0  0  0  0  0  0  0  0  0  4  0  0
    0.9482    0.0868    0.0002 C   0  0  0  0  0  0  0  0  0  5  0  0
    1.6353    1.2962    0.0007 C   0  0  0  0  0  0  0  0  0  6  0  0
   -0.5284    0.1213   -0.0003 C   0  0  0  0  0  0  0  0  0  7  0  0
   -1.1052    1.2144   -0.0004 O   0  0  0  0  0  0  0  0  0  8  0  0
   -1.2866   -1.0489   -0.0008 N   0  0  0  0  0  0  0  0  0  9  0  0
    0.8617   -2.6455   -0.0003 Cl  0  0  0  0  0  0  0  0  0 10  0  0
  4 10  1  0
  7  9  1  0
  7  8  2  0
  5  7  1  0
  6  1  4  0
  5  6  4  0
  4  5  4  0
  3  4  4  0
  2  3  4  0
  1  2  4  0
M  END
> <Name>
2-Chlorobenzamide

> <CAS RN>
000609-66-5

> <Log Koc>
1.51

> <VP-0>
5.92889

> <nAromBond>
6

> <MAXDP>
3.67015

> <nHBAcc>
2

> <Splitting>
1

$$$$
Ethyl 3,5-dinitrobenzoate
  SciTegic01221513273D

 17 17  0  0  0  0            999 V2000
    3.5251    0.0306    0.2277 C   0  0  0  0  0  0  0  0  0  1  0  0
    2.7989   -1.1542    0.1987 C   0  0  0  0  0  0  0  0  0  2  0  0
    1.4098   -1.1187    0.1628 C   0  0  0  0  0  0  0  0  0  3  0  0
    0.7473    0.1031    0.1560 C   0  0  0  0  0  0  0  0  0  4  0  0
    1.4720    1.2887    0.1850 C   0  0  0  0  0  0  0  0  0  5  0  0
    2.8610    1.2518    0.2208 C   0  0  0  0  0  0  0  0  0  6  0  0
    3.5881    2.4396    0.2499 N   0  0  0  0  0  0  0  0  0  7  0  0
    4.9114    2.4044    0.2840 O   0  0  0  0  0  0  0  0  0  8  0  0
    2.9552    3.6027    0.2433 O   0  0  0  0  0  0  0  0  0  9  0  0
   -0.7094    0.1409    0.1183 C   0  0  0  0  0  0  0  0  0 10  0  0
   -1.2894    1.2336    0.1217 O   0  0  0  0  0  0  0  0  0 11  0  0
   -1.4305   -1.0663    0.0999 O   0  0  0  0  0  0  0  0  0 12  0  0
   -2.8543   -0.8509    0.0448 C   0  0  0  0  0  0  0  0  0 13  0  0
   -3.2830   -0.3643   -1.3620 C   0  0  0  0  0  0  0  0  0 14  0  0
    3.4636   -2.3783    0.2055 N   0  0  0  0  0  0  0  0  0 15  0  0
    2.7714   -3.5069    0.1779 O   0  0  0  0  0  0  0  0  0 16  0  0
    4.7869   -2.4123    0.2397 O   0  0  0  0  0  0  0  0  0 17  0  0
 15 17  1  0
 15 16  1  0
  2 15  1  0
 13 14  1  0
 12 13  1  0
 10 12  1  0
 10 11  2  0
  4 10  1  0
  7  9  1  0
  7  8  1  0
  6  7  1  0
  6  1  4  0
  5  6  4  0
  4  5  4  0
  3  4  4  0
  2  3  4  0
  1  2  4  0
M  END
> <Name>
Ethyl 3,5-dinitrobenzoate

> <CAS RN>
000618-71-3

> <Log Koc>
2.74

> <VP-0>
8.48636

> <nAromBond>
6

> <MAXDP>
4.3269

> <nHBAcc>
2

> <Splitting>
1

$$$$
2,3,4,5-Tetrachloroaniline
  SciTegic01221513273D

 11 11  0  0  0  0            999 V2000
   -2.3874    1.7982   -0.0540 Cl  0  0  0  0  0  0  0  0  0  1  0  0
   -0.7142    1.3838    0.0589 C   0  0  0  0  0  0  0  0  0  2  0  0
    0.2043    2.3190    0.5221 C   0  0  0  0  0  0  0  0  0  3  0  0
    1.5507    1.9843    0.6125 C   0  0  0  0  0  0  0  0  0  4  0  0
    2.4735    2.9221    1.0773 N   0  0  0  0  0  0  0  0  0  5  0  0
    1.9782    0.7151    0.2398 C   0  0  0  0  0  0  0  0  0  6  0  0
    1.0596   -0.2198   -0.2234 C   0  0  0  0  0  0  0  0  0  7  0  0
   -0.2866    0.1146   -0.3138 C   0  0  0  0  0  0  0  0  0  8  0  0
   -1.4281   -1.0469   -0.8892 Cl  0  0  0  0  0  0  0  0  0  9  0  0
    1.5908   -1.7967   -0.6864 Cl  0  0  0  0  0  0  0  0  0 10  0  0
    3.6510    0.2995    0.3521 Cl  0  0  0  0  0  0  0  0  0 11  0  0
  6 11  1  0
  7 10  1  0
  8  9  1  0
  8  2  4  0
  7  8  4  0
  6  7  4  0
  4  6  4  0
  4  5  1  0
  3  4  4  0
  2  3  4  0
  1  2  1  0
M  END
> <Name>
2,3,4,5-Tetrachloroaniline

> <CAS RN>
000634-83-3

> <Log Koc>
3.04

> <VP-0>
8.19027

> <nAromBond>
6

> <MAXDP>
1.90179

> <nHBAcc>
1

> <Splitting>
1

$$$$
3-Nitrobenzamide
  SciTegic01221513273D

 12 12  0  0  0  0            999 V2000
   -1.6210    1.2776    1.4112 C   0  0  0  0  0  0  0  0  0  1  0  0
   -1.9534    2.4282    1.7169 O   0  0  0  0  0  0  0  0  0  2  0  0
   -0.3492    1.0416    0.7355 C   0  0  0  0  0  0  0  0  0  3  0  0
    0.4869    2.1110    0.4366 C   0  0  0  0  0  0  0  0  0  4  0  0
    1.6981    1.8855   -0.2070 C   0  0  0  0  0  0  0  0  0  5  0  0
    2.0734    0.5920   -0.5515 C   0  0  0  0  0  0  0  0  0  6  0  0
    1.2367   -0.4772   -0.2522 C   0  0  0  0  0  0  0  0  0  7  0  0
    0.0251   -0.2524    0.3915 C   0  0  0  0  0  0  0  0  0  8  0  0
    2.5364    2.9571   -0.5069 N   0  0  0  0  0  0  0  0  0  9  0  0
    3.6904    2.7428   -1.1200 O   0  0  0  0  0  0  0  0  0 10  0  0
    2.1783    4.1889   -0.1784 O   0  0  0  0  0  0  0  0  0 11  0  0
   -2.4607    0.2040    1.7115 N   0  0  0  0  0  0  0  0  0 12  0  0
  1 12  1  0
  9 11  1  0
  9 10  1  0
  5  9  1  0
  8  3  4  0
  7  8  4  0
  6  7  4  0
  5  6  4  0
  4  5  4  0
  3  4  4  0
  1  3  1  0
  1  2  2  0
M  END
> <Name>
3-Nitrobenzamide

> <CAS RN>
000645-09-0

> <Log Koc>
1.95

> <VP-0>
5.91035

> <nAromBond>
6

> <MAXDP>
3.57537

> <nHBAcc>
2

> <Splitting>
1

$$$$
4-Fluorophenylurea
  SciTegic01221513273D

 11 11  0  0  0  0            999 V2000
    2.4833    3.4823    0.0002 C   0  0  0  0  0  0  0  0  0  1  0  0
    3.2961    2.3550    0.0001 C   0  0  0  0  0  0  0  0  0  2  0  0
    2.7258    1.0871    0.0000 C   0  0  0  0  0  0  0  0  0  3  0  0
    1.3430    0.9373    0.0000 C   0  0  0  0  0  0  0  0  0  4  0  0
    0.5342    2.0701    0.0001 C   0  0  0  0  0  0  0  0  0  5  0  0
    1.1009    3.3394    0.0002 C   0  0  0  0  0  0  0  0  0  6  0  0
    0.8006   -0.3768    0.0000 N   0  0  0  0  0  0  0  0  0  7  0  0
   -0.5874   -0.6797    0.0000 C   0  0  0  0  0  0  0  0  0  8  0  0
   -1.4510    0.2049    0.0001 O   0  0  0  0  0  0  0  0  0  9  0  0
   -0.9880   -2.0169   -0.0001 N   0  0  0  0  0  0  0  0  0 10  0  0
    3.0318    4.7056    0.0002 F   0  0  0  0  0  0  0  0  0 11  0  0
  1 11  1  0
  8 10  1  0
  8  9  2  0
  7  8  1  0
  4  7  1  0
  6  1  4  0
  5  6  4  0
  4  5  4  0
  3  4  4  0
  2  3  4  0
  1  2  4  0
M  END
> <Name>
4-Fluorophenylurea

> <CAS RN>
000659-30-3

> <Log Koc>
1.52

> <VP-0>
5.67296

> <nAromBond>
6

> <MAXDP>
4.28015

> <nHBAcc>
3

> <Splitting>
1

$$$$
Diethylacetamide
  SciTegic01221513273D

  8  7  0  0  0  0            999 V2000
   -0.1115   -1.1220    0.5858 O   0  0  0  0  0  0  0  0  0  1  0  0
    0.8193   -0.3219    0.4401 C   0  0  0  0  0  0  0  0  0  2  0  0
    1.6526    0.0685    1.6362 C   0  0  0  0  0  0  0  0  0  3  0  0
    1.1134    0.1689   -0.8518 N   0  0  0  0  0  0  0  0  0  4  0  0
    2.2087    1.1085   -1.0564 C   0  0  0  0  0  0  0  0  0  5  0  0
    1.7100    2.5804   -0.9383 C   0  0  0  0  0  0  0  0  0  6  0  0
    0.3114   -0.3072   -1.9707 C   0  0  0  0  0  0  0  0  0  7  0  0
    0.9534    0.0205   -3.3416 C   0  0  0  0  0  0  0  0  0  8  0  0
  7  8  1  0
  4  7  1  0
  5  6  1  0
  4  5  1  0
  2  4  1  0
  2  3  1  0
  1  2  2  0
M  END
> <Name>
Diethylacetamide

> <CAS RN>
000685-91-6

> <Log Koc>
1.84

> <VP-0>
5.76968

> <nAromBond>
0

> <MAXDP>
3.53194

> <nHBAcc>
2

> <Splitting>
1

$$$$
Ametryn
  SciTegic01221513273D

 15 15  0  0  0  0            999 V2000
   -0.9196    0.8285   -0.1039 N   0  0  0  0  0  0  0  0  0  1  0  0
   -0.1846    1.9288   -0.0088 C   0  0  0  0  0  0  0  0  0  2  0  0
    1.1393    1.8299    0.0200 N   0  0  0  0  0  0  0  0  0  3  0  0
    1.7248    0.6416   -0.0450 C   0  0  0  0  0  0  0  0  0  4  0  0
    0.9854   -0.4552   -0.1411 N   0  0  0  0  0  0  0  0  0  5  0  0
   -0.3368   -0.3610   -0.1700 C   0  0  0  0  0  0  0  0  0  6  0  0
   -1.3252   -1.8229   -0.2968 S   0  0  0  0  0  0  0  0  0  7  0  0
   -3.0751   -1.3633   -0.3081 C   0  0  0  0  0  0  0  0  0  8  0  0
    3.1221    0.5532   -0.0154 N   0  0  0  0  0  0  0  0  0  9  0  0
    3.7782   -0.7266   -0.0478 C   0  0  0  0  0  0  0  0  0 10  0  0
    3.6647   -1.4118    1.3302 C   0  0  0  0  0  0  0  0  0 11  0  0
   -0.8373    3.1862    0.0595 N   0  0  0  0  0  0  0  0  0 12  0  0
   -0.1319    4.4535    0.1650 C   0  0  0  0  0  0  0  0  0 13  0  0
    0.7791    4.6827   -1.0616 C   0  0  0  0  0  0  0  0  0 14  0  0
    0.7096    4.5113    1.4593 C   0  0  0  0  0  0  0  0  0 15  0  0
 13 15  1  0
 13 14  1  0
 12 13  1  0
  2 12  1  0
 10 11  1  0
  9 10  1  0
  4  9  1  0
  7  8  1  0
  6  7  1  0
  6  1  4  0
  5  6  4  0
  4  5  4  0
  3  4  4  0
  2  3  4  0
  1  2  4  0
M  END
> <Name>
Ametryn

> <CAS RN>
000834-12-8

> <Log Koc>
2.59

> <VP-0>
10.3508

> <nAromBond>
6

> <MAXDP>
1.39561

> <nHBAcc>
5

> <Splitting>
1

$$$$
2-Ethylnaphthalene
  SciTegic01221513273D

 12 13  0  0  0  0            999 V2000
   -2.3469    1.6708    0.1669 C   0  0  0  0  0  0  0  0  0  1  0  0
   -1.4842    1.0370    1.0539 C   0  0  0  0  0  0  0  0  0  2  0  0
   -0.1616    0.8069    0.6939 C   0  0  0  0  0  0  0  0  0  3  0  0
    0.3001    1.2106   -0.5544 C   0  0  0  0  0  0  0  0  0  4  0  0
   -0.5613    1.8443   -1.4422 C   0  0  0  0  0  0  0  0  0  5  0  0
   -1.8841    2.0741   -1.0815 C   0  0  0  0  0  0  0  0  0  6  0  0
    1.6229    0.9804   -0.9144 C   0  0  0  0  0  0  0  0  0  7  0  0
    2.4842    0.3464   -0.0260 C   0  0  0  0  0  0  0  0  0  8  0  0
    2.0226   -0.0571    1.2220 C   0  0  0  0  0  0  0  0  0  9  0  0
    0.6996    0.1731    1.5821 C   0  0  0  0  0  0  0  0  0 10  0  0
   -3.7794    1.9159    0.5665 C   0  0  0  0  0  0  0  0  0 11  0  0
   -4.5415    2.6279   -0.5701 C   0  0  0  0  0  0  0  0  0 12  0  0
 11 12  1  0
  1 11  1  0
 10  3  4  0
  9 10  4  0
  8  9  4  0
  7  8  4  0
  4  7  4  0
  6  1  4  0
  5  6  4  0
  4  5  4  0
  3  4  4  0
  2  3  4  0
  1  2  4  0
M  END
> <Name>
2-Ethylnaphthalene

> <CAS RN>
000939-27-5

> <Log Koc>
3.76

> <VP-0>
7.24856

> <nAromBond>
11

> <MAXDP>
0.259259

> <nHBAcc>
0

> <Splitting>
1

$$$$
Heptachlor epoxid
  SciTegic01221513273D

 23 26  0  0  0  0            999 V2000
   -1.6736   -0.2372   -1.5485 Cl  0  0  0  0  0  0  0  0  0  1  0  0
   -1.2676   -0.4226    0.1608 C   0  0  1  0  0  0  0  0  0  2  0  0
   -2.1072   -0.0980    0.7842 H   0  0  0  0  0  0  0  0  0  3  0  0
   -0.8974   -1.9210    0.4678 C   0  0  2  0  0  0  0  0  0  4  0  0
   -1.7252   -2.6001    0.2110 H   0  0  0  0  0  0  0  0  0  5  0  0
   -0.5316   -2.5737    1.9153 C   0  0  2  0  0  0  0  0  0  6  0  0
   -1.7281   -2.2674    3.1708 Cl  0  0  0  0  0  0  0  0  0  7  0  0
    0.9816   -2.4477    2.2274 C   0  0  0  0  0  0  0  0  0  8  0  0
    1.6027   -0.8425    2.7699 Cl  0  0  0  0  0  0  0  0  0  9  0  0
    1.4786   -3.5620    3.4985 Cl  0  0  0  0  0  0  0  0  0 10  0  0
    1.3202   -3.0820    0.7307 C   0  0  2  0  0  0  0  0  0 11  0  0
    0.5489   -2.1003   -0.2256 C   0  0  1  0  0  0  0  0  0 12  0  0
    0.5246   -2.3047   -1.3114 H   0  0  0  0  0  0  0  0  0 13  0  0
    1.1653   -0.6907   -0.0436 C   0  0  2  0  0  0  0  0  0 14  0  0
    2.2205   -0.4529   -0.2084 H   0  0  0  0  0  0  0  0  0 15  0  0
    0.0189    0.3126    0.3762 C   0  0  2  0  0  0  0  0  0 16  0  0
    0.0582    1.4069    0.3100 H   0  0  0  0  0  0  0  0  0 17  0  0
    0.5247    0.0727   -0.9558 O   0  0  0  0  0  0  0  0  0 18  0  0
    0.5609   -4.3081    0.8178 C   0  0  0  0  0  0  0  0  0 19  0  0
   -0.5023   -4.0450    1.5303 C   0  0  0  0  0  0  0  0  0 20  0  0
   -1.7219   -5.1884    1.9653 Cl  0  0  0  0  0  0  0  0  0 21  0  0
    1.0086   -5.8423    0.1629 Cl  0  0  0  0  0  0  0  0  0 22  0  0
    3.0189   -3.3062    0.3256 Cl  0  0  0  0  0  0  0  0  0 23  0  0
 11 23  1  0
 19 22  1  0
 20 21  1  0
 20  6  1  0
 19 20  2  0
 11 19  1  0
 18 14  1  0
 16 18  1  0
 16  2  1  0
 16 17  1  0
 14 16  1  0
 14 15  1  0
 12 14  1  0
 12  4  1  0
 12 13  1  0
 11 12  1  0
  8 11  1  0
  8 10  1  0
  8  9  1  0
  6  8  1  0
  6  7  1  0
  4  6  1  0
  4  5  1  0
  2  4  1  0
  2  3  1  0
  1  2  1  0
M  END
> <Name>
Heptachlor epoxid

> <CAS RN>
001024-57-3

> <Log Koc>
4.02

> <VP-0>
13.7323

> <nAromBond>
0

> <MAXDP>
2.64927

> <nHBAcc>
1

> <Splitting>
1

$$$$
9-Anthracenemethanol
  SciTegic01221513273D

 16 18  0  0  0  0            999 V2000
   -2.8989    3.9407    1.2975 C   0  0  0  0  0  0  0  0  0  1  0  0
   -3.3151    3.7364   -0.0109 C   0  0  0  0  0  0  0  0  0  2  0  0
   -2.6105    2.8586   -0.8238 C   0  0  0  0  0  0  0  0  0  3  0  0
   -1.4957    2.1875   -0.3337 C   0  0  0  0  0  0  0  0  0  4  0  0
   -1.0680    2.3846    0.9791 C   0  0  0  0  0  0  0  0  0  5  0  0
   -1.7842    3.2676    1.7827 C   0  0  0  0  0  0  0  0  0  6  0  0
    0.0589    1.6969    1.4518 C   0  0  0  0  0  0  0  0  0  7  0  0
    0.7318    0.8270    0.5972 C   0  0  0  0  0  0  0  0  0  8  0  0
    0.2989    0.6365   -0.7094 C   0  0  0  0  0  0  0  0  0  9  0  0
   -0.8155    1.3174   -1.1745 C   0  0  0  0  0  0  0  0  0 10  0  0
    0.9788   -0.2344   -1.5529 C   0  0  0  0  0  0  0  0  0 11  0  0
    2.0965   -0.9193   -1.0911 C   0  0  0  0  0  0  0  0  0 12  0  0
    2.5327   -0.7316    0.2151 C   0  0  0  0  0  0  0  0  0 13  0  0
    1.8509    0.1400    1.0566 C   0  0  0  0  0  0  0  0  0 14  0  0
    0.6299    1.8312    2.8855 C   0  0  0  0  0  0  0  0  0 15  0  0
   -0.0595    2.7253    3.7627 O   0  0  0  0  0  0  0  0  0 16  0  0
 15 16  1  0
  7 15  1  0
 14  8  4  0
 13 14  4  0
 12 13  4  0
 11 12  4  0
  9 11  4  0
 10  4  4  0
  9 10  4  0
  8  9  4  0
  7  8  4  0
  5  7  4  0
  6  1  4  0
  5  6  4  0
  4  5  4  0
  3  4  4  0
  2  3  4  0
  1  2  4  0
M  END
> <Name>
9-Anthracenemethanol

> <CAS RN>
001468-95-7

> <Log Koc>
3.61

> <VP-0>
8.85047

> <nAromBond>
16

> <MAXDP>
3.53364

> <nHBAcc>
1

> <Splitting>
1

$$$$
Trifluralin
  SciTegic01221513273D

 23 23  0  0  0  0            999 V2000
   -1.0207    1.6568   -0.1693 C   0  0  0  0  0  0  0  0  0  1  0  0
   -0.0432    2.6140   -0.3727 C   0  0  0  0  0  0  0  0  0  2  0  0
    1.2865    2.2352   -0.3613 C   0  0  0  0  0  0  0  0  0  3  0  0
    1.6502    0.9089   -0.1500 C   0  0  0  0  0  0  0  0  0  4  0  0
    0.6668   -0.0721    0.0740 C   0  0  0  0  0  0  0  0  0  5  0  0
   -0.6839    0.3298    0.0555 C   0  0  0  0  0  0  0  0  0  6  0  0
   -1.7810   -0.5351    0.2842 N   0  0  0  0  0  0  0  0  0  7  0  0
   -3.0052   -0.0599    0.1082 O   0  0  0  0  0  0  0  0  0  8  0  0
   -1.6419   -1.7394    0.7734 O   0  0  0  0  0  0  0  0  0  9  0  0
    1.0104   -1.4832    0.3017 N   0  0  0  0  0  0  0  0  0 10  0  0
    0.6717   -2.4629   -0.7593 C   0  0  0  0  0  0  0  0  0 11  0  0
    0.8587   -3.9707   -0.3533 C   0  0  0  0  0  0  0  0  0 12  0  0
   -0.2404   -4.4778    0.6315 C   0  0  0  0  0  0  0  0  0 13  0  0
    1.8652   -1.9263    1.4405 C   0  0  0  0  0  0  0  0  0 14  0  0
    1.9352   -0.9269    2.6147 C   0  0  0  0  0  0  0  0  0 15  0  0
    2.9105   -1.4743    3.6729 C   0  0  0  0  0  0  0  0  0 16  0  0
    3.0509    0.6602   -0.2102 N   0  0  0  0  0  0  0  0  0 17  0  0
    3.5573   -0.5479   -0.3352 O   0  0  0  0  0  0  0  0  0 18  0  0
    3.8710    1.6976   -0.2816 O   0  0  0  0  0  0  0  0  0 19  0  0
   -0.4244    4.0426   -0.6047 C   0  0  0  0  0  0  0  0  0 20  0  0
    0.6957    4.8397   -0.7165 F   0  0  0  0  0  0  0  0  0 21  0  0
   -1.2339    4.4615    0.4305 F   0  0  0  0  0  0  0  0  0 22  0  0
   -1.1890    4.1132   -1.7503 F   0  0  0  0  0  0  0  0  0 23  0  0
 20 23  1  0
 20 22  1  0
 20 21  1  0
  2 20  1  0
 17 19  1  0
 17 18  1  0
  4 17  1  0
 15 16  1  0
 14 15  1  0
 10 14  1  0
 12 13  1  0
 11 12  1  0
 10 11  1  0
  5 10  1  0
  7  9  1  0
  7  8  1  0
  6  7  1  0
  6  1  4  0
  5  6  4  0
  4  5  4  0
  3  4  4  0
  2  3  4  0
  1  2  4  0
M  END
> <Name>
Trifluralin

> <CAS RN>
001582-09-8

> <Log Koc>
4.15

> <VP-0>
12.2949

> <nAromBond>
6

> <MAXDP>
4.84483

> <nHBAcc>
1

> <Splitting>
1

$$$$
Chlornitrofen
  SciTegic01221513273D

 19 20  0  0  0  0            999 V2000
    1.6494    5.5331   -1.9367 O   0  0  0  0  0  0  0  0  0  1  0  0
    2.2007    4.3781   -2.2797 N   0  0  0  0  0  0  0  0  0  2  0  0
    1.8417    3.2130   -1.6084 C   0  0  0  0  0  0  0  0  0  3  0  0
    0.8887    3.2656   -0.6004 C   0  0  0  0  0  0  0  0  0  4  0  0
    0.5328    2.1056    0.0722 C   0  0  0  0  0  0  0  0  0  5  0  0
    1.1037    0.8795   -0.2452 C   0  0  0  0  0  0  0  0  0  6  0  0
    0.8246   -0.3585    0.4438 O   0  0  0  0  0  0  0  0  0  7  0  0
   -0.2428   -0.6689    1.4229 C   0  0  0  0  0  0  0  0  0  8  0  0
    0.0245   -1.8362    2.1326 C   0  0  0  0  0  0  0  0  0  9  0  0
   -0.8329   -2.3159    3.1155 C   0  0  0  0  0  0  0  0  0 10  0  0
   -1.9987   -1.6274    3.4022 C   0  0  0  0  0  0  0  0  0 11  0  0
   -3.0772   -2.2013    4.6231 Cl  0  0  0  0  0  0  0  0  0 12  0  0
   -2.2972   -0.4755    2.6931 C   0  0  0  0  0  0  0  0  0 13  0  0
   -1.4442    0.0164    1.7113 C   0  0  0  0  0  0  0  0  0 14  0  0
   -2.0317    1.4253    0.9048 Cl  0  0  0  0  0  0  0  0  0 15  0  0
    1.4799   -2.7046    1.7973 Cl  0  0  0  0  0  0  0  0  0 16  0  0
    2.0693    0.8442   -1.2461 C   0  0  0  0  0  0  0  0  0 17  0  0
    2.4334    1.9997   -1.9318 C   0  0  0  0  0  0  0  0  0 18  0  0
    3.0972    4.3335   -3.2515 O   0  0  0  0  0  0  0  0  0 19  0  0
  2 19  1  0
 18  3  4  0
 17 18  4  0
  6 17  4  0
  9 16  1  0
 14 15  1  0
 14  8  4  0
 13 14  4  0
 11 13  4  0
 11 12  1  0
 10 11  4  0
  9 10  4  0
  8  9  4  0
  7  8  1  0
  6  7  1  0
  5  6  4  0
  4  5  4  0
  3  4  4  0
  2  3  1  0
  1  2  1  0
M  END
> <Name>
Chlornitrofen

> <CAS RN>
001836-77-7

> <Log Koc>
3.9

> <VP-0>
11.3894

> <nAromBond>
12

> <MAXDP>
3.59862

> <nHBAcc>
0

> <Splitting>
1

$$$$
EPN
  SciTegic01221513273D

 21 22  0  0  0  0            999 V2000
    6.4452   -4.5772    3.9981 O   0  0  0  0  0  0  0  0  0  1  0  0
    6.5490   -3.2791    3.7552 N   0  0  0  0  0  0  0  0  0  2  0  0
    5.4867   -2.5984    3.1636 C   0  0  0  0  0  0  0  0  0  3  0  0
    4.3319   -3.2751    2.8120 C   0  0  0  0  0  0  0  0  0  4  0  0
    3.2705   -2.5863    2.2295 C   0  0  0  0  0  0  0  0  0  5  0  0
    3.3581   -1.2177    2.0000 C   0  0  0  0  0  0  0  0  0  6  0  0
    2.2968   -0.4539    1.4211 O   0  0  0  0  0  0  0  0  0  7  0  0
    0.9693   -1.2212    1.0277 P   0  0  1  0  0  0  0  0  0  8  0  0
    1.2762   -2.4528   -0.1202 S   0  0  0  0  0  0  0  0  0  9  0  0
    0.1960   -1.7975    2.3339 C   0  0  0  0  0  0  0  0  0 10  0  0
    0.1231   -1.0151    3.4808 C   0  0  0  0  0  0  0  0  0 11  0  0
   -0.5443   -1.4868    4.6039 C   0  0  0  0  0  0  0  0  0 12  0  0
   -1.1413   -2.7418    4.5771 C   0  0  0  0  0  0  0  0  0 13  0  0
   -1.0709   -3.5230    3.4286 C   0  0  0  0  0  0  0  0  0 14  0  0
   -0.4028   -3.0513    2.3043 C   0  0  0  0  0  0  0  0  0 15  0  0
   -0.0431   -0.2036    0.4011 O   0  0  0  0  0  0  0  0  0 16  0  0
    0.5962    0.8815   -0.2774 C   0  0  0  0  0  0  0  0  0 17  0  0
    0.8467    2.0329    0.7361 C   0  0  0  0  0  0  0  0  0 18  0  0
    4.5265   -0.5455    2.3517 C   0  0  0  0  0  0  0  0  0 19  0  0
    5.5872   -1.2272    2.9295 C   0  0  0  0  0  0  0  0  0 20  0  0
    7.6528   -2.6285    4.0878 O   0  0  0  0  0  0  0  0  0 21  0  0
  2 21  1  0
 20  3  4  0
 19 20  4  0
  6 19  4  0
 17 18  1  0
 16 17  1  0
  8 16  1  0
 15 10  4  0
 14 15  4  0
 13 14  4  0
 12 13  4  0
 11 12  4  0
 10 11  4  0
  8 10  1  0
  8  9  2  0
  7  8  1  0
  6  7  1  0
  5  6  4  0
  4  5  4  0
  3  4  4  0
  2  3  1  0
  1  2  1  0
M  END
> <Name>
EPN

> <CAS RN>
002104-64-5

> <Log Koc>
3.12

> <VP-0>
12.9015

> <nAromBond>
12

> <MAXDP>
3.68483

> <nHBAcc>
1

> <Splitting>
1

$$$$
3,4-Dichloroacetanilide
  SciTegic01221513273D

 12 12  0  0  0  0            999 V2000
    1.1930    0.8976   -0.0002 C   0  0  0  0  0  0  0  0  0  1  0  0
    0.3864    2.0324   -0.0002 C   0  0  0  0  0  0  0  0  0  2  0  0
    0.9543    3.3012    0.0001 C   0  0  0  0  0  0  0  0  0  3  0  0
    2.3367    3.4425    0.0004 C   0  0  0  0  0  0  0  0  0  4  0  0
    3.1476    2.3141    0.0005 C   0  0  0  0  0  0  0  0  0  5  0  0
    2.5759    1.0469    0.0002 C   0  0  0  0  0  0  0  0  0  6  0  0
    4.8665    2.4868    0.0009 Cl  0  0  0  0  0  0  0  0  0  7  0  0
    3.0465    5.0175    0.0008 Cl  0  0  0  0  0  0  0  0  0  8  0  0
    0.6534   -0.4222   -0.0005 N   0  0  0  0  0  0  0  0  0  9  0  0
   -0.6551   -0.7281   -0.0008 C   0  0  0  0  0  0  0  0  0 10  0  0
   -1.5365    0.1388   -0.0009 O   0  0  0  0  0  0  0  0  0 11  0  0
   -1.0602   -2.1729   -0.0011 C   0  0  0  0  0  0  0  0  0 12  0  0
 10 12  1  0
 10 11  2  0
  9 10  1  0
  1  9  1  0
  4  8  1  0
  5  7  1  0
  6  1  4  0
  5  6  4  0
  4  5  4  0
  3  4  4  0
  2  3  4  0
  1  2  4  0
M  END
> <Name>
3,4-Dichloroacetanilide

> <CAS RN>
002150-93-8

> <Log Koc>
2.34

> <VP-0>
7.90809

> <nAromBond>
6

> <MAXDP>
3.72185

> <nHBAcc>
2

> <Splitting>
1

$$$$
Propargite
  SciTegic01221513273D

 26 27  0  0  0  0            999 V2000
   -1.0591    3.0371   -0.0376 C   0  0  0  0  0  0  0  0  0  1  0  0
   -0.1067    2.0545   -1.0214 C   0  0  0  0  0  0  0  0  0  2  0  0
   -0.5357    0.0329   -0.7702 C   0  0  2  0  0  0  0  0  0  3  0  0
   -1.2638   -0.2646   -1.5347 H   0  0  0  0  0  0  0  0  0  4  0  0
   -1.0252   -0.3380    1.3528 C   0  0  2  0  0  0  0  0  0  5  0  0
   -1.4793   -1.3296    1.5349 H   0  0  0  0  0  0  0  0  0  6  0  0
   -1.9467    1.0288    1.8940 C   0  0  0  0  0  0  0  0  0  7  0  0
   -1.1888    2.5099    1.5671 C   0  0  0  0  0  0  0  0  0  8  0  0
    0.2602   -0.3054    2.1669 O   0  0  0  0  0  0  0  0  0  9  0  0
    0.2573   -0.1078    3.5345 C   0  0  0  0  0  0  0  0  0 10  0  0
    1.4393    0.4680    3.9688 C   0  0  0  0  0  0  0  0  0 11  0  0
    1.4655    1.1166    5.1859 C   0  0  0  0  0  0  0  0  0 12  0  0
    0.3100    1.1595    5.9500 C   0  0  0  0  0  0  0  0  0 13  0  0
   -0.8368    0.4729    5.5799 C   0  0  0  0  0  0  0  0  0 14  0  0
   -0.8623   -0.1747    4.3603 C   0  0  0  0  0  0  0  0  0 15  0  0
    0.2420    2.1142    7.0557 C   0  0  0  0  0  0  0  0  0 16  0  0
    1.5828    2.2717    7.7726 C   0  0  0  0  0  0  0  0  0 17  0  0
   -0.9524    1.8560    7.9813 C   0  0  0  0  0  0  0  0  0 18  0  0
   -0.0230    3.4590    6.3183 C   0  0  0  0  0  0  0  0  0 19  0  0
    0.5011   -0.7746   -1.1728 O   0  0  0  0  0  0  0  0  0 20  0  0
    0.1407    0.1770   -0.2260 S   0  0  0  0  0  0  0  0  0 21  0  0
    1.3239    0.8049    0.6089 O   0  0  0  0  0  0  0  0  0 22  0  0
   -2.3265    0.8346   -0.5945 O   0  0  0  0  0  0  0  0  0 23  0  0
   -3.6473   -0.0726   -0.8204 C   0  0  0  0  0  0  0  0  0 24  0  0
   -3.6458   -0.5893   -2.1738 C   0  0  0  0  0  0  0  0  0 25  0  0
   -3.6463   -1.0193   -3.2984 C   0  0  0  0  0  0  0  0  0 26  0  0
 25 26  3  0
 24 25  1  0
 23 24  1  0
 21 23  1  0
 21 22  2  0
 20 21  1  0
  3 20  1  0
 16 19  1  0
 16 18  1  0
 16 17  1  0
 13 16  1  0
 15 10  4  0
 14 15  4  0
 13 14  4  0
 12 13  4  0
 11 12  4  0
 10 11  4  0
  9 10  1  0
  5  9  1  0
  8  1  1  0
  7  8  1  0
  5  7  1  0
  5  6  1  0
  3  5  1  0
  3  4  1  0
  2  3  1  0
  1  2  1  0
M  END
> <Name>
Propargite

> <CAS RN>
002312-35-8

> <Log Koc>
3.6

> <VP-0>
15.0771

> <nAromBond>
6

> <MAXDP>
4.93626

> <nHBAcc>
3

> <Splitting>
1

$$$$
Chlorpyrifos
  SciTegic01221513273D

 18 18  0  0  0  0            999 V2000
    1.1649    3.4832   -0.5619 S   0  0  0  0  0  0  0  0  0  1  0  0
    0.0603    2.9226    0.6182 P   0  0  0  0  0  0  0  0  0  2  0  0
   -0.4867    1.5387    0.1388 O   0  0  0  0  0  0  0  0  0  3  0  0
    0.5508    0.6074   -0.0462 C   0  0  0  0  0  0  0  0  0  4  0  0
    1.8117    0.9464    0.2050 N   0  0  0  0  0  0  0  0  0  5  0  0
    2.8129    0.0874    0.0442 C   0  0  0  0  0  0  0  0  0  6  0  0
    4.4314    0.5844    0.3852 Cl  0  0  0  0  0  0  0  0  0  7  0  0
    2.5667   -1.2076   -0.3960 C   0  0  0  0  0  0  0  0  0  8  0  0
    3.8719   -2.3201   -0.6033 Cl  0  0  0  0  0  0  0  0  0  9  0  0
    1.2630   -1.5985   -0.6668 C   0  0  0  0  0  0  0  0  0 10  0  0
    0.2435   -0.6742   -0.4873 C   0  0  0  0  0  0  0  0  0 11  0  0
   -1.3961   -1.1118   -0.8081 Cl  0  0  0  0  0  0  0  0  0 12  0  0
   -1.1373    3.9394    0.6782 O   0  0  0  0  0  0  0  0  0 13  0  0
   -0.7137    5.3344    0.6074 C   0  0  0  0  0  0  0  0  0 14  0  0
    0.0732    5.8058    1.8490 C   0  0  0  0  0  0  0  0  0 15  0  0
    0.7931    2.8000    2.0215 O   0  0  0  0  0  0  0  0  0 16  0  0
   -0.0983    2.4935    3.1498 C   0  0  0  0  0  0  0  0  0 17  0  0
   -0.6709    1.0625    3.1229 C   0  0  0  0  0  0  0  0  0 18  0  0
 17 18  1  0
 16 17  1  0
  2 16  1  0
 14 15  1  0
 13 14  1  0
  2 13  1  0
 11 12  1  0
 11  4  4  0
 10 11  4  0
  8 10  4  0
  8  9  1  0
  6  8  4  0
  6  7  1  0
  5  6  4  0
  4  5  4  0
  3  4  1  0
  2  3  1  0
  1  2  2  0
M  END
> <Name>
Chlorpyrifos

> <CAS RN>
002921-88-2

> <Log Koc>
3.92

> <VP-0>
13.6316

> <nAromBond>
6

> <MAXDP>
2.69184

> <nHBAcc>
3

> <Splitting>
1

$$$$
2,3,5,6-Tetrachloroaniline
  SciTegic01221513273D

 11 11  0  0  0  0            999 V2000
   -2.0414    1.0207    0.6197 N   0  0  0  0  0  0  0  0  0  1  0  0
   -0.6812    0.9703    0.3130 C   0  0  0  0  0  0  0  0  0  2  0  0
    0.0299    2.1476    0.1110 C   0  0  0  0  0  0  0  0  0  3  0  0
    1.3852    2.0974   -0.1945 C   0  0  0  0  0  0  0  0  0  4  0  0
    2.0298    0.8700   -0.2981 C   0  0  0  0  0  0  0  0  0  5  0  0
    1.3183   -0.3073   -0.0960 C   0  0  0  0  0  0  0  0  0  6  0  0
   -0.0369   -0.2571    0.2095 C   0  0  0  0  0  0  0  0  0  7  0  0
   -0.9204   -1.7199    0.4605 Cl  0  0  0  0  0  0  0  0  0  8  0  0
    2.1179   -1.8332   -0.2244 Cl  0  0  0  0  0  0  0  0  0  9  0  0
    2.2678    3.5610   -0.4453 Cl  0  0  0  0  0  0  0  0  0 10  0  0
   -0.7705    3.6728    0.2396 Cl  0  0  0  0  0  0  0  0  0 11  0  0
  3 11  1  0
  4 10  1  0
  6  9  1  0
  7  8  1  0
  7  2  4  0
  6  7  4  0
  5  6  4  0
  4  5  4  0
  3  4  4  0
  2  3  4  0
  1  2  1  0
M  END
> <Name>
2,3,5,6-Tetrachloroaniline

> <CAS RN>
003481-20-7

> <Log Koc>
3.94

> <VP-0>
8.19027

> <nAromBond>
6

> <MAXDP>
2.01765

> <nHBAcc>
1

> <Splitting>
1

$$$$
Mecoprop
  SciTegic01221513273D

 15 15  0  0  0  0            999 V2000
   -3.1686    1.7911    3.7409 C   0  0  0  0  0  0  0  0  0  1  0  0
   -2.8449    1.1758    2.5399 C   0  0  0  0  0  0  0  0  0  2  0  0
   -1.6065    0.5787    2.3122 C   0  0  0  0  0  0  0  0  0  3  0  0
   -0.6539    0.6244    3.3580 C   0  0  0  0  0  0  0  0  0  4  0  0
   -0.9886    1.2456    4.5584 C   0  0  0  0  0  0  0  0  0  5  0  0
   -2.2326    1.8236    4.7599 C   0  0  0  0  0  0  0  0  0  6  0  0
   -2.6079    2.5831    6.2657 Cl  0  0  0  0  0  0  0  0  0  7  0  0
    0.7582    0.0747    3.3211 C   0  0  0  0  0  0  0  0  0  8  0  0
   -1.5181   -0.0057    0.9464 O   0  0  0  0  0  0  0  0  0  9  0  0
   -0.4183   -0.8037    0.4150 C   0  0  1  0  0  0  0  0  0 10  0  0
    0.5578   -0.3213    0.5487 H   0  0  0  0  0  0  0  0  0 11  0  0
   -0.3655   -2.2123    1.0661 C   0  0  0  0  0  0  0  0  0 12  0  0
   -0.6419   -1.0294   -1.0488 C   0  0  0  0  0  0  0  0  0 13  0  0
   -1.7196   -0.7124   -1.5642 O   0  0  0  0  0  0  0  0  0 14  0  0
    0.3623   -1.5962   -1.8262 O   0  0  0  0  0  0  0  0  0 15  0  0
 13 15  1  0
 13 14  2  0
 10 13  1  0
 10 12  1  0
 10 11  1  0
  9 10  1  0
  3  9  1  0
  4  8  1  0
  6  7  1  0
  6  1  4  0
  5  6  4  0
  4  5  4  0
  3  4  4  0
  2  3  4  0
  1  2  4  0
M  END
> <Name>
Mecoprop

> <CAS RN>
007085-19-0

> <Log Koc>
1.3

> <VP-0>
8.707

> <nAromBond>
6

> <MAXDP>
3.56496

> <nHBAcc>
2

> <Splitting>
1

$$$$
Chloramben methyl
  SciTegic01221513273D

 13 13  0  0  0  0            999 V2000
    3.6996    0.0885   -0.0005 C   0  0  0  0  0  0  0  0  0  1  0  0
    3.0192   -1.1231   -0.0002 C   0  0  0  0  0  0  0  0  0  2  0  0
    1.6287   -1.1483    0.0000 C   0  0  0  0  0  0  0  0  0  3  0  0
    0.9129    0.0492   -0.0002 C   0  0  0  0  0  0  0  0  0  4  0  0
    1.5985    1.2591   -0.0005 C   0  0  0  0  0  0  0  0  0  5  0  0
    2.9878    1.2813   -0.0007 C   0  0  0  0  0  0  0  0  0  6  0  0
    3.8286    2.7904   -0.0011 Cl  0  0  0  0  0  0  0  0  0  7  0  0
   -0.5619    0.0807    0.0000 C   0  0  0  0  0  0  0  0  0  8  0  0
   -1.1399    1.1736   -0.0002 O   0  0  0  0  0  0  0  0  0  9  0  0
   -1.3128   -1.0908    0.0003 O   0  0  0  0  0  0  0  0  0 10  0  0
   -2.7074   -0.7726    0.0004 C   0  0  0  0  0  0  0  0  0 11  0  0
    0.8273   -2.6820    0.0004 Cl  0  0  0  0  0  0  0  0  0 12  0  0
    3.7343   -2.3212    0.0000 N   0  0  0  0  0  0  0  0  0 13  0  0
  2 13  1  0
  3 12  1  0
 10 11  1  0
  8 10  1  0
  8  9  2  0
  4  8  1  0
  6  7  1  0
  6  1  4  0
  5  6  4  0
  4  5  4  0
  3  4  4  0
  2  3  4  0
  1  2  4  0
M  END
> <Name>
Chloramben methyl

> <CAS RN>
007286-84-2

> <Log Koc>
2.74

> <VP-0>
8.31633

> <nAromBond>
6

> <MAXDP>
4.30527

> <nHBAcc>
3

> <Splitting>
1

$$$$
3-Phenyl-1-cyclopentylurea
  SciTegic01221513273D

 15 16  0  0  0  0            999 V2000
    3.2187    1.5757   -0.3051 C   0  0  0  0  0  0  0  0  0  1  0  0
    1.8516    1.4795   -0.0693 C   0  0  0  0  0  0  0  0  0  2  0  0
    1.1154    2.6394    0.1557 C   0  0  0  0  0  0  0  0  0  3  0  0
    1.7387    3.8818    0.1453 C   0  0  0  0  0  0  0  0  0  4  0  0
    3.1055    3.9714   -0.0907 C   0  0  0  0  0  0  0  0  0  5  0  0
    3.8455    2.8169   -0.3160 C   0  0  0  0  0  0  0  0  0  6  0  0
    1.2499    0.1916   -0.0676 N   0  0  0  0  0  0  0  0  0  7  0  0
   -0.1271   -0.0587    0.1714 C   0  0  0  0  0  0  0  0  0  8  0  0
   -0.9237    0.8575    0.4069 O   0  0  0  0  0  0  0  0  0  9  0  0
   -0.5859   -1.3833    0.1371 N   0  0  0  0  0  0  0  0  0 10  0  0
   -1.9739   -1.6963    0.3567 C   0  0  0  0  0  0  0  0  0 11  0  0
   -2.2553   -3.1809    0.2258 C   0  0  0  0  0  0  0  0  0 12  0  0
   -3.8003   -3.1899    0.3137 C   0  0  0  0  0  0  0  0  0 13  0  0
   -4.2252   -1.8243   -0.3323 C   0  0  0  0  0  0  0  0  0 14  0  0
   -2.8848   -1.1758   -0.7454 C   0  0  0  0  0  0  0  0  0 15  0  0
 15 11  1  0
 14 15  1  0
 13 14  1  0
 12 13  1  0
 11 12  1  0
 10 11  1  0
  8 10  1  0
  8  9  2  0
  7  8  1  0
  2  7  1  0
  6  1  4  0
  5  6  4  0
  4  5  4  0
  3  4  4  0
  2  3  4  0
  1  2  4  0
M  END
> <Name>
3-Phenyl-1-cyclopentylurea

> <CAS RN>
013140-89-1

> <Log Koc>
1.93

> <VP-0>
8.70078

> <nAromBond>
6

> <MAXDP>
4.54621

> <nHBAcc>
3

> <Splitting>
1

$$$$
Phosphamidon
  SciTegic01221513273D

 18 17  0  0  0  0            999 V2000
    1.1130    1.1673   -1.1432 C   0  0  0  0  0  0  0  0  0  1  0  0
    0.8614    2.3994   -0.6194 C   0  0  0  0  0  0  0  0  0  2  0  0
    0.1439    2.8515    0.6302 C   0  0  0  0  0  0  0  0  0  3  0  0
   -0.6699    3.7648    0.4683 O   0  0  0  0  0  0  0  0  0  4  0  0
    0.4328    2.4130    1.9890 N   0  0  0  0  0  0  0  0  0  5  0  0
   -0.2696    3.0084    3.1482 C   0  0  0  0  0  0  0  0  0  6  0  0
   -1.7987    3.1937    2.9547 C   0  0  0  0  0  0  0  0  0  7  0  0
    1.5525    1.5458    2.2639 C   0  0  0  0  0  0  0  0  0  8  0  0
    1.6356    1.1886    3.7713 C   0  0  0  0  0  0  0  0  0  9  0  0
    1.3779    3.7064   -1.6286 Cl  0  0  0  0  0  0  0  0  0 10  0  0
    1.8639    1.2120   -2.4418 C   0  0  0  0  0  0  0  0  0 11  0  0
    0.7402   -0.2029   -0.7503 O   0  0  0  0  0  0  0  0  0 12  0  0
   -0.1059   -0.6596    0.4863 P   0  0  0  0  0  0  0  0  0 13  0  0
   -0.9946    0.3020    0.9139 O   0  0  0  0  0  0  0  0  0 14  0  0
    0.8355   -1.1433    1.6149 O   0  0  0  0  0  0  0  0  0 15  0  0
    1.6911   -2.1789    1.1055 C   0  0  0  0  0  0  0  0  0 16  0  0
   -0.9201   -1.9057    0.0518 O   0  0  0  0  0  0  0  0  0 17  0  0
   -1.8095   -1.5535   -1.0099 C   0  0  0  0  0  0  0  0  0 18  0  0
 17 18  1  0
 13 17  1  0
 15 16  1  0
 13 15  1  0
 13 14  2  0
 12 13  1  0
  1 12  1  0
  1 11  1  0
  2 10  1  0
  8  9  1  0
  5  8  1  0
  6  7  1  0
  5  6  1  0
  3  5  1  0
  3  4  2  0
  2  3  1  0
  1  2  2  0
M  END
> <Name>
Phosphamidon

> <CAS RN>
013171-21-6

> <Log Koc>
0.85

> <VP-0>
12.2077

> <nAromBond>
0

> <MAXDP>
5.0806

> <nHBAcc>
6

> <Splitting>
1

$$$$
Phenmedipham
  SciTegic01221513273D

 22 23  0  0  0  0            999 V2000
    6.7666    1.0279    1.2443 C   0  0  0  0  0  0  0  0  0  1  0  0
    7.8721    0.1875    1.2999 C   0  0  0  0  0  0  0  0  0  2  0  0
    7.7123   -1.1817    1.1247 C   0  0  0  0  0  0  0  0  0  3  0  0
    6.4455   -1.7050    0.8939 C   0  0  0  0  0  0  0  0  0  4  0  0
    5.3419   -0.8606    0.8373 C   0  0  0  0  0  0  0  0  0  5  0  0
    5.4952    0.5104    1.0139 C   0  0  0  0  0  0  0  0  0  6  0  0
    4.3412    1.3442    0.9396 N   0  0  0  0  0  0  0  0  0  7  0  0
    4.3396    2.7516    1.1745 C   0  0  0  0  0  0  0  0  0  8  0  0
    5.3845    3.3269    1.4972 O   0  0  0  0  0  0  0  0  0  9  0  0
    3.1755    3.5743    1.0220 O   0  0  0  0  0  0  0  0  0 10  0  0
    1.9174    3.0046    0.6352 C   0  0  0  0  0  0  0  0  0 11  0  0
    1.7154    1.6466    0.4020 C   0  0  0  0  0  0  0  0  0 12  0  0
    0.4651    1.1618    0.0298 C   0  0  0  0  0  0  0  0  0 13  0  0
   -0.5955    2.0496   -0.1130 C   0  0  0  0  0  0  0  0  0 14  0  0
   -0.4068    3.4061    0.1152 C   0  0  0  0  0  0  0  0  0 15  0  0
    0.8449    3.8778    0.4889 C   0  0  0  0  0  0  0  0  0 16  0  0
    0.3073   -0.2346   -0.1905 N   0  0  0  0  0  0  0  0  0 17  0  0
   -0.9223   -0.8630   -0.5362 C   0  0  0  0  0  0  0  0  0 18  0  0
   -1.9699   -0.2200   -0.6735 O   0  0  0  0  0  0  0  0  0 19  0  0
   -0.9476   -2.2438   -0.7171 O   0  0  0  0  0  0  0  0  0 20  0  0
   -2.2752   -2.6632   -1.0496 C   0  0  0  0  0  0  0  0  0 21  0  0
    9.2372    0.7602    1.5463 C   0  0  0  0  0  0  0  0  0 22  0  0
  2 22  1  0
 20 21  1  0
 18 20  1  0
 18 19  2  0
 17 18  1  0
 13 17  1  0
 16 11  4  0
 15 16  4  0
 14 15  4  0
 13 14  4  0
 12 13  4  0
 11 12  4  0
 10 11  1  0
  8 10  1  0
  8  9  2  0
  7  8  1  0
  6  7  1  0
  6  1  4  0
  5  6  4  0
  4  5  4  0
  3  4  4  0
  2  3  4  0
  1  2  4  0
M  END
> <Name>
Phenmedipham

> <CAS RN>
013684-63-4

> <Log Koc>
3.38

> <VP-0>
12.2518

> <nAromBond>
12

> <MAXDP>
4.83747

> <nHBAcc>
5

> <Splitting>
1

$$$$
Chlorotoluron
  SciTegic01221513273D

 14 14  0  0  0  0            999 V2000
    2.6683    1.2216    0.2098 C   0  0  0  0  0  0  0  0  0  1  0  0
    1.2861    1.1330    0.0842 C   0  0  0  0  0  0  0  0  0  2  0  0
    0.5452    2.2911   -0.1324 C   0  0  0  0  0  0  0  0  0  3  0  0
    1.1785    3.5253   -0.2228 C   0  0  0  0  0  0  0  0  0  4  0  0
    2.5600    3.6071   -0.0967 C   0  0  0  0  0  0  0  0  0  5  0  0
    3.3050    2.4542    0.1197 C   0  0  0  0  0  0  0  0  0  6  0  0
    5.0228    2.5524    0.2768 Cl  0  0  0  0  0  0  0  0  0  7  0  0
    3.2460    4.9382   -0.1940 C   0  0  0  0  0  0  0  0  0  8  0  0
    0.6745   -0.1458    0.1825 N   0  0  0  0  0  0  0  0  0  9  0  0
   -0.7196   -0.3871    0.0637 C   0  0  0  0  0  0  0  0  0 10  0  0
   -1.5278    0.5255   -0.1422 O   0  0  0  0  0  0  0  0  0 11  0  0
   -1.1911   -1.6943    0.1825 N   0  0  0  0  0  0  0  0  0 12  0  0
   -2.5952   -1.9636    0.0653 C   0  0  0  0  0  0  0  0  0 13  0  0
   -0.2716   -2.7690    0.4220 C   0  0  0  0  0  0  0  0  0 14  0  0
 12 14  1  0
 12 13  1  0
 10 12  1  0
 10 11  2  0
  9 10  1  0
  2  9  1  0
  5  8  1  0
  6  7  1  0
  6  1  4  0
  5  6  4  0
  4  5  4  0
  3  4  4  0
  2  3  4  0
  1  2  4  0
M  END
> <Name>
Chlorotoluron

> <CAS RN>
015545-48-9

> <Log Koc>
2.02

> <VP-0>
9.22141

> <nAromBond>
6

> <MAXDP>
4.33662

> <nHBAcc>
3

> <Splitting>
1

$$$$
Benomyl
  SciTegic01221513273D

 21 22  0  0  0  0            999 V2000
    1.8357   -2.2339    0.4479 C   0  0  0  0  0  0  0  0  0  1  0  0
    2.9024   -3.0171    0.8857 C   0  0  0  0  0  0  0  0  0  2  0  0
    4.1755   -2.4667    1.0684 C   0  0  0  0  0  0  0  0  0  3  0  0
    4.4189   -1.1156    0.8183 C   0  0  0  0  0  0  0  0  0  4  0  0
    3.3475   -0.3535    0.3837 C   0  0  0  0  0  0  0  0  0  5  0  0
    2.0987   -0.8928    0.2044 C   0  0  0  0  0  0  0  0  0  6  0  0
    1.3091    0.0804   -0.2104 N   0  0  0  0  0  0  0  0  0  7  0  0
    2.0492    1.1853   -0.2825 C   0  0  0  0  0  0  0  0  0  8  0  0
    3.3105    0.9394    0.0811 N   0  0  0  0  0  0  0  0  0  9  0  0
    1.5542    2.4323   -0.6719 N   0  0  0  0  0  0  0  0  0 10  0  0
    2.3504    3.5753   -0.6041 C   0  0  0  0  0  0  0  0  0 11  0  0
    3.5145    3.5017   -0.1946 O   0  0  0  0  0  0  0  0  0 12  0  0
    1.8186    4.8063   -0.9807 O   0  0  0  0  0  0  0  0  0 13  0  0
    2.8007    5.8311   -0.8109 C   0  0  0  0  0  0  0  0  0 14  0  0
   -0.0584    0.0087   -0.5180 C   0  0  0  0  0  0  0  0  0 15  0  0
   -0.6362    1.0290   -0.9094 O   0  0  0  0  0  0  0  0  0 16  0  0
   -0.7813   -1.1878   -0.2950 N   0  0  0  0  0  0  0  0  0 17  0  0
   -2.2213   -1.2942   -0.4792 C   0  0  0  0  0  0  0  0  0 18  0  0
   -3.0052   -0.1637    0.2525 C   0  0  0  0  0  0  0  0  0 19  0  0
   -2.7266   -0.1861    1.7759 C   0  0  0  0  0  0  0  0  0 20  0  0
   -3.1702   -1.5306    2.3778 C   0  0  0  0  0  0  0  0  0 21  0  0
 20 21  1  0
 19 20  1  0
 18 19  1  0
 17 18  1  0
 15 17  1  0
 15 16  2  0
  7 15  1  0
 13 14  1  0
 11 13  1  0
 11 12  2  0
 10 11  1  0
  8 10  1  0
  9  5  4  0
  8  9  4  0
  7  8  4  0
  6  7  4  0
  6  1  4  0
  5  6  4  0
  4  5  4  0
  3  4  4  0
  2  3  4  0
  1  2  4  0
M  END
> <Name>
Benomyl

> <CAS RN>
017804-35-2

> <Log Koc>
2.71

> <VP-0>
12.0499

> <nAromBond>
10

> <MAXDP>
5.30498

> <nHBAcc>
7

> <Splitting>
1

$$$$
Methabenzthiazuron
  SciTegic01221513273D

 15 16  0  0  0  0            999 V2000
    1.5506   -2.2067    3.5725 C   0  0  0  0  0  0  0  0  0  1  0  0
    1.8253   -1.4320    2.4550 C   0  0  0  0  0  0  0  0  0  2  0  0
    3.1338   -1.1484    2.1113 C   0  0  0  0  0  0  0  0  0  3  0  0
    4.2200   -1.6064    2.8395 C   0  0  0  0  0  0  0  0  0  4  0  0
    3.9454   -2.3846    3.9621 C   0  0  0  0  0  0  0  0  0  5  0  0
    2.6276   -2.6797    4.3221 C   0  0  0  0  0  0  0  0  0  6  0  0
    3.1091   -0.2359    0.7764 S   0  0  0  0  0  0  0  0  0  7  0  0
    1.4882   -0.2003    0.6365 C   0  0  0  0  0  0  0  0  0  8  0  0
    0.9169   -0.8984    1.6258 N   0  0  0  0  0  0  0  0  0  9  0  0
    0.7978    0.4696   -0.3802 N   0  0  0  0  0  0  0  0  0 10  0  0
    1.5329    1.1837   -1.3828 C   0  0  0  0  0  0  0  0  0 11  0  0
   -0.6025    0.4507   -0.4298 C   0  0  0  0  0  0  0  0  0 12  0  0
   -1.1916    1.0493   -1.3367 O   0  0  0  0  0  0  0  0  0 13  0  0
   -1.3377   -0.2388    0.5360 N   0  0  0  0  0  0  0  0  0 14  0  0
   -2.7701   -0.2507    0.4735 C   0  0  0  0  0  0  0  0  0 15  0  0
 14 15  1  0
 12 14  1  0
 12 13  2  0
 10 12  1  0
 10 11  1  0
  8 10  1  0
  9  2  4  0
  8  9  4  0
  7  8  4  0
  3  7  4  0
  6  1  4  0
  5  6  4  0
  4  5  4  0
  3  4  4  0
  2  3  4  0
  1  2  4  0
M  END
> <Name>
Methabenzthiazuron

> <CAS RN>
018691-97-9

> <Log Koc>
2.8

> <VP-0>
9.33682

> <nAromBond>
10

> <MAXDP>
4.41792

> <nHBAcc>
4

> <Splitting>
1

$$$$
Chlorfenvinphos(cis)
  SciTegic01221513273D

 20 20  0  0  0  0            999 V2000
    0.2395    4.6697    3.9510 C   0  0  0  0  0  0  0  0  0  1  0  0
    1.2566    4.5508    2.9266 O   0  0  0  0  0  0  0  0  0  2  0  0
    1.3572    3.1075    2.3185 P   0  0  0  0  0  0  0  0  0  3  0  0
    2.1831    3.2514    1.2274 O   0  0  0  0  0  0  0  0  0  4  0  0
   -0.1466    2.7345    1.9276 O   0  0  0  0  0  0  0  0  0  5  0  0
   -0.6092    1.9357    0.7749 C   0  0  0  0  0  0  0  0  0  6  0  0
   -1.9334    1.8347    0.7365 C   0  0  0  0  0  0  0  0  0  7  0  0
   -2.8873    2.5844    1.9654 Cl  0  0  0  0  0  0  0  0  0  8  0  0
    0.2429    1.2469   -0.3525 C   0  0  0  0  0  0  0  0  0  9  0  0
   -0.3264    0.7172   -1.5229 C   0  0  0  0  0  0  0  0  0 10  0  0
    0.4794    0.1157   -2.4875 C   0  0  0  0  0  0  0  0  0 11  0  0
    1.8511    0.0193   -2.3197 C   0  0  0  0  0  0  0  0  0 12  0  0
    2.4289    0.5347   -1.1714 C   0  0  0  0  0  0  0  0  0 13  0  0
    1.6253    1.1359   -0.2145 C   0  0  0  0  0  0  0  0  0 14  0  0
    2.8289   -0.7316   -3.5301 Cl  0  0  0  0  0  0  0  0  0 15  0  0
   -2.0269    0.7697   -1.8997 Cl  0  0  0  0  0  0  0  0  0 16  0  0
    2.0279    2.1648    3.4178 O   0  0  0  0  0  0  0  0  0 17  0  0
    2.1475    0.7700    3.0948 C   0  0  0  0  0  0  0  0  0 18  0  0
    0.8191    0.0321    3.3545 C   0  0  0  0  0  0  0  0  0 19  0  0
    0.6508    3.9975    5.2756 C   0  0  0  0  0  0  0  0  0 20  0  0
  1 20  1  0
 18 19  1  0
 17 18  1  0
  3 17  1  0
 10 16  1  0
 12 15  1  0
 14  9  4  0
 13 14  4  0
 12 13  4  0
 11 12  4  0
 10 11  4  0
  9 10  4  0
  6  9  1  0
  7  8  1  0
  6  7  2  0
  5  6  1  0
  3  5  1  0
  3  4  2  0
  2  3  1  0
  1  2  1  0
M  END
> <Name>
Chlorfenvinphos(cis)

> <CAS RN>
018708-87-7

> <Log Koc>
2.47

> <VP-0>
13.4294

> <nAromBond>
6

> <MAXDP>
5.58962

> <nHBAcc>
4

> <Splitting>
1

$$$$
Fenamiphos
  SciTegic01221513273D

 19 19  0  0  0  0            999 V2000
   -3.2352   -1.4995    1.8817 C   0  0  0  0  0  0  0  0  0  1  0  0
   -2.1646   -0.9245    0.9377 C   0  0  0  0  0  0  0  0  0  2  0  0
   -1.1283   -2.0225    0.6286 C   0  0  0  0  0  0  0  0  0  3  0  0
   -1.5542    0.2761    1.5781 N   0  0  0  0  0  0  0  0  0  4  0  0
   -0.4756    1.0251    0.6315 P   0  0  2  0  0  0  0  0  0  5  0  0
   -0.9859    1.1149   -0.6495 O   0  0  0  0  0  0  0  0  0  6  0  0
    0.8967    0.2612    0.5635 O   0  0  0  0  0  0  0  0  0  7  0  0
    1.7192    0.4709    1.7484 C   0  0  0  0  0  0  0  0  0  8  0  0
    1.1203   -0.1513    3.0276 C   0  0  0  0  0  0  0  0  0  9  0  0
   -0.1794    2.4603    1.2002 O   0  0  0  0  0  0  0  0  0 10  0  0
   -1.3128    3.3103    1.2748 C   0  0  0  0  0  0  0  0  0 11  0  0
   -2.5659    2.9063    0.8301 C   0  0  0  0  0  0  0  0  0 12  0  0
   -3.6601    3.7591    0.9291 C   0  0  0  0  0  0  0  0  0 13  0  0
   -3.5050    5.0220    1.4809 C   0  0  0  0  0  0  0  0  0 14  0  0
   -2.2530    5.4356    1.9254 C   0  0  0  0  0  0  0  0  0 15  0  0
   -1.1609    4.5827    1.8193 C   0  0  0  0  0  0  0  0  0 16  0  0
   -4.9018    6.0993    1.6260 S   0  0  0  0  0  0  0  0  0 17  0  0
   -4.4923    7.4714    2.7311 C   0  0  0  0  0  0  0  0  0 18  0  0
   -5.0065    3.3071    0.4471 C   0  0  0  0  0  0  0  0  0 19  0  0
 13 19  1  0
 17 18  1  0
 14 17  1  0
 16 11  4  0
 15 16  4  0
 14 15  4  0
 13 14  4  0
 12 13  4  0
 11 12  4  0
 10 11  1  0
  5 10  1  0
  8  9  1  0
  7  8  1  0
  5  7  1  0
  5  6  2  0
  4  5  1  0
  2  4  1  0
  2  3  1  0
  1  2  1  0
M  END
> <Name>
Fenamiphos

> <CAS RN>
022224-92-6

> <Log Koc>
2.52

> <VP-0>
13.1371

> <nAromBond>
6

> <MAXDP>
5.63999

> <nHBAcc>
3

> <Splitting>
1

$$$$
Oxamyl
  SciTegic01221513273D

 14 13  0  0  0  0            999 V2000
    3.6701    2.5457    0.3051 C   0  0  0  0  0  0  0  0  0  1  0  0
    2.6853    3.5968    0.2324 N   0  0  0  0  0  0  0  0  0  2  0  0
    3.1352    4.9529    0.3570 C   0  0  0  0  0  0  0  0  0  3  0  0
    1.2755    3.3650    0.0493 C   0  0  0  0  0  0  0  0  0  4  0  0
    0.5528    4.3652    0.0115 O   0  0  0  0  0  0  0  0  0  5  0  0
    0.6368    1.9956   -0.1181 C   0  0  0  0  0  0  0  0  0  6  0  0
    1.3924    0.9533   -0.1910 N   0  0  0  0  0  0  0  0  0  7  0  0
    1.1044   -0.3975   -0.3025 O   0  0  0  0  0  0  0  0  0  8  0  0
   -0.1118   -0.9462    0.1851 C   0  0  0  0  0  0  0  0  0  9  0  0
   -0.9228   -0.2889    0.8399 O   0  0  0  0  0  0  0  0  0 10  0  0
   -0.3576   -2.3056   -0.0098 N   0  0  0  0  0  0  0  0  0 11  0  0
   -1.5411   -2.9047    0.5359 C   0  0  0  0  0  0  0  0  0 12  0  0
   -1.1507    1.9153   -0.3410 S   0  0  0  0  0  0  0  0  0 13  0  0
   -2.0374    3.2017    0.5827 C   0  0  0  0  0  0  0  0  0 14  0  0
 13 14  1  0
  6 13  1  0
 11 12  1  0
  9 11  1  0
  9 10  2  0
  8  9  1  0
  7  8  1  0
  6  7  2  0
  4  6  1  0
  4  5  2  0
  2  4  1  0
  2  3  1  0
  1  2  1  0
M  END
> <Name>
Oxamyl

> <CAS RN>
023135-22-0

> <Log Koc>
1

> <VP-0>
9.34392

> <nAromBond>
0

> <MAXDP>
4.41158

> <nHBAcc>
4

> <Splitting>
1

$$$$
Pronamide
  SciTegic01221513273D

 16 16  0  0  0  0            999 V2000
    3.9740    0.0214    0.0035 C   0  0  0  0  0  0  0  0  0  1  0  0
    3.1676   -1.1102    0.0431 C   0  0  0  0  0  0  0  0  0  2  0  0
    1.7862   -0.9742    0.0636 C   0  0  0  0  0  0  0  0  0  3  0  0
    1.2115    0.2901    0.0426 C   0  0  0  0  0  0  0  0  0  4  0  0
    2.0136    1.4240    0.0010 C   0  0  0  0  0  0  0  0  0  5  0  0
    3.3974    1.2872   -0.0160 C   0  0  0  0  0  0  0  0  0  6  0  0
    4.4023    2.6903   -0.0647 Cl  0  0  0  0  0  0  0  0  0  7  0  0
   -0.2295    0.4010    0.0476 C   0  0  0  0  0  0  0  0  0  8  0  0
   -0.7492    1.5201   -0.0308 O   0  0  0  0  0  0  0  0  0  9  0  0
   -0.9244   -0.7480    0.1115 N   0  0  0  0  0  0  0  0  0 10  0  0
   -2.3754   -0.9417    0.0875 C   0  0  0  0  0  0  0  0  0 11  0  0
   -3.2340    0.3332    0.2642 C   0  0  0  0  0  0  0  0  0 12  0  0
   -2.7431   -1.9487    1.1912 C   0  0  0  0  0  0  0  0  0 13  0  0
   -2.6855   -1.5587   -1.1966 C   0  0  0  0  0  0  0  0  0 14  0  0
   -2.9419   -2.0689   -2.2582 C   0  0  0  0  0  0  0  0  0 15  0  0
    3.8760   -2.6852    0.0605 Cl  0  0  0  0  0  0  0  0  0 16  0  0
  2 16  1  0
 14 15  3  0
 11 14  1  0
 11 13  1  0
 11 12  1  0
 10 11  1  0
  8 10  1  0
  8  9  2  0
  4  8  1  0
  6  7  1  0
  6  1  4  0
  5  6  4  0
  4  5  4  0
  3  4  4  0
  2  3  4  0
  1  2  4  0
M  END
> <Name>
Pronamide

> <CAS RN>
023950-58-5

> <Log Koc>
2.31

> <VP-0>
10.4854

> <nAromBond>
6

> <MAXDP>
4.95332

> <nHBAcc>
2

> <Splitting>
1

$$$$
Piperophos
  SciTegic01221513273D

 22 22  0  0  0  0            999 V2000
   -1.0579    3.6745   -1.5890 C   0  0  0  0  0  0  0  0  0  1  0  0
    0.2971    3.3692   -0.8936 C   0  0  0  0  0  0  0  0  0  2  0  0
    0.3495    1.9169   -0.3712 C   0  0  1  0  0  0  0  0  0  3  0  0
    1.3152    1.7367    0.1188 H   0  0  0  0  0  0  0  0  0  4  0  0
   -0.7749    1.6791    0.6976 C   0  0  0  0  0  0  0  0  0  5  0  0
    0.2095    1.0164   -1.5397 N   0  0  0  0  0  0  0  0  0  6  0  0
   -0.3369    1.5325   -2.7974 C   0  0  0  0  0  0  0  0  0  7  0  0
   -1.4977    2.5194   -2.5337 C   0  0  0  0  0  0  0  0  0  8  0  0
    0.6450   -0.3393   -1.5163 C   0  0  0  0  0  0  0  0  0  9  0  0
    0.5094   -1.0215   -2.5379 O   0  0  0  0  0  0  0  0  0 10  0  0
    1.2832   -0.9682   -0.3006 C   0  0  0  0  0  0  0  0  0 11  0  0
    1.3186   -2.7773   -0.4584 S   0  0  0  0  0  0  0  0  0 12  0  0
   -0.4834   -3.5112   -0.3762 P   0  0  0  0  0  0  0  0  0 13  0  0
   -1.3518   -2.8605   -1.6983 S   0  0  0  0  0  0  0  0  0 14  0  0
   -1.1752   -3.0625    0.9716 O   0  0  0  0  0  0  0  0  0 15  0  0
   -0.3751   -3.1038    2.2173 C   0  0  0  0  0  0  0  0  0 16  0  0
    0.0098   -4.5075    2.7911 C   0  0  0  0  0  0  0  0  0 17  0  0
    1.2089   -5.1530    2.0638 C   0  0  0  0  0  0  0  0  0 18  0  0
   -0.4112   -5.0867   -0.5179 O   0  0  0  0  0  0  0  0  0 19  0  0
   -1.6313   -5.8932   -0.2333 C   0  0  0  0  0  0  0  0  0 20  0  0
   -2.9000   -5.6498   -1.1090 C   0  0  0  0  0  0  0  0  0 21  0  0
   -3.7651   -4.4849   -0.5704 C   0  0  0  0  0  0  0  0  0 22  0  0
 21 22  1  0
 20 21  1  0
 19 20  1  0
 13 19  1  0
 17 18  1  0
 16 17  1  0
 15 16  1  0
 13 15  1  0
 13 14  2  0
 12 13  1  0
 11 12  1  0
  9 11  1  0
  9 10  2  0
  6  9  1  0
  8  1  1  0
  7  8  1  0
  6  7  1  0
  3  6  1  0
  3  5  1  0
  3  4  1  0
  2  3  1  0
  1  2  1  0
M  END
> <Name>
Piperophos

> <CAS RN>
024151-93-7

> <Log Koc>
3.44

> <VP-0>
15.9044

> <nAromBond>
0

> <MAXDP>
5.52792

> <nHBAcc>
4

> <Splitting>
1

$$$$
3-Chloro-4-methoxyphenylurea
  SciTegic01221513273D

 13 13  0  0  0  0            999 V2000
    1.2886    0.7554    0.0003 C   0  0  0  0  0  0  0  0  0  1  0  0
    0.4634    1.8758    0.0004 C   0  0  0  0  0  0  0  0  0  2  0  0
    1.0109    3.1534   -0.0001 C   0  0  0  0  0  0  0  0  0  3  0  0
    2.3904    3.3215   -0.0008 C   0  0  0  0  0  0  0  0  0  4  0  0
    3.2187    2.2035   -0.0009 C   0  0  0  0  0  0  0  0  0  5  0  0
    2.6685    0.9267   -0.0004 C   0  0  0  0  0  0  0  0  0  6  0  0
    2.9267    4.6203   -0.0013 O   0  0  0  0  0  0  0  0  0  7  0  0
    4.3617    4.5932   -0.0019 C   0  0  0  0  0  0  0  0  0  8  0  0
   -0.0247    4.5356    0.0000 Cl  0  0  0  0  0  0  0  0  0  9  0  0
    0.7658   -0.5665    0.0008 N   0  0  0  0  0  0  0  0  0 10  0  0
   -0.6176   -0.8896    0.0015 C   0  0  0  0  0  0  0  0  0 11  0  0
   -1.4941   -0.0177    0.0016 O   0  0  0  0  0  0  0  0  0 12  0  0
   -0.9987   -2.2324    0.0020 N   0  0  0  0  0  0  0  0  0 13  0  0
 11 13  1  0
 11 12  2  0
 10 11  1  0
  1 10  1  0
  3  9  1  0
  7  8  1  0
  4  7  1  0
  6  1  4  0
  5  6  4  0
  4  5  4  0
  3  4  4  0
  2  3  4  0
  1  2  4  0
M  END
> <Name>
3-Chloro-4-methoxyphenylurea

> <CAS RN>
025277-05-8

> <Log Koc>
2

> <VP-0>
7.75979

> <nAromBond>
6

> <MAXDP>
3.52769

> <nHBAcc>
3

> <Splitting>
1

$$$$
Triforine
  SciTegic01221513273D

 24 24  0  0  0  0            999 V2000
   -3.3250    3.1739    0.9887 N   0  0  0  0  0  0  0  0  0  1  0  0
   -2.5694    2.7322    2.2092 C   0  0  0  0  0  0  0  0  0  2  0  0
   -1.0592    2.4327    1.9228 C   0  0  0  0  0  0  0  0  0  3  0  0
   -0.6107    3.2421    0.8024 N   0  0  0  0  0  0  0  0  0  4  0  0
   -1.2945    2.6906   -0.4224 C   0  0  0  0  0  0  0  0  0  5  0  0
   -2.7920    2.3508   -0.1335 C   0  0  0  0  0  0  0  0  0  6  0  0
    0.8900    3.2448    0.5714 C   0  0  1  0  0  0  0  0  0  7  0  0
    1.2203    2.2167    0.3684 H   0  0  0  0  0  0  0  0  0  8  0  0
    1.2027    4.0706   -0.6063 N   0  0  0  0  0  0  0  0  0  9  0  0
    0.6436    5.3523   -0.8607 C   0  0  0  0  0  0  0  0  0 10  0  0
   -0.1755    5.8551   -0.0844 O   0  0  0  0  0  0  0  0  0 11  0  0
    1.7543    3.8024    1.7957 C   0  0  0  0  0  0  0  0  0 12  0  0
    1.3087    5.4659    2.2020 Cl  0  0  0  0  0  0  0  0  0 13  0  0
    3.4511    3.7728    1.3081 Cl  0  0  0  0  0  0  0  0  0 14  0  0
    1.6242    2.8272    3.2757 Cl  0  0  0  0  0  0  0  0  0 15  0  0
   -3.2847    4.6936    0.6805 C   0  0  1  0  0  0  0  0  0 16  0  0
   -2.2550    5.0171    0.5091 H   0  0  0  0  0  0  0  0  0 17  0  0
   -4.0642    4.9700   -0.5341 N   0  0  0  0  0  0  0  0  0 18  0  0
   -5.3316    4.3977   -0.8148 C   0  0  0  0  0  0  0  0  0 19  0  0
   -5.8559    3.6001   -0.0294 O   0  0  0  0  0  0  0  0  0 20  0  0
   -3.8649    5.6163    1.8431 C   0  0  0  0  0  0  0  0  0 21  0  0
   -2.9332    5.5286    3.3522 Cl  0  0  0  0  0  0  0  0  0 22  0  0
   -5.5483    5.2184    2.2127 Cl  0  0  0  0  0  0  0  0  0 23  0  0
   -3.7856    7.2892    1.2849 Cl  0  0  0  0  0  0  0  0  0 24  0  0
 21 24  1  0
 21 23  1  0
 21 22  1  0
 16 21  1  0
 19 20  2  0
 18 19  1  0
 16 18  1  0
 16 17  1  0
  1 16  1  0
 12 15  1  0
 12 14  1  0
 12 13  1  0
  7 12  1  0
 10 11  2  0
  9 10  1  0
  7  9  1  0
  7  8  1  0
  4  7  1  0
  6  1  1  0
  5  6  1  0
  4  5  1  0
  3  4  1  0
  2  3  1  0
  1  2  1  0
M  END
> <Name>
Triforine

> <CAS RN>
026644-46-2

> <Log Koc>
2.8

> <VP-0>
15.6521

> <nAromBond>
0

> <MAXDP>
3.9675

> <nHBAcc>
6

> <Splitting>
1

$$$$
Acephate
  SciTegic01221513273D

 10  9  0  0  0  0            999 V2000
   -1.6704   -0.2579    1.5347 C   0  0  0  0  0  0  0  0  0  1  0  0
   -0.7525    0.6772    0.9605 O   0  0  0  0  0  0  0  0  0  2  0  0
    0.1426   -0.0456   -0.0782 P   0  0  2  0  0  0  0  0  0  3  0  0
   -0.6508   -0.6058   -1.0590 O   0  0  0  0  0  0  0  0  0  4  0  0
    1.1617   -1.4362    0.7914 S   0  0  0  0  0  0  0  0  0  5  0  0
    2.2373   -0.7056    2.0526 C   0  0  0  0  0  0  0  0  0  6  0  0
    1.1170    0.9759   -0.7245 N   0  0  0  0  0  0  0  0  0  7  0  0
    1.9493    0.5761   -1.7698 C   0  0  0  0  0  0  0  0  0  8  0  0
    1.9102   -0.5895   -2.1796 O   0  0  0  0  0  0  0  0  0  9  0  0
    2.8940    1.5601   -2.3944 C   0  0  0  0  0  0  0  0  0 10  0  0
  8 10  1  0
  8  9  2  0
  7  8  1  0
  3  7  1  0
  5  6  1  0
  3  5  1  0
  3  4  2  0
  2  3  1  0
  1  2  1  0
M  END
> <Name>
Acephate

> <CAS RN>
030560-19-1

> <Log Koc>
0.39

> <VP-0>
7.12065

> <nAromBond>
0

> <MAXDP>
4.42505

> <nHBAcc>
4

> <Splitting>
1

$$$$
Fenamiphos Sulfoxide
  SciTegic01221513273D

 20 20  0  0  0  0            999 V2000
    0.7759    1.3015   -0.9728 O   0  0  0  0  0  0  0  0  0  1  0  0
   -0.0991    1.4770    0.0814 P   0  0  2  0  0  0  0  0  0  2  0  0
    0.4981    2.5887    1.0274 O   0  0  0  0  0  0  0  0  0  3  0  0
    0.7905    3.8332    0.3942 C   0  0  0  0  0  0  0  0  0  4  0  0
    0.5517    4.0478   -0.9599 C   0  0  0  0  0  0  0  0  0  5  0  0
    0.8415    5.2739   -1.5464 C   0  0  0  0  0  0  0  0  0  6  0  0
    1.3759    6.3027   -0.7732 C   0  0  0  0  0  0  0  0  0  7  0  0
    1.6192    6.0897    0.5786 C   0  0  0  0  0  0  0  0  0  8  0  0
    1.3265    4.8617    1.1600 C   0  0  0  0  0  0  0  0  0  9  0  0
    1.7672    7.8915   -1.4780 S   0  0  0  0  0  0  0  0  0 10  0  0
    2.5525    8.6994   -0.4626 O   0  0  0  0  0  0  0  0  0 11  0  0
    0.2499    8.8022   -1.8952 C   0  0  0  0  0  0  0  0  0 12  0  0
    0.5810    5.4600   -3.0150 C   0  0  0  0  0  0  0  0  0 13  0  0
   -0.1751    0.1260    0.8991 O   0  0  0  0  0  0  0  0  0 14  0  0
   -0.5059   -1.0400    0.0829 C   0  0  0  0  0  0  0  0  0 15  0  0
    0.7078   -1.5546   -0.7254 C   0  0  0  0  0  0  0  0  0 16  0  0
   -1.5732    1.8905   -0.5178 N   0  0  0  0  0  0  0  0  0 17  0  0
   -2.7002    2.1765    0.4724 C   0  0  0  0  0  0  0  0  0 18  0  0
   -2.4598    3.4070    1.3656 C   0  0  0  0  0  0  0  0  0 19  0  0
   -3.1098    0.9690    1.3346 C   0  0  0  0  0  0  0  0  0 20  0  0
 18 20  1  0
 18 19  1  0
 17 18  1  0
  2 17  1  0
 15 16  1  0
 14 15  1  0
  2 14  1  0
  6 13  1  0
 10 12  1  0
 10 11  2  0
  7 10  1  0
  9  4  4  0
  8  9  4  0
  7  8  4  0
  6  7  4  0
  5  6  4  0
  4  5  4  0
  3  4  1  0
  2  3  1  0
  1  2  2  0
M  END
> <Name>
Fenamiphos Sulfoxide

> <CAS RN>
031972-43-7

> <Log Koc>
1.57

> <VP-0>
13.1878

> <nAromBond>
6

> <MAXDP>
5.64337

> <nHBAcc>
4

> <Splitting>
1

$$$$
Acetochlor
  SciTegic01221513273D

 18 18  0  0  0  0            999 V2000
    1.4359    3.6609   -0.3661 C   0  0  0  0  0  0  0  0  0  1  0  0
    2.7937    3.6813   -0.6346 C   0  0  0  0  0  0  0  0  0  2  0  0
    3.5026    2.4918   -0.6199 C   0  0  0  0  0  0  0  0  0  3  0  0
    2.8765    1.2816   -0.3419 C   0  0  0  0  0  0  0  0  0  4  0  0
    1.4958    1.2509   -0.0610 C   0  0  0  0  0  0  0  0  0  5  0  0
    0.7883    2.4653   -0.0818 C   0  0  0  0  0  0  0  0  0  6  0  0
   -0.6900    2.5577    0.2284 C   0  0  0  0  0  0  0  0  0  7  0  0
    0.7886   -0.0005    0.2697 N   0  0  0  0  0  0  0  0  0  8  0  0
   -0.2192   -0.5212   -0.6335 C   0  0  0  0  0  0  0  0  0  9  0  0
   -0.4866    0.1005   -1.6680 O   0  0  0  0  0  0  0  0  0 10  0  0
   -0.8961   -1.8456   -0.3909 C   0  0  0  0  0  0  0  0  0 11  0  0
   -2.0235   -2.1766   -1.7089 Cl  0  0  0  0  0  0  0  0  0 12  0  0
    1.1470   -0.7432    1.5131 C   0  0  0  0  0  0  0  0  0 13  0  0
    0.0134   -1.1012    2.3373 O   0  0  0  0  0  0  0  0  0 14  0  0
   -0.5513    0.0566    2.9805 C   0  0  0  0  0  0  0  0  0 15  0  0
    0.4923    0.7072    3.9137 C   0  0  0  0  0  0  0  0  0 16  0  0
    3.7953    0.0528   -0.3952 C   0  0  0  0  0  0  0  0  0 17  0  0
    3.2464   -1.0634   -1.3157 C   0  0  0  0  0  0  0  0  0 18  0  0
 17 18  1  0
  4 17  1  0
 15 16  1  0
 14 15  1  0
 13 14  1  0
  8 13  1  0
 11 12  1  0
  9 11  1  0
  9 10  2  0
  8  9  1  0
  5  8  1  0
  6  7  1  0
  6  1  4  0
  5  6  4  0
  4  5  4  0
  3  4  4  0
  2  3  4  0
  1  2  4  0
M  END
> <Name>
Acetochlor

> <CAS RN>
034256-82-1

> <Log Koc>
2.22

> <VP-0>
11.9581

> <nAromBond>
6

> <MAXDP>
5.12549

> <nHBAcc>
3

> <Splitting>
1

$$$$
2,4,2'-Trichlorobiphenyl
  SciTegic01221513273D

 15 16  0  0  0  0            999 V2000
   -0.5764    4.4359    2.3068 C   0  0  0  0  0  0  0  0  0  1  0  0
    0.1549    3.3902    2.8488 C   0  0  0  0  0  0  0  0  0  2  0  0
    0.4858    2.2697    2.0920 C   0  0  0  0  0  0  0  0  0  3  0  0
    0.0778    2.1800    0.7477 C   0  0  0  0  0  0  0  0  0  4  0  0
   -0.6553    3.2456    0.2308 C   0  0  0  0  0  0  0  0  0  5  0  0
   -0.9850    4.3627    0.9860 C   0  0  0  0  0  0  0  0  0  6  0  0
    0.4031    0.9598   -0.1774 C   0  0  0  0  0  0  0  0  0  7  0  0
    0.0030    0.8735   -1.5241 C   0  0  0  0  0  0  0  0  0  8  0  0
    0.3326   -0.2481   -2.2799 C   0  0  0  0  0  0  0  0  0  9  0  0
    1.0549   -1.2999   -1.7370 C   0  0  0  0  0  0  0  0  0 10  0  0
    1.4551   -1.2282   -0.4133 C   0  0  0  0  0  0  0  0  0 11  0  0
    1.1274   -0.1105    0.3418 C   0  0  0  0  0  0  0  0  0 12  0  0
   -0.9057    2.0994   -2.3612 Cl  0  0  0  0  0  0  0  0  0 13  0  0
    1.4072    1.0502    2.9243 Cl  0  0  0  0  0  0  0  0  0 14  0  0
   -0.9735    5.8150    3.2689 Cl  0  0  0  0  0  0  0  0  0 15  0  0
  1 15  1  0
  3 14  1  0
  8 13  1  0
 12  7  4  0
 11 12  4  0
 10 11  4  0
  9 10  4  0
  8  9  4  0
  7  8  4  0
  4  7  1  0
  6  1  4  0
  5  6  4  0
  4  5  4  0
  3  4  4  0
  2  3  4  0
  1  2  4  0
M  END
> <Name>
2,4,2'-Trichlorobiphenyl

> <CAS RN>
037680-66-3

> <Log Koc>
4.84

> <VP-0>
9.94313

> <nAromBond>
13

> <MAXDP>
0.401451

> <nHBAcc>
0

> <Splitting>
1

$$$$
2,2',3,3',4,4'-Hexachlorobiphenyl
  SciTegic01221513273D

 18 19  0  0  0  0            999 V2000
    0.4127    1.5640    2.7865 C   0  0  0  0  0  0  0  0  0  1  0  0
   -0.0584    1.9734    1.5410 C   0  0  0  0  0  0  0  0  0  2  0  0
   -1.1446    2.8642    1.5067 C   0  0  0  0  0  0  0  0  0  3  0  0
   -1.6986    3.3272    2.6965 C   0  0  0  0  0  0  0  0  0  4  0  0
   -1.1984    2.9224    3.9254 C   0  0  0  0  0  0  0  0  0  5  0  0
   -0.1389    2.0311    3.9716 C   0  0  0  0  0  0  0  0  0  6  0  0
   -1.9045    3.5126    5.3874 Cl  0  0  0  0  0  0  0  0  0  7  0  0
   -3.0387    4.4154    2.6410 Cl  0  0  0  0  0  0  0  0  0  8  0  0
   -1.9175    3.4119    0.0706 Cl  0  0  0  0  0  0  0  0  0  9  0  0
    0.6856    1.3474    0.3583 C   0  0  0  0  0  0  0  0  0 10  0  0
    0.8451    1.8673   -0.9371 C   0  0  0  0  0  0  0  0  0 11  0  0
    1.5663    1.1506   -1.8875 C   0  0  0  0  0  0  0  0  0 12  0  0
    2.1377   -0.0753   -1.5789 C   0  0  0  0  0  0  0  0  0 13  0  0
    2.0016   -0.5897   -0.2999 C   0  0  0  0  0  0  0  0  0 14  0  0
    1.2869    0.1251    0.6513 C   0  0  0  0  0  0  0  0  0 15  0  0
    3.0277   -0.9447   -2.7774 Cl  0  0  0  0  0  0  0  0  0 16  0  0
    1.7621    1.8043   -3.4740 Cl  0  0  0  0  0  0  0  0  0 17  0  0
    0.2535    3.3963   -1.4590 Cl  0  0  0  0  0  0  0  0  0 18  0  0
 11 18  1  0
 12 17  1  0
 13 16  1  0
 15 10  4  0
 14 15  4  0
 13 14  4  0
 12 13  4  0
 11 12  4  0
 10 11  4  0
  2 10  1  0
  3  9  1  0
  4  8  1  0
  5  7  1  0
  6  1  4  0
  5  6  4  0
  4  5  4  0
  3  4  4  0
  2  3  4  0
  1  2  4  0
M  END
> <Name>
2,2',3,3',4,4'-Hexachlorobiphenyl

> <CAS RN>
038380-07-3

> <Log Koc>
5.74

> <VP-0>
13.1128

> <nAromBond>
13

> <MAXDP>
0.424369

> <nHBAcc>
0

> <Splitting>
1

$$$$
Diethatyl-Ethyl
  SciTegic01221513273D

 21 21  0  0  0  0            999 V2000
    5.4792    0.8091    0.9203 C   0  0  0  0  0  0  0  0  0  1  0  0
    4.9219    2.0587    0.7093 C   0  0  0  0  0  0  0  0  0  2  0  0
    3.5629    2.2086    0.4581 C   0  0  0  0  0  0  0  0  0  3  0  0
    2.7207    1.0785    0.4234 C   0  0  0  0  0  0  0  0  0  4  0  0
    3.2984   -0.1835    0.6470 C   0  0  0  0  0  0  0  0  0  5  0  0
    4.6613   -0.3070    0.8882 C   0  0  0  0  0  0  0  0  0  6  0  0
    2.5032   -1.4683    0.6807 C   0  0  0  0  0  0  0  0  0  7  0  0
    1.7089   -1.5516    2.0016 C   0  0  0  0  0  0  0  0  0  8  0  0
    1.2757    1.2108    0.1748 N   0  0  0  0  0  0  0  0  0  9  0  0
    0.4613    1.8768    1.1761 C   0  0  0  0  0  0  0  0  0 10  0  0
    0.9957    2.2438    2.2286 O   0  0  0  0  0  0  0  0  0 11  0  0
   -0.9820    2.2532    0.9383 C   0  0  0  0  0  0  0  0  0 12  0  0
   -1.6095    3.0885    2.3613 Cl  0  0  0  0  0  0  0  0  0 13  0  0
    0.7049    0.7503   -1.1386 C   0  0  0  0  0  0  0  0  0 14  0  0
   -0.4077   -0.2905   -1.0655 C   0  0  0  0  0  0  0  0  0 15  0  0
   -0.9167   -0.6938   -2.1183 O   0  0  0  0  0  0  0  0  0 16  0  0
   -0.8268   -0.8056    0.1743 O   0  0  0  0  0  0  0  0  0 17  0  0
   -1.8964   -1.7638    0.0337 C   0  0  0  0  0  0  0  0  0 18  0  0
   -3.2284   -1.0562   -0.3218 C   0  0  0  0  0  0  0  0  0 19  0  0
    3.1055    3.6575    0.2261 C   0  0  0  0  0  0  0  0  0 20  0  0
    2.3409    3.8560   -1.0997 C   0  0  0  0  0  0  0  0  0 21  0  0
 20 21  1  0
  3 20  1  0
 18 19  1  0
 17 18  1  0
 15 17  1  0
 15 16  2  0
 14 15  1  0
  9 14  1  0
 12 13  1  0
 10 12  1  0
 10 11  2  0
  9 10  1  0
  4  9  1  0
  7  8  1  0
  5  7  1  0
  6  1  4  0
  5  6  4  0
  4  5  4  0
  3  4  4  0
  2  3  4  0
  1  2  4  0
M  END
> <Name>
Diethatyl-Ethyl

> <CAS RN>
038727-55-8

> <Log Koc>
3.11

> <VP-0>
13.5734

> <nAromBond>
6

> <MAXDP>
5.34753

> <nHBAcc>
4

> <Splitting>
1

$$$$
Hexazinone
  SciTegic01221513273D

 18 19  0  0  0  0            999 V2000
    0.9354    1.9268   -0.5118 N   0  0  0  0  0  0  0  0  0  1  0  0
    2.2005    2.2637   -0.7293 C   0  0  0  0  0  0  0  0  0  2  0  0
    3.1408    1.3138   -0.5474 N   0  0  0  0  0  0  0  0  0  3  0  0
    2.7837    0.0904   -0.1656 C   0  0  0  0  0  0  0  0  0  4  0  0
    3.6878   -0.7376   -0.0045 O   0  0  0  0  0  0  0  0  0  5  0  0
    1.5042   -0.2250    0.0440 N   0  0  0  0  0  0  0  0  0  6  0  0
    0.5861    0.7093   -0.1315 C   0  0  0  0  0  0  0  0  0  7  0  0
   -0.6063    0.4446    0.0579 O   0  0  0  0  0  0  0  0  0  8  0  0
    1.0290   -1.5595    0.4706 C   0  0  0  0  0  0  0  0  0  9  0  0
    1.0821   -1.7655    2.0220 C   0  0  0  0  0  0  0  0  0 10  0  0
    2.4133   -2.4024    2.3822 C   0  0  0  0  0  0  0  0  0 11  0  0
    2.3580   -3.8872    1.8646 C   0  0  0  0  0  0  0  0  0 12  0  0
    1.5150   -4.0043    0.5384 C   0  0  0  0  0  0  0  0  0 13  0  0
    1.7638   -2.7365   -0.2600 C   0  0  0  0  0  0  0  0  0 14  0  0
    4.5713    1.4867   -0.7288 C   0  0  0  0  0  0  0  0  0 15  0  0
    2.3575    3.6839   -1.1479 N   0  0  0  0  0  0  0  0  0 16  0  0
    3.5927    4.3882   -1.4690 C   0  0  0  0  0  0  0  0  0 17  0  0
    1.1497    4.4529   -1.2486 C   0  0  0  0  0  0  0  0  0 18  0  0
 16 18  1  0
 16 17  1  0
  2 16  1  0
  3 15  1  0
 14  9  1  0
 13 14  1  0
 12 13  1  0
 11 12  1  0
 10 11  1  0
  9 10  1  0
  6  9  1  0
  7  8  2  0
  7  1  4  0
  6  7  4  0
  4  6  4  0
  4  5  2  0
  3  4  4  0
  2  3  4  0
  1  2  4  0
M  END
> <Name>
Hexazinone

> <CAS RN>
051235-04-2

> <Log Koc>
1.73

> <VP-0>
11.2182

> <nAromBond>
0

> <MAXDP>
5.27336

> <nHBAcc>
6

> <Splitting>
1

$$$$
Propiconazole
  SciTegic01221513273D

 23 25  0  0  0  0            999 V2000
    0.9473    2.1875   -0.3854 N   0  0  0  0  0  0  0  0  0  1  0  0
    1.1428    2.2854    0.8590 N   0  0  0  0  0  0  0  0  0  2  0  0
    1.9210    3.3422    1.0630 C   0  0  0  0  0  0  0  0  0  3  0  0
    2.1897    3.8872   -0.1174 N   0  0  0  0  0  0  0  0  0  4  0  0
    1.5718    3.1580   -1.0357 C   0  0  0  0  0  0  0  0  0  5  0  0
    0.1507    1.1703   -1.0287 C   0  0  0  0  0  0  0  0  0  6  0  0
   -0.1204   -0.0467   -0.0958 C   0  0  2  0  0  0  0  0  0  7  0  0
   -0.9962   -0.9128   -0.8782 O   0  0  0  0  0  0  0  0  0  8  0  0
   -2.1037   -1.1304   -0.0046 C   0  0  2  0  0  0  0  0  0  9  0  0
   -3.0036   -1.4338   -0.5571 H   0  0  0  0  0  0  0  0  0 10  0  0
   -2.2194    0.2752    0.6095 C   0  0  0  0  0  0  0  0  0 11  0  0
   -0.8801    0.3565    1.0756 O   0  0  0  0  0  0  0  0  0 12  0  0
   -1.7320   -2.2678    1.0405 C   0  0  0  0  0  0  0  0  0 13  0  0
   -2.8298   -2.6334    2.1028 C   0  0  0  0  0  0  0  0  0 14  0  0
   -2.9511   -1.6217    3.2689 C   0  0  0  0  0  0  0  0  0 15  0  0
    1.1936   -0.7020    0.2919 C   0  0  0  0  0  0  0  0  0 16  0  0
    1.9420   -1.4322   -0.6327 C   0  0  0  0  0  0  0  0  0 17  0  0
    3.1320   -2.0290   -0.2364 C   0  0  0  0  0  0  0  0  0 18  0  0
    3.5793   -1.9027    1.0741 C   0  0  0  0  0  0  0  0  0 19  0  0
    2.8340   -1.1783    1.9947 C   0  0  0  0  0  0  0  0  0 20  0  0
    1.6426   -0.5816    1.6010 C   0  0  0  0  0  0  0  0  0 21  0  0
    5.0584   -2.6503    1.5595 Cl  0  0  0  0  0  0  0  0  0 22  0  0
    1.4087   -1.6207   -2.2704 Cl  0  0  0  0  0  0  0  0  0 23  0  0
 17 23  1  0
 19 22  1  0
 21 16  4  0
 20 21  4  0
 19 20  4  0
 18 19  4  0
 17 18  4  0
 16 17  4  0
  7 16  1  0
 14 15  1  0
 13 14  1  0
  9 13  1  0
 12  7  1  0
 11 12  1  0
  9 11  1  0
  9 10  1  0
  8  9  1  0
  7  8  1  0
  6  7  1  0
  1  6  1  0
  5  1  4  0
  4  5  4  0
  3  4  4  0
  2  3  4  0
  1  2  4  0
M  END
> <Name>
Propiconazole

> <CAS RN>
060207-90-1

> <Log Koc>
3.39

> <VP-0>
13.7184

> <nAromBond>
11

> <MAXDP>
2.89824

> <nHBAcc>
5

> <Splitting>
1

$$$$
Pentyl-N-phenylcarbamate
  SciTegic01221513273D

 15 15  0  0  0  0            999 V2000
    3.7647    3.5739   -0.9398 C   0  0  0  0  0  0  0  0  0  1  0  0
    4.3811    2.3373   -0.7867 C   0  0  0  0  0  0  0  0  0  2  0  0
    3.6140    1.1800   -0.7279 C   0  0  0  0  0  0  0  0  0  3  0  0
    2.2274    1.2498   -0.8231 C   0  0  0  0  0  0  0  0  0  4  0  0
    1.6163    2.4899   -0.9751 C   0  0  0  0  0  0  0  0  0  5  0  0
    2.3807    3.6499   -1.0345 C   0  0  0  0  0  0  0  0  0  6  0  0
    1.4795    0.0454   -0.7443 N   0  0  0  0  0  0  0  0  0  7  0  0
    0.0666   -0.0296   -0.8225 C   0  0  0  0  0  0  0  0  0  8  0  0
   -0.6297    0.9754   -1.0061 O   0  0  0  0  0  0  0  0  0  9  0  0
   -0.5525   -1.2743   -0.6315 O   0  0  0  0  0  0  0  0  0 10  0  0
   -2.0041   -1.2002   -0.6441 C   0  0  0  0  0  0  0  0  0 11  0  0
   -2.6079   -1.0176    0.7992 C   0  0  0  0  0  0  0  0  0 12  0  0
   -2.3066    0.3683    1.4306 C   0  0  0  0  0  0  0  0  0 13  0  0
   -2.8327    0.4287    2.8746 C   0  0  0  0  0  0  0  0  0 14  0  0
   -2.0902   -0.6119    3.7354 C   0  0  0  0  0  0  0  0  0 15  0  0
 14 15  1  0
 13 14  1  0
 12 13  1  0
 11 12  1  0
 10 11  1  0
  8 10  1  0
  8  9  2  0
  7  8  1  0
  4  7  1  0
  6  1  4  0
  5  6  4  0
  4  5  4  0
  3  4  4  0
  2  3  4  0
  1  2  4  0
M  END
> <Name>
Pentyl-N-phenylcarbamate

> <CAS RN>
063075-06-9

> <Log Koc>
2.61

> <VP-0>
9.03168

> <nAromBond>
6

> <MAXDP>
4.24227

> <nHBAcc>
3

> <Splitting>
1

$$$$
4-Chlorobenzaloxime-N-methylcarbamate
  SciTegic01221513273D

 14 14  0  0  0  0            999 V2000
    0.8303    5.4251   -0.0036 C   0  0  0  0  0  0  0  0  0  1  0  0
    2.2107    5.5900   -0.0269 C   0  0  0  0  0  0  0  0  0  2  0  0
    3.0443    4.4771   -0.0406 C   0  0  0  0  0  0  0  0  0  3  0  0
    2.4972    3.1991   -0.0312 C   0  0  0  0  0  0  0  0  0  4  0  0
    1.1169    3.0348   -0.0079 C   0  0  0  0  0  0  0  0  0  5  0  0
    0.2831    4.1471    0.0059 C   0  0  0  0  0  0  0  0  0  6  0  0
    0.5438    1.6935    0.0024 C   0  0  0  0  0  0  0  0  0  7  0  0
    1.3087    0.6771   -0.0111 N   0  0  0  0  0  0  0  0  0  8  0  0
    0.8982   -0.6310   -0.0027 O   0  0  0  0  0  0  0  0  0  9  0  0
   -0.5072   -0.9332    0.0249 C   0  0  0  0  0  0  0  0  0 10  0  0
   -1.3930   -0.0695    0.0423 O   0  0  0  0  0  0  0  0  0 11  0  0
   -0.8931   -2.2744    0.0331 N   0  0  0  0  0  0  0  0  0 12  0  0
   -2.2852   -2.6194    0.0612 C   0  0  0  0  0  0  0  0  0 13  0  0
    2.8906    7.1783   -0.0386 Cl  0  0  0  0  0  0  0  0  0 14  0  0
  2 14  1  0
 12 13  1  0
 10 12  1  0
 10 11  2  0
  9 10  1  0
  8  9  1  0
  7  8  2  0
  5  7  1  0
  6  1  4  0
  5  6  4  0
  4  5  4  0
  3  4  4  0
  2  3  4  0
  1  2  4  0
M  END
> <Name>
4-Chlorobenzaloxime-N-methylcarbamate

> <CAS RN>
071059-53-5

> <Log Koc>
2

> <VP-0>
8.28435

> <nAromBond>
6

> <MAXDP>
3.61559

> <nHBAcc>
2

> <Splitting>
1

$$$$
Sulfometuron-Methyl
  SciTegic01221513273D

 25 26  0  0  0  0            999 V2000
    1.1755   -0.1283    1.9067 S   0  0  0  0  0  0  0  0  0  1  0  0
    0.9864   -1.5650    2.3539 O   0  0  0  0  0  0  0  0  0  2  0  0
    1.5912    0.7167    3.0955 O   0  0  0  0  0  0  0  0  0  3  0  0
   -0.3002    0.4245    1.2752 N   0  0  0  0  0  0  0  0  0  4  0  0
   -1.5011    0.1060    1.9040 C   0  0  0  0  0  0  0  0  0  5  0  0
   -1.4926   -0.5236    2.9675 O   0  0  0  0  0  0  0  0  0  6  0  0
   -2.7111    0.3144    1.2322 N   0  0  0  0  0  0  0  0  0  7  0  0
   -2.7417    0.9975    0.0095 C   0  0  0  0  0  0  0  0  0  8  0  0
   -3.8327    0.9263   -0.7463 N   0  0  0  0  0  0  0  0  0  9  0  0
   -3.8934    1.5465   -1.9179 C   0  0  0  0  0  0  0  0  0 10  0  0
   -2.8054    2.2856   -2.3590 C   0  0  0  0  0  0  0  0  0 11  0  0
   -1.6836    2.3431   -1.5455 C   0  0  0  0  0  0  0  0  0 12  0  0
   -1.6826    1.6953   -0.3884 N   0  0  0  0  0  0  0  0  0 13  0  0
   -0.4796    3.1298   -1.9689 C   0  0  0  0  0  0  0  0  0 14  0  0
   -5.1288    1.4446   -2.7622 C   0  0  0  0  0  0  0  0  0 15  0  0
    2.4454   -0.0766    0.6538 C   0  0  0  0  0  0  0  0  0 16  0  0
    2.2410   -0.5310   -0.6540 C   0  0  0  0  0  0  0  0  0 17  0  0
    3.2774   -0.4480   -1.5772 C   0  0  0  0  0  0  0  0  0 18  0  0
    4.5123    0.0746   -1.2142 C   0  0  0  0  0  0  0  0  0 19  0  0
    4.7165    0.5215    0.0842 C   0  0  0  0  0  0  0  0  0 20  0  0
    3.6837    0.4461    1.0106 C   0  0  0  0  0  0  0  0  0 21  0  0
    0.9620   -1.1057   -1.1175 C   0  0  0  0  0  0  0  0  0 22  0  0
    0.0178   -1.2856   -0.3474 O   0  0  0  0  0  0  0  0  0 23  0  0
    0.8231   -1.4597   -2.4555 O   0  0  0  0  0  0  0  0  0 24  0  0
   -0.4909   -1.9804   -2.6794 C   0  0  0  0  0  0  0  0  0 25  0  0
 24 25  1  0
 22 24  1  0
 22 23  2  0
 17 22  1  0
 21 16  4  0
 20 21  4  0
 19 20  4  0
 18 19  4  0
 17 18  4  0
 16 17  4  0
  1 16  1  0
 10 15  1  0
 12 14  1  0
 13  8  4  0
 12 13  4  0
 11 12  4  0
 10 11  4  0
  9 10  4  0
  8  9  4  0
  7  8  1  0
  5  7  1  0
  5  6  2  0
  4  5  1  0
  1  4  1  0
  1  3  2  0
  1  2  2  0
M  END
> <Name>
Sulfometuron-Methyl

> <CAS RN>
074222-97-2

> <Log Koc>
1.8

> <VP-0>
13.9344

> <nAromBond>
12

> <MAXDP>
5.53549

> <nHBAcc>
9

> <Splitting>
1

$$$$
Thiameturon-methyl
  SciTegic01221513273D

 25 26  0  0  0  0            999 V2000
    3.9774    3.5552   -0.1055 C   0  0  0  0  0  0  0  0  0  1  0  0
    5.1177    4.3665   -0.2041 C   0  0  0  0  0  0  0  0  0  2  0  0
    6.3107    3.6414   -0.2617 C   0  0  0  0  0  0  0  0  0  3  0  0
    5.9115    2.0682   -0.1902 S   0  0  0  0  0  0  0  0  0  4  0  0
    4.2983    2.1949   -0.0869 C   0  0  0  0  0  0  0  0  0  5  0  0
    3.4098    1.0341    0.0056 C   0  0  0  0  0  0  0  0  0  6  0  0
    2.1905    1.1655    0.0969 O   0  0  0  0  0  0  0  0  0  7  0  0
    3.9697   -0.2423   -0.0140 O   0  0  0  0  0  0  0  0  0  8  0  0
    2.9444   -1.2309    0.0747 C   0  0  0  0  0  0  0  0  0  9  0  0
    2.3446    4.2999   -0.0193 S   0  0  0  0  0  0  0  0  0 10  0  0
    2.2020    4.9606    1.3379 O   0  0  0  0  0  0  0  0  0 11  0  0
    2.2813    5.4010   -1.0608 O   0  0  0  0  0  0  0  0  0 12  0  0
    1.0453    3.2133   -0.2410 N   0  0  0  0  0  0  0  0  0 13  0  0
   -0.0264    3.5655   -1.0721 C   0  0  0  0  0  0  0  0  0 14  0  0
   -0.0182    4.6577   -1.6498 O   0  0  0  0  0  0  0  0  0 15  0  0
   -1.0701    2.6635   -1.3333 N   0  0  0  0  0  0  0  0  0 16  0  0
   -1.1757    1.4276   -0.6812 C   0  0  0  0  0  0  0  0  0 17  0  0
   -0.4301    1.1507    0.3800 N   0  0  0  0  0  0  0  0  0 18  0  0
   -0.5520   -0.0211    0.9915 C   0  0  0  0  0  0  0  0  0 19  0  0
   -1.4164   -0.9189    0.5378 N   0  0  0  0  0  0  0  0  0 20  0  0
   -2.1615   -0.6432   -0.5244 C   0  0  0  0  0  0  0  0  0 21  0  0
   -2.0436    0.5302   -1.1301 N   0  0  0  0  0  0  0  0  0 22  0  0
   -3.1373   -1.6584   -1.0402 C   0  0  0  0  0  0  0  0  0 23  0  0
    0.2303   -0.3046    2.1105 O   0  0  0  0  0  0  0  0  0 24  0  0
   -0.0757   -1.6150    2.6017 C   0  0  0  0  0  0  0  0  0 25  0  0
 24 25  1  0
 19 24  1  0
 21 23  1  0
 22 17  4  0
 21 22  4  0
 20 21  4  0
 19 20  4  0
 18 19  4  0
 17 18  4  0
 16 17  1  0
 14 16  1  0
 14 15  2  0
 13 14  1  0
 10 13  1  0
 10 12  2  0
 10 11  2  0
  1 10  1  0
  8  9  1  0
  6  8  1  0
  6  7  2  0
  5  6  1  0
  5  1  4  0
  4  5  4  0
  3  4  4  0
  2  3  4  0
  1  2  4  0
M  END
> <Name>
Thiameturon-methyl

> <CAS RN>
079277-27-3

> <Log Koc>
1.65

> <VP-0>
14.2826

> <nAromBond>
11

> <MAXDP>
5.46981

> <nHBAcc>
10

> <Splitting>
1

$$$$
Bifenthrin
  SciTegic01221513273D

 31 33  0  0  0  0            999 V2000
   -2.1504   -0.4912    0.3064 C   0  0  0  0  0  0  0  0  0  1  0  0
   -0.9118   -0.0103    0.3496 C   0  0  0  0  0  0  0  0  0  2  0  0
   -0.2556    0.6808   -0.8156 C   0  0  1  0  0  0  0  0  0  3  0  0
   -0.7465    0.6500   -1.7878 H   0  0  0  0  0  0  0  0  0  4  0  0
    0.8959    1.7980   -0.6548 C   0  0  1  0  0  0  0  0  0  5  0  0
    0.7100    2.4201   -1.5557 H   0  0  0  0  0  0  0  0  0  6  0  0
    0.6358    2.4992    0.7371 C   0  0  0  0  0  0  0  0  0  7  0  0
    0.8273    3.7192    0.8302 O   0  0  0  0  0  0  0  0  0  8  0  0
    0.2162    1.8123    1.8904 O   0  0  0  0  0  0  0  0  0  9  0  0
    0.1097    2.6932    3.0315 C   0  0  0  0  0  0  0  0  0 10  0  0
    1.4463    2.8784    3.7493 C   0  0  0  0  0  0  0  0  0 11  0  0
    1.8592    4.1779    4.0135 C   0  0  0  0  0  0  0  0  0 12  0  0
    3.0617    4.4072    4.6610 C   0  0  0  0  0  0  0  0  0 13  0  0
    3.8482    3.3324    5.0430 C   0  0  0  0  0  0  0  0  0 14  0  0
    3.4579    2.0149    4.7990 C   0  0  0  0  0  0  0  0  0 15  0  0
    4.4654    0.9620    5.3021 C   0  0  0  0  0  0  0  0  0 16  0  0
    4.3323   -0.4208    5.1477 C   0  0  0  0  0  0  0  0  0 17  0  0
    5.2961   -1.2977    5.6270 C   0  0  0  0  0  0  0  0  0 18  0  0
    6.4205   -0.8040    6.2747 C   0  0  0  0  0  0  0  0  0 19  0  0
    6.5694    0.5670    6.4362 C   0  0  0  0  0  0  0  0  0 20  0  0
    5.5978    1.4371    5.9510 C   0  0  0  0  0  0  0  0  0 21  0  0
    2.2330    1.7873    4.1458 C   0  0  0  0  0  0  0  0  0 22  0  0
    1.6919    0.3971    3.8583 C   0  0  0  0  0  0  0  0  0 23  0  0
    1.1697    0.2795   -0.8723 C   0  0  0  0  0  0  0  0  0 24  0  0
    1.7799   -0.4669    0.3317 C   0  0  0  0  0  0  0  0  0 25  0  0
    1.7651    0.0066   -2.2554 C   0  0  0  0  0  0  0  0  0 26  0  0
   -2.6904   -1.1615    1.5297 C   0  0  0  0  0  0  0  0  0 27  0  0
   -3.1859   -0.1804    2.3604 F   0  0  0  0  0  0  0  0  0 28  0  0
   -1.6616   -1.7905    2.2032 F   0  0  0  0  0  0  0  0  0 29  0  0
   -3.7138   -2.0296    1.2108 F   0  0  0  0  0  0  0  0  0 30  0  0
   -3.1244   -0.3445   -1.1172 Cl  0  0  0  0  0  0  0  0  0 31  0  0
  1 31  1  0
 27 30  1  0
 27 29  1  0
 27 28  1  0
  1 27  1  0
 24 26  1  0
 24 25  1  0
 24  3  1  0
  5 24  1  0
 22 23  1  0
 22 11  4  0
 15 22  4  0
 21 16  4  0
 20 21  4  0
 19 20  4  0
 18 19  4  0
 17 18  4  0
 16 17  4  0
 15 16  1  0
 14 15  4  0
 13 14  4  0
 12 13  4  0
 11 12  4  0
 10 11  1  0
  9 10  1  0
  7  9  1  0
  7  8  2  0
  5  7  1  0
  5  6  1  0
  3  5  1  0
  3  4  1  0
  2  3  1  0
  1  2  2  0
M  END
> <Name>
Bifenthrin

> <CAS RN>
082657-04-3

> <Log Koc>
5.35

> <VP-0>
17.1422

> <nAromBond>
13

> <MAXDP>
5.58269

> <nHBAcc>
2

> <Splitting>
1

$$$$
Chlorimuron ethyl
  SciTegic01221513273D

 27 28  0  0  0  0            999 V2000
    5.7728    2.5278    0.3179 C   0  0  0  0  0  0  0  0  0  1  0  0
    4.6804    1.6798    0.1914 C   0  0  0  0  0  0  0  0  0  2  0  0
    3.3960    2.1952    0.2977 C   0  0  0  0  0  0  0  0  0  3  0  0
    3.1905    3.5527    0.5302 C   0  0  0  0  0  0  0  0  0  4  0  0
    4.2858    4.4043    0.6577 C   0  0  0  0  0  0  0  0  0  5  0  0
    5.5732    3.8825    0.5496 C   0  0  0  0  0  0  0  0  0  6  0  0
    4.1513    5.8485    0.9030 C   0  0  0  0  0  0  0  0  0  7  0  0
    5.1797    6.5280    1.0017 O   0  0  0  0  0  0  0  0  0  8  0  0
    2.8917    6.4445    1.0441 O   0  0  0  0  0  0  0  0  0  9  0  0
    2.9836    7.8659    1.2512 C   0  0  0  0  0  0  0  0  0 10  0  0
    3.3654    8.5858   -0.0664 C   0  0  0  0  0  0  0  0  0 11  0  0
    1.5062    4.0982    0.6451 S   0  0  0  0  0  0  0  0  0 12  0  0
    1.2212    5.1540   -0.4063 O   0  0  0  0  0  0  0  0  0 13  0  0
    1.2307    4.6689    2.0237 O   0  0  0  0  0  0  0  0  0 14  0  0
    0.5797    2.7156    0.3673 N   0  0  0  0  0  0  0  0  0 15  0  0
   -0.5201    2.3637    1.1342 C   0  0  0  0  0  0  0  0  0 16  0  0
   -0.9283    3.1017    2.0379 O   0  0  0  0  0  0  0  0  0 17  0  0
   -0.9991    1.0569    1.0187 N   0  0  0  0  0  0  0  0  0 18  0  0
   -0.4918    0.2390   -0.0053 C   0  0  0  0  0  0  0  0  0 19  0  0
    0.0525    0.7960   -1.0833 N   0  0  0  0  0  0  0  0  0 20  0  0
    0.5600    0.0568   -2.0596 C   0  0  0  0  0  0  0  0  0 21  0  0
    0.5332   -1.3251   -1.9502 C   0  0  0  0  0  0  0  0  0 22  0  0
   -0.0357   -1.8789   -0.8123 C   0  0  0  0  0  0  0  0  0 23  0  0
   -0.5358   -1.0830    0.1262 N   0  0  0  0  0  0  0  0  0 24  0  0
   -0.0689   -3.2625   -0.6555 O   0  0  0  0  0  0  0  0  0 25  0  0
   -0.6765   -3.5969    0.5954 C   0  0  0  0  0  0  0  0  0 26  0  0
    1.2542    0.8123   -3.4499 Cl  0  0  0  0  0  0  0  0  0 27  0  0
 21 27  1  0
 25 26  1  0
 23 25  1  0
 24 19  4  0
 23 24  4  0
 22 23  4  0
 21 22  4  0
 20 21  4  0
 19 20  4  0
 18 19  1  0
 16 18  1  0
 16 17  2  0
 15 16  1  0
 12 15  1  0
 12 14  2  0
 12 13  2  0
  4 12  1  0
 10 11  1  0
  9 10  1  0
  7  9  1  0
  7  8  2  0
  5  7  1  0
  6  1  4  0
  5  6  4  0
  4  5  4  0
  3  4  4  0
  2  3  4  0
  1  2  4  0
M  END
> <Name>
Chlorimuron ethyl

> <CAS RN>
090982-32-4

> <Log Koc>
2.04

> <VP-0>
15.1837

> <nAromBond>
12

> <MAXDP>
5.66338

> <nHBAcc>
9

> <Splitting>
1

$$$$
