Formaldehyde
  SciTegic01221512053D

  2  1  0  0  0  0            999 V2000
   -0.1175    0.0012    0.0006 O   0  0  0  0  0  0  0  0  0  1  0  0
    1.1187   -0.0016    0.0005 C   0  0  0  0  0  0  0  0  0  2  0  0
  1  2  2  0
M  END
> <Name>
Formaldehyde

> <CAS RN>
000050-00-0

> <Log Koc>
0.56

> <VP-0>
1.11536

> <nAromBond>
0

> <MAXDP>
1

> <nHBAcc>
1

> <Splitting>
2

$$$$
p,p'-DDT
  SciTegic01221512053D

 19 20  0  0  0  0            999 V2000
   -0.8363    2.1464    3.9044 Cl  0  0  0  0  0  0  0  0  0  1  0  0
    0.4384    1.8922    2.6965 C   0  0  0  0  0  0  0  0  0  2  0  0
    1.5661    3.2475    2.8778 Cl  0  0  0  0  0  0  0  0  0  3  0  0
   -0.1928    1.8238    1.2333 C   0  0  0  0  0  0  0  0  0  4  0  0
   -1.3049    0.7410    1.0681 C   0  0  0  0  0  0  0  0  0  5  0  0
   -2.0635    0.6967   -0.1018 C   0  0  0  0  0  0  0  0  0  6  0  0
   -3.0733   -0.2447   -0.2606 C   0  0  0  0  0  0  0  0  0  7  0  0
   -3.3431   -1.1512    0.7568 C   0  0  0  0  0  0  0  0  0  8  0  0
   -2.6032   -1.1096    1.9316 C   0  0  0  0  0  0  0  0  0  9  0  0
   -1.5941   -0.1656    2.0843 C   0  0  0  0  0  0  0  0  0 10  0  0
   -4.5977   -2.3232    0.5629 Cl  0  0  0  0  0  0  0  0  0 11  0  0
    0.9066    1.6978    0.1289 C   0  0  0  0  0  0  0  0  0 12  0  0
    1.8735    2.6880   -0.0143 C   0  0  0  0  0  0  0  0  0 13  0  0
    2.8607    2.5897   -0.9884 C   0  0  0  0  0  0  0  0  0 14  0  0
    2.8926    1.4895   -1.8349 C   0  0  0  0  0  0  0  0  0 15  0  0
    1.9355    0.4915   -1.7028 C   0  0  0  0  0  0  0  0  0 16  0  0
    0.9520    0.5984   -0.7271 C   0  0  0  0  0  0  0  0  0 17  0  0
    4.1173    1.3622   -3.0469 Cl  0  0  0  0  0  0  0  0  0 18  0  0
    1.3142    0.3938    3.0565 Cl  0  0  0  0  0  0  0  0  0 19  0  0
  2 19  1  0
 15 18  1  0
 17 12  4  0
 16 17  4  0
 15 16  4  0
 14 15  4  0
 13 14  4  0
 12 13  4  0
  4 12  1  0
  8 11  1  0
 10  5  4  0
  9 10  4  0
  8  9  4  0
  7  8  4  0
  6  7  4  0
  5  6  4  0
  4  5  1  0
  2  4  1  0
  2  3  1  0
  1  2  1  0
M  END
> <Name>
p,p'-DDT

> <CAS RN>
000050-29-3

> <Log Koc>
5.33

> <VP-0>
13.3656

> <nAromBond>
12

> <MAXDP>
0.398593

> <nHBAcc>
0

> <Splitting>
1

$$$$
Benzo[a]pyrene
  SciTegic01221512053D

 20 24  0  0  0  0            999 V2000
   -4.8553    3.6081    0.0252 C   0  0  0  0  0  0  0  0  0  1  0  0
   -3.8211    2.8279    0.5296 C   0  0  0  0  0  0  0  0  0  2  0  0
   -2.5446    2.9309   -0.0118 C   0  0  0  0  0  0  0  0  0  3  0  0
   -1.5098    2.1512    0.4918 C   0  0  0  0  0  0  0  0  0  4  0  0
   -1.7492    1.2670    1.5376 C   0  0  0  0  0  0  0  0  0  5  0  0
   -0.7140    0.4877    2.0406 C   0  0  0  0  0  0  0  0  0  6  0  0
    0.5612    0.5925    1.4977 C   0  0  0  0  0  0  0  0  0  7  0  0
    0.8013    1.4766    0.4518 C   0  0  0  0  0  0  0  0  0  8  0  0
   -0.2342    2.2560   -0.0511 C   0  0  0  0  0  0  0  0  0  9  0  0
    0.0067    3.1398   -1.0971 C   0  0  0  0  0  0  0  0  0 10  0  0
   -1.0277    3.9193   -1.6006 C   0  0  0  0  0  0  0  0  0 11  0  0
   -2.3030    3.8148   -1.0580 C   0  0  0  0  0  0  0  0  0 12  0  0
   -3.3371    4.5949   -1.5623 C   0  0  0  0  0  0  0  0  0 13  0  0
   -4.6132    4.4915   -1.0207 C   0  0  0  0  0  0  0  0  0 14  0  0
    1.2820    3.2444   -1.6397 C   0  0  0  0  0  0  0  0  0 15  0  0
    2.3174    2.4651   -1.1368 C   0  0  0  0  0  0  0  0  0 16  0  0
    2.0771    1.5814   -0.0912 C   0  0  0  0  0  0  0  0  0 17  0  0
    3.1125    0.8021    0.4117 C   0  0  0  0  0  0  0  0  0 18  0  0
    2.8721   -0.0818    1.4576 C   0  0  0  0  0  0  0  0  0 19  0  0
    1.5966   -0.1867    2.0006 C   0  0  0  0  0  0  0  0  0 20  0  0
 20  7  4  0
 19 20  4  0
 18 19  4  0
 17 18  4  0
 17  8  4  0
 16 17  4  0
 15 16  4  0
 10 15  4  0
 14  1  4  0
 13 14  4  0
 12 13  4  0
 12  3  4  0
 11 12  4  0
 10 11  4  0
  9 10  4  0
  9  4  4  0
  8  9  4  0
  7  8  4  0
  6  7  4  0
  5  6  4  0
  4  5  4  0
  3  4  4  0
  2  3  4  0
  1  2  4  0
M  END
> <Name>
Benzo[a]pyrene

> <CAS RN>
000050-32-8

> <Log Koc>
5.83

> <VP-0>
10.9282

> <nAromBond>
24

> <MAXDP>
0.309074

> <nHBAcc>
0

> <Splitting>
2

$$$$
4-Methoxyacetanilide
  SciTegic01221512053D

 12 12  0  0  0  0            999 V2000
   -1.1423    3.4262    1.4065 C   0  0  0  0  0  0  0  0  0  1  0  0
   -1.8729    3.7736    2.3409 O   0  0  0  0  0  0  0  0  0  2  0  0
   -0.9584    4.4103    0.2672 C   0  0  0  0  0  0  0  0  0  3  0  0
   -0.5670    2.1956    1.4914 N   0  0  0  0  0  0  0  0  0  4  0  0
    0.3269    1.4872    0.5858 C   0  0  0  0  0  0  0  0  0  5  0  0
    0.7470    1.9689   -0.6525 C   0  0  0  0  0  0  0  0  0  6  0  0
    1.6030    1.2250   -1.4566 C   0  0  0  0  0  0  0  0  0  7  0  0
    2.0536   -0.0182   -1.0320 C   0  0  0  0  0  0  0  0  0  8  0  0
    1.6398   -0.5095    0.2016 C   0  0  0  0  0  0  0  0  0  9  0  0
    0.7833    0.2397    1.0002 C   0  0  0  0  0  0  0  0  0 10  0  0
    2.9196   -0.7591   -1.8543 O   0  0  0  0  0  0  0  0  0 11  0  0
    3.2749   -2.0101   -1.2465 C   0  0  0  0  0  0  0  0  0 12  0  0
 11 12  1  0
  8 11  1  0
 10  5  4  0
  9 10  4  0
  8  9  4  0
  7  8  4  0
  6  7  4  0
  5  6  4  0
  4  5  1  0
  1  4  1  0
  1  3  1  0
  1  2  2  0
M  END
> <Name>
4-Methoxyacetanilide

> <CAS RN>
000051-66-1

> <Log Koc>
1.4

> <VP-0>
7.1259

> <nAromBond>
6

> <MAXDP>
3.62526

> <nHBAcc>
2

> <Splitting>
2

$$$$
Trichlorfon
  SciTegic01221512053D

 13 12  0  0  0  0            999 V2000
    0.9140    1.8189   -2.3296 Cl  0  0  0  0  0  0  0  0  0  1  0  0
    1.4635    0.7391   -1.0465 C   0  0  0  0  0  0  0  0  0  2  0  0
    0.2671    0.0848   -0.2804 C   0  0  2  0  0  0  0  0  0  3  0  0
   -0.3400    0.8761    0.1812 H   0  0  0  0  0  0  0  0  0  4  0  0
    0.8147   -0.7514    0.7424 O   0  0  0  0  0  0  0  0  0  5  0  0
   -0.7104   -0.8669   -1.2836 P   0  0  0  0  0  0  0  0  0  6  0  0
    0.0824   -1.8379   -1.8598 O   0  0  0  0  0  0  0  0  0  7  0  0
   -1.3572   -0.0320   -2.4887 O   0  0  0  0  0  0  0  0  0  8  0  0
   -2.2416    1.0544   -2.1186 C   0  0  0  0  0  0  0  0  0  9  0  0
   -1.8028   -1.6530   -0.4184 O   0  0  0  0  0  0  0  0  0 10  0  0
   -2.5264   -0.8703    0.5599 C   0  0  0  0  0  0  0  0  0 11  0  0
    2.4219    1.6752    0.1039 Cl  0  0  0  0  0  0  0  0  0 12  0  0
    2.4875   -0.5160   -1.7534 Cl  0  0  0  0  0  0  0  0  0 13  0  0
  2 13  1  0
  2 12  1  0
 10 11  1  0
  6 10  1  0
  8  9  1  0
  6  8  1  0
  6  7  2  0
  3  6  1  0
  3  5  1  0
  3  4  1  0
  2  3  1  0
  1  2  1  0
M  END
> <Name>
Trichlorfon

> <CAS RN>
000052-68-6

> <Log Koc>
1.6

> <VP-0>
8.82215

> <nAromBond>
0

> <MAXDP>
4.80487

> <nHBAcc>
4

> <Splitting>
2

$$$$
Dibenz[a,h]anthracene
  SciTegic01221512053D

 22 26  0  0  0  0            999 V2000
    0.7623    5.8832    0.8979 C   0  0  0  0  0  0  0  0  0  1  0  0
    0.7782    7.1859    1.3826 C   0  0  0  0  0  0  0  0  0  2  0  0
    0.1063    7.4978    2.5591 C   0  0  0  0  0  0  0  0  0  3  0  0
   -0.5814    6.5070    3.2508 C   0  0  0  0  0  0  0  0  0  4  0  0
   -0.5974    5.2042    2.7662 C   0  0  0  0  0  0  0  0  0  5  0  0
    0.0744    4.8918    1.5896 C   0  0  0  0  0  0  0  0  0  6  0  0
    0.0592    3.5894    1.1040 C   0  0  0  0  0  0  0  0  0  7  0  0
    0.7318    3.2790   -0.0730 C   0  0  0  0  0  0  0  0  0  8  0  0
    1.4191    4.2700   -0.7641 C   0  0  0  0  0  0  0  0  0  9  0  0
    1.4344    5.5724   -0.2785 C   0  0  0  0  0  0  0  0  0 10  0  0
    0.7174    1.9775   -0.5597 C   0  0  0  0  0  0  0  0  0 11  0  0
    0.0304    0.9854    0.1303 C   0  0  0  0  0  0  0  0  0 12  0  0
   -0.6421    1.2958    1.3073 C   0  0  0  0  0  0  0  0  0 13  0  0
   -0.6277    2.5974    1.7939 C   0  0  0  0  0  0  0  0  0 14  0  0
   -1.3295    0.3048    1.9983 C   0  0  0  0  0  0  0  0  0 15  0  0
   -1.3447   -0.9975    1.5128 C   0  0  0  0  0  0  0  0  0 16  0  0
   -0.6726   -1.3083    0.3364 C   0  0  0  0  0  0  0  0  0 17  0  0
    0.0152   -0.3170   -0.3554 C   0  0  0  0  0  0  0  0  0 18  0  0
    0.6870   -0.6294   -1.5319 C   0  0  0  0  0  0  0  0  0 19  0  0
    0.6711   -1.9322   -2.0165 C   0  0  0  0  0  0  0  0  0 20  0  0
   -0.0167   -2.9230   -1.3248 C   0  0  0  0  0  0  0  0  0 21  0  0
   -0.6885   -2.6111   -0.1484 C   0  0  0  0  0  0  0  0  0 22  0  0
 22 17  4  0
 21 22  4  0
 20 21  4  0
 19 20  4  0
 18 19  4  0
 18 12  4  0
 17 18  4  0
 16 17  4  0
 15 16  4  0
 13 15  4  0
 14  7  4  0
 13 14  4  0
 12 13  4  0
 11 12  4  0
  8 11  4  0
 10  1  4  0
  9 10  4  0
  8  9  4  0
  7  8  4  0
  6  7  4  0
  6  1  4  0
  5  6  4  0
  4  5  4  0
  3  4  4  0
  2  3  4  0
  1  2  4  0
M  END
> <Name>
Dibenz[a,h]anthracene

> <CAS RN>
000053-70-3

> <Log Koc>
6.25

> <VP-0>
12.0829

> <nAromBond>
26

> <MAXDP>
0.332778

> <nHBAcc>
0

> <Splitting>
2

$$$$
Nicotine
  SciTegic01221512053D

 13 14  0  0  0  0            999 V2000
    1.7089    0.5335    1.6283 C   0  0  0  0  0  0  0  0  0  1  0  0
    0.9027   -0.7539    2.0565 C   0  0  0  0  0  0  0  0  0  2  0  0
   -0.5065   -0.4987    1.4636 C   0  0  0  0  0  0  0  0  0  3  0  0
   -0.1626    0.4221    0.2881 C   0  0  1  0  0  0  0  0  0  4  0  0
   -1.0651    0.8898   -0.1289 H   0  0  0  0  0  0  0  0  0  5  0  0
    0.7036    1.4222    0.9436 N   0  0  0  0  0  0  0  0  0  6  0  0
   -0.0888    2.1239    1.9784 C   0  0  0  0  0  0  0  0  0  7  0  0
    0.5460   -0.3064   -0.8681 C   0  0  0  0  0  0  0  0  0  8  0  0
    1.4279    0.3783   -1.7011 C   0  0  0  0  0  0  0  0  0  9  0  0
    2.0233   -0.2366   -2.7181 N   0  0  0  0  0  0  0  0  0 10  0  0
    1.7953   -1.5181   -2.9859 C   0  0  0  0  0  0  0  0  0 11  0  0
    0.9148   -2.2581   -2.2054 C   0  0  0  0  0  0  0  0  0 12  0  0
    0.2774   -1.6451   -1.1358 C   0  0  0  0  0  0  0  0  0 13  0  0
 13  8  4  0
 12 13  4  0
 11 12  4  0
 10 11  4  0
  9 10  4  0
  8  9  4  0
  4  8  1  0
  6  7  1  0
  6  1  1  0
  4  6  1  0
  4  5  1  0
  3  4  1  0
  2  3  1  0
  1  2  1  0
M  END
> <Name>
Nicotine

> <CAS RN>
000054-11-5

> <Log Koc>
2.01

> <VP-0>
7.4025

> <nAromBond>
6

> <MAXDP>
1.13704

> <nHBAcc>
2

> <Splitting>
1

$$$$
Benzamide
  SciTegic01221512053D

  9  9  0  0  0  0            999 V2000
    1.6287    1.2184    0.0012 C   0  0  0  0  0  0  0  0  0  1  0  0
    3.0189    1.2116    0.0008 C   0  0  0  0  0  0  0  0  0  2  0  0
    3.7081    0.0039    0.0000 C   0  0  0  0  0  0  0  0  0  3  0  0
    3.0072   -1.1970   -0.0005 C   0  0  0  0  0  0  0  0  0  4  0  0
    1.6170   -1.1903   -0.0001 C   0  0  0  0  0  0  0  0  0  5  0  0
    0.9284    0.0174    0.0007 C   0  0  0  0  0  0  0  0  0  6  0  0
   -0.5313    0.0245    0.0011 C   0  0  0  0  0  0  0  0  0  7  0  0
   -1.1436    1.0981    0.0018 O   0  0  0  0  0  0  0  0  0  8  0  0
   -1.2342   -1.1813    0.0006 N   0  0  0  0  0  0  0  0  0  9  0  0
  7  9  1  0
  7  8  2  0
  6  7  1  0
  6  1  4  0
  5  6  4  0
  4  5  4  0
  3  4  4  0
  2  3  4  0
  1  2  4  0
M  END
> <Name>
Benzamide

> <CAS RN>
000055-21-0

> <Log Koc>
1.46

> <VP-0>
4.87235

> <nAromBond>
6

> <MAXDP>
3.42315

> <nHBAcc>
2

> <Splitting>
2

$$$$
Fenthion
  SciTegic01221512053D

 16 16  0  0  0  0            999 V2000
    4.0332    5.7566    0.0071 C   0  0  0  0  0  0  0  0  0  1  0  0
    4.0138    4.5005   -1.2965 S   0  0  0  0  0  0  0  0  0  2  0  0
    3.0889    3.0920   -0.7496 C   0  0  0  0  0  0  0  0  0  3  0  0
    3.7558    1.9700   -0.2761 C   0  0  0  0  0  0  0  0  0  4  0  0
    5.2558    1.9509   -0.2278 C   0  0  0  0  0  0  0  0  0  5  0  0
    3.0343    0.8626    0.1559 C   0  0  0  0  0  0  0  0  0  6  0  0
    1.6456    0.8674    0.1149 C   0  0  0  0  0  0  0  0  0  7  0  0
    0.9809    1.9954   -0.3615 C   0  0  0  0  0  0  0  0  0  8  0  0
    1.6989    3.1053   -0.7918 C   0  0  0  0  0  0  0  0  0  9  0  0
    0.9525   -0.2898    0.5690 O   0  0  0  0  0  0  0  0  0 10  0  0
   -0.6189   -0.2326    0.4769 P   0  0  0  0  0  0  0  0  0 11  0  0
   -1.1137   -0.0660   -1.1529 S   0  0  0  0  0  0  0  0  0 12  0  0
   -1.1931    0.9419    1.3429 O   0  0  0  0  0  0  0  0  0 13  0  0
   -0.7994    0.8056    2.7259 C   0  0  0  0  0  0  0  0  0 14  0  0
   -1.1823   -1.5871    1.0010 O   0  0  0  0  0  0  0  0  0 15  0  0
   -2.6046   -1.6479    0.8004 C   0  0  0  0  0  0  0  0  0 16  0  0
 15 16  1  0
 11 15  1  0
 13 14  1  0
 11 13  1  0
 11 12  2  0
 10 11  1  0
  7 10  1  0
  9  3  4  0
  8  9  4  0
  7  8  4  0
  6  7  4  0
  4  6  4  0
  4  5  1  0
  3  4  4  0
  2  3  1  0
  1  2  1  0
M  END
> <Name>
Fenthion

> <CAS RN>
000055-38-9

> <Log Koc>
3.18

> <VP-0>
12.2479

> <nAromBond>
6

> <MAXDP>
2.47259

> <nHBAcc>
2

> <Splitting>
1

$$$$
Tetrachloromethane
  SciTegic01221512053D

  5  4  0  0  0  0            999 V2000
   -0.7688    0.0011   -0.0007 Cl  0  0  0  0  0  0  0  0  0  1  0  0
    0.9982    0.0005    0.0000 C   0  0  0  0  0  0  0  0  0  2  0  0
    1.5865   -0.0008    1.6662 Cl  0  0  0  0  0  0  0  0  0  3  0  0
    1.5880    1.4436   -0.8318 Cl  0  0  0  0  0  0  0  0  0  4  0  0
    1.5870   -1.4419   -0.8336 Cl  0  0  0  0  0  0  0  0  0  5  0  0
  2  5  1  0
  2  4  1  0
  2  3  1  0
  1  2  1  0
M  END
> <Name>
Tetrachloromethane

> <CAS RN>
000056-23-5

> <Log Koc>
1.85

> <VP-0>
5.03557

> <nAromBond>
0

> <MAXDP>
0.0239198

> <nHBAcc>
0

> <Splitting>
2

$$$$
Parathion(=ethyl parathion)
  SciTegic01221512053D

 18 18  0  0  0  0            999 V2000
    0.0146    0.3291    0.9073 C   0  0  0  0  0  0  0  0  0  1  0  0
   -0.2434    0.3602   -0.4601 C   0  0  0  0  0  0  0  0  0  2  0  0
   -1.3176    1.1151   -1.0058 O   0  0  0  0  0  0  0  0  0  3  0  0
   -2.1905    1.8891    0.0540 P   0  0  0  0  0  0  0  0  0  4  0  0
   -3.4322    2.6968   -0.8025 S   0  0  0  0  0  0  0  0  0  5  0  0
   -1.3592    2.9610    0.8546 O   0  0  0  0  0  0  0  0  0  6  0  0
   -1.0236    4.1343    0.0620 C   0  0  0  0  0  0  0  0  0  7  0  0
    0.0162    3.8431   -1.0398 C   0  0  0  0  0  0  0  0  0  8  0  0
   -2.7929    0.8370    1.0684 O   0  0  0  0  0  0  0  0  0  9  0  0
   -3.4669    1.4412    2.2057 C   0  0  0  0  0  0  0  0  0 10  0  0
   -4.8632    1.9957    1.8534 C   0  0  0  0  0  0  0  0  0 11  0  0
    0.5726   -0.3611   -1.3248 C   0  0  0  0  0  0  0  0  0 12  0  0
    1.6348   -1.1086   -0.8292 C   0  0  0  0  0  0  0  0  0 13  0  0
    1.8860   -1.1368    0.5371 C   0  0  0  0  0  0  0  0  0 14  0  0
    1.0754   -0.4171    1.4064 C   0  0  0  0  0  0  0  0  0 15  0  0
    2.9501   -1.8861    1.0354 N   0  0  0  0  0  0  0  0  0 16  0  0
    3.7223   -2.5712    0.2062 O   0  0  0  0  0  0  0  0  0 17  0  0
    3.1876   -1.9128    2.3379 O   0  0  0  0  0  0  0  0  0 18  0  0
 16 18  1  0
 16 17  1  0
 14 16  1  0
 15  1  4  0
 14 15  4  0
 13 14  4  0
 12 13  4  0
  2 12  4  0
 10 11  1  0
  9 10  1  0
  4  9  1  0
  7  8  1  0
  6  7  1  0
  4  6  1  0
  4  5  2  0
  3  4  1  0
  2  3  1  0
  1  2  4  0
M  END
> <Name>
Parathion(=ethyl parathion)

> <CAS RN>
000056-38-2

> <Log Koc>
3.2

> <VP-0>
11.6301

> <nAromBond>
6

> <MAXDP>
3.54115

> <nHBAcc>
2

> <Splitting>
2

$$$$
3-Methylcholanthrene
  SciTegic01221512053D

 21 25  0  0  0  0            999 V2000
   -3.2246    6.3541    0.9354 C   0  0  0  0  0  0  0  0  0  1  0  0
   -3.6228    5.0267    1.0455 C   0  0  0  0  0  0  0  0  0  2  0  0
   -2.7045    4.0056    0.8298 C   0  0  0  0  0  0  0  0  0  3  0  0
   -1.3878    4.3109    0.5039 C   0  0  0  0  0  0  0  0  0  4  0  0
   -0.9894    5.6398    0.3938 C   0  0  0  0  0  0  0  0  0  5  0  0
   -1.9083    6.6603    0.6097 C   0  0  0  0  0  0  0  0  0  6  0  0
    0.3260    5.9521    0.0683 C   0  0  0  0  0  0  0  0  0  7  0  0
    1.2494    4.9365   -0.1488 C   0  0  0  0  0  0  0  0  0  8  0  0
    0.8504    3.6104   -0.0385 C   0  0  0  0  0  0  0  0  0  9  0  0
   -0.4710    3.2882    0.2886 C   0  0  0  0  0  0  0  0  0 10  0  0
   -0.8834    1.9538    0.4022 C   0  0  0  0  0  0  0  0  0 11  0  0
    0.0350    0.9300    0.1865 C   0  0  0  0  0  0  0  0  0 12  0  0
    1.3225    1.2836   -0.1327 C   0  0  0  0  0  0  0  0  0 13  0  0
    1.7479    2.5741   -0.2490 C   0  0  0  0  0  0  0  0  0 14  0  0
    3.2205    2.6499   -0.6110 C   0  0  0  0  0  0  0  0  0 15  0  0
    3.6328    1.0783   -0.6975 C   0  0  0  0  0  0  0  0  0 16  0  0
    2.3212    0.3851   -0.3693 C   0  0  0  0  0  0  0  0  0 17  0  0
    2.0510   -0.9739   -0.2903 C   0  0  0  0  0  0  0  0  0 18  0  0
    0.7486   -1.3692    0.0329 C   0  0  0  0  0  0  0  0  0 19  0  0
   -0.2613   -0.4279    0.2718 C   0  0  0  0  0  0  0  0  0 20  0  0
    3.1247   -1.9915   -0.5442 C   0  0  0  0  0  0  0  0  0 21  0  0
 18 21  1  0
 20 12  4  0
 19 20  4  0
 18 19  4  0
 17 18  4  0
 17 13  4  0
 16 17  1  0
 15 16  1  0
 14 15  1  0
 14  9  4  0
 13 14  4  0
 12 13  4  0
 11 12  4  0
 10 11  4  0
 10  4  4  0
  9 10  4  0
  8  9  4  0
  7  8  4  0
  5  7  4  0
  6  1  4  0
  5  6  4  0
  4  5  4  0
  3  4  4  0
  2  3  4  0
  1  2  4  0
M  END
> <Name>
3-Methylcholanthrene

> <CAS RN>
000056-49-5

> <Log Koc>
6.1

> <VP-0>
12.1104

> <nAromBond>
21

> <MAXDP>
0.393611

> <nHBAcc>
0

> <Splitting>
2

$$$$
Diethylstilbestrol
  SciTegic01221512053D

 20 21  0  0  0  0            999 V2000
    0.0766    4.3978    6.9299 O   0  0  0  0  0  0  0  0  0  1  0  0
    0.2147    3.7538    5.7049 C   0  0  0  0  0  0  0  0  0  2  0  0
   -0.1221    4.4080    4.5281 C   0  0  0  0  0  0  0  0  0  3  0  0
    0.0189    3.7580    3.3074 C   0  0  0  0  0  0  0  0  0  4  0  0
    0.4959    2.4488    3.2247 C   0  0  0  0  0  0  0  0  0  5  0  0
    0.8276    1.8151    4.4213 C   0  0  0  0  0  0  0  0  0  6  0  0
    0.6909    2.4518    5.6494 C   0  0  0  0  0  0  0  0  0  7  0  0
    0.7046    1.6134    1.9083 C   0  0  0  0  0  0  0  0  0  8  0  0
    0.4775    2.0377    0.5971 C   0  0  0  0  0  0  0  0  0  9  0  0
   -0.0517    3.4364    0.2813 C   0  0  0  0  0  0  0  0  0 10  0  0
    1.1218    4.4122   -0.0288 C   0  0  0  0  0  0  0  0  0 11  0  0
    0.7130    1.2018   -0.7199 C   0  0  0  0  0  0  0  0  0 12  0  0
    0.2409    1.7501   -1.9119 C   0  0  0  0  0  0  0  0  0 13  0  0
    0.4042    1.1009   -3.1305 C   0  0  0  0  0  0  0  0  0 14  0  0
    1.0547   -0.1238   -3.1821 C   0  0  0  0  0  0  0  0  0 15  0  0
    1.5374   -0.6897   -2.0109 C   0  0  0  0  0  0  0  0  0 16  0  0
    1.3658   -0.0293   -0.8003 C   0  0  0  0  0  0  0  0  0 17  0  0
    1.2227   -0.7785   -4.3973 O   0  0  0  0  0  0  0  0  0 18  0  0
    1.1986    0.2055    2.2369 C   0  0  0  0  0  0  0  0  0 19  0  0
    0.0038   -0.7945    2.2781 C   0  0  0  0  0  0  0  0  0 20  0  0
 19 20  1  0
  8 19  1  0
 15 18  1  0
 17 12  4  0
 16 17  4  0
 15 16  4  0
 14 15  4  0
 13 14  4  0
 12 13  4  0
  9 12  1  0
 10 11  1  0
  9 10  1  0
  8  9  2  0
  5  8  1  0
  7  2  4  0
  6  7  4  0
  5  6  4  0
  4  5  4  0
  3  4  4  0
  2  3  4  0
  1  2  1  0
M  END
> <Name>
Diethylstilbestrol

> <CAS RN>
000056-53-1

> <Log Koc>
4.14

> <VP-0>
11.9274

> <nAromBond>
12

> <MAXDP>
3.41068

> <nHBAcc>
0

> <Splitting>
2

$$$$
Benzo[a]anthracene
  SciTegic01221512053D

 18 21  0  0  0  0            999 V2000
   -2.5620    6.2684    1.3658 C   0  0  0  0  0  0  0  0  0  1  0  0
   -2.6345    5.3827    0.2966 C   0  0  0  0  0  0  0  0  0  2  0  0
   -1.8618    4.2273    0.2984 C   0  0  0  0  0  0  0  0  0  3  0  0
   -1.9343    3.3419   -0.7706 C   0  0  0  0  0  0  0  0  0  4  0  0
   -1.1616    2.1867   -0.7685 C   0  0  0  0  0  0  0  0  0  5  0  0
   -0.3162    1.9166    0.3024 C   0  0  0  0  0  0  0  0  0  6  0  0
   -0.2439    2.8022    1.3714 C   0  0  0  0  0  0  0  0  0  7  0  0
   -1.0165    3.9574    1.3693 C   0  0  0  0  0  0  0  0  0  8  0  0
   -0.9440    4.8428    2.4384 C   0  0  0  0  0  0  0  0  0  9  0  0
   -1.7169    5.9985    2.4365 C   0  0  0  0  0  0  0  0  0 10  0  0
    0.4561    0.7608    0.3030 C   0  0  0  0  0  0  0  0  0 11  0  0
    0.3826   -0.1244   -0.7672 C   0  0  0  0  0  0  0  0  0 12  0  0
   -0.4624    0.1460   -1.8373 C   0  0  0  0  0  0  0  0  0 13  0  0
   -1.2346    1.3018   -1.8379 C   0  0  0  0  0  0  0  0  0 14  0  0
    1.1544   -1.2805   -0.7677 C   0  0  0  0  0  0  0  0  0 15  0  0
    1.9999   -1.5520    0.3020 C   0  0  0  0  0  0  0  0  0 16  0  0
    2.0736   -0.6673    1.3721 C   0  0  0  0  0  0  0  0  0 17  0  0
    1.3018    0.4889    1.3726 C   0  0  0  0  0  0  0  0  0 18  0  0
 18 11  4  0
 17 18  4  0
 16 17  4  0
 15 16  4  0
 12 15  4  0
 14  5  4  0
 13 14  4  0
 12 13  4  0
 11 12  4  0
  6 11  4  0
 10  1  4  0
  9 10  4  0
  8  9  4  0
  8  3  4  0
  7  8  4  0
  6  7  4  0
  5  6  4  0
  4  5  4  0
  3  4  4  0
  2  3  4  0
  1  2  4  0
M  END
> <Name>
Benzo[a]anthracene

> <CAS RN>
000056-55-3

> <Log Koc>
5.4

> <VP-0>
9.9282

> <nAromBond>
21

> <MAXDP>
0.298611

> <nHBAcc>
0

> <Splitting>
2

$$$$
Urea
  SciTegic01221512053D

  4  3  0  0  0  0            999 V2000
    1.3772    0.0354    0.0004 N   0  0  0  0  0  0  0  0  0  1  0  0
   -0.0193    0.0358    0.0008 C   0  0  0  0  0  0  0  0  0  2  0  0
   -0.6372    1.1065   -0.0011 O   0  0  0  0  0  0  0  0  0  3  0  0
   -0.7178   -1.1735    0.0032 N   0  0  0  0  0  0  0  0  0  4  0  0
  2  4  1  0
  2  3  2  0
  1  2  1  0
M  END
> <Name>
Urea

> <CAS RN>
000057-13-6

> <Log Koc>
1.03

> <VP-0>
2.06295

> <nAromBond>
0

> <MAXDP>
2

> <nHBAcc>
3

> <Splitting>
2

$$$$
Propyleneglycol
  SciTegic01221512053D

  6  5  0  0  0  0            999 V2000
    1.6109   -0.3345   -0.2596 C   0  0  0  0  0  0  0  0  0  1  0  0
    0.0893   -0.1416   -0.1303 C   0  0  2  0  0  0  0  0  0  2  0  0
   -0.1643    0.9110   -0.3236 H   0  0  0  0  0  0  0  0  0  3  0  0
   -0.3577   -0.5247    1.2926 C   0  0  0  0  0  0  0  0  0  4  0  0
   -0.5785   -0.9752   -1.0808 O   0  0  0  0  0  0  0  0  0  5  0  0
    2.0244    0.0211   -1.5809 O   0  0  0  0  0  0  0  0  0  6  0  0
  1  6  1  0
  2  5  1  0
  2  4  1  0
  2  3  1  0
  1  2  1  0
M  END
> <Name>
Propyleneglycol

> <CAS RN>
000057-55-6

> <Log Koc>
0.36

> <VP-0>
3.17888

> <nAromBond>
0

> <MAXDP>
2.11111

> <nHBAcc>
2

> <Splitting>
2

$$$$
7,12-Dimethylbenz[a]anthracene
  SciTegic01221512053D

 20 23  0  0  0  0            999 V2000
   -3.4283    6.0584   -0.1314 C   0  0  0  0  0  0  0  0  0  1  0  0
   -2.4635    5.2146   -0.6695 C   0  0  0  0  0  0  0  0  0  2  0  0
   -2.0012    4.1175    0.0519 C   0  0  0  0  0  0  0  0  0  3  0  0
   -1.0332    3.2866   -0.5100 C   0  0  0  0  0  0  0  0  0  4  0  0
   -0.5457    2.1599    0.2081 C   0  0  0  0  0  0  0  0  0  5  0  0
   -1.0900    1.9467    1.4859 C   0  0  0  0  0  0  0  0  0  6  0  0
   -2.0543    2.7863    2.0290 C   0  0  0  0  0  0  0  0  0  7  0  0
   -2.5137    3.8748    1.3143 C   0  0  0  0  0  0  0  0  0  8  0  0
   -3.4790    4.7143    1.8595 C   0  0  0  0  0  0  0  0  0  9  0  0
   -3.9381    5.8084    1.1366 C   0  0  0  0  0  0  0  0  0 10  0  0
   -2.6046    2.5116    3.4044 C   0  0  0  0  0  0  0  0  0 11  0  0
   -0.6944    0.8817    2.2815 C   0  0  0  0  0  0  0  0  0 12  0  0
    0.2575   -0.0113    1.8362 C   0  0  0  0  0  0  0  0  0 13  0  0
    0.8170    0.1645    0.5841 C   0  0  0  0  0  0  0  0  0 14  0  0
    0.4347    1.2312   -0.2379 C   0  0  0  0  0  0  0  0  0 15  0  0
    1.0720    1.3003   -1.4788 C   0  0  0  0  0  0  0  0  0 16  0  0
    2.0273    0.3818   -1.8943 C   0  0  0  0  0  0  0  0  0 17  0  0
    2.3845   -0.6627   -1.0586 C   0  0  0  0  0  0  0  0  0 18  0  0
    1.7725   -0.7628    0.1806 C   0  0  0  0  0  0  0  0  0 19  0  0
   -0.6060    3.7358   -1.9113 C   0  0  0  0  0  0  0  0  0 20  0  0
  4 20  1  0
 19 14  4  0
 18 19  4  0
 17 18  4  0
 16 17  4  0
 15 16  4  0
 15  5  4  0
 14 15  4  0
 13 14  4  0
 12 13  4  0
  6 12  4  0
  7 11  1  0
 10  1  4  0
  9 10  4  0
  8  9  4  0
  8  3  4  0
  7  8  4  0
  6  7  4  0
  5  6  4  0
  4  5  4  0
  3  4  4  0
  2  3  4  0
  1  2  4  0
M  END
> <Name>
7,12-Dimethylbenz[a]anthracene

> <CAS RN>
000057-97-6

> <Log Koc>
5.36

> <VP-0>
11.7735

> <nAromBond>
21

> <MAXDP>
0.270278

> <nHBAcc>
0

> <Splitting>
2

$$$$
Lindane
  SciTegic01221512053D

 18 18  0  0  0  0            999 V2000
   -0.6230    0.2983    0.4231 C   0  0  0  0  0  0  0  0  0  1  0  0
   -0.8329    1.0497   -0.3506 H   0  0  0  0  0  0  0  0  0  2  0  0
   -0.1736    0.9069    1.8978 C   0  0  0  0  0  0  0  0  0  3  0  0
   -0.1536    0.1427    2.6867 H   0  0  0  0  0  0  0  0  0  4  0  0
    1.3579    1.5612    1.9859 C   0  0  0  0  0  0  0  0  0  5  0  0
    1.4111    2.1897    2.8855 H   0  0  0  0  0  0  0  0  0  6  0  0
    1.5170    2.2079    0.7091 C   0  0  0  0  0  0  0  0  0  7  0  0
    2.4355    2.7915    0.5579 H   0  0  0  0  0  0  0  0  0  8  0  0
    1.5605    0.9135   -0.3193 C   0  0  0  0  0  0  0  0  0  9  0  0
    2.5386    0.4151   -0.3369 H   0  0  0  0  0  0  0  0  0 10  0  0
    0.5332   -0.3422    0.0113 C   0  0  0  0  0  0  0  0  0 11  0  0
    0.8193   -0.9581    0.8769 H   0  0  0  0  0  0  0  0  0 12  0  0
    0.4375   -1.3512   -1.4336 Cl  0  0  0  0  0  0  0  0  0 13  0  0
    1.2632    1.6554   -1.8944 Cl  0  0  0  0  0  0  0  0  0 14  0  0
    0.1518    3.3194    0.4647 Cl  0  0  0  0  0  0  0  0  0 15  0  0
    2.6908    0.3757    2.0781 Cl  0  0  0  0  0  0  0  0  0 16  0  0
   -1.4875    2.0415    2.2783 Cl  0  0  0  0  0  0  0  0  0 17  0  0
   -2.0479   -0.7120    0.6757 Cl  0  0  0  0  0  0  0  0  0 18  0  0
  1 18  1  0
  3 17  1  0
  5 16  1  0
  7 15  1  0
  9 14  1  0
 11 13  1  0
 11  1  1  0
 11 12  1  0
  9 11  1  0
  9 10  1  0
  7  9  1  0
  7  8  1  0
  5  7  1  0
  5  6  1  0
  3  5  1  0
  3  4  1  0
  1  3  1  0
  1  2  1  0
M  END
> <Name>
Lindane

> <CAS RN>
000058-89-9

> <Log Koc>
3

> <VP-0>
10.2675

> <nAromBond>
0

> <MAXDP>
0.00786694

> <nHBAcc>
0

> <Splitting>
2

$$$$
2,3,4,6-Tetrachlorophenol
  SciTegic01221512053D

 11 11  0  0  0  0            999 V2000
   -0.8702    0.9528    0.0009 C   0  0  0  0  0  0  0  0  0  1  0  0
   -0.1765    2.1575    0.0008 C   0  0  0  0  0  0  0  0  0  2  0  0
    1.2138    2.1593    0.0011 C   0  0  0  0  0  0  0  0  0  3  0  0
    1.9099    0.9559    0.0014 C   0  0  0  0  0  0  0  0  0  4  0  0
    1.2161   -0.2488    0.0014 C   0  0  0  0  0  0  0  0  0  5  0  0
   -0.1740   -0.2504    0.0012 C   0  0  0  0  0  0  0  0  0  6  0  0
   -1.0359   -1.7471    0.0012 Cl  0  0  0  0  0  0  0  0  0  7  0  0
    2.0813   -1.7437    0.0018 Cl  0  0  0  0  0  0  0  0  0  8  0  0
    3.6374    0.9566    0.0017 Cl  0  0  0  0  0  0  0  0  0  9  0  0
   -1.0427    3.6520    0.0005 Cl  0  0  0  0  0  0  0  0  0 10  0  0
   -2.2605    0.9513    0.0006 O   0  0  0  0  0  0  0  0  0 11  0  0
  1 11  1  0
  2 10  1  0
  4  9  1  0
  5  8  1  0
  6  7  1  0
  6  1  4  0
  5  6  4  0
  4  5  4  0
  3  4  4  0
  2  3  4  0
  1  2  4  0
M  END
> <Name>
2,3,4,6-Tetrachlorophenol

> <CAS RN>
000058-90-2

> <Log Koc>
3.35

> <VP-0>
8.06014

> <nAromBond>
6

> <MAXDP>
3.63771

> <nHBAcc>
0

> <Splitting>
2

$$$$
p-Phenylazoaniline
  SciTegic01221512053D

 15 16  0  0  0  0            999 V2000
   -0.6505    1.1476   -1.0210 C   0  0  0  0  0  0  0  0  0  1  0  0
   -1.4576    2.2451   -0.5519 N   0  0  0  0  0  0  0  0  0  2  0  0
   -1.3113    2.9440    0.4514 N   0  0  0  0  0  0  0  0  0  3  0  0
   -0.1617    3.0709    1.3085 C   0  0  0  0  0  0  0  0  0  4  0  0
   -0.3595    3.2801    2.6692 C   0  0  0  0  0  0  0  0  0  5  0  0
    0.7284    3.4258    3.5229 C   0  0  0  0  0  0  0  0  0  6  0  0
    2.0225    3.3744    3.0179 C   0  0  0  0  0  0  0  0  0  7  0  0
    3.1145    3.5187    3.8741 N   0  0  0  0  0  0  0  0  0  8  0  0
    2.2279    3.1831    1.6576 C   0  0  0  0  0  0  0  0  0  9  0  0
    1.1387    3.0366    0.8078 C   0  0  0  0  0  0  0  0  0 10  0  0
   -0.5075    0.9597   -2.3915 C   0  0  0  0  0  0  0  0  0 11  0  0
    0.2469   -0.1009   -2.8807 C   0  0  0  0  0  0  0  0  0 12  0  0
    0.8553   -0.9888   -2.0012 C   0  0  0  0  0  0  0  0  0 13  0  0
    0.7034   -0.8176   -0.6309 C   0  0  0  0  0  0  0  0  0 14  0  0
   -0.0501    0.2441   -0.1453 C   0  0  0  0  0  0  0  0  0 15  0  0
 15  1  4  0
 14 15  4  0
 13 14  4  0
 12 13  4  0
 11 12  4  0
  1 11  4  0
 10  4  4  0
  9 10  4  0
  7  9  4  0
  7  8  1  0
  6  7  4  0
  5  6  4  0
  4  5  4  0
  3  4  1  0
  2  3  2  0
  1  2  1  0
M  END
> <Name>
p-Phenylazoaniline

> <CAS RN>
000060-09-3

> <Log Koc>
2.79

> <VP-0>
8.16793

> <nAromBond>
12

> <MAXDP>
1.56167

> <nHBAcc>
3

> <Splitting>
2

$$$$
4-Dimethylaminoazobenzene
  SciTegic01221512053D

 17 18  0  0  0  0            999 V2000
   -0.3261    0.7611   -1.5440 C   0  0  0  0  0  0  0  0  0  1  0  0
   -0.9950    2.0401   -1.6145 N   0  0  0  0  0  0  0  0  0  2  0  0
   -0.8272    3.0460   -0.9238 N   0  0  0  0  0  0  0  0  0  3  0  0
   -0.1240    3.1734    0.3214 C   0  0  0  0  0  0  0  0  0  4  0  0
   -0.2158    2.1994    1.3150 C   0  0  0  0  0  0  0  0  0  5  0  0
    0.4621    2.3517    2.5163 C   0  0  0  0  0  0  0  0  0  6  0  0
    1.2348    3.4871    2.7383 C   0  0  0  0  0  0  0  0  0  7  0  0
    1.3164    4.4682    1.7584 C   0  0  0  0  0  0  0  0  0  8  0  0
    0.6338    4.3145    0.5556 C   0  0  0  0  0  0  0  0  0  9  0  0
    1.9265    3.6355    3.9497 N   0  0  0  0  0  0  0  0  0 10  0  0
    2.7448    4.7938    4.1753 C   0  0  0  0  0  0  0  0  0 11  0  0
    1.8282    2.6237    4.9655 C   0  0  0  0  0  0  0  0  0 12  0  0
    1.0137    0.6409   -1.1762 C   0  0  0  0  0  0  0  0  0 13  0  0
    1.6312   -0.6032   -1.1429 C   0  0  0  0  0  0  0  0  0 14  0  0
    0.9133   -1.7414   -1.4877 C   0  0  0  0  0  0  0  0  0 15  0  0
   -0.4181   -1.6288   -1.8706 C   0  0  0  0  0  0  0  0  0 16  0  0
   -1.0324   -0.3816   -1.9033 C   0  0  0  0  0  0  0  0  0 17  0  0
 17  1  4  0
 16 17  4  0
 15 16  4  0
 14 15  4  0
 13 14  4  0
  1 13  4  0
 10 12  1  0
 10 11  1  0
  7 10  1  0
  9  4  4  0
  8  9  4  0
  7  8  4  0
  6  7  4  0
  5  6  4  0
  4  5  4  0
  3  4  1  0
  2  3  2  0
  1  2  1  0
M  END
> <Name>
4-Dimethylaminoazobenzene

> <CAS RN>
000060-11-7

> <Log Koc>
3.87

> <VP-0>
10.0378

> <nAromBond>
12

> <MAXDP>
1.18341

> <nHBAcc>
3

> <Splitting>
2

$$$$
2-Phenylethanol
  SciTegic01221512053D

  9  9  0  0  0  0            999 V2000
   -0.7937    1.9196    1.3541 C   0  0  0  0  0  0  0  0  0  1  0  0
    0.0887    1.0255    0.5079 C   0  0  0  0  0  0  0  0  0  2  0  0
    1.0969    1.5599   -0.2887 C   0  0  0  0  0  0  0  0  0  3  0  0
    1.9001    0.7230   -1.0552 C   0  0  0  0  0  0  0  0  0  4  0  0
    1.6981   -0.6520   -1.0259 C   0  0  0  0  0  0  0  0  0  5  0  0
    0.6932   -1.1886   -0.2291 C   0  0  0  0  0  0  0  0  0  6  0  0
   -0.1092   -0.3506    0.5370 C   0  0  0  0  0  0  0  0  0  7  0  0
   -0.5046    3.4200    1.1055 C   0  0  0  0  0  0  0  0  0  8  0  0
   -0.8468    3.7751   -0.2406 O   0  0  0  0  0  0  0  0  0  9  0  0
  8  9  1  0
  1  8  1  0
  7  2  4  0
  6  7  4  0
  5  6  4  0
  4  5  4  0
  3  4  4  0
  2  3  4  0
  1  2  1  0
M  END
> <Name>
2-Phenylethanol

> <CAS RN>
000060-12-8

> <Log Koc>
1.5

> <VP-0>
5.24818

> <nAromBond>
6

> <MAXDP>
2.51969

> <nHBAcc>
1

> <Splitting>
2

$$$$
Dimethoate
  SciTegic01221512053D

 12 11  0  0  0  0            999 V2000
    1.8371    3.0384    1.9832 O   0  0  0  0  0  0  0  0  0  1  0  0
    1.6662    2.1997    1.0914 C   0  0  0  0  0  0  0  0  0  2  0  0
    2.0246    0.7609    1.3508 C   0  0  0  0  0  0  0  0  0  3  0  0
    1.6341   -0.3437   -0.0459 S   0  0  0  0  0  0  0  0  0  4  0  0
   -0.2727   -0.4193   -0.3732 P   0  0  0  0  0  0  0  0  0  5  0  0
   -0.6219   -1.7591   -1.3749 S   0  0  0  0  0  0  0  0  0  6  0  0
   -0.7590    0.8661   -1.0867 O   0  0  0  0  0  0  0  0  0  7  0  0
   -0.1863    0.9169   -2.4037 C   0  0  0  0  0  0  0  0  0  8  0  0
   -1.0090   -0.5837    0.9799 O   0  0  0  0  0  0  0  0  0  9  0  0
   -2.4184   -0.6501    0.7522 C   0  0  0  0  0  0  0  0  0 10  0  0
    1.1815    2.5838   -0.0812 N   0  0  0  0  0  0  0  0  0 11  0  0
    0.8576    3.9676   -0.2964 C   0  0  0  0  0  0  0  0  0 12  0  0
 11 12  1  0
  2 11  1  0
  9 10  1  0
  5  9  1  0
  7  8  1  0
  5  7  1  0
  5  6  2  0
  4  5  1  0
  3  4  1  0
  2  3  1  0
  1  2  2  0
M  END
> <Name>
Dimethoate

> <CAS RN>
000060-51-5

> <Log Koc>
1.08

> <VP-0>
9.72298

> <nAromBond>
0

> <MAXDP>
3.97843

> <nHBAcc>
4

> <Splitting>
2

$$$$
Dieldrin
  SciTegic01221512053D

 25 29  0  0  0  0            999 V2000
    1.0625    0.3273    0.3761 C   0  0  2  0  0  0  0  0  0  1  0  0
    2.0849    0.6968    0.5284 H   0  0  0  0  0  0  0  0  0  2  0  0
    0.4684    0.1859   -1.1141 C   0  0  2  0  0  0  0  0  0  3  0  0
    1.1113    0.4013   -1.9746 H   0  0  0  0  0  0  0  0  0  4  0  0
   -0.6991    1.3079   -1.0968 C   0  0  2  0  0  0  0  0  0  5  0  0
    0.0341    2.5797   -1.0282 C   0  0  0  0  0  0  0  0  0  6  0  0
    0.5078    2.6990    0.1939 C   0  0  0  0  0  0  0  0  0  7  0  0
    0.0939    1.5016    0.9559 C   0  0  1  0  0  0  0  0  0  8  0  0
   -1.3566    1.3258    0.3414 C   0  0  0  0  0  0  0  0  0  9  0  0
   -2.3380    2.7731    0.5766 Cl  0  0  0  0  0  0  0  0  0 10  0  0
   -2.3840   -0.0165    0.8609 Cl  0  0  0  0  0  0  0  0  0 11  0  0
    0.2492    1.7499    2.6966 Cl  0  0  0  0  0  0  0  0  0 12  0  0
    1.4340    4.0214    0.7892 Cl  0  0  0  0  0  0  0  0  0 13  0  0
    0.2323    3.7176   -2.3073 Cl  0  0  0  0  0  0  0  0  0 14  0  0
   -1.7653    1.2369   -2.5067 Cl  0  0  0  0  0  0  0  0  0 15  0  0
    0.1509   -1.3758   -1.1695 C   0  0  1  0  0  0  0  0  0 16  0  0
   -0.4856   -1.6335   -2.0166 H   0  0  0  0  0  0  0  0  0 17  0  0
    1.4722   -2.0843   -1.3468 C   0  0  2  0  0  0  0  0  0 18  0  0
    1.4963   -3.1601   -1.5184 H   0  0  0  0  0  0  0  0  0 19  0  0
    2.1390   -1.9101    0.1006 C   0  0  2  0  0  0  0  0  0 20  0  0
    3.1450   -1.5999    0.4302 H   0  0  0  0  0  0  0  0  0 21  0  0
    0.9989   -1.1748    0.8335 C   0  0  1  0  0  0  0  0  0 22  0  0
    1.1223   -1.3034    1.9288 H   0  0  0  0  0  0  0  0  0 23  0  0
   -0.2864   -1.8150    0.2233 C   0  0  0  0  0  0  0  0  0 24  0  0
    2.5272   -1.3531   -1.2110 O   0  0  0  0  0  0  0  0  0 25  0  0
 25 18  1  0
 20 25  1  0
 24 16  1  0
 22 24  1  0
 22  1  1  0
 22 23  1  0
 20 22  1  0
 20 21  1  0
 18 20  1  0
 18 19  1  0
 16 18  1  0
 16 17  1  0
  3 16  1  0
  5 15  1  0
  6 14  1  0
  7 13  1  0
  8 12  1  0
  9 11  1  0
  9 10  1  0
  9  5  1  0
  8  9  1  0
  8  1  1  0
  7  8  1  0
  6  7  2  0
  5  6  1  0
  3  5  1  0
  3  4  1  0
  1  3  1  0
  1  2  1  0
M  END
> <Name>
Dieldrin

> <CAS RN>
000060-57-1

> <Log Koc>
4.44

> <VP-0>
13.8828

> <nAromBond>
0

> <MAXDP>
2.60055

> <nHBAcc>
1

> <Splitting>
2

$$$$
Amitrole
  SciTegic01221512053D

  7  7  0  0  0  0            999 V2000
    0.6612    1.0945   -0.4826 C   0  0  0  0  0  0  0  0  0  1  0  0
    0.1720    2.2916   -1.0084 N   0  0  0  0  0  0  0  0  0  2  0  0
    1.7822    0.5008   -0.8646 N   0  0  0  0  0  0  0  0  0  3  0  0
    1.8776   -0.5963   -0.1244 C   0  0  0  0  0  0  0  0  0  4  0  0
    0.8128   -0.6168    0.6701 N   0  0  0  0  0  0  0  0  0  5  0  0
    0.6232   -1.3307    1.3359 H   0  0  0  0  0  0  0  0  0  6  0  0
    0.0714    0.3879    0.4708 N   0  0  0  0  0  0  0  0  0  7  0  0
  7  1  4  0
  5  7  4  0
  5  6  1  0
  4  5  4  0
  3  4  4  0
  1  3  4  0
  1  2  1  0
M  END
> <Name>
Amitrole

> <CAS RN>
000061-82-5

> <Log Koc>
1.64

> <VP-0>
3.04913

> <nAromBond>
5

> <MAXDP>
1.02431

> <nHBAcc>
4

> <Splitting>
1

$$$$
4-Nitrobenzoic acid
  SciTegic01221512053D

 12 12  0  0  0  0            999 V2000
    0.5996    0.0119    0.0084 C   0  0  0  0  0  0  0  0  0  1  0  0
    1.2310    1.1698    0.4479 C   0  0  0  0  0  0  0  0  0  2  0  0
    2.6189    1.2480    0.4436 C   0  0  0  0  0  0  0  0  0  3  0  0
    3.3738    0.1681   -0.0002 C   0  0  0  0  0  0  0  0  0  4  0  0
    2.7422   -0.9898   -0.4396 C   0  0  0  0  0  0  0  0  0  5  0  0
    1.3543   -1.0680   -0.4353 C   0  0  0  0  0  0  0  0  0  6  0  0
    4.7650    0.2465   -0.0045 N   0  0  0  0  0  0  0  0  0  7  0  0
    5.3667    1.3494    0.4140 O   0  0  0  0  0  0  0  0  0  8  0  0
    5.4842   -0.7820   -0.4271 O   0  0  0  0  0  0  0  0  0  9  0  0
   -0.8578   -0.0703    0.0130 C   0  0  0  0  0  0  0  0  0 10  0  0
   -1.5291    0.8896    0.4074 O   0  0  0  0  0  0  0  0  0 11  0  0
   -1.4895   -1.2286   -0.4266 O   0  0  0  0  0  0  0  0  0 12  0  0
 10 12  1  0
 10 11  2  0
  1 10  1  0
  7  9  1  0
  7  8  1  0
  4  7  1  0
  6  1  4  0
  5  6  4  0
  4  5  4  0
  3  4  4  0
  2  3  4  0
  1  2  4  0
M  END
> <Name>
4-Nitrobenzoic acid

> <CAS RN>
000062-23-7

> <Log Koc>
1.54

> <VP-0>
5.78022

> <nAromBond>
6

> <MAXDP>
3.31223

> <nHBAcc>
2

> <Splitting>
2

$$$$
Aniline
  SciTegic01221512053D

  7  7  0  0  0  0            999 V2000
   -0.8336    0.9632    0.0002 C   0  0  0  0  0  0  0  0  0  1  0  0
   -0.1378    2.1670   -0.0001 C   0  0  0  0  0  0  0  0  0  2  0  0
    1.2526    2.1662   -0.0006 C   0  0  0  0  0  0  0  0  0  3  0  0
    1.9474    0.9618   -0.0009 C   0  0  0  0  0  0  0  0  0  4  0  0
    1.2517   -0.2420   -0.0007 C   0  0  0  0  0  0  0  0  0  5  0  0
   -0.1387   -0.2412   -0.0002 C   0  0  0  0  0  0  0  0  0  6  0  0
   -0.8372   -1.4496    0.0001 N   0  0  0  0  0  0  0  0  0  7  0  0
  6  7  1  0
  6  1  4  0
  5  6  4  0
  4  5  4  0
  3  4  4  0
  2  3  4  0
  1  2  4  0
M  END
> <Name>
Aniline

> <CAS RN>
000062-53-3

> <Log Koc>
1.41

> <VP-0>
3.9641

> <nAromBond>
6

> <MAXDP>
1.35778

> <nHBAcc>
1

> <Splitting>
2

$$$$
Thioacetamide
  SciTegic01221512053D

  4  3  0  0  0  0            999 V2000
    1.4968   -0.0374    0.0010 C   0  0  0  0  0  0  0  0  0  1  0  0
   -0.0047   -0.0369    0.0008 C   0  0  0  0  0  0  0  0  0  2  0  0
   -0.7866    1.3184    0.0020 S   0  0  0  0  0  0  0  0  0  3  0  0
   -0.7033   -1.2461   -0.0004 N   0  0  0  0  0  0  0  0  0  4  0  0
  2  4  1  0
  2  3  2  0
  1  2  1  0
M  END
> <Name>
Thioacetamide

> <CAS RN>
000062-55-5

> <Log Koc>
0.78

> <VP-0>
3.3021

> <nAromBond>
0

> <MAXDP>
1.10597

> <nHBAcc>
1

> <Splitting>
2

$$$$
Thiourea
  SciTegic01221512053D

  4  3  0  0  0  0            999 V2000
   -0.0408    0.0007    0.0001 C   0  0  0  0  0  0  0  0  0  1  0  0
    1.5240    0.0008    0.0005 S   0  0  0  0  0  0  0  0  0  2  0  0
   -0.7390    1.2101   -0.0021 N   0  0  0  0  0  0  0  0  0  3  0  0
   -0.7390   -1.2087    0.0019 N   0  0  0  0  0  0  0  0  0  4  0  0
  1  4  1  0
  1  3  1  0
  1  2  2  0
M  END
> <Name>
Thiourea

> <CAS RN>
000062-56-6

> <Log Koc>
0.85

> <VP-0>
2.87945

> <nAromBond>
0

> <MAXDP>
0.883745

> <nHBAcc>
2

> <Splitting>
2

$$$$
Dichlorvos
  SciTegic01221512053D

 11 10  0  0  0  0            999 V2000
    4.0976    1.3626   -0.1992 C   0  0  0  0  0  0  0  0  0  1  0  0
    3.1843    0.2996    0.0834 O   0  0  0  0  0  0  0  0  0  2  0  0
    1.7507    0.8714    0.2196 P   0  0  0  0  0  0  0  0  0  3  0  0
    1.4534    1.4806   -0.9785 O   0  0  0  0  0  0  0  0  0  4  0  0
    1.8261    1.9076    1.4183 O   0  0  0  0  0  0  0  0  0  5  0  0
    0.6049    2.5861    1.7135 C   0  0  0  0  0  0  0  0  0  6  0  0
    0.8148   -0.3773    0.5258 O   0  0  0  0  0  0  0  0  0  7  0  0
   -0.6316   -0.3836    0.3491 C   0  0  0  0  0  0  0  0  0  8  0  0
   -1.4784    0.4991   -0.2142 C   0  0  0  0  0  0  0  0  0  9  0  0
   -1.0103    1.9736   -0.9833 Cl  0  0  0  0  0  0  0  0  0 10  0  0
   -3.1607    0.1050   -0.2059 Cl  0  0  0  0  0  0  0  0  0 11  0  0
  9 11  1  0
  9 10  1  0
  8  9  2  0
  7  8  1  0
  3  7  1  0
  5  6  1  0
  3  5  1  0
  3  4  2  0
  2  3  1  0
  1  2  1  0
M  END
> <Name>
Dichlorvos

> <CAS RN>
000062-73-7

> <Log Koc>
1.67

> <VP-0>
7.64929

> <nAromBond>
0

> <MAXDP>
4.3037

> <nHBAcc>
4

> <Splitting>
2

$$$$
Carbaryl
  SciTegic01221512053D

 15 16  0  0  0  0            999 V2000
    2.1253    2.9881    3.8628 C   0  0  0  0  0  0  0  0  0  1  0  0
    1.6605    3.6329    2.6687 N   0  0  0  0  0  0  0  0  0  2  0  0
    1.1599    2.8686    1.6147 C   0  0  0  0  0  0  0  0  0  3  0  0
    0.7742    3.4621    0.6108 O   0  0  0  0  0  0  0  0  0  4  0  0
    1.1267    1.4391    1.7822 O   0  0  0  0  0  0  0  0  0  5  0  0
    0.6587    0.3977    0.8325 C   0  0  0  0  0  0  0  0  0  6  0  0
    0.7737   -0.8816    1.3704 C   0  0  0  0  0  0  0  0  0  7  0  0
    0.3990   -2.0177    0.6704 C   0  0  0  0  0  0  0  0  0  8  0  0
   -0.1081   -1.8878   -0.6102 C   0  0  0  0  0  0  0  0  0  9  0  0
   -0.2351   -0.6277   -1.1766 C   0  0  0  0  0  0  0  0  0 10  0  0
   -0.7486   -0.5462   -2.4669 C   0  0  0  0  0  0  0  0  0 11  0  0
   -0.9008    0.6824   -3.0922 C   0  0  0  0  0  0  0  0  0 12  0  0
   -0.5333    1.8334   -2.4131 C   0  0  0  0  0  0  0  0  0 13  0  0
   -0.0216    1.7412   -1.1250 C   0  0  0  0  0  0  0  0  0 14  0  0
    0.1411    0.5227   -0.4746 C   0  0  0  0  0  0  0  0  0 15  0  0
 15 10  4  0
 15  6  4  0
 14 15  4  0
 13 14  4  0
 12 13  4  0
 11 12  4  0
 10 11  4  0
  9 10  4  0
  8  9  4  0
  7  8  4  0
  6  7  4  0
  5  6  1  0
  3  5  1  0
  3  4  2  0
  2  3  1  0
  1  2  1  0
M  END
> <Name>
Carbaryl

> <CAS RN>
000063-25-2

> <Log Koc>
2.37

> <VP-0>
8.35795

> <nAromBond>
11

> <MAXDP>
4.09156

> <nHBAcc>
2

> <Splitting>
2

$$$$
3-Methylphenylurea
  SciTegic01221512053D

 11 11  0  0  0  0            999 V2000
    1.4200    0.9161   -0.0002 C   0  0  0  0  0  0  0  0  0  1  0  0
    0.6132    2.0500    0.0002 C   0  0  0  0  0  0  0  0  0  2  0  0
    1.1820    3.3182   -0.0002 C   0  0  0  0  0  0  0  0  0  3  0  0
    2.5645    3.4600   -0.0012 C   0  0  0  0  0  0  0  0  0  4  0  0
    3.3751    2.3311   -0.0016 C   0  0  0  0  0  0  0  0  0  5  0  0
    2.8030    1.0639   -0.0012 C   0  0  0  0  0  0  0  0  0  6  0  0
    0.3028    4.5340    0.0003 C   0  0  0  0  0  0  0  0  0  7  0  0
    0.8750   -0.3967    0.0002 N   0  0  0  0  0  0  0  0  0  8  0  0
   -0.5137   -0.6962    0.0012 C   0  0  0  0  0  0  0  0  0  9  0  0
   -1.3753    0.1905    0.0017 O   0  0  0  0  0  0  0  0  0 10  0  0
   -0.9175   -2.0324    0.0015 N   0  0  0  0  0  0  0  0  0 11  0  0
  9 11  1  0
  9 10  2  0
  8  9  1  0
  1  8  1  0
  3  7  1  0
  6  1  4  0
  5  6  4  0
  4  5  4  0
  3  4  4  0
  2  3  4  0
  1  2  4  0
M  END
> <Name>
3-Methylphenylurea

> <CAS RN>
000063-99-0

> <Log Koc>
1.56

> <VP-0>
6.295

> <nAromBond>
6

> <MAXDP>
3.39112

> <nHBAcc>
3

> <Splitting>
2

$$$$
Phenylurea
  SciTegic01221512053D

 10 10  0  0  0  0            999 V2000
    1.4107    1.0204    0.0001 C   0  0  0  0  0  0  0  0  0  1  0  0
    0.6273    2.1708   -0.0005 C   0  0  0  0  0  0  0  0  0  2  0  0
    1.2222    3.4273   -0.0008 C   0  0  0  0  0  0  0  0  0  3  0  0
    2.6074    3.5402   -0.0005 C   0  0  0  0  0  0  0  0  0  4  0  0
    3.3946    2.3947    0.0001 C   0  0  0  0  0  0  0  0  0  5  0  0
    2.7964    1.1397    0.0004 C   0  0  0  0  0  0  0  0  0  6  0  0
    0.8391   -0.2815    0.0005 N   0  0  0  0  0  0  0  0  0  7  0  0
   -0.5552   -0.5534    0.0002 C   0  0  0  0  0  0  0  0  0  8  0  0
   -1.3989    0.3502   -0.0003 O   0  0  0  0  0  0  0  0  0  9  0  0
   -0.9854   -1.8813    0.0006 N   0  0  0  0  0  0  0  0  0 10  0  0
  8 10  1  0
  8  9  2  0
  7  8  1  0
  1  7  1  0
  6  1  4  0
  5  6  4  0
  4  5  4  0
  3  4  4  0
  2  3  4  0
  1  2  4  0
M  END
> <Name>
Phenylurea

> <CAS RN>
000064-10-8

> <Log Koc>
1.43

> <VP-0>
5.37235

> <nAromBond>
6

> <MAXDP>
3.27982

> <nHBAcc>
3

> <Splitting>
2

$$$$
Ethanol
  SciTegic01221512053D

  3  2  0  0  0  0            999 V2000
   -0.4028    0.0026   -0.1530 C   0  0  0  0  0  0  0  0  0  1  0  0
    1.1371   -0.0011   -0.1315 C   0  0  0  0  0  0  0  0  0  2  0  0
    1.5956   -0.0006    1.2231 O   0  0  0  0  0  0  0  0  0  3  0  0
  2  3  1  0
  1  2  1  0
M  END
> <Name>
Ethanol

> <CAS RN>
000064-17-5

> <Log Koc>
0.2

> <VP-0>
2.15432

> <nAromBond>
0

> <MAXDP>
1.56944

> <nHBAcc>
1

> <Splitting>
2

$$$$
Acetic Acid
  SciTegic01221512053D

  4  3  0  0  0  0            999 V2000
    1.3864    0.0562   -0.0010 O   0  0  0  0  0  0  0  0  0  1  0  0
   -0.0051    0.0561   -0.0015 C   0  0  0  0  0  0  0  0  0  2  0  0
   -0.6233    1.1266   -0.0021 O   0  0  0  0  0  0  0  0  0  3  0  0
   -0.7557   -1.2444   -0.0015 C   0  0  0  0  0  0  0  0  0  4  0  0
  2  4  1  0
  2  3  2  0
  1  2  1  0
M  END
> <Name>
Acetic Acid

> <CAS RN>
000064-19-7

> <Log Koc>
0

> <VP-0>
2.35546

> <nAromBond>
0

> <MAXDP>
2

> <nHBAcc>
2

> <Splitting>
2

$$$$
Benzoic Acid
  SciTegic01221512053D

  9  9  0  0  0  0            999 V2000
    0.9293    0.0167   -0.0002 C   0  0  0  0  0  0  0  0  0  1  0  0
    1.6298    1.2176    0.0000 C   0  0  0  0  0  0  0  0  0  2  0  0
    3.0200    1.2106    0.0002 C   0  0  0  0  0  0  0  0  0  3  0  0
    3.7090    0.0028    0.0003 C   0  0  0  0  0  0  0  0  0  4  0  0
    3.0080   -1.1980    0.0001 C   0  0  0  0  0  0  0  0  0  5  0  0
    1.6177   -1.1911   -0.0001 C   0  0  0  0  0  0  0  0  0  6  0  0
   -0.5304    0.0240   -0.0004 C   0  0  0  0  0  0  0  0  0  7  0  0
   -1.1425    1.0977   -0.0004 O   0  0  0  0  0  0  0  0  0  8  0  0
   -1.2310   -1.1774   -0.0006 O   0  0  0  0  0  0  0  0  0  9  0  0
  7  9  1  0
  7  8  2  0
  1  7  1  0
  6  1  4  0
  5  6  4  0
  4  5  4  0
  3  4  4  0
  2  3  4  0
  1  2  4  0
M  END
> <Name>
Benzoic Acid

> <CAS RN>
000065-85-0

> <Log Koc>
1.5

> <VP-0>
4.74221

> <nAromBond>
6

> <MAXDP>
3.20093

> <nHBAcc>
2

> <Splitting>
1

$$$$
Methanol
  SciTegic01221512053D

  2  1  0  0  0  0            999 V2000
   -0.2158    0.0009   -0.0004 C   0  0  0  0  0  0  0  0  0  1  0  0
    1.2142    0.0012   -0.0009 O   0  0  0  0  0  0  0  0  0  2  0  0
  1  2  1  0
M  END
> <Name>
Methanol

> <CAS RN>
000067-56-1

> <Log Koc>
0.44

> <VP-0>
1.44721

> <nAromBond>
0

> <MAXDP>
1

> <nHBAcc>
1

> <Splitting>
2

$$$$
Trichloromethane
  SciTegic01221512053D

  4  3  0  0  0  0            999 V2000
   -0.0633   -0.0909   -0.1563 C   0  0  0  0  0  0  0  0  0  1  0  0
    1.7037   -0.0910   -0.1582 Cl  0  0  0  0  0  0  0  0  0  2  0  0
   -0.6530    1.5748   -0.1566 Cl  0  0  0  0  0  0  0  0  0  3  0  0
   -0.6517   -0.9246    1.2862 Cl  0  0  0  0  0  0  0  0  0  4  0  0
  1  4  1  0
  1  3  1  0
  1  2  1  0
M  END
> <Name>
Trichloromethane

> <CAS RN>
000067-66-3

> <Log Koc>
1.65

> <VP-0>
3.97903

> <nAromBond>
0

> <MAXDP>
0.00308642

> <nHBAcc>
0

> <Splitting>
2

$$$$
Hexachloroethane
  SciTegic01221512053D

  8  7  0  0  0  0            999 V2000
   -0.6484    0.7006   -0.5580 Cl  0  0  0  0  0  0  0  0  0  1  0  0
    0.9075    0.2199    0.1263 C   0  0  0  0  0  0  0  0  0  2  0  0
    0.7123   -0.1334    1.8461 Cl  0  0  0  0  0  0  0  0  0  3  0  0
    2.0730    1.5314   -0.0784 Cl  0  0  0  0  0  0  0  0  0  4  0  0
    1.4187   -1.0360   -0.5986 C   0  0  0  0  0  0  0  0  0  5  0  0
    2.9747   -1.5166    0.0857 Cl  0  0  0  0  0  0  0  0  0  6  0  0
    1.6140   -0.6827   -2.3184 Cl  0  0  0  0  0  0  0  0  0  7  0  0
    0.2532   -2.3475   -0.3939 Cl  0  0  0  0  0  0  0  0  0  8  0  0
  5  8  1  0
  5  7  1  0
  5  6  1  0
  2  5  1  0
  2  4  1  0
  2  3  1  0
  1  2  1  0
M  END
> <Name>
Hexachloroethane

> <CAS RN>
000067-72-1

> <Log Koc>
3.34

> <VP-0>
7.80336

> <nAromBond>
0

> <MAXDP>
0.0345508

> <nHBAcc>
0

> <Splitting>
2

$$$$
1-Propanol
  SciTegic01221512053D

  4  3  0  0  0  0            999 V2000
   -0.3704    0.1826   -0.5276 C   0  0  0  0  0  0  0  0  0  1  0  0
    1.0708   -0.2759   -0.2382 C   0  0  0  0  0  0  0  0  0  2  0  0
    1.5249    0.2864    1.1213 C   0  0  0  0  0  0  0  0  0  3  0  0
    0.6550   -0.1931    2.1498 O   0  0  0  0  0  0  0  0  0  4  0  0
  3  4  1  0
  2  3  1  0
  1  2  1  0
M  END
> <Name>
1-Propanol

> <CAS RN>
000071-23-8

> <Log Koc>
0.48

> <VP-0>
2.86143

> <nAromBond>
0

> <MAXDP>
1.875

> <nHBAcc>
1

> <Splitting>
2

$$$$
1-Butanol
  SciTegic01221512053D

  5  4  0  0  0  0            999 V2000
    0.1013    0.0852   -0.9788 O   0  0  0  0  0  0  0  0  0  1  0  0
    1.3617   -0.2518   -0.3898 C   0  0  0  0  0  0  0  0  0  2  0  0
    1.5223    0.3429    1.0431 C   0  0  0  0  0  0  0  0  0  3  0  0
    0.5319   -0.2735    2.0794 C   0  0  0  0  0  0  0  0  0  4  0  0
   -0.9377    0.1019    1.7899 C   0  0  0  0  0  0  0  0  0  5  0  0
  4  5  1  0
  3  4  1  0
  2  3  1  0
  1  2  1  0
M  END
> <Name>
1-Butanol

> <CAS RN>
000071-36-3

> <Log Koc>
0.5

> <VP-0>
3.56853

> <nAromBond>
0

> <MAXDP>
2.06625

> <nHBAcc>
1

> <Splitting>
1

$$$$
1-Pentanol
  SciTegic01221512053D

  6  5  0  0  0  0            999 V2000
    0.6677   -0.6679   -1.2512 C   0  0  0  0  0  0  0  0  0  1  0  0
    1.7222    0.0506   -0.3736 C   0  0  0  0  0  0  0  0  0  2  0  0
    1.6873   -0.3894    1.1326 C   0  0  0  0  0  0  0  0  0  3  0  0
    0.6227    0.3165    2.0721 C   0  0  0  0  0  0  0  0  0  4  0  0
   -0.8829    0.0345    1.7853 C   0  0  0  0  0  0  0  0  0  5  0  0
   -1.3101    0.6583    0.5739 O   0  0  0  0  0  0  0  0  0  6  0  0
  5  6  1  0
  4  5  1  0
  3  4  1  0
  2  3  1  0
  1  2  1  0
M  END
> <Name>
1-Pentanol

> <CAS RN>
000071-41-0

> <Log Koc>
0.7

> <VP-0>
4.27564

> <nAromBond>
0

> <MAXDP>
2.19736

> <nHBAcc>
1

> <Splitting>
2

$$$$
Benzene
  SciTegic01221512053D

  6  6  0  0  0  0            999 V2000
   -0.8904    0.8668    0.0008 C   0  0  0  0  0  0  0  0  0  1  0  0
   -0.1946    2.0707    0.0006 C   0  0  0  0  0  0  0  0  0  2  0  0
    1.1959    2.0700    0.0008 C   0  0  0  0  0  0  0  0  0  3  0  0
    1.8905    0.8655    0.0012 C   0  0  0  0  0  0  0  0  0  4  0  0
    1.1947   -0.3383    0.0014 C   0  0  0  0  0  0  0  0  0  5  0  0
   -0.1957   -0.3377    0.0012 C   0  0  0  0  0  0  0  0  0  6  0  0
  6  1  4  0
  5  6  4  0
  4  5  4  0
  3  4  4  0
  2  3  4  0
  1  2  4  0
M  END
> <Name>
Benzene

> <CAS RN>
000071-43-2

> <Log Koc>
1.94

> <VP-0>
3.4641

> <nAromBond>
6

> <MAXDP>
0

> <nHBAcc>
0

> <Splitting>
2

$$$$
1,1,1-Trichloroethane
  SciTegic01221512053D

  5  4  0  0  0  0            999 V2000
   -0.5872   -0.0007    0.0011 C   0  0  0  0  0  0  0  0  0  1  0  0
    0.9528    0.0002    0.0006 C   0  0  0  0  0  0  0  0  0  2  0  0
    1.5424    0.0017    1.6663 Cl  0  0  0  0  0  0  0  0  0  3  0  0
    1.5408    1.4426   -0.8336 Cl  0  0  0  0  0  0  0  0  0  4  0  0
    1.5424   -1.4429   -0.8315 Cl  0  0  0  0  0  0  0  0  0  5  0  0
  2  5  1  0
  2  4  1  0
  2  3  1  0
  1  2  1  0
M  END
> <Name>
1,1,1-Trichloroethane

> <CAS RN>
000071-55-6

> <Log Koc>
2.04

> <VP-0>
4.90168

> <nAromBond>
0

> <MAXDP>
0.405607

> <nHBAcc>
0

> <Splitting>
2

$$$$
Endrin
  SciTegic01221512053D

 25 29  0  0  0  0            999 V2000
    1.4096    0.3819   -0.7065 Cl  0  0  0  0  0  0  0  0  0  1  0  0
    0.6100   -0.3194    0.7043 C   0  0  1  0  0  0  0  0  0  2  0  0
    1.5545   -0.9214    1.6440 C   0  0  0  0  0  0  0  0  0  3  0  0
    0.9182   -1.0635    2.7864 C   0  0  0  0  0  0  0  0  0  4  0  0
    1.5696   -1.7499    4.2258 Cl  0  0  0  0  0  0  0  0  0  5  0  0
   -0.4700   -0.5681    2.6112 C   0  0  1  0  0  0  0  0  0  6  0  0
   -0.1646    0.6628    1.6889 C   0  0  0  0  0  0  0  0  0  7  0  0
   -1.4911    1.6518    1.0680 Cl  0  0  0  0  0  0  0  0  0  8  0  0
    0.9423    1.7906    2.4762 Cl  0  0  0  0  0  0  0  0  0  9  0  0
   -1.1164   -1.7631    1.7478 C   0  0  2  0  0  0  0  0  0 10  0  0
   -0.8307   -2.6229    2.3541 H   0  0  0  0  0  0  0  0  0 11  0  0
   -0.4072   -1.5156    0.3573 C   0  0  2  0  0  0  0  0  0 12  0  0
    0.1125   -2.3478   -0.1300 H   0  0  0  0  0  0  0  0  0 13  0  0
   -1.7168   -1.3511   -0.5610 C   0  0  2  0  0  0  0  0  0 14  0  0
   -1.4760   -0.9590   -1.5664 H   0  0  0  0  0  0  0  0  0 15  0  0
   -2.8475   -0.7298    0.2454 C   0  0  0  0  0  0  0  0  0 16  0  0
   -2.5813   -1.8544    1.3440 C   0  0  2  0  0  0  0  0  0 17  0  0
   -3.2171   -1.8148    2.2351 H   0  0  0  0  0  0  0  0  0 18  0  0
   -2.7064   -3.2691    0.6607 C   0  0  2  0  0  0  0  0  0 19  0  0
   -3.7273   -3.5834    0.4802 H   0  0  0  0  0  0  0  0  0 20  0  0
   -1.6742   -3.8072   -0.3481 O   0  0  0  0  0  0  0  0  0 21  0  0
   -2.3606   -2.7101   -0.6884 C   0  0  2  0  0  0  0  0  0 22  0  0
   -3.2586   -2.8022   -1.3151 H   0  0  0  0  0  0  0  0  0 23  0  0
   -1.2680   -0.3233    4.1684 Cl  0  0  0  0  0  0  0  0  0 24  0  0
    3.1835   -1.3755    1.3260 Cl  0  0  0  0  0  0  0  0  0 25  0  0
  3 25  1  0
  6 24  1  0
 22 19  1  0
 22 14  1  0
 22 23  1  0
 21 22  1  0
 19 21  1  0
 19 20  1  0
 17 19  1  0
 17 10  1  0
 17 18  1  0
 16 17  1  0
 14 16  1  0
 14 15  1  0
 12 14  1  0
 12  2  1  0
 12 13  1  0
 10 12  1  0
 10 11  1  0
  6 10  1  0
  7  9  1  0
  7  8  1  0
  7  2  1  0
  6  7  1  0
  4  6  1  0
  4  5  1  0
  3  4  2  0
  2  3  1  0
  1  2  1  0
M  END
> <Name>
Endrin

> <CAS RN>
000072-20-8

> <Log Koc>
4.08

> <VP-0>
13.8828

> <nAromBond>
0

> <MAXDP>
2.60055

> <nHBAcc>
1

> <Splitting>
2

$$$$
Methoxychlor
  SciTegic01221512053D

 21 22  0  0  0  0            999 V2000
    0.5983    3.4919    2.9557 Cl  0  0  0  0  0  0  0  0  0  1  0  0
   -0.3122    2.0069    2.6342 C   0  0  0  0  0  0  0  0  0  2  0  0
   -0.4493    1.7258    1.0734 C   0  0  0  0  0  0  0  0  0  3  0  0
   -1.3473    0.5004    0.7220 C   0  0  0  0  0  0  0  0  0  4  0  0
   -1.6407    0.2174   -0.6114 C   0  0  0  0  0  0  0  0  0  5  0  0
   -2.4549   -0.8573   -0.9486 C   0  0  0  0  0  0  0  0  0  6  0  0
   -2.9962   -1.6626    0.0478 C   0  0  0  0  0  0  0  0  0  7  0  0
   -3.8208   -2.7545   -0.2724 O   0  0  0  0  0  0  0  0  0  8  0  0
   -3.9898   -2.8830   -1.6924 C   0  0  0  0  0  0  0  0  0  9  0  0
   -2.7190   -1.3811    1.3796 C   0  0  0  0  0  0  0  0  0 10  0  0
   -1.9037   -0.3051    1.7116 C   0  0  0  0  0  0  0  0  0 11  0  0
    0.9440    1.6273    0.3878 C   0  0  0  0  0  0  0  0  0 12  0  0
    1.7593    2.7512    0.3006 C   0  0  0  0  0  0  0  0  0 13  0  0
    3.0081    2.6800   -0.3062 C   0  0  0  0  0  0  0  0  0 14  0  0
    3.4608    1.4758   -0.8340 C   0  0  0  0  0  0  0  0  0 15  0  0
    4.7191    1.3825   -1.4526 O   0  0  0  0  0  0  0  0  0 16  0  0
    5.3990    2.6467   -1.4472 C   0  0  0  0  0  0  0  0  0 17  0  0
    2.6555    0.3470   -0.7486 C   0  0  0  0  0  0  0  0  0 18  0  0
    1.4078    0.4248   -0.1419 C   0  0  0  0  0  0  0  0  0 19  0  0
   -1.9119    2.2320    3.3690 Cl  0  0  0  0  0  0  0  0  0 20  0  0
    0.5279    0.6627    3.4268 Cl  0  0  0  0  0  0  0  0  0 21  0  0
  2 21  1  0
  2 20  1  0
 19 12  4  0
 18 19  4  0
 15 18  4  0
 16 17  1  0
 15 16  1  0
 14 15  4  0
 13 14  4  0
 12 13  4  0
  3 12  1  0
 11  4  4  0
 10 11  4  0
  7 10  4  0
  8  9  1  0
  7  8  1  0
  6  7  4  0
  5  6  4  0
  4  5  4  0
  3  4  1  0
  2  3  1  0
  1  2  1  0
M  END
> <Name>
Methoxychlor

> <CAS RN>
000072-43-5

> <Log Koc>
4.9

> <VP-0>
13.9143

> <nAromBond>
12

> <MAXDP>
1.78466

> <nHBAcc>
0

> <Splitting>
2

$$$$
4,4-DDD
  SciTegic01221512053D

 18 19  0  0  0  0            999 V2000
    1.6027    3.2252    2.8567 Cl  0  0  0  0  0  0  0  0  0  1  0  0
    0.3312    2.0010    2.7315 C   0  0  0  0  0  0  0  0  0  2  0  0
   -0.2090    1.8800    1.2566 C   0  0  0  0  0  0  0  0  0  3  0  0
   -1.3286    0.8280    1.1291 C   0  0  0  0  0  0  0  0  0  4  0  0
   -1.9853    0.6644   -0.0897 C   0  0  0  0  0  0  0  0  0  5  0  0
   -3.0019   -0.2733   -0.2238 C   0  0  0  0  0  0  0  0  0  6  0  0
   -3.3733   -1.0544    0.8637 C   0  0  0  0  0  0  0  0  0  7  0  0
   -2.7274   -0.8943    2.0835 C   0  0  0  0  0  0  0  0  0  8  0  0
   -1.7102    0.0447    2.2141 C   0  0  0  0  0  0  0  0  0  9  0  0
   -4.6370   -2.2210    0.6988 Cl  0  0  0  0  0  0  0  0  0 10  0  0
    0.9334    1.5829    0.2716 C   0  0  0  0  0  0  0  0  0 11  0  0
    1.7747    2.6103   -0.1432 C   0  0  0  0  0  0  0  0  0 12  0  0
    2.8136    2.3568   -1.0317 C   0  0  0  0  0  0  0  0  0 13  0  0
    3.0197    1.0687   -1.5100 C   0  0  0  0  0  0  0  0  0 14  0  0
    2.1860    0.0359   -1.0983 C   0  0  0  0  0  0  0  0  0 15  0  0
    1.1479    0.2937   -0.2114 C   0  0  0  0  0  0  0  0  0 16  0  0
    4.3101    0.7513   -2.6139 Cl  0  0  0  0  0  0  0  0  0 17  0  0
   -0.9701    2.4821    3.8401 Cl  0  0  0  0  0  0  0  0  0 18  0  0
  2 18  1  0
 14 17  1  0
 16 11  4  0
 15 16  4  0
 14 15  4  0
 13 14  4  0
 12 13  4  0
 11 12  4  0
  3 11  1  0
  7 10  1  0
  9  4  4  0
  8  9  4  0
  7  8  4  0
  6  7  4  0
  5  6  4  0
  4  5  4  0
  3  4  1  0
  2  3  1  0
  1  2  1  0
M  END
> <Name>
4,4-DDD

> <CAS RN>
000072-54-8

> <Log Koc>
4.8

> <VP-0>
12.3091

> <nAromBond>
12

> <MAXDP>
0.367212

> <nHBAcc>
0

> <Splitting>
2

$$$$
4,4'-DDE
  SciTegic01221512053D

 18 19  0  0  0  0            999 V2000
   -1.1676    2.9243    3.2294 Cl  0  0  0  0  0  0  0  0  0  1  0  0
   -0.1566    1.7367    2.4543 C   0  0  0  0  0  0  0  0  0  2  0  0
    0.0220    1.6432    1.0853 C   0  0  0  0  0  0  0  0  0  3  0  0
   -0.7178    2.6864    0.1026 C   0  0  0  0  0  0  0  0  0  4  0  0
   -1.4291    3.7793    0.5949 C   0  0  0  0  0  0  0  0  0  5  0  0
   -2.0753    4.6873   -0.2356 C   0  0  0  0  0  0  0  0  0  6  0  0
   -2.0275    4.5213   -1.6114 C   0  0  0  0  0  0  0  0  0  7  0  0
   -1.3308    3.4446   -2.1371 C   0  0  0  0  0  0  0  0  0  8  0  0
   -0.6920    2.5507   -1.2851 C   0  0  0  0  0  0  0  0  0  9  0  0
   -2.8264    5.6413   -2.6566 Cl  0  0  0  0  0  0  0  0  0 10  0  0
    0.9702    0.4914    0.4722 C   0  0  0  0  0  0  0  0  0 11  0  0
    1.2945    0.4353   -0.8830 C   0  0  0  0  0  0  0  0  0 12  0  0
    2.1150   -0.5520   -1.4167 C   0  0  0  0  0  0  0  0  0 13  0  0
    2.6447   -1.5305   -0.5901 C   0  0  0  0  0  0  0  0  0 14  0  0
    2.3445   -1.5055    0.7633 C   0  0  0  0  0  0  0  0  0 15  0  0
    1.5222   -0.5074    1.2726 C   0  0  0  0  0  0  0  0  0 16  0  0
    3.6662   -2.7643   -1.2377 Cl  0  0  0  0  0  0  0  0  0 17  0  0
    0.6012    0.6805    3.6135 Cl  0  0  0  0  0  0  0  0  0 18  0  0
  2 18  1  0
 14 17  1  0
 16 11  4  0
 15 16  4  0
 14 15  4  0
 13 14  4  0
 12 13  4  0
 11 12  4  0
  3 11  1  0
  7 10  1  0
  9  4  4  0
  8  9  4  0
  7  8  4  0
  6  7  4  0
  5  6  4  0
  4  5  4  0
  3  4  1  0
  2  3  2  0
  1  2  1  0
M  END
> <Name>
4,4'-DDE

> <CAS RN>
000072-55-9

> <Log Koc>
4.76

> <VP-0>
12.1544

> <nAromBond>
12

> <MAXDP>
0.309341

> <nHBAcc>
0

> <Splitting>
1

$$$$
Methyl bromide
  SciTegic01221512053D

  2  1  0  0  0  0            999 V2000
   -0.4727    0.0014    0.0021 Br  0  0  0  0  0  0  0  0  0  1  0  0
    1.4673   -0.0001   -0.0004 C   0  0  0  0  0  0  0  0  0  2  0  0
  1  2  1  0
M  END
> <Name>
Methyl bromide

> <CAS RN>
000074-83-9

> <Log Koc>
1.34

> <VP-0>
2.96396

> <nAromBond>
0

> <MAXDP>
0.233796

> <nHBAcc>
0

> <Splitting>
1

$$$$
Dichloromethane
  SciTegic01221512053D

  3  2  0  0  0  0            999 V2000
   -0.1699   -0.2412   -0.0009 C   0  0  0  0  0  0  0  0  0  1  0  0
    1.5971   -0.2446    0.0005 Cl  0  0  0  0  0  0  0  0  0  2  0  0
   -0.7565    1.4256   -0.0003 Cl  0  0  0  0  0  0  0  0  0  3  0  0
  1  3  1  0
  1  2  1  0
M  END
> <Name>
Dichloromethane

> <CAS RN>
000075-09-2

> <Log Koc>
1.44

> <VP-0>
2.97489

> <nAromBond>
0

> <MAXDP>
0.0771605

> <nHBAcc>
0

> <Splitting>
2

$$$$
Ethylene Oxide
  SciTegic01221512053D

  3  3  0  0  0  0            999 V2000
   -0.0737    0.2180    0.0011 C   0  0  0  0  0  0  0  0  0  1  0  0
    1.1563    1.0868    0.0015 C   0  0  0  0  0  0  0  0  0  2  0  0
    1.2546   -0.3575   -0.0003 O   0  0  0  0  0  0  0  0  0  3  0  0
  3  1  1  0
  2  3  1  0
  1  2  1  0
M  END
> <Name>
Ethylene Oxide

> <CAS RN>
000075-21-8

> <Log Koc>
0.34

> <VP-0>
1.82246

> <nAromBond>
0

> <MAXDP>
1

> <nHBAcc>
1

> <Splitting>
2

$$$$
Tribromomethane
  SciTegic01221512053D

  4  3  0  0  0  0            999 V2000
   -0.0773   -0.1106   -0.1906 C   0  0  0  0  0  0  0  0  0  1  0  0
    1.8627   -0.1132   -0.1943 Br  0  0  0  0  0  0  0  0  0  2  0  0
   -0.7224    1.7190   -0.1893 Br  0  0  0  0  0  0  0  0  0  3  0  0
   -0.7231   -1.0261    1.3932 Br  0  0  0  0  0  0  0  0  0  4  0  0
  1  4  1  0
  1  3  1  0
  1  2  1  0
M  END
> <Name>
Tribromomethane

> <CAS RN>
000075-25-2

> <Log Koc>
2.2

> <VP-0>
6.46923

> <nAromBond>
0

> <MAXDP>
0.201389

> <nHBAcc>
0

> <Splitting>
2

$$$$
Bromodichloromethane
  SciTegic01221512053D

  4  3  0  0  0  0            999 V2000
   -0.7208   -0.1860   -0.0665 Cl  0  0  0  0  0  0  0  0  0  1  0  0
    1.0462   -0.1932   -0.0659 C   0  0  0  0  0  0  0  0  0  2  0  0
    1.6355   -0.1818    1.5999 Cl  0  0  0  0  0  0  0  0  0  3  0  0
    1.7005    1.3792   -0.9951 Br  0  0  0  0  0  0  0  0  0  4  0  0
  2  4  1  0
  2  3  1  0
  1  2  1  0
M  END
> <Name>
Bromodichloromethane

> <CAS RN>
000075-27-4

> <Log Koc>
1.79

> <VP-0>
4.8091

> <nAromBond>
0

> <MAXDP>
0.0609568

> <nHBAcc>
0

> <Splitting>
1

$$$$
1,1-Dichloroethane
  SciTegic01221512053D

  4  3  0  0  0  0            999 V2000
   -0.5417   -0.1345   -0.0776 C   0  0  0  0  0  0  0  0  0  1  0  0
    0.9981   -0.1569   -0.0915 C   0  0  0  0  0  0  0  0  0  2  0  0
    1.6028   -0.1677    1.5688 Cl  0  0  0  0  0  0  0  0  0  3  0  0
    1.6014    1.2769   -0.9296 Cl  0  0  0  0  0  0  0  0  0  4  0  0
  2  4  1  0
  2  3  1  0
  1  2  1  0
M  END
> <Name>
1,1-Dichloroethane

> <CAS RN>
000075-34-3

> <Log Koc>
1.48

> <VP-0>
3.84514

> <nAromBond>
0

> <MAXDP>
0.312071

> <nHBAcc>
0

> <Splitting>
2

$$$$
1,1-Dichloroethene
  SciTegic01221512053D

  4  3  0  0  0  0            999 V2000
   -0.4296   -0.0013   -0.0002 C   0  0  0  0  0  0  0  0  0  1  0  0
    0.9018    0.0000    0.0005 C   0  0  0  0  0  0  0  0  0  2  0  0
    1.7652    0.0010    1.4979 Cl  0  0  0  0  0  0  0  0  0  3  0  0
    1.7668    0.0007   -1.4959 Cl  0  0  0  0  0  0  0  0  0  4  0  0
  2  4  1  0
  2  3  1  0
  1  2  2  0
M  END
> <Name>
1,1-Dichloroethene

> <CAS RN>
000075-35-4

> <Log Koc>
1.81

> <VP-0>
3.47489

> <nAromBond>
0

> <MAXDP>
0.70096

> <nHBAcc>
0

> <Splitting>
2

$$$$
Trichlorofluoromethane
  SciTegic01221512053D

  5  4  0  0  0  0            999 V2000
    0.0799    0.0018    0.0003 C   0  0  0  0  0  0  0  0  0  1  0  0
    1.4599    0.0021   -0.0010 F   0  0  0  0  0  0  0  0  0  2  0  0
   -0.5095    1.6676    0.0009 Cl  0  0  0  0  0  0  0  0  0  3  0  0
   -0.5077   -0.8314    1.4435 Cl  0  0  0  0  0  0  0  0  0  4  0  0
   -0.5102   -0.8313   -1.4420 Cl  0  0  0  0  0  0  0  0  0  5  0  0
  1  5  1  0
  1  4  1  0
  1  3  1  0
  1  2  1  0
M  END
> <Name>
Trichlorofluoromethane

> <CAS RN>
000075-69-4

> <Log Koc>
2.2

> <VP-0>
4.27964

> <nAromBond>
0

> <MAXDP>
3.90561

> <nHBAcc>
0

> <Splitting>
2

$$$$
Dalapon
  SciTegic01221512053D

  7  6  0  0  0  0            999 V2000
    1.6853    1.5290    0.0001 C   0  0  0  0  0  0  0  0  0  1  0  0
    1.1603    0.0813   -0.0005 C   0  0  0  0  0  0  0  0  0  2  0  0
   -0.3401    0.0542   -0.0003 C   0  0  0  0  0  0  0  0  0  3  0  0
   -0.9780    1.1131    0.0008 O   0  0  0  0  0  0  0  0  0  4  0  0
   -1.0127   -1.1633   -0.0014 O   0  0  0  0  0  0  0  0  0  5  0  0
    1.7451   -0.8019    1.4134 Cl  0  0  0  0  0  0  0  0  0  6  0  0
    1.7448   -0.8007   -1.4153 Cl  0  0  0  0  0  0  0  0  0  7  0  0
  2  7  1  0
  2  6  1  0
  3  5  1  0
  3  4  2  0
  2  3  1  0
  1  2  1  0
M  END
> <Name>
Dalapon

> <CAS RN>
000075-99-0

> <Log Koc>
0.44

> <VP-0>
5.12325

> <nAromBond>
0

> <MAXDP>
3.10262

> <nHBAcc>
2

> <Splitting>
1

$$$$
Chloropicrin
  SciTegic01221512053D

  7  6  0  0  0  0            999 V2000
   -0.6871    0.4205   -0.1138 Cl  0  0  0  0  0  0  0  0  0  1  0  0
    1.0349    0.0287   -0.1488 C   0  0  0  0  0  0  0  0  0  2  0  0
    1.5894    0.1466    1.2056 N   0  0  0  0  0  0  0  0  0  3  0  0
    0.9433   -0.7155    2.0348 O   0  0  0  0  0  0  0  0  0  4  0  0
    1.4212    1.4192    1.6533 O   0  0  0  0  0  0  0  0  0  5  0  0
    1.8729    1.1493   -1.2272 Cl  0  0  0  0  0  0  0  0  0  6  0  0
    1.2518   -1.6249   -0.7314 Cl  0  0  0  0  0  0  0  0  0  7  0  0
  2  7  1  0
  2  6  1  0
  3  5  1  0
  3  4  1  0
  2  3  1  0
  1  2  1  0
M  END
> <Name>
Chloropicrin

> <CAS RN>
000076-06-2

> <Log Koc>
1.79

> <VP-0>
5.01704

> <nAromBond>
0

> <MAXDP>
2.94907

> <nHBAcc>
0

> <Splitting>
2

$$$$
Heptachlor
  SciTegic01221512053D

 20 22  0  0  0  0            999 V2000
    0.7142    0.9934   -0.2328 C   0  0  1  0  0  0  0  0  0  1  0  0
    0.4418    1.6438    1.0338 C   0  0  0  0  0  0  0  0  0  2  0  0
   -0.6843    1.1396    1.4893 C   0  0  0  0  0  0  0  0  0  3  0  0
   -1.2160    0.0565    0.5381 C   0  0  1  0  0  0  0  0  0  4  0  0
   -0.1574   -1.1062    0.5683 C   0  0  1  0  0  0  0  0  0  5  0  0
   -0.3731   -2.0776    0.1041 H   0  0  0  0  0  0  0  0  0  6  0  0
    1.0041   -0.5433   -0.2075 C   0  0  1  0  0  0  0  0  0  7  0  0
    0.9544   -0.7012   -1.2810 H   0  0  0  0  0  0  0  0  0  8  0  0
    2.1653   -1.2913    0.4359 C   0  0  2  0  0  0  0  0  0  9  0  0
    2.0668   -2.3488    0.1547 H   0  0  0  0  0  0  0  0  0 10  0  0
    1.7753   -1.2501    1.9046 C   0  0  0  0  0  0  0  0  0 11  0  0
    0.4245   -1.2521    1.9900 C   0  0  0  0  0  0  0  0  0 12  0  0
    3.7703   -0.7063   -0.0093 Cl  0  0  0  0  0  0  0  0  0 13  0  0
   -2.8570   -0.4291    0.9697 Cl  0  0  0  0  0  0  0  0  0 14  0  0
   -0.8335    0.7938   -0.7676 C   0  0  0  0  0  0  0  0  0 15  0  0
   -1.6757    2.3390   -0.9077 Cl  0  0  0  0  0  0  0  0  0 16  0  0
   -1.0610   -0.1364   -2.2628 Cl  0  0  0  0  0  0  0  0  0 17  0  0
   -1.4544    1.6225    2.9579 Cl  0  0  0  0  0  0  0  0  0 18  0  0
    1.3806    2.8906    1.7705 Cl  0  0  0  0  0  0  0  0  0 19  0  0
    1.8574    1.8872   -1.2371 Cl  0  0  0  0  0  0  0  0  0 20  0  0
  1 20  1  0
  2 19  1  0
  3 18  1  0
 15 17  1  0
 15 16  1  0
 15  1  1  0
  4 15  1  0
  4 14  1  0
  9 13  1  0
 12  5  1  0
 11 12  2  0
  9 11  1  0
  9 10  1  0
  7  9  1  0
  7  1  1  0
  7  8  1  0
  5  7  1  0
  5  6  1  0
  4  5  1  0
  3  4  1  0
  2  3  2  0
  1  2  1  0
M  END
> <Name>
Heptachlor

> <CAS RN>
000076-44-8

> <Log Koc>
4.01

> <VP-0>
13.324

> <nAromBond>
0

> <MAXDP>
0.730722

> <nHBAcc>
0

> <Splitting>
2

$$$$
Hexachlorocyclopentadiene
  SciTegic01221512053D

 11 11  0  0  0  0            999 V2000
    2.1969    2.8311   -1.3296 Cl  0  0  0  0  0  0  0  0  0  1  0  0
    0.8320    1.8662   -0.8935 C   0  0  0  0  0  0  0  0  0  2  0  0
    0.2900    0.9292   -1.6642 C   0  0  0  0  0  0  0  0  0  3  0  0
   -0.8296    0.3323   -0.9750 C   0  0  0  0  0  0  0  0  0  4  0  0
   -0.9696    0.9057    0.2155 C   0  0  0  0  0  0  0  0  0  5  0  0
    0.0867    1.9704    0.4199 C   0  0  0  0  0  0  0  0  0  6  0  0
    1.1204    1.6402    1.8131 Cl  0  0  0  0  0  0  0  0  0  7  0  0
   -0.6084    3.5731    0.6787 Cl  0  0  0  0  0  0  0  0  0  8  0  0
   -2.1874    0.4935    1.3693 Cl  0  0  0  0  0  0  0  0  0  9  0  0
   -1.8302   -0.9295   -1.5999 Cl  0  0  0  0  0  0  0  0  0 10  0  0
    0.8390    0.4936   -3.2430 Cl  0  0  0  0  0  0  0  0  0 11  0  0
  3 11  1  0
  4 10  1  0
  5  9  1  0
  6  8  1  0
  6  7  1  0
  6  2  1  0
  5  6  1  0
  4  5  2  0
  3  4  1  0
  2  3  2  0
  1  2  1  0
M  END
> <Name>
Hexachlorocyclopentadiene

> <CAS RN>
000077-47-4

> <Log Koc>
3.17

> <VP-0>
9.30336

> <nAromBond>
0

> <MAXDP>
0.331533

> <nHBAcc>
0

> <Splitting>
2

$$$$
Tribuphos
  SciTegic01221512053D

 17 16  0  0  0  0            999 V2000
    0.2862   -0.7270    0.8350 P   0  0  0  0  0  0  0  0  0  1  0  0
    1.3662   -1.3443    1.4264 O   0  0  0  0  0  0  0  0  0  2  0  0
   -0.5534   -2.0500   -0.3229 S   0  0  0  0  0  0  0  0  0  3  0  0
   -1.9520   -1.3829   -1.2845 C   0  0  0  0  0  0  0  0  0  4  0  0
   -1.5476   -0.3154   -2.3534 C   0  0  0  0  0  0  0  0  0  5  0  0
   -0.7624   -0.9026   -3.5707 C   0  0  0  0  0  0  0  0  0  6  0  0
    0.6438   -1.4145   -3.1989 C   0  0  0  0  0  0  0  0  0  7  0  0
    0.9058    0.7916   -0.2172 S   0  0  0  0  0  0  0  0  0  8  0  0
    1.7597    2.1037    0.7412 C   0  0  0  0  0  0  0  0  0  9  0  0
    3.2454    1.7772    1.0753 C   0  0  0  0  0  0  0  0  0 10  0  0
    3.3928    0.6551    2.1140 C   0  0  0  0  0  0  0  0  0 11  0  0
    2.7485    1.0897    3.4453 C   0  0  0  0  0  0  0  0  0 12  0  0
   -0.7724   -0.2514    2.0561 C   0  0  0  0  0  0  0  0  0 13  0  0
   -2.3114    0.5231    1.4601 S   0  0  0  0  0  0  0  0  0 14  0  0
   -2.0134    2.1575    0.7423 C   0  0  0  0  0  0  0  0  0 15  0  0
   -3.3421    2.7466    0.2394 C   0  0  0  0  0  0  0  0  0 16  0  0
   -3.0861    4.1335   -0.3770 C   0  0  0  0  0  0  0  0  0 17  0  0
 16 17  1  0
 15 16  1  0
 14 15  1  0
 13 14  1  0
  1 13  1  0
 11 12  1  0
 10 11  1  0
  9 10  1  0
  8  9  1  0
  1  8  1  0
  6  7  1  0
  5  6  1  0
  4  5  1  0
  3  4  1  0
  1  3  1  0
  1  2  2  0
M  END
> <Name>
Tribuphos

> <CAS RN>
000078-48-8

> <Log Koc>
3.7

> <VP-0>
14.1176

> <nAromBond>
0

> <MAXDP>
6.20365

> <nHBAcc>
1

> <Splitting>
2

$$$$
Isophorone
  SciTegic01221512053D

 10 10  0  0  0  0            999 V2000
   -0.7556    1.4607   -0.0443 C   0  0  0  0  0  0  0  0  0  1  0  0
    0.1372    0.8864    0.7715 C   0  0  0  0  0  0  0  0  0  2  0  0
    0.3106   -0.5828    0.7873 C   0  0  0  0  0  0  0  0  0  3  0  0
    1.2123   -1.0842    1.4677 O   0  0  0  0  0  0  0  0  0  4  0  0
   -0.5138   -1.4605   -0.1260 C   0  0  0  0  0  0  0  0  0  5  0  0
   -1.8671   -0.7885   -0.4188 C   0  0  0  0  0  0  0  0  0  6  0  0
   -1.6175    0.6285   -0.9867 C   0  0  0  0  0  0  0  0  0  7  0  0
   -2.7169   -0.7054    0.8845 C   0  0  0  0  0  0  0  0  0  8  0  0
   -2.6527   -1.6283   -1.4414 C   0  0  0  0  0  0  0  0  0  9  0  0
   -0.8661    2.9574   -0.0746 C   0  0  0  0  0  0  0  0  0 10  0  0
  1 10  1  0
  6  9  1  0
  6  8  1  0
  7  1  1  0
  6  7  1  0
  5  6  1  0
  3  5  1  0
  3  4  2  0
  2  3  1  0
  1  2  2  0
M  END
> <Name>
Isophorone

> <CAS RN>
000078-59-1

> <Log Koc>
1.4

> <VP-0>
6.89981

> <nAromBond>
0

> <MAXDP>
4.01271

> <nHBAcc>
1

> <Splitting>
2

$$$$
1,2-Dichloropropane
  SciTegic01221512053D

  6  5  0  0  0  0            999 V2000
   -0.8516    1.3952   -0.3488 C   0  0  0  0  0  0  0  0  0  1  0  0
   -0.6232    1.9650   -2.0054 Cl  0  0  0  0  0  0  0  0  0  2  0  0
   -0.1760    0.0220   -0.1816 C   0  0  1  0  0  0  0  0  0  3  0  0
    0.8994    0.1147   -0.3932 H   0  0  0  0  0  0  0  0  0  4  0  0
   -0.4036   -0.5489    1.4749 Cl  0  0  0  0  0  0  0  0  0  5  0  0
   -0.8073   -0.9832   -1.1626 C   0  0  0  0  0  0  0  0  0  6  0  0
  3  6  1  0
  3  5  1  0
  3  4  1  0
  1  3  1  0
  1  2  1  0
M  END
> <Name>
1,2-Dichloropropane

> <CAS RN>
000078-87-5

> <Log Koc>
1.69

> <VP-0>
4.55224

> <nAromBond>
0

> <MAXDP>
0.33582

> <nHBAcc>
0

> <Splitting>
2

$$$$
1,1,2-Trichloroethane
  SciTegic01221512053D

  5  4  0  0  0  0            999 V2000
   -0.3477   -0.2475   -0.2813 C   0  0  0  0  0  0  0  0  0  1  0  0
    1.1814   -0.2697   -0.1067 C   0  0  0  0  0  0  0  0  0  2  0  0
    1.5809   -0.0658    1.6021 Cl  0  0  0  0  0  0  0  0  0  3  0  0
    1.8987    1.0476   -1.0404 Cl  0  0  0  0  0  0  0  0  0  4  0  0
   -0.9815    1.2979    0.2937 Cl  0  0  0  0  0  0  0  0  0  5  0  0
  1  5  1  0
  2  4  1  0
  2  3  1  0
  1  2  1  0
M  END
> <Name>
1,1,2-Trichloroethane

> <CAS RN>
000079-00-5

> <Log Koc>
1.81

> <VP-0>
4.68614

> <nAromBond>
0

> <MAXDP>
0.11454

> <nHBAcc>
0

> <Splitting>
1

$$$$
Trichloroethene
  SciTegic01221512053D

  5  4  0  0  0  0            999 V2000
   -0.1766    0.2940    0.5004 C   0  0  0  0  0  0  0  0  0  1  0  0
    1.0846   -0.0055    0.1977 C   0  0  0  0  0  0  0  0  0  2  0  0
    2.1233   -0.6885    1.3985 Cl  0  0  0  0  0  0  0  0  0  3  0  0
    1.6827    0.2890   -1.3968 Cl  0  0  0  0  0  0  0  0  0  4  0  0
   -1.2134    0.9768   -0.7019 Cl  0  0  0  0  0  0  0  0  0  5  0  0
  1  5  1  0
  2  4  1  0
  2  3  1  0
  1  2  2  0
M  END
> <Name>
Trichloroethene

> <CAS RN>
000079-01-6

> <Log Koc>
2.02

> <VP-0>
4.47903

> <nAromBond>
0

> <MAXDP>
0.392318

> <nHBAcc>
0

> <Splitting>
2

$$$$
1,1,2,2-Tetrachloroethane
  SciTegic01221512053D

  6  5  0  0  0  0            999 V2000
   -0.2675   -0.0844   -0.1667 C   0  0  0  0  0  0  0  0  0  1  0  0
    1.2670   -0.1656   -0.0847 C   0  0  0  0  0  0  0  0  0  2  0  0
    1.7888    0.2363    1.5545 Cl  0  0  0  0  0  0  0  0  0  3  0  0
    1.9783    0.9791   -1.2270 Cl  0  0  0  0  0  0  0  0  0  4  0  0
   -0.7904    1.5544    0.2353 Cl  0  0  0  0  0  0  0  0  0  5  0  0
   -0.9788   -1.2275    0.9772 Cl  0  0  0  0  0  0  0  0  0  6  0  0
  1  6  1  0
  1  5  1  0
  2  4  1  0
  2  3  1  0
  1  2  1  0
M  END
> <Name>
1,1,2,2-Tetrachloroethane

> <CAS RN>
000079-34-5

> <Log Koc>
1.9

> <VP-0>
5.69027

> <nAromBond>
0

> <MAXDP>
0.00445816

> <nHBAcc>
0

> <Splitting>
2

$$$$
Warfarin
  SciTegic01221512053D

 24 26  0  0  0  0            999 V2000
    2.6371   -2.2014   -0.3460 O   0  0  0  0  0  0  0  0  0  1  0  0
    2.6378   -1.3753   -1.4627 C   0  0  0  0  0  0  0  0  0  2  0  0
    3.7256   -1.4550   -2.3144 C   0  0  0  0  0  0  0  0  0  3  0  0
    4.7614   -2.3437   -2.0451 C   0  0  0  0  0  0  0  0  0  4  0  0
    5.8500   -2.4181   -2.9054 C   0  0  0  0  0  0  0  0  0  5  0  0
    5.9016   -1.6051   -4.0322 C   0  0  0  0  0  0  0  0  0  6  0  0
    4.8649   -0.7162   -4.2966 C   0  0  0  0  0  0  0  0  0  7  0  0
    3.7770   -0.6425   -3.4356 C   0  0  0  0  0  0  0  0  0  8  0  0
    2.8188    0.1885   -3.6783 O   0  0  0  0  0  0  0  0  0  9  0  0
    1.7782    0.3095   -2.9186 C   0  0  0  0  0  0  0  0  0 10  0  0
    0.9371    1.1542   -3.2471 O   0  0  0  0  0  0  0  0  0 11  0  0
    1.6120   -0.4697   -1.7653 C   0  0  0  0  0  0  0  0  0 12  0  0
    0.3158   -0.2741   -0.8638 C   0  0  2  0  0  0  0  0  0 13  0  0
    0.4038    0.7126   -0.3889 H   0  0  0  0  0  0  0  0  0 14  0  0
    0.1300   -1.3500    0.1913 C   0  0  0  0  0  0  0  0  0 15  0  0
   -0.3232   -2.6167   -0.1710 C   0  0  0  0  0  0  0  0  0 16  0  0
   -0.4984   -3.5984    0.7967 C   0  0  0  0  0  0  0  0  0 17  0  0
   -0.2238   -3.3146    2.1294 C   0  0  0  0  0  0  0  0  0 18  0  0
    0.2247   -2.0498    2.4933 C   0  0  0  0  0  0  0  0  0 19  0  0
    0.4010   -1.0673    1.5257 C   0  0  0  0  0  0  0  0  0 20  0  0
   -0.9478   -0.2612   -1.7826 C   0  0  0  0  0  0  0  0  0 21  0  0
   -2.2018    0.0864   -1.0045 C   0  0  0  0  0  0  0  0  0 22  0  0
   -2.1339    0.4267    0.1827 O   0  0  0  0  0  0  0  0  0 23  0  0
   -3.5327    0.0696   -1.6947 C   0  0  0  0  0  0  0  0  0 24  0  0
 22 24  1  0
 22 23  2  0
 21 22  1  0
 13 21  1  0
 20 15  4  0
 19 20  4  0
 18 19  4  0
 17 18  4  0
 16 17  4  0
 15 16  4  0
 13 15  1  0
 13 14  1  0
 12 13  1  0
 12  2  4  0
 10 12  4  0
 10 11  2  0
  9 10  4  0
  8  9  4  0
  8  3  4  0
  7  8  4  0
  6  7  4  0
  5  6  4  0
  4  5  4  0
  3  4  4  0
  2  3  4  0
  1  2  1  0
M  END
> <Name>
Warfarin

> <CAS RN>
000081-81-2

> <Log Koc>
2.96

> <VP-0>
12.6526

> <nAromBond>
12

> <MAXDP>
5.41231

> <nHBAcc>
3

> <Splitting>
2

$$$$
1-Amino-2-methyl-9,10-Anthracenedione
  SciTegic01221512053D

 18 20  0  0  0  0            999 V2000
    0.1424    3.7902    4.0086 C   0  0  0  0  0  0  0  0  0  1  0  0
   -0.4284    2.8801    2.9614 C   0  0  0  0  0  0  0  0  0  2  0  0
    0.3248    2.5568    1.8386 C   0  0  0  0  0  0  0  0  0  3  0  0
   -0.2032    1.7127    0.8662 C   0  0  0  0  0  0  0  0  0  4  0  0
   -1.4848    1.1949    1.0222 C   0  0  0  0  0  0  0  0  0  5  0  0
   -2.2368    1.5188    2.1452 C   0  0  0  0  0  0  0  0  0  6  0  0
   -1.7087    2.3618    3.1155 C   0  0  0  0  0  0  0  0  0  7  0  0
   -2.0464    0.3087    0.0071 C   0  0  0  0  0  0  0  0  0  8  0  0
   -3.1852   -0.1491    0.1495 O   0  0  0  0  0  0  0  0  0  9  0  0
   -1.2650   -0.0369   -1.1747 C   0  0  0  0  0  0  0  0  0 10  0  0
    0.0162    0.4772   -1.3366 C   0  0  0  0  0  0  0  0  0 11  0  0
    0.5825    1.3636   -0.3247 C   0  0  0  0  0  0  0  0  0 12  0  0
    1.7222    1.8149   -0.4785 O   0  0  0  0  0  0  0  0  0 13  0  0
    0.7605    0.1474   -2.4631 C   0  0  0  0  0  0  0  0  0 14  0  0
    0.2229   -0.6968   -3.4280 C   0  0  0  0  0  0  0  0  0 15  0  0
   -1.0588   -1.2110   -3.2660 C   0  0  0  0  0  0  0  0  0 16  0  0
   -1.8030   -0.8810   -2.1391 C   0  0  0  0  0  0  0  0  0 17  0  0
    1.6090    3.0845    1.6967 N   0  0  0  0  0  0  0  0  0 18  0  0
  3 18  1  0
 17 10  4  0
 16 17  4  0
 15 16  4  0
 14 15  4  0
 11 14  4  0
 12 13  2  0
 12  4  1  0
 11 12  1  0
 10 11  4  0
  8 10  1  0
  8  9  2  0
  5  8  1  0
  7  2  4  0
  6  7  4  0
  5  6  4  0
  4  5  4  0
  3  4  4  0
  2  3  4  0
  1  2  1  0
M  END
> <Name>
1-Amino-2-methyl-9,10-Anthracenedione

> <CAS RN>
000082-28-0

> <Log Koc>
3.9

> <VP-0>
9.85795

> <nAromBond>
12

> <MAXDP>
5.39435

> <nHBAcc>
3

> <Splitting>
2

$$$$
Pentachloronitrobenzene
  SciTegic01221512053D

 14 14  0  0  0  0            999 V2000
   -2.2602    0.0641    1.7335 O   0  0  0  0  0  0  0  0  0  1  0  0
   -1.6426    1.1455    1.2957 N   0  0  0  0  0  0  0  0  0  2  0  0
   -2.2397    2.3097    1.4703 O   0  0  0  0  0  0  0  0  0  3  0  0
   -0.3578    1.0578    0.6479 C   0  0  0  0  0  0  0  0  0  4  0  0
    0.2872    2.2108    0.1879 C   0  0  0  0  0  0  0  0  0  5  0  0
    1.5260    2.1210   -0.4360 C   0  0  0  0  0  0  0  0  0  6  0  0
    2.1361    0.8877   -0.6094 C   0  0  0  0  0  0  0  0  0  7  0  0
    1.5043   -0.2609   -0.1568 C   0  0  0  0  0  0  0  0  0  8  0  0
    0.2655   -0.1817    0.4684 C   0  0  0  0  0  0  0  0  0  9  0  0
   -0.4601   -1.6608    1.0063 Cl  0  0  0  0  0  0  0  0  0 10  0  0
    2.2612   -1.7985   -0.3710 Cl  0  0  0  0  0  0  0  0  0 11  0  0
    3.6755    0.7827   -1.3856 Cl  0  0  0  0  0  0  0  0  0 12  0  0
    2.3099    3.5536   -0.9985 Cl  0  0  0  0  0  0  0  0  0 13  0  0
   -0.4105    3.7870    0.3676 Cl  0  0  0  0  0  0  0  0  0 14  0  0
  5 14  1  0
  6 13  1  0
  7 12  1  0
  8 11  1  0
  9 10  1  0
  9  4  4  0
  8  9  4  0
  7  8  4  0
  6  7  4  0
  5  6  4  0
  4  5  4  0
  2  4  1  0
  2  3  1  0
  1  2  1  0
M  END
> <Name>
Pentachloronitrobenzene

> <CAS RN>
000082-68-8

> <Log Koc>
4.56

> <VP-0>
9.78482

> <nAromBond>
6

> <MAXDP>
3.96594

> <nHBAcc>
0

> <Splitting>
2

$$$$
Acenaphthene
  SciTegic01221512053D

 12 14  0  0  0  0            999 V2000
   -0.1771    4.0648    0.5249 C   0  0  0  0  0  0  0  0  0  1  0  0
   -0.0522    3.0905   -0.4560 C   0  0  0  0  0  0  0  0  0  2  0  0
   -0.3140    3.2089   -1.9471 C   0  0  0  0  0  0  0  0  0  3  0  0
    0.0286    1.7089   -2.4759 C   0  0  0  0  0  0  0  0  0  4  0  0
    0.4252    0.9997   -1.1931 C   0  0  0  0  0  0  0  0  0  5  0  0
    0.3549    1.8334   -0.1151 C   0  0  0  0  0  0  0  0  0  6  0  0
    0.6592    1.4508    1.1673 C   0  0  0  0  0  0  0  0  0  7  0  0
    0.5430    2.4073    2.1720 C   0  0  0  0  0  0  0  0  0  8  0  0
    0.1266    3.7039    1.8424 C   0  0  0  0  0  0  0  0  0  9  0  0
    1.0621    0.1340    1.3706 C   0  0  0  0  0  0  0  0  0 10  0  0
    1.1408   -0.7379    0.2766 C   0  0  0  0  0  0  0  0  0 11  0  0
    0.8239   -0.3188   -1.0204 C   0  0  0  0  0  0  0  0  0 12  0  0
 12  5  4  0
 11 12  4  0
 10 11  4  0
  7 10  4  0
  9  1  4  0
  8  9  4  0
  7  8  4  0
  6  7  4  0
  6  2  4  0
  5  6  4  0
  4  5  1  0
  3  4  1  0
  2  3  1  0
  1  2  4  0
M  END
> <Name>
Acenaphthene

> <CAS RN>
000083-32-9

> <Log Koc>
3.85

> <VP-0>
6.87832

> <nAromBond>
11

> <MAXDP>
0.248843

> <nHBAcc>
0

> <Splitting>
1

$$$$
9,10-Anthracenedione
  SciTegic01221512053D

 16 18  0  0  0  0            999 V2000
   -4.2778    1.3667    0.2244 C   0  0  0  0  0  0  0  0  0  1  0  0
   -4.0938    0.1830    0.9303 C   0  0  0  0  0  0  0  0  0  2  0  0
   -2.8121   -0.3195    1.1237 C   0  0  0  0  0  0  0  0  0  3  0  0
   -1.7148    0.3623    0.6109 C   0  0  0  0  0  0  0  0  0  4  0  0
   -1.8987    1.5459   -0.0949 C   0  0  0  0  0  0  0  0  0  5  0  0
   -3.1800    2.0485   -0.2884 C   0  0  0  0  0  0  0  0  0  6  0  0
   -0.7457    2.2618   -0.6335 C   0  0  0  0  0  0  0  0  0  7  0  0
   -0.9092    3.3137   -1.2607 O   0  0  0  0  0  0  0  0  0  8  0  0
    0.6005    1.7342   -0.4304 C   0  0  0  0  0  0  0  0  0  9  0  0
    0.7844    0.5505    0.2754 C   0  0  0  0  0  0  0  0  0 10  0  0
   -0.3686   -0.1654    0.8140 C   0  0  0  0  0  0  0  0  0 11  0  0
   -0.2052   -1.2173    1.4412 O   0  0  0  0  0  0  0  0  0 12  0  0
    2.0657    0.0479    0.4689 C   0  0  0  0  0  0  0  0  0 13  0  0
    3.1634    0.7297   -0.0439 C   0  0  0  0  0  0  0  0  0 14  0  0
    2.9795    1.9134   -0.7498 C   0  0  0  0  0  0  0  0  0 15  0  0
    1.6978    2.4160   -0.9432 C   0  0  0  0  0  0  0  0  0 16  0  0
 16  9  4  0
 15 16  4  0
 14 15  4  0
 13 14  4  0
 10 13  4  0
 11 12  2  0
 11  4  1  0
 10 11  1  0
  9 10  4  0
  7  9  1  0
  7  8  2  0
  5  7  1  0
  6  1  4  0
  5  6  4  0
  4  5  4  0
  3  4  4  0
  2  3  4  0
  1  2  4  0
M  END
> <Name>
9,10-Anthracenedione

> <CAS RN>
000084-65-1

> <Log Koc>
3.57

> <VP-0>
8.4353

> <nAromBond>
12

> <MAXDP>
5.1013

> <nHBAcc>
2

> <Splitting>
2

$$$$
Diethyl phthalate
  SciTegic01221512053D

 16 16  0  0  0  0            999 V2000
    3.9264   -0.4164    0.2074 C   0  0  0  0  0  0  0  0  0  1  0  0
    3.1624   -1.5725    0.2305 C   0  0  0  0  0  0  0  0  0  2  0  0
    1.7839   -1.4827    0.0970 C   0  0  0  0  0  0  0  0  0  3  0  0
    1.1445   -0.2561   -0.0606 C   0  0  0  0  0  0  0  0  0  4  0  0
    1.9192    0.9176   -0.0841 C   0  0  0  0  0  0  0  0  0  5  0  0
    3.3009    0.8128    0.0512 C   0  0  0  0  0  0  0  0  0  6  0  0
    1.4101    2.3173   -0.2428 C   0  0  0  0  0  0  0  0  0  7  0  0
    2.2462    3.2290   -0.2460 O   0  0  0  0  0  0  0  0  0  8  0  0
    0.0596    2.6297   -0.4074 O   0  0  0  0  0  0  0  0  0  9  0  0
   -0.1681    4.0489   -0.5166 C   0  0  0  0  0  0  0  0  0 10  0  0
   -0.0211    4.7370    0.8640 C   0  0  0  0  0  0  0  0  0 11  0  0
   -0.3389   -0.3339   -0.1894 C   0  0  0  0  0  0  0  0  0 12  0  0
   -1.0463    0.6607   -0.3459 O   0  0  0  0  0  0  0  0  0 13  0  0
   -0.9328   -1.6085   -0.1495 O   0  0  0  0  0  0  0  0  0 14  0  0
   -2.3688   -1.5486   -0.2633 C   0  0  0  0  0  0  0  0  0 15  0  0
   -3.0045   -1.0316    1.0520 C   0  0  0  0  0  0  0  0  0 16  0  0
 15 16  1  0
 14 15  1  0
 12 14  1  0
 12 13  2  0
  4 12  1  0
 10 11  1  0
  9 10  1  0
  7  9  1  0
  7  8  2  0
  5  7  1  0
  6  1  4  0
  5  6  4  0
  4  5  4  0
  3  4  4  0
  2  3  4  0
  1  2  4  0
M  END
> <Name>
Diethyl phthalate

> <CAS RN>
000084-66-2

> <Log Koc>
1.84

> <VP-0>
9.35661

> <nAromBond>
6

> <MAXDP>
4.54421

> <nHBAcc>
4

> <Splitting>
2

$$$$
Diisobutyl phthalate
  SciTegic01221512053D

 20 20  0  0  0  0            999 V2000
    1.8338   -1.6562    0.3268 C   0  0  0  0  0  0  0  0  0  1  0  0
    1.3543   -0.3528    0.4123 C   0  0  0  0  0  0  0  0  0  2  0  0
    2.2733    0.7050    0.5257 C   0  0  0  0  0  0  0  0  0  3  0  0
    3.6338    0.4169    0.5665 C   0  0  0  0  0  0  0  0  0  4  0  0
    4.1001   -0.8881    0.4862 C   0  0  0  0  0  0  0  0  0  5  0  0
    3.1948   -1.9303    0.3587 C   0  0  0  0  0  0  0  0  0  6  0  0
    1.9306    2.1541    0.5812 C   0  0  0  0  0  0  0  0  0  7  0  0
    2.8355    2.9641    0.8112 O   0  0  0  0  0  0  0  0  0  8  0  0
    0.6777    2.6388    0.2645 O   0  0  0  0  0  0  0  0  0  9  0  0
    0.6820    4.0634    0.3145 C   0  0  0  0  0  0  0  0  0 10  0  0
   -0.5325    4.5850   -0.4663 C   0  0  0  0  0  0  0  0  0 11  0  0
   -0.4071    4.1227   -1.9330 C   0  0  0  0  0  0  0  0  0 12  0  0
   -0.5486    6.1225   -0.4224 C   0  0  0  0  0  0  0  0  0 13  0  0
   -0.1296   -0.2105    0.4001 C   0  0  0  0  0  0  0  0  0 14  0  0
   -0.6904    0.8579    0.6409 O   0  0  0  0  0  0  0  0  0 15  0  0
   -0.9106   -1.3598    0.1873 O   0  0  0  0  0  0  0  0  0 16  0  0
   -2.3492   -1.1169    0.2619 C   0  0  0  0  0  0  0  0  0 17  0  0
   -3.0301   -0.6966   -1.0969 C   0  0  0  0  0  0  0  0  0 18  0  0
   -2.7864   -1.7765   -2.1654 C   0  0  0  0  0  0  0  0  0 19  0  0
   -2.6059    0.6872   -1.6409 C   0  0  0  0  0  0  0  0  0 20  0  0
 18 20  1  0
 18 19  1  0
 17 18  1  0
 16 17  1  0
 14 16  1  0
 14 15  2  0
  2 14  1  0
 11 13  1  0
 11 12  1  0
 10 11  1  0
  9 10  1  0
  7  9  1  0
  7  8  2  0
  3  7  1  0
  6  1  4  0
  5  6  4  0
  4  5  4  0
  3  4  4  0
  2  3  4  0
  1  2  4  0
M  END
> <Name>
Diisobutyl phthalate

> <CAS RN>
000084-69-5

> <Log Koc>
3.14

> <VP-0>
12.5113

> <nAromBond>
6

> <MAXDP>
4.98253

> <nHBAcc>
4

> <Splitting>
2

$$$$
Di-n-butyl phthalate
  SciTegic01221512053D

 20 20  0  0  0  0            999 V2000
    2.7936    1.7331    0.3730 C   0  0  0  0  0  0  0  0  0  1  0  0
    3.5457    2.6816    0.1264 O   0  0  0  0  0  0  0  0  0  2  0  0
    2.5612    0.7345   -0.7480 C   0  0  0  0  0  0  0  0  0  3  0  0
    3.6948    0.4162   -1.4908 C   0  0  0  0  0  0  0  0  0  4  0  0
    3.6464   -0.4964   -2.5358 C   0  0  0  0  0  0  0  0  0  5  0  0
    2.4436   -1.1059   -2.8589 C   0  0  0  0  0  0  0  0  0  6  0  0
    1.2975   -0.7758   -2.1489 C   0  0  0  0  0  0  0  0  0  7  0  0
    1.3366    0.1416   -1.1033 C   0  0  0  0  0  0  0  0  0  8  0  0
    0.0339    0.4661   -0.4731 C   0  0  0  0  0  0  0  0  0  9  0  0
   -0.0715    1.4092    0.3191 O   0  0  0  0  0  0  0  0  0 10  0  0
   -1.1003   -0.2809   -0.8432 O   0  0  0  0  0  0  0  0  0 11  0  0
   -2.2954    0.1478   -0.1528 C   0  0  0  0  0  0  0  0  0 12  0  0
   -2.2501   -0.2345    1.3555 C   0  0  0  0  0  0  0  0  0 13  0  0
   -2.1241   -1.7646    1.5250 C   0  0  0  0  0  0  0  0  0 14  0  0
   -3.3457   -2.4650    0.9017 C   0  0  0  0  0  0  0  0  0 15  0  0
    2.4038    1.5762    1.7766 O   0  0  0  0  0  0  0  0  0 16  0  0
    1.7996    0.3234    2.2037 C   0  0  0  0  0  0  0  0  0 17  0  0
    2.6856   -0.5435    3.1610 C   0  0  0  0  0  0  0  0  0 18  0  0
    4.0050   -1.0772    2.5258 C   0  0  0  0  0  0  0  0  0 19  0  0
    5.0504    0.0388    2.3298 C   0  0  0  0  0  0  0  0  0 20  0  0
 19 20  1  0
 18 19  1  0
 17 18  1  0
 16 17  1  0
  1 16  1  0
 14 15  1  0
 13 14  1  0
 12 13  1  0
 11 12  1  0
  9 11  1  0
  9 10  2  0
  8  9  1  0
  8  3  4  0
  7  8  4  0
  6  7  4  0
  5  6  4  0
  4  5  4  0
  3  4  4  0
  1  3  1  0
  1  2  2  0
M  END
> <Name>
Di-n-butyl phthalate

> <CAS RN>
000084-74-2

> <Log Koc>
3.14

> <VP-0>
12.185

> <nAromBond>
6

> <MAXDP>
4.94474

> <nHBAcc>
4

> <Splitting>
2

$$$$
Di-n-hexyl phthalate
  SciTegic01221512053D

 24 24  0  0  0  0            999 V2000
    2.7843   -0.5065    2.4473 C   0  0  0  0  0  0  0  0  0  1  0  0
    3.6750   -0.9107    3.2025 O   0  0  0  0  0  0  0  0  0  2  0  0
    2.7990   -1.0961    1.0324 C   0  0  0  0  0  0  0  0  0  3  0  0
    4.0969   -1.3566    0.5945 C   0  0  0  0  0  0  0  0  0  4  0  0
    4.3697   -1.8732   -0.6632 C   0  0  0  0  0  0  0  0  0  5  0  0
    3.3219   -2.1489   -1.5245 C   0  0  0  0  0  0  0  0  0  6  0  0
    2.0214   -1.9257   -1.0993 C   0  0  0  0  0  0  0  0  0  7  0  0
    1.7329   -1.4121    0.1636 C   0  0  0  0  0  0  0  0  0  8  0  0
    0.2672   -1.3274    0.4396 C   0  0  0  0  0  0  0  0  0  9  0  0
   -0.5026   -1.6046   -0.4848 O   0  0  0  0  0  0  0  0  0 10  0  0
   -0.2713   -1.0578    1.6989 O   0  0  0  0  0  0  0  0  0 11  0  0
   -1.7361   -1.0874    1.6901 C   0  0  0  0  0  0  0  0  0 12  0  0
   -2.3937    0.3383    1.5421 C   0  0  0  0  0  0  0  0  0 13  0  0
   -2.2195    0.9964    0.1438 C   0  0  0  0  0  0  0  0  0 14  0  0
   -2.9970    0.1909   -0.9219 C   0  0  0  0  0  0  0  0  0 15  0  0
   -2.8355    0.8503   -2.3093 C   0  0  0  0  0  0  0  0  0 16  0  0
   -1.3494    0.8627   -2.7204 C   0  0  0  0  0  0  0  0  0 17  0  0
    2.0451    0.6393    2.9413 O   0  0  0  0  0  0  0  0  0 18  0  0
    1.1719    1.3343    2.0640 C   0  0  0  0  0  0  0  0  0 19  0  0
    1.1454    2.8332    2.3681 C   0  0  0  0  0  0  0  0  0 20  0  0
    2.4290    3.4479    1.7960 C   0  0  0  0  0  0  0  0  0 21  0  0
    2.4357    3.1527    0.2730 C   0  0  0  0  0  0  0  0  0 22  0  0
    3.6636    3.7784   -0.4045 C   0  0  0  0  0  0  0  0  0 23  0  0
    3.6054    5.3098   -0.2611 C   0  0  0  0  0  0  0  0  0 24  0  0
 23 24  1  0
 22 23  1  0
 21 22  1  0
 20 21  1  0
 19 20  1  0
 18 19  1  0
  1 18  1  0
 16 17  1  0
 15 16  1  0
 14 15  1  0
 13 14  1  0
 12 13  1  0
 11 12  1  0
  9 11  1  0
  9 10  2  0
  8  9  1  0
  8  3  4  0
  7  8  4  0
  6  7  4  0
  5  6  4  0
  4  5  4  0
  3  4  4  0
  1  3  1  0
  1  2  2  0
M  END
> <Name>
Di-n-hexyl phthalate

> <CAS RN>
000084-75-3

> <Log Koc>
4.72

> <VP-0>
15.0135

> <nAromBond>
6

> <MAXDP>
5.18779

> <nHBAcc>
4

> <Splitting>
2

$$$$
Phenanthrene
  SciTegic01221512053D

 14 16  0  0  0  0            999 V2000
   -2.0202    3.3018    2.4091 C   0  0  0  0  0  0  0  0  0  1  0  0
   -2.9807    3.6380    1.4618 C   0  0  0  0  0  0  0  0  0  2  0  0
   -2.8854    3.1393    0.1676 C   0  0  0  0  0  0  0  0  0  3  0  0
   -1.8294    2.3045   -0.1793 C   0  0  0  0  0  0  0  0  0  4  0  0
   -0.8683    1.9679    0.7681 C   0  0  0  0  0  0  0  0  0  5  0  0
   -0.9642    2.4669    2.0623 C   0  0  0  0  0  0  0  0  0  6  0  0
    0.1872    1.1329    0.4200 C   0  0  0  0  0  0  0  0  0  7  0  0
    0.2811    0.6349   -0.8753 C   0  0  0  0  0  0  0  0  0  8  0  0
   -0.6798    0.9716   -1.8217 C   0  0  0  0  0  0  0  0  0  9  0  0
   -1.7352    1.8065   -1.4736 C   0  0  0  0  0  0  0  0  0 10  0  0
    1.3361   -0.2001   -1.2246 C   0  0  0  0  0  0  0  0  0 11  0  0
    2.2976   -0.5376   -0.2790 C   0  0  0  0  0  0  0  0  0 12  0  0
    2.2042   -0.0400    1.0159 C   0  0  0  0  0  0  0  0  0 13  0  0
    1.1492    0.7951    1.3653 C   0  0  0  0  0  0  0  0  0 14  0  0
 14  7  4  0
 13 14  4  0
 12 13  4  0
 11 12  4  0
  8 11  4  0
 10  4  4  0
  9 10  4  0
  8  9  4  0
  7  8  4  0
  5  7  4  0
  6  1  4  0
  5  6  4  0
  4  5  4  0
  3  4  4  0
  2  3  4  0
  1  2  4  0
M  END
> <Name>
Phenanthrene

> <CAS RN>
000085-01-8

> <Log Koc>
4.32

> <VP-0>
7.7735

> <nAromBond>
16

> <MAXDP>
0.178241

> <nHBAcc>
0

> <Splitting>
2

$$$$
Benzo[f]quinoline
  SciTegic01221512053D

 14 16  0  0  0  0            999 V2000
   -2.8078    3.9835    0.5099 C   0  0  0  0  0  0  0  0  0  1  0  0
   -2.8141    2.7490    1.1491 C   0  0  0  0  0  0  0  0  0  2  0  0
   -1.7623    1.8611    0.9552 C   0  0  0  0  0  0  0  0  0  3  0  0
   -0.7040    2.2075    0.1222 C   0  0  0  0  0  0  0  0  0  4  0  0
   -0.6979    3.4423   -0.5170 C   0  0  0  0  0  0  0  0  0  5  0  0
   -1.7499    4.3302   -0.3231 C   0  0  0  0  0  0  0  0  0  6  0  0
    0.3464    1.3175   -0.0697 C   0  0  0  0  0  0  0  0  0  7  0  0
    0.3417    0.0822    0.5689 C   0  0  0  0  0  0  0  0  0  8  0  0
   -0.7173   -0.2620    1.4013 C   0  0  0  0  0  0  0  0  0  9  0  0
   -1.7687    0.6267    1.5944 C   0  0  0  0  0  0  0  0  0 10  0  0
    1.3434   -0.7729    0.3892 N   0  0  0  0  0  0  0  0  0 11  0  0
    2.3743   -0.4822   -0.3982 C   0  0  0  0  0  0  0  0  0 12  0  0
    2.4373    0.7365   -1.0644 C   0  0  0  0  0  0  0  0  0 13  0  0
    1.4079    1.6526   -0.8989 C   0  0  0  0  0  0  0  0  0 14  0  0
 14  7  4  0
 13 14  4  0
 12 13  4  0
 11 12  4  0
  8 11  4  0
 10  3  4  0
  9 10  4  0
  8  9  4  0
  7  8  4  0
  4  7  4  0
  6  1  4  0
  5  6  4  0
  4  5  4  0
  3  4  4  0
  2  3  4  0
  1  2  4  0
M  END
> <Name>
Benzo[f]quinoline

> <CAS RN>
000085-02-9

> <Log Koc>
4.81

> <VP-0>
7.64337

> <nAromBond>
16

> <MAXDP>
1.33133

> <nHBAcc>
1

> <Splitting>
2

$$$$
Pentabromoethylbenzene
  SciTegic01221512053D

 13 13  0  0  0  0            999 V2000
   -0.8423    0.8637    0.0911 C   0  0  0  0  0  0  0  0  0  1  0  0
   -0.1135    2.0458    0.1784 C   0  0  0  0  0  0  0  0  0  2  0  0
    1.2846    1.9945    0.1581 C   0  0  0  0  0  0  0  0  0  3  0  0
    1.9267    0.7659    0.0431 C   0  0  0  0  0  0  0  0  0  4  0  0
    1.1919   -0.4088   -0.0503 C   0  0  0  0  0  0  0  0  0  5  0  0
   -0.1948   -0.3597   -0.0247 C   0  0  0  0  0  0  0  0  0  6  0  0
   -1.2062   -1.9636   -0.1473 Br  0  0  0  0  0  0  0  0  0  7  0  0
    2.0830   -2.0798   -0.2065 Br  0  0  0  0  0  0  0  0  0  8  0  0
    3.8252    0.6941    0.0190 Br  0  0  0  0  0  0  0  0  0  9  0  0
    2.3790    3.5563    0.3080 Br  0  0  0  0  0  0  0  0  0 10  0  0
   -0.8987    3.3462    0.3024 C   0  0  0  0  0  0  0  0  0 11  0  0
   -0.5389    4.3725   -0.7975 C   0  0  0  0  0  0  0  0  0 12  0  0
   -2.7419    0.9216    0.1249 Br  0  0  0  0  0  0  0  0  0 13  0  0
  1 13  1  0
 11 12  1  0
  2 11  1  0
  3 10  1  0
  4  9  1  0
  5  8  1  0
  6  7  1  0
  6  1  4  0
  5  6  4  0
  4  5  4  0
  3  4  4  0
  2  3  4  0
  1  2  4  0
M  END
> <Name>
Pentabromoethylbenzene

> <CAS RN>
000085-22-3

> <Log Koc>
4.92

> <VP-0>
14.5269

> <nAromBond>
6

> <MAXDP>
0.385485

> <nHBAcc>
0

> <Splitting>
2

$$$$
Fenac
  SciTegic01221512053D

 13 13  0  0  0  0            999 V2000
   -1.1755    2.9909    1.4583 C   0  0  0  0  0  0  0  0  0  1  0  0
   -2.1382    3.5989    1.9388 O   0  0  0  0  0  0  0  0  0  2  0  0
   -1.3878    1.6271    0.8369 C   0  0  0  0  0  0  0  0  0  3  0  0
   -0.1425    1.0662    0.1668 C   0  0  0  0  0  0  0  0  0  4  0  0
    0.5709    1.7750   -0.8022 C   0  0  0  0  0  0  0  0  0  5  0  0
    1.7006    1.2086   -1.3824 C   0  0  0  0  0  0  0  0  0  6  0  0
    2.1230   -0.0601   -1.0051 C   0  0  0  0  0  0  0  0  0  7  0  0
    1.4109   -0.7689   -0.0463 C   0  0  0  0  0  0  0  0  0  8  0  0
    0.2808   -0.2066    0.5347 C   0  0  0  0  0  0  0  0  0  9  0  0
   -0.6019   -1.0920    1.7271 Cl  0  0  0  0  0  0  0  0  0 10  0  0
    2.5799    2.0862   -2.5825 Cl  0  0  0  0  0  0  0  0  0 11  0  0
    0.0762    3.3534   -1.3238 Cl  0  0  0  0  0  0  0  0  0 12  0  0
    0.1030    3.5348    1.5621 O   0  0  0  0  0  0  0  0  0 13  0  0
  1 13  1  0
  5 12  1  0
  6 11  1  0
  9 10  1  0
  9  4  4  0
  8  9  4  0
  7  8  4  0
  6  7  4  0
  5  6  4  0
  4  5  4  0
  3  4  1  0
  1  3  1  0
  1  2  2  0
M  END
> <Name>
Fenac

> <CAS RN>
000085-34-7

> <Log Koc>
1.55

> <VP-0>
8.61895

> <nAromBond>
6

> <MAXDP>
3.63416

> <nHBAcc>
2

> <Splitting>
1

$$$$
1,3-Isobenzofurandione
  SciTegic01221512053D

 11 12  0  0  0  0            999 V2000
   -0.5444    1.5494   -1.6177 C   0  0  0  0  0  0  0  0  0  1  0  0
   -1.8413    1.0745   -1.8160 C   0  0  0  0  0  0  0  0  0  2  0  0
   -2.4312    0.1789   -0.9161 C   0  0  0  0  0  0  0  0  0  3  0  0
   -1.7433   -0.2710    0.2114 C   0  0  0  0  0  0  0  0  0  4  0  0
   -0.4577    0.2132    0.3884 C   0  0  0  0  0  0  0  0  0  5  0  0
    0.1196    1.0898   -0.4924 C   0  0  0  0  0  0  0  0  0  6  0  0
    1.4493    1.3849   -0.0096 C   0  0  0  0  0  0  0  0  0  7  0  0
    2.2598    2.1415   -0.5555 O   0  0  0  0  0  0  0  0  0  8  0  0
    1.6692    0.6747    1.1759 O   0  0  0  0  0  0  0  0  0  9  0  0
    0.5023   -0.0530    1.4352 C   0  0  0  0  0  0  0  0  0 10  0  0
    0.3215   -0.8016    2.4017 O   0  0  0  0  0  0  0  0  0 11  0  0
 10 11  2  0
 10  5  1  0
  9 10  1  0
  7  9  1  0
  7  8  2  0
  6  7  1  0
  6  1  4  0
  5  6  4  0
  4  5  4  0
  3  4  4  0
  2  3  4  0
  1  2  4  0
M  END
> <Name>
1,3-Isobenzofurandione

> <CAS RN>
000085-44-9

> <Log Koc>
1.56

> <VP-0>
5.53415

> <nAromBond>
6

> <MAXDP>
3.83287

> <nHBAcc>
3

> <Splitting>
2

$$$$
n-Butyl benzyl phthalate
  SciTegic01221512053D

 23 24  0  0  0  0            999 V2000
    3.1820    3.8816    1.2045 C   0  0  0  0  0  0  0  0  0  1  0  0
    3.3114    4.9351    0.3070 C   0  0  0  0  0  0  0  0  0  2  0  0
    4.5606    5.2570   -0.2111 C   0  0  0  0  0  0  0  0  0  3  0  0
    5.6796    4.5250    0.1694 C   0  0  0  0  0  0  0  0  0  4  0  0
    5.5493    3.4716    1.0674 C   0  0  0  0  0  0  0  0  0  5  0  0
    4.3003    3.1466    1.5847 C   0  0  0  0  0  0  0  0  0  6  0  0
    4.1738    2.0029    2.5683 C   0  0  0  0  0  0  0  0  0  7  0  0
    2.7864    1.7314    2.8897 O   0  0  0  0  0  0  0  0  0  8  0  0
    1.9033    0.8962    2.0410 C   0  0  0  0  0  0  0  0  0  9  0  0
    0.7568    0.8278    2.4747 O   0  0  0  0  0  0  0  0  0 10  0  0
    2.2665    0.0912    0.7233 C   0  0  0  0  0  0  0  0  0 11  0  0
    3.5818    0.0643    0.2576 C   0  0  0  0  0  0  0  0  0 12  0  0
    3.9734   -0.6284   -0.8789 C   0  0  0  0  0  0  0  0  0 13  0  0
    3.0299   -1.3379   -1.5992 C   0  0  0  0  0  0  0  0  0 14  0  0
    1.7149   -1.3334   -1.1624 C   0  0  0  0  0  0  0  0  0 15  0  0
    1.3157   -0.6377   -0.0242 C   0  0  0  0  0  0  0  0  0 16  0  0
   -0.1486   -0.7620    0.2668 C   0  0  0  0  0  0  0  0  0 17  0  0
   -0.7051   -0.1873    1.2022 O   0  0  0  0  0  0  0  0  0 18  0  0
   -0.9078   -1.5919   -0.5776 O   0  0  0  0  0  0  0  0  0 19  0  0
   -2.3011   -1.6077   -0.2140 C   0  0  0  0  0  0  0  0  0 20  0  0
   -3.0063   -0.3129   -0.6934 C   0  0  0  0  0  0  0  0  0 21  0  0
   -2.9229   -0.2123   -2.2329 C   0  0  0  0  0  0  0  0  0 22  0  0
   -3.6268   -1.4252   -2.8757 C   0  0  0  0  0  0  0  0  0 23  0  0
 22 23  1  0
 21 22  1  0
 20 21  1  0
 19 20  1  0
 17 19  1  0
 17 18  2  0
 16 17  1  0
 16 11  4  0
 15 16  4  0
 14 15  4  0
 13 14  4  0
 12 13  4  0
 11 12  4  0
  9 11  1  0
  9 10  2  0
  8  9  1  0
  7  8  1  0
  6  7  1  0
  6  1  4  0
  5  6  4  0
  4  5  4  0
  3  4  4  0
  2  3  4  0
  1  2  4  0
M  END
> <Name>
n-Butyl benzyl phthalate

> <CAS RN>
000085-68-7

> <Log Koc>
3.72

> <VP-0>
13.1576

> <nAromBond>
12

> <MAXDP>
5.24324

> <nHBAcc>
4

> <Splitting>
2

$$$$
2-Butoxy-2-oxoethyl butyl phthalate
  SciTegic01221512053D

 24 24  0  0  0  0            999 V2000
    4.4005   -1.1427    0.4177 C   0  0  0  0  0  0  0  0  0  1  0  0
    3.7209   -2.1891   -0.1847 C   0  0  0  0  0  0  0  0  0  2  0  0
    2.3383   -2.1340   -0.2888 C   0  0  0  0  0  0  0  0  0  3  0  0
    1.6095   -1.0521    0.1997 C   0  0  0  0  0  0  0  0  0  4  0  0
    2.2981    0.0061    0.8176 C   0  0  0  0  0  0  0  0  0  5  0  0
    3.6862   -0.0609    0.9122 C   0  0  0  0  0  0  0  0  0  6  0  0
    1.7014    1.2365    1.4204 C   0  0  0  0  0  0  0  0  0  7  0  0
    2.4825    2.0769    1.8818 O   0  0  0  0  0  0  0  0  0  8  0  0
    0.3367    1.4615    1.5467 O   0  0  0  0  0  0  0  0  0  9  0  0
    0.1114    2.7218    2.1981 C   0  0  0  0  0  0  0  0  0 10  0  0
    0.2801    3.8679    1.2332 C   0  0  0  0  0  0  0  0  0 11  0  0
    0.3893    5.0196    1.6710 O   0  0  0  0  0  0  0  0  0 12  0  0
    0.2501    3.6340   -0.1516 O   0  0  0  0  0  0  0  0  0 13  0  0
    0.4131    4.8693   -0.8732 C   0  0  0  0  0  0  0  0  0 14  0  0
    1.9099    5.2840   -1.0075 C   0  0  0  0  0  0  0  0  0 15  0  0
    2.6636    4.4297   -2.0755 C   0  0  0  0  0  0  0  0  0 16  0  0
    2.7041    2.9302   -1.7261 C   0  0  0  0  0  0  0  0  0 17  0  0
    0.1373   -1.1538   -0.0128 C   0  0  0  0  0  0  0  0  0 18  0  0
   -0.3017   -2.1883   -0.5280 O   0  0  0  0  0  0  0  0  0 19  0  0
   -0.7518   -0.1471    0.2849 O   0  0  0  0  0  0  0  0  0 20  0  0
   -2.0729   -0.5634   -0.0697 C   0  0  0  0  0  0  0  0  0 21  0  0
   -3.0487    0.6114    0.1109 C   0  0  0  0  0  0  0  0  0 22  0  0
   -2.6303    1.7736   -0.8142 C   0  0  0  0  0  0  0  0  0 23  0  0
   -2.6619    1.3118   -2.2860 C   0  0  0  0  0  0  0  0  0 24  0  0
 23 24  1  0
 22 23  1  0
 21 22  1  0
 20 21  1  0
 18 20  1  0
 18 19  2  0
  4 18  1  0
 16 17  1  0
 15 16  1  0
 14 15  1  0
 13 14  1  0
 11 13  1  0
 11 12  2  0
 10 11  1  0
  9 10  1  0
  7  9  1  0
  7  8  2  0
  5  7  1  0
  6  1  4  0
  5  6  4  0
  4  5  4  0
  3  4  4  0
  2  3  4  0
  1  2  4  0
M  END
> <Name>
2-Butoxy-2-oxoethyl butyl phthalate

> <CAS RN>
000085-70-1

> <Log Koc>
3.7

> <VP-0>
14.2086

> <nAromBond>
6

> <MAXDP>
5.09657

> <nHBAcc>
6

> <Splitting>
1

$$$$
N-Nitrosodiphenylamine
  SciTegic01221512053D

 15 16  0  0  0  0            999 V2000
    0.6714    1.2489    2.1959 C   0  0  0  0  0  0  0  0  0  1  0  0
    0.4038    1.9055    3.3959 C   0  0  0  0  0  0  0  0  0  2  0  0
    0.9703    1.4940    4.5968 C   0  0  0  0  0  0  0  0  0  3  0  0
    1.8270    0.4024    4.6231 C   0  0  0  0  0  0  0  0  0  4  0  0
    2.1084   -0.2681    3.4410 C   0  0  0  0  0  0  0  0  0  5  0  0
    1.5349    0.1552    2.2475 C   0  0  0  0  0  0  0  0  0  6  0  0
    0.0353    1.7297    0.9199 N   0  0  0  0  0  0  0  0  0  7  0  0
   -0.8438    2.7772    0.9213 N   0  0  0  0  0  0  0  0  0  8  0  0
   -1.2003    3.3493    1.8837 O   0  0  0  0  0  0  0  0  0  9  0  0
    0.2628    1.1739   -0.4096 C   0  0  0  0  0  0  0  0  0 10  0  0
   -0.4422    1.7589   -1.4574 C   0  0  0  0  0  0  0  0  0 11  0  0
   -0.2944    1.3043   -2.7628 C   0  0  0  0  0  0  0  0  0 12  0  0
    0.5678    0.2510   -3.0388 C   0  0  0  0  0  0  0  0  0 13  0  0
    1.2789   -0.3422   -2.0038 C   0  0  0  0  0  0  0  0  0 14  0  0
    1.1250    0.1185   -0.7013 C   0  0  0  0  0  0  0  0  0 15  0  0
 15 10  4  0
 14 15  4  0
 13 14  4  0
 12 13  4  0
 11 12  4  0
 10 11  4  0
  7 10  1  0
  8  9  2  0
  7  8  1  0
  1  7  1  0
  6  1  4  0
  5  6  4  0
  4  5  4  0
  3  4  4  0
  2  3  4  0
  1  2  4  0
M  END
> <Name>
N-Nitrosodiphenylamine

> <CAS RN>
000086-30-6

> <Log Koc>
3.08

> <VP-0>
8.07618

> <nAromBond>
12

> <MAXDP>
3.78186

> <nHBAcc>
1

> <Splitting>
2

$$$$
Azinphos methyl
  SciTegic01221512053D

 19 20  0  0  0  0            999 V2000
    1.5784    4.3878    1.1217 C   0  0  0  0  0  0  0  0  0  1  0  0
    0.8024    3.1918    1.2105 O   0  0  0  0  0  0  0  0  0  2  0  0
   -0.6219    3.5330    1.7190 P   0  0  0  0  0  0  0  0  0  3  0  0
   -1.3598    4.6327    0.6391 S   0  0  0  0  0  0  0  0  0  4  0  0
   -0.5361    4.1700    3.1284 O   0  0  0  0  0  0  0  0  0  5  0  0
   -1.8530    4.4847    3.5892 C   0  0  0  0  0  0  0  0  0  6  0  0
   -1.6720    1.9187    1.7948 S   0  0  0  0  0  0  0  0  0  7  0  0
   -1.7426    1.2298    0.1291 C   0  0  0  0  0  0  0  0  0  8  0  0
   -0.4088    0.9341   -0.3005 N   0  0  0  0  0  0  0  0  0  9  0  0
    0.1337    1.6632   -1.1873 N   0  0  0  0  0  0  0  0  0 10  0  0
    1.3122    1.4733   -1.6186 N   0  0  0  0  0  0  0  0  0 11  0  0
    2.0587    0.4783   -1.1597 C   0  0  0  0  0  0  0  0  0 12  0  0
    3.3484    0.2663   -1.6320 C   0  0  0  0  0  0  0  0  0 13  0  0
    4.0987   -0.7908   -1.1273 C   0  0  0  0  0  0  0  0  0 14  0  0
    3.5607   -1.6300   -0.1559 C   0  0  0  0  0  0  0  0  0 15  0  0
    2.2701   -1.4139    0.3156 C   0  0  0  0  0  0  0  0  0 16  0  0
    1.5279   -0.3561   -0.1938 C   0  0  0  0  0  0  0  0  0 17  0  0
    0.2397   -0.0923    0.2360 C   0  0  0  0  0  0  0  0  0 18  0  0
   -0.2941   -0.7996    1.0976 O   0  0  0  0  0  0  0  0  0 19  0  0
 18 19  2  0
 18  9  4  0
 17 18  4  0
 17 12  4  0
 16 17  4  0
 15 16  4  0
 14 15  4  0
 13 14  4  0
 12 13  4  0
 11 12  4  0
 10 11  4  0
  9 10  4  0
  8  9  1  0
  7  8  1  0
  3  7  1  0
  5  6  1  0
  3  5  1  0
  3  4  2  0
  2  3  1  0
  1  2  1  0
M  END
> <Name>
Azinphos methyl

> <CAS RN>
000086-50-0

> <Log Koc>
2.64

> <VP-0>
12.874

> <nAromBond>
6

> <MAXDP>
5.27532

> <nHBAcc>
6

> <Splitting>
2

$$$$
Fluorene
  SciTegic01221512053D

 13 15  0  0  0  0            999 V2000
   -0.7012    4.3157    1.9182 C   0  0  0  0  0  0  0  0  0  1  0  0
    0.3911    3.5162    2.2538 C   0  0  0  0  0  0  0  0  0  2  0  0
    0.5999    2.3642    1.5105 C   0  0  0  0  0  0  0  0  0  3  0  0
   -0.2486    2.0278    0.4760 C   0  0  0  0  0  0  0  0  0  4  0  0
   -1.3392    2.8077    0.1261 C   0  0  0  0  0  0  0  0  0  5  0  0
   -1.5557    3.9671    0.8684 C   0  0  0  0  0  0  0  0  0  6  0  0
    0.1916    0.8211   -0.1036 C   0  0  0  0  0  0  0  0  0  7  0  0
    1.3203    0.3893    0.5620 C   0  0  0  0  0  0  0  0  0  8  0  0
    1.7294    1.3397    1.6978 C   0  0  0  0  0  0  0  0  0  9  0  0
    1.9595   -0.7834    0.1888 C   0  0  0  0  0  0  0  0  0 10  0  0
    1.4219   -1.5043   -0.8771 C   0  0  0  0  0  0  0  0  0 11  0  0
    0.2779   -1.0594   -1.5457 C   0  0  0  0  0  0  0  0  0 12  0  0
   -0.3588    0.1202   -1.1647 C   0  0  0  0  0  0  0  0  0 13  0  0
 13  7  4  0
 12 13  4  0
 11 12  4  0
 10 11  4  0
  8 10  4  0
  9  3  1  0
  8  9  1  0
  7  8  4  0
  4  7  1  0
  6  1  4  0
  5  6  4  0
  4  5  4  0
  3  4  4  0
  2  3  4  0
  1  2  4  0
M  END
> <Name>
Fluorene

> <CAS RN>
000086-73-7

> <Log Koc>
3.69

> <VP-0>
7.32591

> <nAromBond>
13

> <MAXDP>
0.217593

> <nHBAcc>
0

> <Splitting>
2

$$$$
Carbazole
  SciTegic01221512053D

 14 16  0  0  0  0            999 V2000
    1.9745    2.0259    3.2289 C   0  0  0  0  0  0  0  0  0  1  0  0
    2.9099    1.5589    2.2978 C   0  0  0  0  0  0  0  0  0  2  0  0
    2.5217    1.1774    1.0134 C   0  0  0  0  0  0  0  0  0  3  0  0
    1.1732    1.2874    0.7198 C   0  0  0  0  0  0  0  0  0  4  0  0
    0.2468    1.7463    1.6311 C   0  0  0  0  0  0  0  0  0  5  0  0
    0.6197    2.1281    2.9094 C   0  0  0  0  0  0  0  0  0  6  0  0
   -0.9624    1.7428    1.0711 N   0  0  0  0  0  0  0  0  0  7  0  0
   -1.8070    2.0263    1.5103 H   0  0  0  0  0  0  0  0  0  8  0  0
   -0.8460    1.2944   -0.1784 C   0  0  0  0  0  0  0  0  0  9  0  0
    0.4752    0.9987   -0.4360 C   0  0  0  0  0  0  0  0  0 10  0  0
    0.9092    0.5105   -1.6567 C   0  0  0  0  0  0  0  0  0 11  0  0
   -0.0687    0.3270   -2.6343 C   0  0  0  0  0  0  0  0  0 12  0  0
   -1.4128    0.6250   -2.3800 C   0  0  0  0  0  0  0  0  0 13  0  0
   -1.8263    1.1165   -1.1408 C   0  0  0  0  0  0  0  0  0 14  0  0
 14  9  4  0
 13 14  4  0
 12 13  4  0
 11 12  4  0
 10 11  4  0
 10  4  4  0
  9 10  4  0
  7  9  4  0
  7  8  1  0
  5  7  4  0
  6  1  4  0
  5  6  4  0
  4  5  4  0
  3  4  4  0
  2  3  4  0
  1  2  4  0
M  END
> <Name>
Carbazole

> <CAS RN>
000086-74-8

> <Log Koc>
3.68

> <VP-0>
7.1188

> <nAromBond>
15

> <MAXDP>
0.877963

> <nHBAcc>
1

> <Splitting>
1

$$$$
1-Naphthalene acetamide
  SciTegic01221512053D

 14 15  0  0  0  0            999 V2000
   -1.0379    5.1721    2.1356 O   0  0  0  0  0  0  0  0  0  1  0  0
   -0.8931    4.3060    1.2660 C   0  0  0  0  0  0  0  0  0  2  0  0
   -1.6282    2.9958    1.3806 C   0  0  0  0  0  0  0  0  0  3  0  0
   -1.2915    2.1095    0.2101 C   0  0  0  0  0  0  0  0  0  4  0  0
   -0.1701    1.2849    0.2429 C   0  0  0  0  0  0  0  0  0  5  0  0
    0.1259    0.4734   -0.8478 C   0  0  0  0  0  0  0  0  0  6  0  0
   -0.6970    0.4839   -1.9683 C   0  0  0  0  0  0  0  0  0  7  0  0
   -1.8174    1.3052   -1.9998 C   0  0  0  0  0  0  0  0  0  8  0  0
   -2.1141    2.1169   -0.9112 C   0  0  0  0  0  0  0  0  0  9  0  0
    1.2448   -0.3506   -0.8207 C   0  0  0  0  0  0  0  0  0 10  0  0
    2.0711   -0.3662    0.2971 C   0  0  0  0  0  0  0  0  0 11  0  0
    1.7771    0.4425    1.3887 C   0  0  0  0  0  0  0  0  0 12  0  0
    0.6581    1.2661    1.3612 C   0  0  0  0  0  0  0  0  0 13  0  0
   -0.0378    4.5383    0.1859 N   0  0  0  0  0  0  0  0  0 14  0  0
  2 14  1  0
 13  5  4  0
 12 13  4  0
 11 12  4  0
 10 11  4  0
  6 10  4  0
  9  4  4  0
  8  9  4  0
  7  8  4  0
  6  7  4  0
  5  6  4  0
  4  5  4  0
  3  4  1  0
  2  3  1  0
  1  2  2  0
M  END
> <Name>
1-Naphthalene acetamide

> <CAS RN>
000086-86-2

> <Log Koc>
2

> <VP-0>
7.73416

> <nAromBond>
11

> <MAXDP>
3.83462

> <nHBAcc>
2

> <Splitting>
1

$$$$
1-Naphthalene acetic acid
  SciTegic01221512053D

 14 15  0  0  0  0            999 V2000
   -0.4286    4.3546   -0.1720 C   0  0  0  0  0  0  0  0  0  1  0  0
   -1.0443    3.3373    0.5468 C   0  0  0  0  0  0  0  0  0  2  0  0
   -0.3744    2.1395    0.7665 C   0  0  0  0  0  0  0  0  0  3  0  0
    0.9119    1.9489    0.2694 C   0  0  0  0  0  0  0  0  0  4  0  0
    1.5258    2.9729   -0.4469 C   0  0  0  0  0  0  0  0  0  5  0  0
    0.8567    4.1715   -0.6673 C   0  0  0  0  0  0  0  0  0  6  0  0
    2.8124    2.8053   -0.9448 C   0  0  0  0  0  0  0  0  0  7  0  0
    3.4921    1.6139   -0.7256 C   0  0  0  0  0  0  0  0  0  8  0  0
    2.8823    0.5904   -0.0107 C   0  0  0  0  0  0  0  0  0  9  0  0
    1.5930    0.7498    0.4850 C   0  0  0  0  0  0  0  0  0 10  0  0
    0.9674   -0.3928    1.2603 C   0  0  0  0  0  0  0  0  0 11  0  0
   -0.1127   -1.0815    0.4562 C   0  0  0  0  0  0  0  0  0 12  0  0
   -0.3624   -0.7108   -0.6966 O   0  0  0  0  0  0  0  0  0 13  0  0
   -0.8217   -2.1405    1.0128 O   0  0  0  0  0  0  0  0  0 14  0  0
 12 14  1  0
 12 13  2  0
 11 12  1  0
 10 11  1  0
 10  4  4  0
  9 10  4  0
  8  9  4  0
  7  8  4  0
  5  7  4  0
  6  1  4  0
  5  6  4  0
  4  5  4  0
  3  4  4  0
  2  3  4  0
  1  2  4  0
M  END
> <Name>
1-Naphthalene acetic acid

> <CAS RN>
000086-87-3

> <Log Koc>
2.25

> <VP-0>
7.60402

> <nAromBond>
11

> <MAXDP>
3.6124

> <nHBAcc>
2

> <Splitting>
2

$$$$
1,2,3-Trichlorobenzene
  SciTegic01221512053D

  9  9  0  0  0  0            999 V2000
   -2.0528    1.1024    0.9882 Cl  0  0  0  0  0  0  0  0  0  1  0  0
   -0.4563    0.9887    0.3387 C   0  0  0  0  0  0  0  0  0  2  0  0
    0.2318    2.1421   -0.0202 C   0  0  0  0  0  0  0  0  0  3  0  0
    1.5168    2.0508   -0.5431 C   0  0  0  0  0  0  0  0  0  4  0  0
    2.1136    0.8058   -0.7069 C   0  0  0  0  0  0  0  0  0  5  0  0
    1.4254   -0.3478   -0.3479 C   0  0  0  0  0  0  0  0  0  6  0  0
    0.1404   -0.2562    0.1749 C   0  0  0  0  0  0  0  0  0  7  0  0
   -0.7156   -1.6888    0.6212 Cl  0  0  0  0  0  0  0  0  0  8  0  0
   -0.5108    3.6885    0.1837 Cl  0  0  0  0  0  0  0  0  0  9  0  0
  3  9  1  0
  7  8  1  0
  7  2  4  0
  6  7  4  0
  5  6  4  0
  4  5  4  0
  3  4  4  0
  2  3  4  0
  1  2  1  0
M  END
> <Name>
1,2,3-Trichlorobenzene

> <CAS RN>
000087-61-6

> <Log Koc>
3.29

> <VP-0>
6.63373

> <nAromBond>
6

> <MAXDP>
0.280974

> <nHBAcc>
0

> <Splitting>
2

$$$$
Pentachlorophenol
  SciTegic01221512053D

 12 12  0  0  0  0            999 V2000
   -2.4856    1.0013    0.2996 Cl  0  0  0  0  0  0  0  0  0  1  0  0
   -0.7676    0.8904    0.1599 C   0  0  0  0  0  0  0  0  0  2  0  0
   -0.0419    1.9577   -0.3564 C   0  0  0  0  0  0  0  0  0  3  0  0
   -0.8582    3.3947   -0.8582 Cl  0  0  0  0  0  0  0  0  0  4  0  0
    1.3408    1.8684   -0.4688 C   0  0  0  0  0  0  0  0  0  5  0  0
    1.9977    0.7119   -0.0649 C   0  0  0  0  0  0  0  0  0  6  0  0
    1.2720   -0.3554    0.4514 C   0  0  0  0  0  0  0  0  0  7  0  0
   -0.1106   -0.2662    0.5638 C   0  0  0  0  0  0  0  0  0  8  0  0
   -1.0123   -1.5923    1.2053 Cl  0  0  0  0  0  0  0  0  0  9  0  0
    2.0883   -1.7925    0.9533 Cl  0  0  0  0  0  0  0  0  0 10  0  0
    3.7157    0.6009   -0.2045 Cl  0  0  0  0  0  0  0  0  0 11  0  0
    2.0666    2.9359   -0.9852 O   0  0  0  0  0  0  0  0  0 12  0  0
  5 12  1  0
  6 11  1  0
  7 10  1  0
  8  9  1  0
  8  2  4  0
  7  8  4  0
  6  7  4  0
  5  6  4  0
  3  5  4  0
  3  4  1  0
  2  3  4  0
  1  2  1  0
M  END
> <Name>
Pentachlorophenol

> <CAS RN>
000087-86-5

> <Log Koc>
3.34

> <VP-0>
9.11668

> <nAromBond>
6

> <MAXDP>
3.84472

> <nHBAcc>
0

> <Splitting>
2

$$$$
2,4,6-Trichlorophenol
  SciTegic01221512053D

 10 10  0  0  0  0            999 V2000
   -0.8122    0.8658    0.0000 C   0  0  0  0  0  0  0  0  0  1  0  0
   -0.1170    2.0697    0.0003 C   0  0  0  0  0  0  0  0  0  2  0  0
    1.2733    2.0696   -0.0002 C   0  0  0  0  0  0  0  0  0  3  0  0
    1.9680    0.8653   -0.0009 C   0  0  0  0  0  0  0  0  0  4  0  0
    1.2728   -0.3388   -0.0012 C   0  0  0  0  0  0  0  0  0  5  0  0
   -0.1175   -0.3383   -0.0008 C   0  0  0  0  0  0  0  0  0  6  0  0
   -0.9824   -1.8336   -0.0011 Cl  0  0  0  0  0  0  0  0  0  7  0  0
    3.6956    0.8649   -0.0015 Cl  0  0  0  0  0  0  0  0  0  8  0  0
   -0.9813    3.5654    0.0012 Cl  0  0  0  0  0  0  0  0  0  9  0  0
   -2.2025    0.8661    0.0004 O   0  0  0  0  0  0  0  0  0 10  0  0
  1 10  1  0
  2  9  1  0
  4  8  1  0
  6  7  1  0
  6  1  4  0
  5  6  4  0
  4  5  4  0
  3  4  4  0
  2  3  4  0
  1  2  4  0
M  END
> <Name>
2,4,6-Trichlorophenol

> <CAS RN>
000088-06-2

> <Log Koc>
3.03

> <VP-0>
7.00359

> <nAromBond>
6

> <MAXDP>
3.43071

> <nHBAcc>
0

> <Splitting>
2

$$$$
2-Nitrophenol
  SciTegic01221512053D

 10 10  0  0  0  0            999 V2000
   -1.2260    0.8503   -0.1954 C   0  0  0  0  0  0  0  0  0  1  0  0
   -0.5019    2.0248   -0.0269 C   0  0  0  0  0  0  0  0  0  2  0  0
    0.8804    1.9798    0.1175 C   0  0  0  0  0  0  0  0  0  3  0  0
    1.5419    0.7539    0.0934 C   0  0  0  0  0  0  0  0  0  4  0  0
    0.8148   -0.4194   -0.0753 C   0  0  0  0  0  0  0  0  0  5  0  0
   -0.5669   -0.3729   -0.2195 C   0  0  0  0  0  0  0  0  0  6  0  0
    2.9372    0.6765    0.2367 N   0  0  0  0  0  0  0  0  0  7  0  0
    3.5305   -0.5069    0.2086 O   0  0  0  0  0  0  0  0  0  8  0  0
    3.6666    1.7697    0.3995 O   0  0  0  0  0  0  0  0  0  9  0  0
    1.5865    3.1667    0.2850 O   0  0  0  0  0  0  0  0  0 10  0  0
  3 10  1  0
  7  9  1  0
  7  8  1  0
  4  7  1  0
  6  1  4  0
  5  6  4  0
  4  5  4  0
  3  4  4  0
  2  3  4  0
  1  2  4  0
M  END
> <Name>
2-Nitrophenol

> <CAS RN>
000088-75-5

> <Log Koc>
2.06

> <VP-0>
4.87197

> <nAromBond>
6

> <MAXDP>
3.06731

> <nHBAcc>
0

> <Splitting>
2

$$$$
Dinoseb
  SciTegic01221512053D

 18 18  0  0  0  0            999 V2000
    2.1710   -2.1923   -0.2872 C   0  0  0  0  0  0  0  0  0  1  0  0
    3.5400   -2.3529   -0.4574 C   0  0  0  0  0  0  0  0  0  2  0  0
    4.3616   -1.2382   -0.5698 C   0  0  0  0  0  0  0  0  0  3  0  0
    3.8179    0.0398   -0.5118 C   0  0  0  0  0  0  0  0  0  4  0  0
    2.4449    0.2014   -0.3411 C   0  0  0  0  0  0  0  0  0  5  0  0
    1.6222   -0.9156   -0.2311 C   0  0  0  0  0  0  0  0  0  6  0  0
    0.1341   -0.7451   -0.0416 C   0  0  2  0  0  0  0  0  0  7  0  0
   -0.1358    0.3180    0.0135 H   0  0  0  0  0  0  0  0  0  8  0  0
   -0.2813   -1.4788    1.2465 C   0  0  0  0  0  0  0  0  0  9  0  0
   -0.6307   -1.4378   -1.1968 C   0  0  0  0  0  0  0  0  0 10  0  0
   -0.2955   -0.7725   -2.5506 C   0  0  0  0  0  0  0  0  0 11  0  0
    1.8835    1.4727   -0.2801 O   0  0  0  0  0  0  0  0  0 12  0  0
    4.6723    1.1484   -0.6271 N   0  0  0  0  0  0  0  0  0 13  0  0
    4.1966    2.3831   -0.5775 O   0  0  0  0  0  0  0  0  0 14  0  0
    5.9722    0.9549   -0.7882 O   0  0  0  0  0  0  0  0  0 15  0  0
    4.0882   -3.6315   -0.5149 N   0  0  0  0  0  0  0  0  0 16  0  0
    5.3935   -3.7851   -0.6769 O   0  0  0  0  0  0  0  0  0 17  0  0
    3.3033   -4.6925   -0.4075 O   0  0  0  0  0  0  0  0  0 18  0  0
 16 18  1  0
 16 17  1  0
  2 16  1  0
 13 15  1  0
 13 14  1  0
  4 13  1  0
  5 12  1  0
 10 11  1  0
  7 10  1  0
  7  9  1  0
  7  8  1  0
  6  7  1  0
  6  1  4  0
  5  6  4  0
  4  5  4  0
  3  4  4  0
  2  3  4  0
  1  2  4  0
M  END
> <Name>
Dinoseb

> <CAS RN>
000088-85-7

> <Log Koc>
2.4

> <VP-0>
9.11708

> <nAromBond>
6

> <MAXDP>
3.7027

> <nHBAcc>
0

> <Splitting>
2

$$$$
Phthalic acid
  SciTegic01221512053D

 12 12  0  0  0  0            999 V2000
    3.0137   -1.4044   -0.0006 C   0  0  0  0  0  0  0  0  0  1  0  0
    1.6260   -1.3764   -0.0007 C   0  0  0  0  0  0  0  0  0  2  0  0
    0.9214   -0.1757    0.0000 C   0  0  0  0  0  0  0  0  0  3  0  0
    1.6374    1.0346    0.0009 C   0  0  0  0  0  0  0  0  0  4  0  0
    3.0290    0.9920    0.0010 C   0  0  0  0  0  0  0  0  0  5  0  0
    3.7200   -0.2118    0.0003 C   0  0  0  0  0  0  0  0  0  6  0  0
    1.0492    2.4123    0.0018 C   0  0  0  0  0  0  0  0  0  7  0  0
    1.8244    3.3748    0.0025 O   0  0  0  0  0  0  0  0  0  8  0  0
   -0.3062    2.6693    0.0018 O   0  0  0  0  0  0  0  0  0  9  0  0
   -0.5636   -0.3156   -0.0002 C   0  0  0  0  0  0  0  0  0 10  0  0
   -1.3306    0.6460    0.0004 O   0  0  0  0  0  0  0  0  0 11  0  0
   -1.1063   -1.5958   -0.0011 O   0  0  0  0  0  0  0  0  0 12  0  0
 10 12  1  0
 10 11  2  0
  3 10  1  0
  7  9  1  0
  7  8  2  0
  4  7  1  0
  6  1  4  0
  5  6  4  0
  4  5  4  0
  3  4  4  0
  2  3  4  0
  1  2  4  0
M  END
> <Name>
Phthalic acid

> <CAS RN>
000088-99-3

> <Log Koc>
1.07

> <VP-0>
6.02032

> <nAromBond>
6

> <MAXDP>
3.46287

> <nHBAcc>
4

> <Splitting>
2

$$$$
2-Methoxyphenol
  SciTegic01221512053D

  9  9  0  0  0  0            999 V2000
   -0.6473    0.9082   -0.0008 C   0  0  0  0  0  0  0  0  0  1  0  0
    0.0636    2.1051   -0.0014 C   0  0  0  0  0  0  0  0  0  2  0  0
    1.4540    2.0916   -0.0018 C   0  0  0  0  0  0  0  0  0  3  0  0
    2.1372    0.8810   -0.0016 C   0  0  0  0  0  0  0  0  0  4  0  0
    1.4292   -0.3154   -0.0010 C   0  0  0  0  0  0  0  0  0  5  0  0
    0.0390   -0.3010   -0.0006 C   0  0  0  0  0  0  0  0  0  6  0  0
   -0.6677   -1.4984    0.0000 O   0  0  0  0  0  0  0  0  0  7  0  0
   -2.0524    0.9019   -0.0004 O   0  0  0  0  0  0  0  0  0  8  0  0
   -2.5813    2.2362   -0.0007 C   0  0  0  0  0  0  0  0  0  9  0  0
  8  9  1  0
  1  8  1  0
  6  7  1  0
  6  1  4  0
  5  6  4  0
  4  5  4  0
  3  4  4  0
  2  3  4  0
  1  2  4  0
M  END
> <Name>
2-Methoxyphenol

> <CAS RN>
000090-05-1

> <Log Koc>
1.56

> <VP-0>
5.16486

> <nAromBond>
6

> <MAXDP>
2.98551

> <nHBAcc>
0

> <Splitting>
2

$$$$
1-Methylnaphthalene
  SciTegic01221512053D

 11 12  0  0  0  0            999 V2000
   -1.9124    2.3803   -0.6653 C   0  0  0  0  0  0  0  0  0  1  0  0
   -2.0523    2.0943    0.6880 C   0  0  0  0  0  0  0  0  0  2  0  0
   -1.0565    1.3927    1.3580 C   0  0  0  0  0  0  0  0  0  3  0  0
    0.0808    0.9766    0.6737 C   0  0  0  0  0  0  0  0  0  4  0  0
    0.2201    1.2632   -0.6805 C   0  0  0  0  0  0  0  0  0  5  0  0
   -0.7761    1.9647   -1.3497 C   0  0  0  0  0  0  0  0  0  6  0  0
    1.3558    0.8483   -1.3664 C   0  0  0  0  0  0  0  0  0  7  0  0
    2.3533    0.1466   -0.6992 C   0  0  0  0  0  0  0  0  0  8  0  0
    2.2150   -0.1403    0.6541 C   0  0  0  0  0  0  0  0  0  9  0  0
    1.0793    0.2745    1.3401 C   0  0  0  0  0  0  0  0  0 10  0  0
   -1.2134    1.0865    2.8207 C   0  0  0  0  0  0  0  0  0 11  0  0
  3 11  1  0
 10  4  4  0
  9 10  4  0
  8  9  4  0
  7  8  4  0
  5  7  4  0
  6  1  4  0
  5  6  4  0
  4  5  4  0
  3  4  4  0
  2  3  4  0
  1  2  4  0
M  END
> <Name>
1-Methylnaphthalene

> <CAS RN>
000090-12-0

> <Log Koc>
3.36

> <VP-0>
6.54145

> <nAromBond>
11

> <MAXDP>
0.157407

> <nHBAcc>
0

> <Splitting>
2

$$$$
1-Naphthol
  SciTegic01221512053D

 11 12  0  0  0  0            999 V2000
   -0.2278    3.1115    0.2926 C   0  0  0  0  0  0  0  0  0  1  0  0
   -1.2511    3.2098    1.2284 C   0  0  0  0  0  0  0  0  0  2  0  0
   -1.7008    2.0723    1.8896 C   0  0  0  0  0  0  0  0  0  3  0  0
   -1.1273    0.8358    1.6154 C   0  0  0  0  0  0  0  0  0  4  0  0
   -0.1040    0.7372    0.6797 C   0  0  0  0  0  0  0  0  0  5  0  0
    0.3456    1.8752    0.0184 C   0  0  0  0  0  0  0  0  0  6  0  0
    1.3687    1.7768   -0.9171 C   0  0  0  0  0  0  0  0  0  7  0  0
    1.9428    0.5409   -1.1920 C   0  0  0  0  0  0  0  0  0  8  0  0
    1.4933   -0.5968   -0.5310 C   0  0  0  0  0  0  0  0  0  9  0  0
    0.4699   -0.4987    0.4049 C   0  0  0  0  0  0  0  0  0 10  0  0
    1.8172    2.9150   -1.5774 O   0  0  0  0  0  0  0  0  0 11  0  0
  7 11  1  0
 10  5  4  0
  9 10  4  0
  8  9  4  0
  7  8  4  0
  6  7  4  0
  6  1  4  0
  5  6  4  0
  4  5  4  0
  3  4  4  0
  2  3  4  0
  1  2  4  0
M  END
> <Name>
1-Naphthol

> <CAS RN>
000090-15-3

> <Log Koc>
3.03

> <VP-0>
5.98867

> <nAromBond>
11

> <MAXDP>
3.3712

> <nHBAcc>
0

> <Splitting>
1

$$$$
4,4[-Bis(dimethylamino)benzophenone
  SciTegic01221512053D

 20 21  0  0  0  0            999 V2000
    2.7297    5.3750    3.7673 N   0  0  0  0  0  0  0  0  0  1  0  0
    4.1635    5.4028    3.6426 C   0  0  0  0  0  0  0  0  0  2  0  0
    2.0713    6.3207    4.6193 C   0  0  0  0  0  0  0  0  0  3  0  0
    1.9898    4.4082    3.0747 C   0  0  0  0  0  0  0  0  0  4  0  0
    0.6077    4.3208    3.2193 C   0  0  0  0  0  0  0  0  0  5  0  0
   -0.1082    3.3409    2.5370 C   0  0  0  0  0  0  0  0  0  6  0  0
    0.5476    2.4461    1.6948 C   0  0  0  0  0  0  0  0  0  7  0  0
    1.9278    2.5504    1.5602 C   0  0  0  0  0  0  0  0  0  8  0  0
    2.6490    3.5198    2.2402 C   0  0  0  0  0  0  0  0  0  9  0  0
   -0.2561    1.3619    1.0058 C   0  0  0  0  0  0  0  0  0 10  0  0
   -1.4403    1.2285    1.3348 O   0  0  0  0  0  0  0  0  0 11  0  0
    0.3180    0.3713    0.0145 C   0  0  0  0  0  0  0  0  0 12  0  0
    1.5441    0.5620   -0.6145 C   0  0  0  0  0  0  0  0  0 13  0  0
    2.0511   -0.3728   -1.5047 C   0  0  0  0  0  0  0  0  0 14  0  0
    1.3334   -1.5281   -1.7719 C   0  0  0  0  0  0  0  0  0 15  0  0
    0.1005   -1.7306   -1.1578 C   0  0  0  0  0  0  0  0  0 16  0  0
   -0.4077   -0.7812   -0.2761 C   0  0  0  0  0  0  0  0  0 17  0  0
    1.8657   -2.4801   -2.6505 N   0  0  0  0  0  0  0  0  0 18  0  0
    1.1995   -3.7336   -2.8510 C   0  0  0  0  0  0  0  0  0 19  0  0
    3.1079   -2.2152   -3.3265 C   0  0  0  0  0  0  0  0  0 20  0  0
 18 20  1  0
 18 19  1  0
 15 18  1  0
 17 12  4  0
 16 17  4  0
 15 16  4  0
 14 15  4  0
 13 14  4  0
 12 13  4  0
 10 12  1  0
 10 11  2  0
  7 10  1  0
  9  4  4  0
  8  9  4  0
  7  8  4  0
  6  7  4  0
  5  6  4  0
  4  5  4  0
  1  4  1  0
  1  3  1  0
  1  2  1  0
M  END
> <Name>
4,4[-Bis(dimethylamino)benzophenone

> <CAS RN>
000090-94-8

> <Log Koc>
2.21

> <VP-0>
12.4215

> <nAromBond>
12

> <MAXDP>
5.3814

> <nHBAcc>
3

> <Splitting>
2

$$$$
Diphenylmethanol
  SciTegic01221512053D

 14 15  0  0  0  0            999 V2000
    1.0857    5.6693    0.4363 C   0  0  0  0  0  0  0  0  0  1  0  0
    1.8734    4.5400    0.6239 C   0  0  0  0  0  0  0  0  0  2  0  0
    1.2827    3.2828    0.6759 C   0  0  0  0  0  0  0  0  0  3  0  0
   -0.0957    3.1470    0.5437 C   0  0  0  0  0  0  0  0  0  4  0  0
   -0.8795    4.2803    0.3554 C   0  0  0  0  0  0  0  0  0  5  0  0
   -0.2918    5.5386    0.3028 C   0  0  0  0  0  0  0  0  0  6  0  0
   -0.7751    1.7876    0.5712 C   0  0  0  0  0  0  0  0  0  7  0  0
    0.1250    0.6687    0.0978 C   0  0  0  0  0  0  0  0  0  8  0  0
   -0.0371    0.1734   -1.1910 C   0  0  0  0  0  0  0  0  0  9  0  0
    0.7772   -0.8542   -1.6516 C   0  0  0  0  0  0  0  0  0 10  0  0
    1.7503   -1.3959   -0.8197 C   0  0  0  0  0  0  0  0  0 11  0  0
    1.9074   -0.9106    0.4735 C   0  0  0  0  0  0  0  0  0 12  0  0
    1.0961    0.1209    0.9322 C   0  0  0  0  0  0  0  0  0 13  0  0
   -1.9775    1.8656   -0.1944 O   0  0  0  0  0  0  0  0  0 14  0  0
  7 14  1  0
 13  8  4  0
 12 13  4  0
 11 12  4  0
 10 11  4  0
  9 10  4  0
  8  9  4  0
  7  8  1  0
  4  7  1  0
  6  1  4  0
  5  6  4  0
  4  5  4  0
  3  4  4  0
  2  3  4  0
  1  2  4  0
M  END
> <Name>
Diphenylmethanol

> <CAS RN>
000091-01-0

> <Log Koc>
2.34

> <VP-0>
7.79807

> <nAromBond>
12

> <MAXDP>
3.99185

> <nHBAcc>
1

> <Splitting>
2

$$$$
1,2-Dimethoxybenzene
  SciTegic01221512053D

 10 10  0  0  0  0            999 V2000
   -0.8272    1.2113   -0.0004 C   0  0  0  0  0  0  0  0  0  1  0  0
   -0.1105    2.4003   -0.0001 C   0  0  0  0  0  0  0  0  0  2  0  0
    1.2752    2.3613    0.0003 C   0  0  0  0  0  0  0  0  0  3  0  0
    1.9266    1.1353    0.0004 C   0  0  0  0  0  0  0  0  0  4  0  0
    1.2224   -0.0659    0.0001 C   0  0  0  0  0  0  0  0  0  5  0  0
   -0.1834   -0.0250   -0.0003 C   0  0  0  0  0  0  0  0  0  6  0  0
   -0.9934   -1.1873   -0.0006 O   0  0  0  0  0  0  0  0  0  7  0  0
   -2.3954   -0.8659   -0.0010 C   0  0  0  0  0  0  0  0  0  8  0  0
    2.0487   -1.2592    0.0003 O   0  0  0  0  0  0  0  0  0  9  0  0
    1.4086   -2.5415    0.0000 C   0  0  0  0  0  0  0  0  0 10  0  0
  9 10  1  0
  5  9  1  0
  7  8  1  0
  6  7  1  0
  6  1  4  0
  5  6  4  0
  4  5  4  0
  3  4  4  0
  2  3  4  0
  1  2  4  0
M  END
> <Name>
1,2-Dimethoxybenzene

> <CAS RN>
000091-16-7

> <Log Koc>
2.03

> <VP-0>
6.1259

> <nAromBond>
6

> <MAXDP>
1.5112

> <nHBAcc>
0

> <Splitting>
2

$$$$
Naphthalene
  SciTegic01221512053D

 10 11  0  0  0  0            999 V2000
   -1.8667    2.5405   -0.5776 C   0  0  0  0  0  0  0  0  0  1  0  0
   -2.2210    1.9798    0.6445 C   0  0  0  0  0  0  0  0  0  2  0  0
   -1.3447    1.1180    1.2945 C   0  0  0  0  0  0  0  0  0  3  0  0
   -0.1142    0.8171    0.7220 C   0  0  0  0  0  0  0  0  0  4  0  0
    0.2402    1.3780   -0.5005 C   0  0  0  0  0  0  0  0  0  5  0  0
   -0.6361    2.2397   -1.1503 C   0  0  0  0  0  0  0  0  0  6  0  0
    1.4707    1.0771   -1.0730 C   0  0  0  0  0  0  0  0  0  7  0  0
    2.3470    0.2154   -0.4230 C   0  0  0  0  0  0  0  0  0  8  0  0
    1.9927   -0.3453    0.7991 C   0  0  0  0  0  0  0  0  0  9  0  0
    0.7621   -0.0445    1.3718 C   0  0  0  0  0  0  0  0  0 10  0  0
 10  4  4  0
  9 10  4  0
  8  9  4  0
  7  8  4  0
  5  7  4  0
  6  1  4  0
  5  6  4  0
  4  5  4  0
  3  4  4  0
  2  3  4  0
  1  2  4  0
M  END
> <Name>
Naphthalene

> <CAS RN>
000091-20-3

> <Log Koc>
3.11

> <VP-0>
5.6188

> <nAromBond>
11

> <MAXDP>
0.12037

> <nHBAcc>
0

> <Splitting>
2

$$$$
Quinoline
  SciTegic01221512053D

 10 11  0  0  0  0            999 V2000
   -0.2546    1.1290    0.4451 C   0  0  0  0  0  0  0  0  0  1  0  0
    0.6103    2.1889    0.1945 C   0  0  0  0  0  0  0  0  0  2  0  0
    0.2338    3.4391    0.4441 N   0  0  0  0  0  0  0  0  0  3  0  0
   -0.9690    3.7186    0.9366 C   0  0  0  0  0  0  0  0  0  4  0  0
   -1.8786    2.7029    1.2084 C   0  0  0  0  0  0  0  0  0  5  0  0
   -1.5178    1.3858    0.9594 C   0  0  0  0  0  0  0  0  0  6  0  0
    1.8773    1.9396   -0.3207 C   0  0  0  0  0  0  0  0  0  7  0  0
    2.2772    0.6342   -0.5839 C   0  0  0  0  0  0  0  0  0  8  0  0
    1.4107   -0.4238   -0.3325 C   0  0  0  0  0  0  0  0  0  9  0  0
    0.1434   -0.1766    0.1826 C   0  0  0  0  0  0  0  0  0 10  0  0
 10  1  4  0
  9 10  4  0
  8  9  4  0
  7  8  4  0
  2  7  4  0
  6  1  4  0
  5  6  4  0
  4  5  4  0
  3  4  4  0
  2  3  4  0
  1  2  4  0
M  END
> <Name>
Quinoline

> <CAS RN>
000091-22-5

> <Log Koc>
3

> <VP-0>
5.48867

> <nAromBond>
11

> <MAXDP>
1.1812

> <nHBAcc>
1

> <Splitting>
2

$$$$
2-Methylnaphthalene
  SciTegic01221512053D

 11 12  0  0  0  0            999 V2000
   -1.1179    2.7544   -0.8912 C   0  0  0  0  0  0  0  0  0  1  0  0
   -1.3673    2.6529    0.4729 C   0  0  0  0  0  0  0  0  0  2  0  0
   -0.6642    1.7331    1.2424 C   0  0  0  0  0  0  0  0  0  3  0  0
    0.2886    0.9145    0.6472 C   0  0  0  0  0  0  0  0  0  4  0  0
    0.5383    1.0158   -0.7174 C   0  0  0  0  0  0  0  0  0  5  0  0
   -0.1649    1.9358   -1.4865 C   0  0  0  0  0  0  0  0  0  6  0  0
    1.4912    0.1972   -1.3124 C   0  0  0  0  0  0  0  0  0  7  0  0
    2.1945   -0.7228   -0.5430 C   0  0  0  0  0  0  0  0  0  8  0  0
    1.9448   -0.8241    0.8211 C   0  0  0  0  0  0  0  0  0  9  0  0
    0.9918   -0.0054    1.4164 C   0  0  0  0  0  0  0  0  0 10  0  0
   -2.3959    3.5366    1.1150 C   0  0  0  0  0  0  0  0  0 11  0  0
  2 11  1  0
 10  4  4  0
  9 10  4  0
  8  9  4  0
  7  8  4  0
  5  7  4  0
  6  1  4  0
  5  6  4  0
  4  5  4  0
  3  4  4  0
  2  3  4  0
  1  2  4  0
M  END
> <Name>
2-Methylnaphthalene

> <CAS RN>
000091-57-6

> <Log Koc>
3.52

> <VP-0>
6.54145

> <nAromBond>
11

> <MAXDP>
0.203704

> <nHBAcc>
0

> <Splitting>
2

$$$$
N,N-Diethyl Aniline
  SciTegic01221512053D

 11 11  0  0  0  0            999 V2000
   -0.1915    1.2950    2.6644 C   0  0  0  0  0  0  0  0  0  1  0  0
    1.0520    2.0399    3.2336 C   0  0  0  0  0  0  0  0  0  2  0  0
   -0.4552    1.6939    1.2883 N   0  0  0  0  0  0  0  0  0  3  0  0
   -1.4750    2.6903    0.9852 C   0  0  0  0  0  0  0  0  0  4  0  0
   -2.3115    3.0728    2.2303 C   0  0  0  0  0  0  0  0  0  5  0  0
    0.2391    1.0821    0.2140 C   0  0  0  0  0  0  0  0  0  6  0  0
   -0.0149    1.4955   -1.0899 C   0  0  0  0  0  0  0  0  0  7  0  0
    0.6525    0.9030   -2.1559 C   0  0  0  0  0  0  0  0  0  8  0  0
    1.5769   -0.1083   -1.9219 C   0  0  0  0  0  0  0  0  0  9  0  0
    1.8318   -0.5268   -0.6212 C   0  0  0  0  0  0  0  0  0 10  0  0
    1.1635    0.0667    0.4435 C   0  0  0  0  0  0  0  0  0 11  0  0
 11  6  4  0
 10 11  4  0
  9 10  4  0
  8  9  4  0
  7  8  4  0
  6  7  4  0
  3  6  1  0
  4  5  1  0
  3  4  1  0
  1  3  1  0
  1  2  1  0
M  END
> <Name>
N,N-Diethyl Aniline

> <CAS RN>
000091-66-7

> <Log Koc>
2.37

> <VP-0>
7.24818

> <nAromBond>
6

> <MAXDP>
0.333333

> <nHBAcc>
1

> <Splitting>
2

$$$$
Methapyrilene
  SciTegic01221512053D

 18 19  0  0  0  0            999 V2000
    2.5170    4.7982    1.8843 C   0  0  0  0  0  0  0  0  0  1  0  0
    1.3454    3.9149    1.9429 N   0  0  0  0  0  0  0  0  0  2  0  0
    0.3623    4.4743    2.8868 C   0  0  0  0  0  0  0  0  0  3  0  0
    1.7680    2.5743    2.3879 C   0  0  0  0  0  0  0  0  0  4  0  0
    0.5569    1.6049    2.4032 C   0  0  0  0  0  0  0  0  0  5  0  0
   -0.0803    1.4449    1.0903 N   0  0  0  0  0  0  0  0  0  6  0  0
   -1.5200    1.4340    1.0244 C   0  0  0  0  0  0  0  0  0  7  0  0
   -2.0683    0.1216    1.5243 C   0  0  0  0  0  0  0  0  0  8  0  0
   -1.1971   -1.1710    1.9696 S   0  0  0  0  0  0  0  0  0  9  0  0
   -2.4091   -2.1778    2.3669 C   0  0  0  0  0  0  0  0  0 10  0  0
   -3.6051   -1.4874    2.1456 C   0  0  0  0  0  0  0  0  0 11  0  0
   -3.4188   -0.1816    1.6655 C   0  0  0  0  0  0  0  0  0 12  0  0
    0.6588    1.2721   -0.1217 C   0  0  0  0  0  0  0  0  0 13  0  0
   -0.0354    1.2009   -1.3254 C   0  0  0  0  0  0  0  0  0 14  0  0
    0.6602    1.0234   -2.5133 C   0  0  0  0  0  0  0  0  0 15  0  0
    2.0426    0.9176   -2.4670 C   0  0  0  0  0  0  0  0  0 16  0  0
    2.6831    0.9912   -1.2363 C   0  0  0  0  0  0  0  0  0 17  0  0
    1.9853    1.1616   -0.1181 N   0  0  0  0  0  0  0  0  0 18  0  0
 18 13  4  0
 17 18  4  0
 16 17  4  0
 15 16  4  0
 14 15  4  0
 13 14  4  0
  6 13  1  0
 12  8  4  0
 11 12  4  0
 10 11  4  0
  9 10  4  0
  8  9  4  0
  7  8  1  0
  6  7  1  0
  5  6  1  0
  4  5  1  0
  2  4  1  0
  2  3  1  0
  1  2  1  0
M  END
> <Name>
Methapyrilene

> <CAS RN>
000091-80-5

> <Log Koc>
2.87

> <VP-0>
11.7292

> <nAromBond>
11

> <MAXDP>
1.48252

> <nHBAcc>
3

> <Splitting>
2

$$$$
3,3'-Dichlorobenzidine
  SciTegic01221512053D

 16 17  0  0  0  0            999 V2000
    0.3024    1.5701    2.6508 C   0  0  0  0  0  0  0  0  0  1  0  0
    0.2295    2.1091    1.3714 C   0  0  0  0  0  0  0  0  0  2  0  0
   -0.4363    3.3113    1.1599 C   0  0  0  0  0  0  0  0  0  3  0  0
   -1.0293    3.9747    2.2279 C   0  0  0  0  0  0  0  0  0  4  0  0
   -0.9563    3.4355    3.5074 C   0  0  0  0  0  0  0  0  0  5  0  0
   -0.2906    2.2335    3.7187 C   0  0  0  0  0  0  0  0  0  6  0  0
   -0.2006    1.5647    5.3087 Cl  0  0  0  0  0  0  0  0  0  7  0  0
   -1.5513    4.1008    4.5801 N   0  0  0  0  0  0  0  0  0  8  0  0
    0.8526    1.4122    0.2491 C   0  0  0  0  0  0  0  0  0  9  0  0
    0.7798    1.9513   -1.0303 C   0  0  0  0  0  0  0  0  0 10  0  0
    1.3728    1.2879   -2.0981 C   0  0  0  0  0  0  0  0  0 11  0  0
    2.0384    0.0858   -1.8868 C   0  0  0  0  0  0  0  0  0 12  0  0
    2.1113   -0.4534   -0.6074 C   0  0  0  0  0  0  0  0  0 13  0  0
    1.5182    0.2100    0.4606 C   0  0  0  0  0  0  0  0  0 14  0  0
    2.6335   -0.5794   -2.9596 N   0  0  0  0  0  0  0  0  0 15  0  0
    1.2829    1.9568   -3.6881 Cl  0  0  0  0  0  0  0  0  0 16  0  0
 11 16  1  0
 12 15  1  0
 14  9  4  0
 13 14  4  0
 12 13  4  0
 11 12  4  0
 10 11  4  0
  9 10  4  0
  2  9  1  0
  5  8  1  0
  6  7  1  0
  6  1  4  0
  5  6  4  0
  4  5  4  0
  3  4  4  0
  2  3  4  0
  1  2  4  0
M  END
> <Name>
3,3'-Dichlorobenzidine

> <CAS RN>
000091-94-1

> <Log Koc>
4.35

> <VP-0>
9.88659

> <nAromBond>
13

> <MAXDP>
1.84977

> <nHBAcc>
2

> <Splitting>
2

$$$$
Tetracene
  SciTegic01221512053D

 18 21  0  0  0  0            999 V2000
   -1.9778   -0.0070   -1.3983 C   0  0  0  0  0  0  0  0  0  1  0  0
   -1.0013    0.5529   -0.5831 C   0  0  0  0  0  0  0  0  0  2  0  0
   -0.3123    1.6845   -1.0031 C   0  0  0  0  0  0  0  0  0  3  0  0
    0.6643    2.2444   -0.1879 C   0  0  0  0  0  0  0  0  0  4  0  0
    0.9518    1.6727    1.0471 C   0  0  0  0  0  0  0  0  0  5  0  0
    0.2628    0.5410    1.4670 C   0  0  0  0  0  0  0  0  0  6  0  0
   -0.7137   -0.0188    0.6518 C   0  0  0  0  0  0  0  0  0  7  0  0
   -1.4027   -1.1505    1.0718 C   0  0  0  0  0  0  0  0  0  8  0  0
   -2.3793   -1.7104    0.2566 C   0  0  0  0  0  0  0  0  0  9  0  0
   -2.6668   -1.1387   -0.9784 C   0  0  0  0  0  0  0  0  0 10  0  0
   -3.6436   -1.6989   -1.7934 C   0  0  0  0  0  0  0  0  0 11  0  0
   -4.3330   -2.8309   -1.3735 C   0  0  0  0  0  0  0  0  0 12  0  0
   -4.0455   -3.4024   -0.1390 C   0  0  0  0  0  0  0  0  0 13  0  0
   -3.0686   -2.8422    0.6762 C   0  0  0  0  0  0  0  0  0 14  0  0
    1.9286    2.2330    1.8621 C   0  0  0  0  0  0  0  0  0 15  0  0
    2.6180    3.3650    1.4423 C   0  0  0  0  0  0  0  0  0 16  0  0
    2.3305    3.9365    0.2077 C   0  0  0  0  0  0  0  0  0 17  0  0
    1.3536    3.3762   -0.6075 C   0  0  0  0  0  0  0  0  0 18  0  0
 18  4  4  0
 17 18  4  0
 16 17  4  0
 15 16  4  0
  5 15  4  0
 14  9  4  0
 13 14  4  0
 12 13  4  0
 11 12  4  0
 10 11  4  0
 10  1  4  0
  9 10  4  0
  8  9  4  0
  7  8  4  0
  7  2  4  0
  6  7  4  0
  5  6  4  0
  4  5  4  0
  3  4  4  0
  2  3  4  0
  1  2  4  0
M  END
> <Name>
Tetracene

> <CAS RN>
000092-24-0

> <Log Koc>
5.81

> <VP-0>
9.9282

> <nAromBond>
21

> <MAXDP>
0.274907

> <nHBAcc>
0

> <Splitting>
2

$$$$
Biphenyl
  SciTegic01221512053D

 12 13  0  0  0  0            999 V2000
    0.0932    1.4133    2.5447 C   0  0  0  0  0  0  0  0  0  1  0  0
   -0.0696    1.9221    1.2610 C   0  0  0  0  0  0  0  0  0  2  0  0
   -0.7454    3.1219    1.0691 C   0  0  0  0  0  0  0  0  0  3  0  0
   -1.2584    3.8130    2.1608 C   0  0  0  0  0  0  0  0  0  4  0  0
   -1.0956    3.3042    3.4445 C   0  0  0  0  0  0  0  0  0  5  0  0
   -0.4198    2.1044    3.6365 C   0  0  0  0  0  0  0  0  0  6  0  0
    0.4697    1.1957    0.1135 C   0  0  0  0  0  0  0  0  0  7  0  0
    0.3069    1.7044   -1.1702 C   0  0  0  0  0  0  0  0  0  8  0  0
    0.8199    1.0134   -2.2620 C   0  0  0  0  0  0  0  0  0  9  0  0
    1.4958   -0.1865   -2.0700 C   0  0  0  0  0  0  0  0  0 10  0  0
    1.6586   -0.6952   -0.7863 C   0  0  0  0  0  0  0  0  0 11  0  0
    1.1455   -0.0041    0.3054 C   0  0  0  0  0  0  0  0  0 12  0  0
 12  7  4  0
 11 12  4  0
 10 11  4  0
  9 10  4  0
  8  9  4  0
  7  8  4  0
  2  7  1  0
  6  1  4  0
  5  6  4  0
  4  5  4  0
  3  4  4  0
  2  3  4  0
  1  2  4  0
M  END
> <Name>
Biphenyl

> <CAS RN>
000092-52-4

> <Log Koc>
3.25

> <VP-0>
6.7735

> <nAromBond>
13

> <MAXDP>
0.12037

> <nHBAcc>
0

> <Splitting>
2

$$$$
Phenazine
  SciTegic01221512053D

 14 16  0  0  0  0            999 V2000
   -3.1170    3.8811    0.3399 C   0  0  0  0  0  0  0  0  0  1  0  0
   -2.6784    2.7606   -0.3563 C   0  0  0  0  0  0  0  0  0  2  0  0
   -1.4209    2.2293   -0.0944 C   0  0  0  0  0  0  0  0  0  3  0  0
   -0.6022    2.8182    0.8635 C   0  0  0  0  0  0  0  0  0  4  0  0
   -1.0408    3.9385    1.5596 C   0  0  0  0  0  0  0  0  0  5  0  0
   -2.2986    4.4699    1.2975 C   0  0  0  0  0  0  0  0  0  6  0  0
    0.5979    2.3097    1.1123 N   0  0  0  0  0  0  0  0  0  7  0  0
    1.0181    1.2402    0.4487 C   0  0  0  0  0  0  0  0  0  8  0  0
    0.1995    0.6513   -0.5091 C   0  0  0  0  0  0  0  0  0  9  0  0
   -1.0007    1.1598   -0.7580 N   0  0  0  0  0  0  0  0  0 10  0  0
    0.6381   -0.4690   -1.2053 C   0  0  0  0  0  0  0  0  0 11  0  0
    1.8958   -1.0004   -0.9432 C   0  0  0  0  0  0  0  0  0 12  0  0
    2.7142   -0.4116    0.0144 C   0  0  0  0  0  0  0  0  0 13  0  0
    2.2756    0.7089    0.7107 C   0  0  0  0  0  0  0  0  0 14  0  0
 14  8  4  0
 13 14  4  0
 12 13  4  0
 11 12  4  0
  9 11  4  0
 10  3  4  0
  9 10  4  0
  8  9  4  0
  7  8  4  0
  4  7  4  0
  6  1  4  0
  5  6  4  0
  4  5  4  0
  3  4  4  0
  2  3  4  0
  1  2  4  0
M  END
> <Name>
Phenazine

> <CAS RN>
000092-82-0

> <Log Koc>
3.37

> <VP-0>
7.51323

> <nAromBond>
16

> <MAXDP>
1.51519

> <nHBAcc>
2

> <Splitting>
2

$$$$
Benzidine
  SciTegic01221512053D

 14 15  0  0  0  0            999 V2000
   -1.2711    4.4578    2.0123 C   0  0  0  0  0  0  0  0  0  1  0  0
   -0.5208    3.5505    2.7518 C   0  0  0  0  0  0  0  0  0  2  0  0
    0.1183    2.4939    2.1133 C   0  0  0  0  0  0  0  0  0  3  0  0
    0.0069    2.3448    0.7355 C   0  0  0  0  0  0  0  0  0  4  0  0
   -0.7434    3.2521   -0.0040 C   0  0  0  0  0  0  0  0  0  5  0  0
   -1.3825    4.3088    0.6345 C   0  0  0  0  0  0  0  0  0  6  0  0
    0.6786    1.2342    0.0643 C   0  0  0  0  0  0  0  0  0  7  0  0
    0.5673    1.0851   -1.3135 C   0  0  0  0  0  0  0  0  0  8  0  0
    1.2064    0.0285   -1.9520 C   0  0  0  0  0  0  0  0  0  9  0  0
    1.9567   -0.8788   -1.2125 C   0  0  0  0  0  0  0  0  0 10  0  0
    2.0681   -0.7298    0.1653 C   0  0  0  0  0  0  0  0  0 11  0  0
    1.4290    0.3269    0.8038 C   0  0  0  0  0  0  0  0  0 12  0  0
    2.5983   -1.9396   -1.8535 N   0  0  0  0  0  0  0  0  0 13  0  0
   -1.9128    5.5186    2.6534 N   0  0  0  0  0  0  0  0  0 14  0  0
  1 14  1  0
 10 13  1  0
 12  7  4  0
 11 12  4  0
 10 11  4  0
  9 10  4  0
  8  9  4  0
  7  8  4  0
  4  7  1  0
  6  1  4  0
  5  6  4  0
  4  5  4  0
  3  4  4  0
  2  3  4  0
  1  2  4  0
M  END
> <Name>
Benzidine

> <CAS RN>
000092-87-5

> <Log Koc>
3.46

> <VP-0>
7.7735

> <nAromBond>
13

> <MAXDP>
1.60887

> <nHBAcc>
2

> <Splitting>
2

$$$$
4-Acetylbiphenyl
  SciTegic01221512053D

 15 16  0  0  0  0            999 V2000
    4.9492   -2.2618    2.3685 C   0  0  0  0  0  0  0  0  0  1  0  0
    3.8251   -1.5410    1.9816 C   0  0  0  0  0  0  0  0  0  2  0  0
    3.5391   -1.3709    0.6317 C   0  0  0  0  0  0  0  0  0  3  0  0
    4.3771   -1.9215   -0.3315 C   0  0  0  0  0  0  0  0  0  4  0  0
    5.5012   -2.6423    0.0553 C   0  0  0  0  0  0  0  0  0  5  0  0
    5.7872   -2.8124    1.4053 C   0  0  0  0  0  0  0  0  0  6  0  0
    2.3577   -0.6133    0.2251 C   0  0  0  0  0  0  0  0  0  7  0  0
    2.0717   -0.4432   -1.1247 C   0  0  0  0  0  0  0  0  0  8  0  0
    0.9478    0.2775   -1.5114 C   0  0  0  0  0  0  0  0  0  9  0  0
    0.1098    0.8282   -0.5480 C   0  0  0  0  0  0  0  0  0 10  0  0
    0.3958    0.6580    0.8017 C   0  0  0  0  0  0  0  0  0 11  0  0
    1.5198   -0.0627    1.1883 C   0  0  0  0  0  0  0  0  0 12  0  0
   -1.0738    1.5872   -0.9508 C   0  0  0  0  0  0  0  0  0 13  0  0
   -1.8149    2.0743   -0.0899 O   0  0  0  0  0  0  0  0  0 14  0  0
   -1.3902    1.7758   -2.4070 C   0  0  0  0  0  0  0  0  0 15  0  0
 13 15  1  0
 13 14  2  0
 10 13  1  0
 12  7  4  0
 11 12  4  0
 10 11  4  0
  9 10  4  0
  8  9  4  0
  7  8  4  0
  3  7  1  0
  6  1  4  0
  5  6  4  0
  4  5  4  0
  3  4  4  0
  2  3  4  0
  1  2  4  0
M  END
> <Name>
4-Acetylbiphenyl

> <CAS RN>
000092-91-1

> <Log Koc>
3.22

> <VP-0>
8.6044

> <nAromBond>
13

> <MAXDP>
4.09318

> <nHBAcc>
1

> <Splitting>
2

$$$$
2-Acetonaphthalene
  SciTegic01221512053D

 13 14  0  0  0  0            999 V2000
    4.6784   -1.7815   -0.5193 C   0  0  0  0  0  0  0  0  0  1  0  0
    5.2219   -0.8938    0.4026 C   0  0  0  0  0  0  0  0  0  2  0  0
    4.4130    0.0596    1.0106 C   0  0  0  0  0  0  0  0  0  3  0  0
    3.0604    0.1250    0.6963 C   0  0  0  0  0  0  0  0  0  4  0  0
    2.5169   -0.7630   -0.2259 C   0  0  0  0  0  0  0  0  0  5  0  0
    3.3257   -1.7162   -0.8337 C   0  0  0  0  0  0  0  0  0  6  0  0
    1.1647   -0.6976   -0.5402 C   0  0  0  0  0  0  0  0  0  7  0  0
    0.3557    0.2558    0.0677 C   0  0  0  0  0  0  0  0  0  8  0  0
    0.8990    1.1434    0.9895 C   0  0  0  0  0  0  0  0  0  9  0  0
    2.2514    1.0782    1.3040 C   0  0  0  0  0  0  0  0  0 10  0  0
   -1.0673    0.3276   -0.2603 C   0  0  0  0  0  0  0  0  0 11  0  0
   -1.7821    1.1771    0.2829 O   0  0  0  0  0  0  0  0  0 12  0  0
   -1.6614   -0.6280   -1.2553 C   0  0  0  0  0  0  0  0  0 13  0  0
 11 13  1  0
 11 12  2  0
  8 11  1  0
 10  4  4  0
  9 10  4  0
  8  9  4  0
  7  8  4  0
  5  7  4  0
  6  1  4  0
  5  6  4  0
  4  5  4  0
  3  4  4  0
  2  3  4  0
  1  2  4  0
M  END
> <Name>
2-Acetonaphthalene

> <CAS RN>
000093-08-3

> <Log Koc>
2.93

> <VP-0>
7.4497

> <nAromBond>
11

> <MAXDP>
4.08906

> <nHBAcc>
1

> <Splitting>
2

$$$$
Methyl benzoate
  SciTegic01221512053D

 10 10  0  0  0  0            999 V2000
    1.7945    2.1951    1.7430 C   0  0  0  0  0  0  0  0  0  1  0  0
    0.8106    2.4086    0.7843 C   0  0  0  0  0  0  0  0  0  2  0  0
    0.3171    1.3391    0.0458 C   0  0  0  0  0  0  0  0  0  3  0  0
   -0.7154    1.5630   -0.9602 C   0  0  0  0  0  0  0  0  0  4  0  0
   -1.1498    2.7042   -1.1540 O   0  0  0  0  0  0  0  0  0  5  0  0
   -1.2083    0.4902   -1.6989 O   0  0  0  0  0  0  0  0  0  6  0  0
   -2.2046    0.9514   -2.6158 C   0  0  0  0  0  0  0  0  0  7  0  0
    0.8066    0.0565    0.2649 C   0  0  0  0  0  0  0  0  0  8  0  0
    1.7905   -0.1568    1.2236 C   0  0  0  0  0  0  0  0  0  9  0  0
    2.2845    0.9125    1.9626 C   0  0  0  0  0  0  0  0  0 10  0  0
 10  1  4  0
  9 10  4  0
  8  9  4  0
  3  8  4  0
  6  7  1  0
  4  6  1  0
  4  5  2  0
  3  4  1  0
  2  3  4  0
  1  2  4  0
M  END
> <Name>
Methyl benzoate

> <CAS RN>
000093-58-3

> <Log Koc>
2.1

> <VP-0>
5.70325

> <nAromBond>
6

> <MAXDP>
3.7912

> <nHBAcc>
2

> <Splitting>
2

$$$$
Silvex
  SciTegic01221512053D

 15 15  0  0  0  0            999 V2000
    2.3709    3.2977    1.2144 Cl  0  0  0  0  0  0  0  0  0  1  0  0
    0.8463    3.0456    0.4429 C   0  0  0  0  0  0  0  0  0  2  0  0
    0.5317    1.7929   -0.0720 C   0  0  0  0  0  0  0  0  0  3  0  0
   -0.6984    1.5991   -0.6965 C   0  0  0  0  0  0  0  0  0  4  0  0
   -1.6061    2.6465   -0.7999 C   0  0  0  0  0  0  0  0  0  5  0  0
   -1.2873    3.8954   -0.2807 C   0  0  0  0  0  0  0  0  0  6  0  0
   -0.0602    4.0948    0.3404 C   0  0  0  0  0  0  0  0  0  7  0  0
   -2.4147    5.1980   -0.4086 Cl  0  0  0  0  0  0  0  0  0  8  0  0
   -3.1299    2.3961   -1.5737 Cl  0  0  0  0  0  0  0  0  0  9  0  0
    1.4857    0.7480    0.0480 O   0  0  0  0  0  0  0  0  0 10  0  0
    1.0390   -0.5195   -0.4862 C   0  0  0  0  0  0  0  0  0 11  0  0
    0.1570   -1.2485    0.5068 C   0  0  0  0  0  0  0  0  0 12  0  0
   -0.0660   -0.7528    1.6178 O   0  0  0  0  0  0  0  0  0 13  0  0
   -0.4019   -2.4772    0.1655 O   0  0  0  0  0  0  0  0  0 14  0  0
   -1.1907   -2.9676    1.2531 C   0  0  0  0  0  0  0  0  0 15  0  0
 14 15  1  0
 12 14  1  0
 12 13  2  0
 11 12  1  0
 10 11  1  0
  3 10  1  0
  5  9  1  0
  6  8  1  0
  7  2  4  0
  6  7  4  0
  5  6  4  0
  4  5  4  0
  3  4  4  0
  2  3  4  0
  1  2  1  0
M  END
> <Name>
Silvex

> <CAS RN>
000093-72-1

> <Log Koc>
2.52

> <VP-0>
9.98823

> <nAromBond>
6

> <MAXDP>
3.93272

> <nHBAcc>
2

> <Splitting>
2

$$$$
2,4,5-T acid
  SciTegic01221512053D

 14 14  0  0  0  0            999 V2000
    2.3901    3.2559    1.1224 Cl  0  0  0  0  0  0  0  0  0  1  0  0
    0.8412    2.9278    0.4323 C   0  0  0  0  0  0  0  0  0  2  0  0
    0.5482    1.6497   -0.0305 C   0  0  0  0  0  0  0  0  0  3  0  0
   -0.7018    1.3942   -0.5896 C   0  0  0  0  0  0  0  0  0  4  0  0
   -1.6506    2.4060   -0.6797 C   0  0  0  0  0  0  0  0  0  5  0  0
   -1.3531    3.6804   -0.2127 C   0  0  0  0  0  0  0  0  0  6  0  0
   -0.1063    3.9412    0.3430 C   0  0  0  0  0  0  0  0  0  7  0  0
   -2.5314    4.9387   -0.3243 Cl  0  0  0  0  0  0  0  0  0  8  0  0
   -3.1988    2.0795   -1.3723 Cl  0  0  0  0  0  0  0  0  0  9  0  0
    1.5439    0.6431    0.0737 O   0  0  0  0  0  0  0  0  0 10  0  0
    1.1196   -0.6553   -0.4018 C   0  0  0  0  0  0  0  0  0 11  0  0
    0.3182   -1.3882    0.6555 C   0  0  0  0  0  0  0  0  0 12  0  0
    0.1281   -0.8689    1.7614 O   0  0  0  0  0  0  0  0  0 13  0  0
   -0.2000   -2.6497    0.3828 O   0  0  0  0  0  0  0  0  0 14  0  0
 12 14  1  0
 12 13  2  0
 11 12  1  0
 10 11  1  0
  3 10  1  0
  5  9  1  0
  6  8  1  0
  7  2  4  0
  6  7  4  0
  5  6  4  0
  4  5  4  0
  3  4  4  0
  2  3  4  0
  1  2  1  0
M  END
> <Name>
2,4,5-T acid

> <CAS RN>
000093-76-5

> <Log Koc>
1.86

> <VP-0>
9.0272

> <nAromBond>
6

> <MAXDP>
3.34244

> <nHBAcc>
2

> <Splitting>
2

$$$$
Ethyl benzoate
  SciTegic01221512053D

 11 11  0  0  0  0            999 V2000
    2.2150    2.1658    1.6577 C   0  0  0  0  0  0  0  0  0  1  0  0
    1.1298    2.4094    0.8236 C   0  0  0  0  0  0  0  0  0  2  0  0
    0.4822    1.3493    0.1997 C   0  0  0  0  0  0  0  0  0  3  0  0
   -0.6563    1.6045   -0.6753 C   0  0  0  0  0  0  0  0  0  4  0  0
   -1.0305    2.7688   -0.8618 O   0  0  0  0  0  0  0  0  0  5  0  0
   -1.2956    0.5238   -1.3085 O   0  0  0  0  0  0  0  0  0  6  0  0
   -2.4085    0.9475   -2.1202 C   0  0  0  0  0  0  0  0  0  7  0  0
   -3.6064    1.3703   -1.2339 C   0  0  0  0  0  0  0  0  0  8  0  0
    0.9183    0.0460    0.4088 C   0  0  0  0  0  0  0  0  0  9  0  0
    2.0035   -0.1974    1.2430 C   0  0  0  0  0  0  0  0  0 10  0  0
    2.6518    0.8624    1.8674 C   0  0  0  0  0  0  0  0  0 11  0  0
 11  1  4  0
 10 11  4  0
  9 10  4  0
  3  9  4  0
  7  8  1  0
  6  7  1  0
  4  6  1  0
  4  5  2  0
  3  4  1  0
  2  3  4  0
  1  2  4  0
M  END
> <Name>
Ethyl benzoate

> <CAS RN>
000093-89-0

> <Log Koc>
2.3

> <VP-0>
6.41035

> <nAromBond>
6

> <MAXDP>
4.02245

> <nHBAcc>
2

> <Splitting>
2

$$$$
Phenyl Benzoate
  SciTegic01221512053D

 15 16  0  0  0  0            999 V2000
    1.5307    6.0339    2.8477 C   0  0  0  0  0  0  0  0  0  1  0  0
    2.4075    5.0133    3.1939 C   0  0  0  0  0  0  0  0  0  2  0  0
    2.2939    3.7646    2.5931 C   0  0  0  0  0  0  0  0  0  3  0  0
    1.3073    3.5205    1.6430 C   0  0  0  0  0  0  0  0  0  4  0  0
    0.4332    4.5499    1.3026 C   0  0  0  0  0  0  0  0  0  5  0  0
    0.5420    5.8005    1.9000 C   0  0  0  0  0  0  0  0  0  6  0  0
    1.2503    2.2088    1.0650 O   0  0  0  0  0  0  0  0  0  7  0  0
    0.2498    1.9166    0.0842 C   0  0  0  0  0  0  0  0  0  8  0  0
   -0.5866    2.7392   -0.3042 O   0  0  0  0  0  0  0  0  0  9  0  0
    0.2172    0.5761   -0.4871 C   0  0  0  0  0  0  0  0  0 10  0  0
   -0.7385    0.2513   -1.4429 C   0  0  0  0  0  0  0  0  0 11  0  0
   -0.7686   -1.0275   -1.9877 C   0  0  0  0  0  0  0  0  0 12  0  0
    0.1568   -1.9803   -1.5763 C   0  0  0  0  0  0  0  0  0 13  0  0
    1.1124   -1.6546   -0.6202 C   0  0  0  0  0  0  0  0  0 14  0  0
    1.1427   -0.3760   -0.0753 C   0  0  0  0  0  0  0  0  0 15  0  0
 15 10  4  0
 14 15  4  0
 13 14  4  0
 12 13  4  0
 11 12  4  0
 10 11  4  0
  8 10  1  0
  8  9  2  0
  7  8  1  0
  4  7  1  0
  6  1  4  0
  5  6  4  0
  4  5  4  0
  3  4  4  0
  2  3  4  0
  1  2  4  0
M  END
> <Name>
Phenyl Benzoate

> <CAS RN>
000093-99-2

> <Log Koc>
3.16

> <VP-0>
8.09

> <nAromBond>
12

> <MAXDP>
4.59186

> <nHBAcc>
1

> <Splitting>
2

$$$$
Ethyl 4-methylbenzoate
  SciTegic01221512053D

 12 12  0  0  0  0            999 V2000
    5.2224   -0.3095    0.3131 C   0  0  0  0  0  0  0  0  0  1  0  0
    3.7271   -0.1894    0.2726 C   0  0  0  0  0  0  0  0  0  2  0  0
    2.9446   -1.3197    0.0643 C   0  0  0  0  0  0  0  0  0  3  0  0
    1.5594   -1.2085    0.0267 C   0  0  0  0  0  0  0  0  0  4  0  0
    0.9579    0.0331    0.1975 C   0  0  0  0  0  0  0  0  0  5  0  0
    1.7397    1.1635    0.4058 C   0  0  0  0  0  0  0  0  0  6  0  0
    3.1249    1.0522    0.4433 C   0  0  0  0  0  0  0  0  0  7  0  0
   -0.4951    0.1496    0.1580 C   0  0  0  0  0  0  0  0  0  8  0  0
   -1.0207    1.2578    0.3202 O   0  0  0  0  0  0  0  0  0  9  0  0
   -1.2745   -1.0035   -0.0430 O   0  0  0  0  0  0  0  0  0 10  0  0
   -2.6852   -0.7105   -0.0732 C   0  0  0  0  0  0  0  0  0 11  0  0
   -3.0713   -0.0005   -1.3946 C   0  0  0  0  0  0  0  0  0 12  0  0
 11 12  1  0
 10 11  1  0
  8 10  1  0
  8  9  2  0
  5  8  1  0
  7  2  4  0
  6  7  4  0
  5  6  4  0
  4  5  4  0
  3  4  4  0
  2  3  4  0
  1  2  1  0
M  END
> <Name>
Ethyl 4-methylbenzoate

> <CAS RN>
000094-08-6

> <Log Koc>
2.59

> <VP-0>
7.333

> <nAromBond>
6

> <MAXDP>
4.13375

> <nHBAcc>
2

> <Splitting>
2

$$$$
Safrole
  SciTegic01221512053D

 12 13  0  0  0  0            999 V2000
    0.5328    1.7954    1.1825 C   0  0  0  0  0  0  0  0  0  1  0  0
    0.5411    1.2862   -0.1161 C   0  0  0  0  0  0  0  0  0  2  0  0
    1.6816    1.4953   -0.8756 C   0  0  0  0  0  0  0  0  0  3  0  0
    2.7628    2.1728   -0.3824 C   0  0  0  0  0  0  0  0  0  4  0  0
    2.7773    2.6875    0.9043 C   0  0  0  0  0  0  0  0  0  5  0  0
    1.6391    2.4875    1.6843 C   0  0  0  0  0  0  0  0  0  6  0  0
    3.7186    2.2334   -1.3090 O   0  0  0  0  0  0  0  0  0  7  0  0
    3.2544    1.5533   -2.5061 C   0  0  0  0  0  0  0  0  0  8  0  0
    1.9238    1.1089   -2.1276 O   0  0  0  0  0  0  0  0  0  9  0  0
   -0.6758    1.6010    2.0561 C   0  0  0  0  0  0  0  0  0 10  0  0
   -1.7311    0.8352    1.3100 C   0  0  0  0  0  0  0  0  0 11  0  0
   -2.8897    0.5515    1.9007 C   0  0  0  0  0  0  0  0  0 12  0  0
 11 12  2  0
 10 11  1  0
  1 10  1  0
  9  3  1  0
  8  9  1  0
  7  8  1  0
  4  7  1  0
  6  1  4  0
  5  6  4  0
  4  5  4  0
  3  4  4  0
  2  3  4  0
  1  2  4  0
M  END
> <Name>
Safrole

> <CAS RN>
000094-59-7

> <Log Koc>
2.83

> <VP-0>
6.74722

> <nAromBond>
6

> <MAXDP>
1.72891

> <nHBAcc>
0

> <Splitting>
2

$$$$
MCPA
  SciTegic01221512053D

 13 13  0  0  0  0            999 V2000
    0.8440    3.0901   -0.0371 C   0  0  0  0  0  0  0  0  0  1  0  0
    0.5323    1.7820    0.3174 C   0  0  0  0  0  0  0  0  0  2  0  0
   -0.7615    1.4758    0.7336 C   0  0  0  0  0  0  0  0  0  3  0  0
   -1.7349    2.4667    0.7895 C   0  0  0  0  0  0  0  0  0  4  0  0
   -1.4178    3.7713    0.4309 C   0  0  0  0  0  0  0  0  0  5  0  0
   -0.1278    4.0827    0.0183 C   0  0  0  0  0  0  0  0  0  6  0  0
   -2.6252    5.0051    0.4994 Cl  0  0  0  0  0  0  0  0  0  7  0  0
    1.5529    0.7963    0.2529 O   0  0  0  0  0  0  0  0  0  8  0  0
    1.1089   -0.5350    0.6052 C   0  0  0  0  0  0  0  0  0  9  0  0
    0.4317   -1.2115   -0.5697 C   0  0  0  0  0  0  0  0  0 10  0  0
    0.3430   -0.6271   -1.6557 O   0  0  0  0  0  0  0  0  0 11  0  0
   -0.0860   -2.4945   -0.4275 O   0  0  0  0  0  0  0  0  0 12  0  0
    2.2357    3.4316   -0.4825 C   0  0  0  0  0  0  0  0  0 13  0  0
  1 13  1  0
 10 12  1  0
 10 11  2  0
  9 10  1  0
  8  9  1  0
  2  8  1  0
  5  7  1  0
  6  1  4  0
  5  6  4  0
  4  5  4  0
  3  4  4  0
  2  3  4  0
  1  2  4  0
M  END
> <Name>
MCPA

> <CAS RN>
000094-74-6

> <Log Koc>
1.73

> <VP-0>
7.83676

> <nAromBond>
6

> <MAXDP>
3.23394

> <nHBAcc>
2

> <Splitting>
2

$$$$
2,4-D acid
  SciTegic01221512053D

 13 13  0  0  0  0            999 V2000
   -1.0389    4.9098    1.8663 O   0  0  0  0  0  0  0  0  0  1  0  0
   -1.1186    3.7912    1.3467 C   0  0  0  0  0  0  0  0  0  2  0  0
   -0.8231    2.5529    2.1698 C   0  0  0  0  0  0  0  0  0  3  0  0
   -0.9475    1.3539    1.3707 O   0  0  0  0  0  0  0  0  0  4  0  0
    0.1999    1.0607    0.5875 C   0  0  0  0  0  0  0  0  0  5  0  0
    1.3481    1.8479    0.6393 C   0  0  0  0  0  0  0  0  0  6  0  0
    2.4549    1.5277   -0.1385 C   0  0  0  0  0  0  0  0  0  7  0  0
    2.4194    0.4157   -0.9713 C   0  0  0  0  0  0  0  0  0  8  0  0
    1.2775   -0.3747   -1.0239 C   0  0  0  0  0  0  0  0  0  9  0  0
    0.1717   -0.0524   -0.2453 C   0  0  0  0  0  0  0  0  0 10  0  0
   -1.2452   -1.0378   -0.3126 Cl  0  0  0  0  0  0  0  0  0 11  0  0
    3.7936    0.0155   -1.9389 Cl  0  0  0  0  0  0  0  0  0 12  0  0
   -1.4883    3.6713    0.0097 O   0  0  0  0  0  0  0  0  0 13  0  0
  2 13  1  0
  8 12  1  0
 10 11  1  0
 10  5  4  0
  9 10  4  0
  8  9  4  0
  7  8  4  0
  6  7  4  0
  5  6  4  0
  4  5  1  0
  3  4  1  0
  2  3  1  0
  1  2  2  0
M  END
> <Name>
2,4-D acid

> <CAS RN>
000094-75-7

> <Log Koc>
1.48

> <VP-0>
7.97065

> <nAromBond>
6

> <MAXDP>
3.24729

> <nHBAcc>
2

> <Splitting>
2

$$$$
1H-Benzotriazole
  SciTegic01221512053D

 10 11  0  0  0  0            999 V2000
   -1.1029    2.9933    0.8137 C   0  0  0  0  0  0  0  0  0  1  0  0
   -1.0204    1.6305    1.1024 C   0  0  0  0  0  0  0  0  0  2  0  0
   -0.0788    0.9107    0.3869 C   0  0  0  0  0  0  0  0  0  3  0  0
    0.7303    1.4785   -0.5485 C   0  0  0  0  0  0  0  0  0  4  0  0
    0.6680    2.8282   -0.8530 C   0  0  0  0  0  0  0  0  0  5  0  0
   -0.2721    3.5819   -0.1482 C   0  0  0  0  0  0  0  0  0  6  0  0
    1.5027    0.5181   -1.0354 N   0  0  0  0  0  0  0  0  0  7  0  0
    1.1837   -0.5677   -0.4335 N   0  0  0  0  0  0  0  0  0  8  0  0
    0.2504   -0.3639    0.4133 N   0  0  0  0  0  0  0  0  0  9  0  0
   -0.1611   -1.0546    0.9977 H   0  0  0  0  0  0  0  0  0 10  0  0
  9  3  4  0
  9 10  1  0
  8  9  4  0
  7  8  4  0
  4  7  4  0
  6  1  4  0
  5  6  4  0
  4  5  4  0
  3  4  4  0
  2  3  4  0
  1  2  4  0
M  END
> <Name>
1H-Benzotriazole

> <CAS RN>
000095-14-7

> <Log Koc>
1.69

> <VP-0>
4.70383

> <nAromBond>
10

> <MAXDP>
0.813148

> <nHBAcc>
3

> <Splitting>
2

$$$$
Benzo[b]thiophene
  SciTegic01221512053D

  9 10  0  0  0  0            999 V2000
   -1.1763    2.9995    0.8367 C   0  0  0  0  0  0  0  0  0  1  0  0
   -0.9118    1.7000    1.2686 C   0  0  0  0  0  0  0  0  0  2  0  0
    0.0399    0.9669    0.5751 C   0  0  0  0  0  0  0  0  0  3  0  0
    0.6962    1.5185   -0.5058 C   0  0  0  0  0  0  0  0  0  4  0  0
    0.4505    2.8068   -0.9532 C   0  0  0  0  0  0  0  0  0  5  0  0
   -0.5048    3.5474   -0.2598 C   0  0  0  0  0  0  0  0  0  6  0  0
    1.7320    0.4183   -1.0882 S   0  0  0  0  0  0  0  0  0  7  0  0
    1.4243   -0.7915   -0.0393 C   0  0  0  0  0  0  0  0  0  8  0  0
    0.4411   -0.3455    0.8547 C   0  0  0  0  0  0  0  0  0  9  0  0
  9  3  4  0
  8  9  4  0
  7  8  4  0
  4  7  4  0
  6  1  4  0
  5  6  4  0
  4  5  4  0
  3  4  4  0
  2  3  4  0
  1  2  4  0
M  END
> <Name>
Benzo[b]thiophene

> <CAS RN>
000095-15-8

> <Log Koc>
3.49

> <VP-0>
5.68885

> <nAromBond>
10

> <MAXDP>
0.412037

> <nHBAcc>
0

> <Splitting>
2

$$$$
1,2-Dimethylbenzene
  SciTegic01221512053D

  8  8  0  0  0  0            999 V2000
   -1.8690    1.2678    0.9573 C   0  0  0  0  0  0  0  0  0  1  0  0
   -0.4794    1.1234    0.4011 C   0  0  0  0  0  0  0  0  0  2  0  0
    0.2823    2.2582    0.1455 C   0  0  0  0  0  0  0  0  0  3  0  0
    1.5679    2.1332   -0.3688 C   0  0  0  0  0  0  0  0  0  4  0  0
    2.0929    0.8723   -0.6279 C   0  0  0  0  0  0  0  0  0  5  0  0
    1.3320   -0.2630   -0.3726 C   0  0  0  0  0  0  0  0  0  6  0  0
    0.0461   -0.1389    0.1417 C   0  0  0  0  0  0  0  0  0  7  0  0
   -0.7698   -1.3721    0.4148 C   0  0  0  0  0  0  0  0  0  8  0  0
  7  8  1  0
  7  2  4  0
  6  7  4  0
  5  6  4  0
  4  5  4  0
  3  4  4  0
  2  3  4  0
  1  2  1  0
M  END
> <Name>
1,2-Dimethylbenzene

> <CAS RN>
000095-47-6

> <Log Koc>
2.38

> <VP-0>
5.3094

> <nAromBond>
6

> <MAXDP>
0.12037

> <nHBAcc>
0

> <Splitting>
2

$$$$
o-cresol
  SciTegic01221512053D

  8  8  0  0  0  0            999 V2000
   -1.0431    0.9643   -0.0009 C   0  0  0  0  0  0  0  0  0  1  0  0
   -0.3470    2.1680   -0.0005 C   0  0  0  0  0  0  0  0  0  2  0  0
    1.0434    2.1669   -0.0001 C   0  0  0  0  0  0  0  0  0  3  0  0
    1.7375    0.9622    0.0000 C   0  0  0  0  0  0  0  0  0  4  0  0
    1.0414   -0.2413   -0.0004 C   0  0  0  0  0  0  0  0  0  5  0  0
   -0.3490   -0.2405   -0.0009 C   0  0  0  0  0  0  0  0  0  6  0  0
    1.7910   -1.5414   -0.0004 C   0  0  0  0  0  0  0  0  0  7  0  0
    3.1282    0.9607    0.0004 O   0  0  0  0  0  0  0  0  0  8  0  0
  4  8  1  0
  5  7  1  0
  6  1  4  0
  5  6  4  0
  4  5  4  0
  3  4  4  0
  2  3  4  0
  1  2  4  0
M  END
> <Name>
o-cresol

> <CAS RN>
000095-48-7

> <Log Koc>
1.34

> <VP-0>
4.75661

> <nAromBond>
6

> <MAXDP>
2.91926

> <nHBAcc>
0

> <Splitting>
2

$$$$
2-Chlorotoluene
  SciTegic01221512053D

  8  8  0  0  0  0            999 V2000
   -1.0858    0.7717   -0.0005 C   0  0  0  0  0  0  0  0  0  1  0  0
   -0.3889    1.9748   -0.0002 C   0  0  0  0  0  0  0  0  0  2  0  0
    1.0014    1.9725   -0.0004 C   0  0  0  0  0  0  0  0  0  3  0  0
    1.6948    0.7674   -0.0009 C   0  0  0  0  0  0  0  0  0  4  0  0
    0.9979   -0.4357   -0.0012 C   0  0  0  0  0  0  0  0  0  5  0  0
   -0.3925   -0.4336   -0.0010 C   0  0  0  0  0  0  0  0  0  6  0  0
    3.4226    0.7648   -0.0012 Cl  0  0  0  0  0  0  0  0  0  7  0  0
    1.7539    3.2711   -0.0001 C   0  0  0  0  0  0  0  0  0  8  0  0
  3  8  1  0
  4  7  1  0
  6  1  4  0
  5  6  4  0
  4  5  4  0
  3  4  4  0
  2  3  4  0
  1  2  4  0
M  END
> <Name>
2-Chlorotoluene

> <CAS RN>
000095-49-8

> <Log Koc>
2.55

> <VP-0>
5.44329

> <nAromBond>
6

> <MAXDP>
0.193073

> <nHBAcc>
0

> <Splitting>
2

$$$$
1,2-Dichlorobenzene
  SciTegic01221512053D

  8  8  0  0  0  0            999 V2000
   -1.0998    0.7441    0.0001 C   0  0  0  0  0  0  0  0  0  1  0  0
   -0.4050    1.9485    0.0001 C   0  0  0  0  0  0  0  0  0  2  0  0
    0.9854    1.9484    0.0001 C   0  0  0  0  0  0  0  0  0  3  0  0
    1.6807    0.7445    0.0002 C   0  0  0  0  0  0  0  0  0  4  0  0
    0.9861   -0.4599    0.0002 C   0  0  0  0  0  0  0  0  0  5  0  0
   -0.4043   -0.4599    0.0002 C   0  0  0  0  0  0  0  0  0  6  0  0
    3.4083    0.7460    0.0002 Cl  0  0  0  0  0  0  0  0  0  7  0  0
    1.8498    3.4442    0.0001 Cl  0  0  0  0  0  0  0  0  0  8  0  0
  3  8  1  0
  4  7  1  0
  6  1  4  0
  5  6  4  0
  4  5  4  0
  3  4  4  0
  2  3  4  0
  1  2  4  0
M  END
> <Name>
1,2-Dichlorobenzene

> <CAS RN>
000095-50-1

> <Log Koc>
2.51

> <VP-0>
5.57719

> <nAromBond>
6

> <MAXDP>
0.233968

> <nHBAcc>
0

> <Splitting>
2

$$$$
2-Chlorophenol
  SciTegic01221512053D

  8  8  0  0  0  0            999 V2000
   -1.0575    0.7406    0.0004 C   0  0  0  0  0  0  0  0  0  1  0  0
   -0.3651    1.9463    0.0005 C   0  0  0  0  0  0  0  0  0  2  0  0
    1.0252    1.9491    0.0007 C   0  0  0  0  0  0  0  0  0  3  0  0
    1.7231    0.7467    0.0007 C   0  0  0  0  0  0  0  0  0  4  0  0
    1.0309   -0.4591    0.0006 C   0  0  0  0  0  0  0  0  0  5  0  0
   -0.3595   -0.4621    0.0004 C   0  0  0  0  0  0  0  0  0  6  0  0
    3.1137    0.7505    0.0009 O   0  0  0  0  0  0  0  0  0  7  0  0
    1.8865    3.4467    0.0008 Cl  0  0  0  0  0  0  0  0  0  8  0  0
  3  8  1  0
  4  7  1  0
  6  1  4  0
  5  6  4  0
  4  5  4  0
  3  4  4  0
  2  3  4  0
  1  2  4  0
M  END
> <Name>
2-Chlorophenol

> <CAS RN>
000095-57-8

> <Log Koc>
2.16

> <VP-0>
4.89051

> <nAromBond>
6

> <MAXDP>
2.96015

> <nHBAcc>
0

> <Splitting>
2

$$$$
1,3,4-Trimethylbenzene
  SciTegic01221512053D

  9  9  0  0  0  0            999 V2000
   -0.9402    0.7802   -0.0004 C   0  0  0  0  0  0  0  0  0  1  0  0
   -0.2463    1.9852   -0.0008 C   0  0  0  0  0  0  0  0  0  2  0  0
    1.1454    1.9854   -0.0005 C   0  0  0  0  0  0  0  0  0  3  0  0
    1.8396    0.7807    0.0002 C   0  0  0  0  0  0  0  0  0  4  0  0
    1.1448   -0.4234    0.0006 C   0  0  0  0  0  0  0  0  0  5  0  0
   -0.2454   -0.4239    0.0003 C   0  0  0  0  0  0  0  0  0  6  0  0
    1.8956   -1.7223    0.0014 C   0  0  0  0  0  0  0  0  0  7  0  0
    1.9047    3.2829   -0.0009 C   0  0  0  0  0  0  0  0  0  8  0  0
   -1.0058    3.2827   -0.0015 C   0  0  0  0  0  0  0  0  0  9  0  0
  2  9  1  0
  3  8  1  0
  5  7  1  0
  6  1  4  0
  5  6  4  0
  4  5  4  0
  3  4  4  0
  2  3  4  0
  1  2  4  0
M  END
> <Name>
1,3,4-Trimethylbenzene

> <CAS RN>
000095-63-6

> <Log Koc>
3.6

> <VP-0>
6.23205

> <nAromBond>
6

> <MAXDP>
0.203704

> <nHBAcc>
0

> <Splitting>
2

$$$$
3,4-Dichloroaniline
  SciTegic01221512053D

  9  9  0  0  0  0            999 V2000
   -2.1175    2.0279   -0.0470 Cl  0  0  0  0  0  0  0  0  0  1  0  0
   -0.5251    1.3640    0.0407 C   0  0  0  0  0  0  0  0  0  2  0  0
    0.4989    2.0893    0.6392 C   0  0  0  0  0  0  0  0  0  3  0  0
    1.7801    1.5540    0.7093 C   0  0  0  0  0  0  0  0  0  4  0  0
    2.8083    2.2819    1.3100 N   0  0  0  0  0  0  0  0  0  5  0  0
    2.0374    0.2938    0.1810 C   0  0  0  0  0  0  0  0  0  6  0  0
    1.0133   -0.4314   -0.4174 C   0  0  0  0  0  0  0  0  0  7  0  0
   -0.2679    0.1040   -0.4874 C   0  0  0  0  0  0  0  0  0  8  0  0
   -1.5413   -0.7962   -1.2308 Cl  0  0  0  0  0  0  0  0  0  9  0  0
  8  9  1  0
  8  2  4  0
  7  8  4  0
  6  7  4  0
  4  6  4  0
  4  5  1  0
  3  4  4  0
  2  3  4  0
  1  2  1  0
M  END
> <Name>
3,4-Dichloroaniline

> <CAS RN>
000095-76-1

> <Log Koc>
2.29

> <VP-0>
6.07719

> <nAromBond>
6

> <MAXDP>
1.57185

> <nHBAcc>
1

> <Splitting>
2

$$$$
3,4-Dichlorophenol
  SciTegic01221512053D

  9  9  0  0  0  0            999 V2000
   -0.9898    0.9703    0.0015 C   0  0  0  0  0  0  0  0  0  1  0  0
   -0.2970    2.1758    0.0008 C   0  0  0  0  0  0  0  0  0  2  0  0
    1.0934    2.1785   -0.0001 C   0  0  0  0  0  0  0  0  0  3  0  0
    1.7903    0.9754   -0.0003 C   0  0  0  0  0  0  0  0  0  4  0  0
    1.0974   -0.2298    0.0005 C   0  0  0  0  0  0  0  0  0  5  0  0
   -0.2929   -0.2327    0.0014 C   0  0  0  0  0  0  0  0  0  6  0  0
    1.9648   -1.7238    0.0003 Cl  0  0  0  0  0  0  0  0  0  7  0  0
    3.5179    0.9774   -0.0014 Cl  0  0  0  0  0  0  0  0  0  8  0  0
   -2.3805    0.9679    0.0024 O   0  0  0  0  0  0  0  0  0  9  0  0
  1  9  1  0
  4  8  1  0
  5  7  1  0
  6  1  4  0
  5  6  4  0
  4  5  4  0
  3  4  4  0
  2  3  4  0
  1  2  4  0
M  END
> <Name>
3,4-Dichlorophenol

> <CAS RN>
000095-77-2

> <Log Koc>
3.09

> <VP-0>
5.94705

> <nAromBond>
6

> <MAXDP>
2.98185

> <nHBAcc>
0

> <Splitting>
2

$$$$
1,2,4,5-Tetramethylbenzene
  SciTegic01221512053D

 10 10  0  0  0  0            999 V2000
   -0.8911    0.8656   -0.0001 C   0  0  0  0  0  0  0  0  0  1  0  0
   -0.1953    2.0691    0.0001 C   0  0  0  0  0  0  0  0  0  2  0  0
    1.1949    2.0718    0.0000 C   0  0  0  0  0  0  0  0  0  3  0  0
    1.8914    0.8672   -0.0002 C   0  0  0  0  0  0  0  0  0  4  0  0
    1.1956   -0.3363   -0.0004 C   0  0  0  0  0  0  0  0  0  5  0  0
   -0.1946   -0.3390   -0.0003 C   0  0  0  0  0  0  0  0  0  6  0  0
   -0.9374   -1.6459   -0.0005 C   0  0  0  0  0  0  0  0  0  7  0  0
    3.3947    0.8589   -0.0003 C   0  0  0  0  0  0  0  0  0  8  0  0
    1.9377    3.3787    0.0002 C   0  0  0  0  0  0  0  0  0  9  0  0
   -2.3943    0.8739    0.0000 C   0  0  0  0  0  0  0  0  0 10  0  0
  1 10  1  0
  3  9  1  0
  4  8  1  0
  6  7  1  0
  6  1  4  0
  5  6  4  0
  4  5  4  0
  3  4  4  0
  2  3  4  0
  1  2  4  0
M  END
> <Name>
1,2,4,5-Tetramethylbenzene

> <CAS RN>
000095-93-2

> <Log Koc>
3.12

> <VP-0>
7.1547

> <nAromBond>
6

> <MAXDP>
0.240741

> <nHBAcc>
0

> <Splitting>
2

$$$$
1,2,4,5-Tetrachlorobenzene
  SciTegic01221512053D

 10 10  0  0  0  0            999 V2000
   -0.8910    0.8656    0.0004 C   0  0  0  0  0  0  0  0  0  1  0  0
   -0.1968    2.0701    0.0005 C   0  0  0  0  0  0  0  0  0  2  0  0
    1.1935    2.0701    0.0004 C   0  0  0  0  0  0  0  0  0  3  0  0
    1.8891    0.8664    0.0002 C   0  0  0  0  0  0  0  0  0  4  0  0
    1.1948   -0.3381    0.0001 C   0  0  0  0  0  0  0  0  0  5  0  0
   -0.1955   -0.3381    0.0002 C   0  0  0  0  0  0  0  0  0  6  0  0
   -1.0597   -1.8340    0.0001 Cl  0  0  0  0  0  0  0  0  0  7  0  0
    3.6166    0.8681    0.0001 Cl  0  0  0  0  0  0  0  0  0  8  0  0
    2.0577    3.5660    0.0005 Cl  0  0  0  0  0  0  0  0  0  9  0  0
   -2.6186    0.8639    0.0005 Cl  0  0  0  0  0  0  0  0  0 10  0  0
  1 10  1  0
  3  9  1  0
  4  8  1  0
  6  7  1  0
  6  1  4  0
  5  6  4  0
  4  5  4  0
  3  4  4  0
  2  3  4  0
  1  2  4  0
M  END
> <Name>
1,2,4,5-Tetrachlorobenzene

> <CAS RN>
000095-94-3

> <Log Koc>
3.2

> <VP-0>
7.69027

> <nAromBond>
6

> <MAXDP>
0.467936

> <nHBAcc>
0

> <Splitting>
2

$$$$
2,4,5-Trichlorophenol
  SciTegic01221512053D

 10 10  0  0  0  0            999 V2000
    0.2211    1.4597    1.1022 C   0  0  0  0  0  0  0  0  0  1  0  0
    0.7840    2.2718    0.1242 C   0  0  0  0  0  0  0  0  0  2  0  0
    1.3757    1.7018   -0.9973 C   0  0  0  0  0  0  0  0  0  3  0  0
    1.9384    2.5150   -1.9749 O   0  0  0  0  0  0  0  0  0  4  0  0
    1.4050    0.3193   -1.1415 C   0  0  0  0  0  0  0  0  0  5  0  0
    0.8421   -0.4927   -0.1635 C   0  0  0  0  0  0  0  0  0  6  0  0
    0.2504    0.0773    0.9580 C   0  0  0  0  0  0  0  0  0  7  0  0
   -0.4486   -0.9332    2.1724 Cl  0  0  0  0  0  0  0  0  0  8  0  0
    0.8776   -2.2108   -0.3411 Cl  0  0  0  0  0  0  0  0  0  9  0  0
    0.7484    3.9898    0.3019 Cl  0  0  0  0  0  0  0  0  0 10  0  0
  2 10  1  0
  6  9  1  0
  7  8  1  0
  7  1  4  0
  6  7  4  0
  5  6  4  0
  3  5  4  0
  3  4  1  0
  2  3  4  0
  1  2  4  0
M  END
> <Name>
2,4,5-Trichlorophenol

> <CAS RN>
000095-95-4

> <Log Koc>
2.96

> <VP-0>
7.00359

> <nAromBond>
6

> <MAXDP>
3.30978

> <nHBAcc>
0

> <Splitting>
1

$$$$
1,2-Dibromo-3-chloropropane
  SciTegic01221512053D

  7  6  0  0  0  0            999 V2000
   -0.1652    0.0527   -0.2270 C   0  0  2  0  0  0  0  0  0  1  0  0
    0.8763   -0.1776    0.0411 H   0  0  0  0  0  0  0  0  0  2  0  0
   -0.3674    1.5784   -0.2335 C   0  0  0  0  0  0  0  0  0  3  0  0
    0.8285    2.3805   -1.5323 Br  0  0  0  0  0  0  0  0  0  4  0  0
   -1.1135   -0.5857    0.8035 C   0  0  0  0  0  0  0  0  0  5  0  0
   -0.7599    0.0635    2.4078 Cl  0  0  0  0  0  0  0  0  0  6  0  0
   -0.5513   -0.6575   -1.9902 Br  0  0  0  0  0  0  0  0  0  7  0  0
  1  7  1  0
  5  6  1  0
  1  5  1  0
  3  4  1  0
  1  3  1  0
  1  2  1  0
M  END
> <Name>
1,2-Dibromo-3-chloropropane

> <CAS RN>
000096-12-8

> <Log Koc>
1.98

> <VP-0>
7.05338

> <nAromBond>
0

> <MAXDP>
0.208462

> <nHBAcc>
0

> <Splitting>
1

$$$$
3-Trifluoromethylaniline
  SciTegic01221512053D

 11 11  0  0  0  0            999 V2000
   -1.2110    0.9291    0.0003 C   0  0  0  0  0  0  0  0  0  1  0  0
   -0.5106    2.1301    0.0004 C   0  0  0  0  0  0  0  0  0  2  0  0
    0.8796    2.1238    0.0000 C   0  0  0  0  0  0  0  0  0  3  0  0
    1.5684    0.9164   -0.0003 C   0  0  0  0  0  0  0  0  0  4  0  0
    0.8689   -0.2848   -0.0004 C   0  0  0  0  0  0  0  0  0  5  0  0
   -0.5212   -0.2782    0.0000 C   0  0  0  0  0  0  0  0  0  6  0  0
   -1.2244   -1.4836   -0.0001 N   0  0  0  0  0  0  0  0  0  7  0  0
    3.0656    0.9104   -0.0007 C   0  0  0  0  0  0  0  0  0  8  0  0
    3.5531   -0.3801   -0.0009 F   0  0  0  0  0  0  0  0  0  9  0  0
    3.5114    1.6058    1.1036 F   0  0  0  0  0  0  0  0  0 10  0  0
    3.5108    1.6058   -1.1053 F   0  0  0  0  0  0  0  0  0 11  0  0
  8 11  1  0
  8 10  1  0
  8  9  1  0
  4  8  1  0
  6  7  1  0
  6  1  4  0
  5  6  4  0
  4  5  4  0
  3  4  4  0
  2  3  4  0
  1  2  4  0
M  END
> <Name>
3-Trifluoromethylaniline

> <CAS RN>
000098-16-8

> <Log Koc>
2.36

> <VP-0>
5.52064

> <nAromBond>
6

> <MAXDP>
3.91231

> <nHBAcc>
1

> <Splitting>
2

$$$$
alpha-Methylbenzyl alcohol
  SciTegic01221512053D

 10 10  0  0  0  0            999 V2000
   -2.4834    1.5960   -0.0517 C   0  0  0  0  0  0  0  0  0  1  0  0
   -1.1018    1.4438   -0.0865 C   0  0  0  0  0  0  0  0  0  2  0  0
   -0.2802    2.5614   -0.1780 C   0  0  0  0  0  0  0  0  0  3  0  0
   -0.8407    3.8324   -0.2342 C   0  0  0  0  0  0  0  0  0  4  0  0
   -2.2223    3.9853   -0.1989 C   0  0  0  0  0  0  0  0  0  5  0  0
   -3.0437    2.8672   -0.1077 C   0  0  0  0  0  0  0  0  0  6  0  0
   -0.4960    0.0742   -0.0270 C   0  0  1  0  0  0  0  0  0  7  0  0
    0.6012    0.1296   -0.0702 H   0  0  0  0  0  0  0  0  0  8  0  0
   -0.9597   -0.6204    1.2670 C   0  0  0  0  0  0  0  0  0  9  0  0
   -1.0114   -0.7028   -1.1100 O   0  0  0  0  0  0  0  0  0 10  0  0
  7 10  1  0
  7  9  1  0
  7  8  1  0
  2  7  1  0
  6  1  4  0
  5  6  4  0
  4  5  4  0
  3  4  4  0
  2  3  4  0
  1  2  4  0
M  END
> <Name>
alpha-Methylbenzyl alcohol

> <CAS RN>
000098-85-1

> <Log Koc>
1.5

> <VP-0>
5.41132

> <nAromBond>
6

> <MAXDP>
3.0237

> <nHBAcc>
1

> <Splitting>
2

$$$$
Acetophenone
  SciTegic01221512053D

  9  9  0  0  0  0            999 V2000
   -1.1566    0.9027    2.7229 C   0  0  0  0  0  0  0  0  0  1  0  0
   -0.8832    1.7432    1.5083 C   0  0  0  0  0  0  0  0  0  2  0  0
   -1.4613    2.8260    1.3641 O   0  0  0  0  0  0  0  0  0  3  0  0
    0.0660    1.2835    0.4947 C   0  0  0  0  0  0  0  0  0  4  0  0
    0.3137    2.0670   -0.6267 C   0  0  0  0  0  0  0  0  0  5  0  0
    1.2152    1.6335   -1.5921 C   0  0  0  0  0  0  0  0  0  6  0  0
    1.8690    0.4163   -1.4362 C   0  0  0  0  0  0  0  0  0  7  0  0
    1.6214   -0.3674   -0.3147 C   0  0  0  0  0  0  0  0  0  8  0  0
    0.7199    0.0662    0.6508 C   0  0  0  0  0  0  0  0  0  9  0  0
  9  4  4  0
  8  9  4  0
  7  8  4  0
  6  7  4  0
  5  6  4  0
  4  5  4  0
  2  4  1  0
  2  3  2  0
  1  2  1  0
M  END
> <Name>
Acetophenone

> <CAS RN>
000098-86-2

> <Log Koc>
1.59

> <VP-0>
5.295

> <nAromBond>
6

> <MAXDP>
3.64537

> <nHBAcc>
1

> <Splitting>
2

$$$$
Nitrobenzene
  SciTegic01221512053D

  9  9  0  0  0  0            999 V2000
   -0.9343    1.3655    1.5716 N   0  0  0  0  0  0  0  0  0  1  0  0
   -1.1775    0.4421    2.4890 O   0  0  0  0  0  0  0  0  0  2  0  0
   -1.5955    2.5126    1.5934 O   0  0  0  0  0  0  0  0  0  3  0  0
    0.0185    1.1300    0.5823 C   0  0  0  0  0  0  0  0  0  4  0  0
    0.2738    2.0995   -0.3809 C   0  0  0  0  0  0  0  0  0  5  0  0
    1.2244    1.8644   -1.3678 C   0  0  0  0  0  0  0  0  0  6  0  0
    1.9190    0.6601   -1.3911 C   0  0  0  0  0  0  0  0  0  7  0  0
    1.6632   -0.3093   -0.4276 C   0  0  0  0  0  0  0  0  0  8  0  0
    0.7127   -0.0743    0.5594 C   0  0  0  0  0  0  0  0  0  9  0  0
  9  4  4  0
  8  9  4  0
  7  8  4  0
  6  7  4  0
  5  6  4  0
  4  5  4  0
  1  4  1  0
  1  3  1  0
  1  2  1  0
M  END
> <Name>
Nitrobenzene

> <CAS RN>
000098-95-3

> <Log Koc>
2.07

> <VP-0>
4.50211

> <nAromBond>
6

> <MAXDP>
3.00648

> <nHBAcc>
0

> <Splitting>
2

$$$$
Amino-3-nitrobenzene
  SciTegic01221512053D

 10 10  0  0  0  0            999 V2000
   -1.0642    1.1003   -0.2974 C   0  0  0  0  0  0  0  0  0  1  0  0
   -0.3323    2.2797   -0.2171 C   0  0  0  0  0  0  0  0  0  2  0  0
    1.0352    2.2342    0.0298 C   0  0  0  0  0  0  0  0  0  3  0  0
    1.6713    1.0093    0.1965 C   0  0  0  0  0  0  0  0  0  4  0  0
    0.9391   -0.1696    0.1162 C   0  0  0  0  0  0  0  0  0  5  0  0
   -0.4283   -0.1247   -0.1307 C   0  0  0  0  0  0  0  0  0  6  0  0
    1.5765   -1.3974    0.2832 N   0  0  0  0  0  0  0  0  0  7  0  0
    0.8791   -2.5206    0.2067 O   0  0  0  0  0  0  0  0  0  8  0  0
    2.8789   -1.4400    0.5184 O   0  0  0  0  0  0  0  0  0  9  0  0
    1.7696    3.4183    0.1104 N   0  0  0  0  0  0  0  0  0 10  0  0
  3 10  1  0
  7  9  1  0
  7  8  1  0
  5  7  1  0
  6  1  4  0
  5  6  4  0
  4  5  4  0
  3  4  4  0
  2  3  4  0
  1  2  4  0
M  END
> <Name>
Amino-3-nitrobenzene

> <CAS RN>
000099-09-2

> <Log Koc>
1.73

> <VP-0>
5.00211

> <nAromBond>
6

> <MAXDP>
3.10315

> <nHBAcc>
1

> <Splitting>
2

$$$$
Dichloran
  SciTegic01221512053D

 12 12  0  0  0  0            999 V2000
   -0.7934    0.9378    0.1543 C   0  0  0  0  0  0  0  0  0  1  0  0
   -0.0709    2.1178    0.0190 C   0  0  0  0  0  0  0  0  0  2  0  0
    1.3141    2.0748   -0.0921 C   0  0  0  0  0  0  0  0  0  3  0  0
    1.9757    0.8524   -0.0678 C   0  0  0  0  0  0  0  0  0  4  0  0
    1.2528   -0.3273    0.0675 C   0  0  0  0  0  0  0  0  0  5  0  0
   -0.1322   -0.2848    0.1786 C   0  0  0  0  0  0  0  0  0  6  0  0
    2.0761   -1.8455    0.0976 Cl  0  0  0  0  0  0  0  0  0  7  0  0
    3.3660    0.8095   -0.1793 N   0  0  0  0  0  0  0  0  0  8  0  0
    2.2136    3.5398   -0.2604 Cl  0  0  0  0  0  0  0  0  0  9  0  0
   -2.1815    0.9807    0.2656 N   0  0  0  0  0  0  0  0  0 10  0  0
   -2.8113    2.1453    0.2425 O   0  0  0  0  0  0  0  0  0 11  0  0
   -2.8697   -0.1433    0.3946 O   0  0  0  0  0  0  0  0  0 12  0  0
 10 12  1  0
 10 11  1  0
  1 10  1  0
  3  9  1  0
  4  8  1  0
  5  7  1  0
  6  1  4  0
  5  6  4  0
  4  5  4  0
  3  4  4  0
  2  3  4  0
  1  2  4  0
M  END
> <Name>
Dichloran

> <CAS RN>
000099-30-9

> <Log Koc>
3.35

> <VP-0>
7.11519

> <nAromBond>
6

> <MAXDP>
3.41776

> <nHBAcc>
1

> <Splitting>
2

$$$$
3,5-Dinitrobenzoic acid
  SciTegic01221512053D

 15 15  0  0  0  0            999 V2000
    3.3095    0.0146    0.2776 C   0  0  0  0  0  0  0  0  0  1  0  0
    2.6199   -1.1900    0.2024 C   0  0  0  0  0  0  0  0  0  2  0  0
    1.2405   -1.1930    0.0311 C   0  0  0  0  0  0  0  0  0  3  0  0
    0.5507    0.0098   -0.0649 C   0  0  0  0  0  0  0  0  0  4  0  0
    1.2390    1.2151    0.0101 C   0  0  0  0  0  0  0  0  0  5  0  0
    2.6184    1.2168    0.1814 C   0  0  0  0  0  0  0  0  0  6  0  0
    3.3086    2.4243    0.2566 N   0  0  0  0  0  0  0  0  0  7  0  0
    4.6228    2.4260    0.4198 O   0  0  0  0  0  0  0  0  0  8  0  0
    2.6500    3.5694    0.1650 O   0  0  0  0  0  0  0  0  0  9  0  0
   -0.8973    0.0072   -0.2447 C   0  0  0  0  0  0  0  0  0 10  0  0
   -1.5107    1.0768   -0.3301 O   0  0  0  0  0  0  0  0  0 11  0  0
   -1.5856   -1.1988   -0.3197 O   0  0  0  0  0  0  0  0  0 12  0  0
    3.3117   -2.3952    0.2987 N   0  0  0  0  0  0  0  0  0 13  0  0
    2.6544   -3.5425    0.2270 O   0  0  0  0  0  0  0  0  0 14  0  0
    4.6258   -2.3923    0.4618 O   0  0  0  0  0  0  0  0  0 15  0  0
 13 15  1  0
 13 14  1  0
  2 13  1  0
 10 12  1  0
 10 11  2  0
  4 10  1  0
  7  9  1  0
  7  8  1  0
  6  7  1  0
  6  1  4  0
  5  6  4  0
  4  5  4  0
  3  4  4  0
  2  3  4  0
  1  2  4  0
M  END
> <Name>
3,5-Dinitrobenzoic acid

> <CAS RN>
000099-34-3

> <Log Koc>
1.9

> <VP-0>
6.81822

> <nAromBond>
6

> <MAXDP>
3.50537

> <nHBAcc>
2

> <Splitting>
2

$$$$
Trinitrobenzol
  SciTegic01221512053D

 15 15  0  0  0  0            999 V2000
   -1.6818    1.4044    1.3175 N   0  0  0  0  0  0  0  0  0  1  0  0
   -0.4074    1.1922    0.7964 C   0  0  0  0  0  0  0  0  0  2  0  0
    0.3924    2.2763    0.4544 C   0  0  0  0  0  0  0  0  0  3  0  0
    1.6639    2.0639   -0.0655 C   0  0  0  0  0  0  0  0  0  4  0  0
    2.1358    0.7686   -0.2434 C   0  0  0  0  0  0  0  0  0  5  0  0
    1.3350   -0.3147    0.0990 C   0  0  0  0  0  0  0  0  0  6  0  0
    0.0634   -0.1036    0.6189 C   0  0  0  0  0  0  0  0  0  7  0  0
    1.8074   -1.6131   -0.0791 N   0  0  0  0  0  0  0  0  0  8  0  0
    1.0444   -2.6451    0.2471 O   0  0  0  0  0  0  0  0  0  9  0  0
    3.0189   -1.8141   -0.5745 O   0  0  0  0  0  0  0  0  0 10  0  0
    2.4660    3.1501   -0.4084 N   0  0  0  0  0  0  0  0  0 11  0  0
    3.6773    2.9475   -0.9037 O   0  0  0  0  0  0  0  0  0 12  0  0
    2.0163    4.3840   -0.2388 O   0  0  0  0  0  0  0  0  0 13  0  0
   -2.1301    2.6389    1.4865 O   0  0  0  0  0  0  0  0  0 14  0  0
   -2.4436    0.3715    1.6433 O   0  0  0  0  0  0  0  0  0 15  0  0
  1 15  1  0
  1 14  1  0
 11 13  1  0
 11 12  1  0
  4 11  1  0
  8 10  1  0
  8  9  1  0
  6  8  1  0
  7  2  4  0
  6  7  4  0
  5  6  4  0
  4  5  4  0
  3  4  4  0
  2  3  4  0
  1  2  1  0
M  END
> <Name>
Trinitrobenzol

> <CAS RN>
000099-35-4

> <Log Koc>
1.3

> <VP-0>
6.57812

> <nAromBond>
6

> <MAXDP>
3.31093

> <nHBAcc>
0

> <Splitting>
2

$$$$
3,4-Dichloronitrobenzene
  SciTegic01221512053D

 11 11  0  0  0  0            999 V2000
   -1.7488    3.2392    1.0324 O   0  0  0  0  0  0  0  0  0  1  0  0
   -1.3968    1.9659    1.1247 N   0  0  0  0  0  0  0  0  0  2  0  0
   -0.2251    1.5218    0.5152 C   0  0  0  0  0  0  0  0  0  3  0  0
    0.5733    2.4157   -0.1893 C   0  0  0  0  0  0  0  0  0  4  0  0
    1.7422    1.9725   -0.7974 C   0  0  0  0  0  0  0  0  0  5  0  0
    2.1119    0.6357   -0.7005 C   0  0  0  0  0  0  0  0  0  6  0  0
    1.3132   -0.2577    0.0041 C   0  0  0  0  0  0  0  0  0  7  0  0
    0.1442    0.1851    0.6123 C   0  0  0  0  0  0  0  0  0  8  0  0
    1.7739   -1.9183    0.1236 Cl  0  0  0  0  0  0  0  0  0  9  0  0
    3.5644    0.0839   -1.4557 Cl  0  0  0  0  0  0  0  0  0 10  0  0
   -2.1571    1.1144    1.7957 O   0  0  0  0  0  0  0  0  0 11  0  0
  2 11  1  0
  6 10  1  0
  7  9  1  0
  8  3  4  0
  7  8  4  0
  6  7  4  0
  5  6  4  0
  4  5  4  0
  3  4  4  0
  2  3  1  0
  1  2  1  0
M  END
> <Name>
3,4-Dichloronitrobenzene

> <CAS RN>
000099-54-7

> <Log Koc>
2.53

> <VP-0>
6.61519

> <nAromBond>
6

> <MAXDP>
3.30153

> <nHBAcc>
0

> <Splitting>
1

$$$$
m-Dinitrobenzene
  SciTegic01221512053D

 12 12  0  0  0  0            999 V2000
   -0.7570    1.1554    0.0835 C   0  0  0  0  0  0  0  0  0  1  0  0
    0.0021    2.3056   -0.1002 C   0  0  0  0  0  0  0  0  0  2  0  0
    1.3887    2.2215   -0.1547 C   0  0  0  0  0  0  0  0  0  3  0  0
    2.0156    0.9873   -0.0255 C   0  0  0  0  0  0  0  0  0  4  0  0
    1.2556   -0.1622    0.1581 C   0  0  0  0  0  0  0  0  0  5  0  0
   -0.1308   -0.0788    0.2127 C   0  0  0  0  0  0  0  0  0  6  0  0
    1.8838   -1.3991    0.2875 N   0  0  0  0  0  0  0  0  0  7  0  0
    1.1594   -2.4937    0.4624 O   0  0  0  0  0  0  0  0  0  8  0  0
    3.2046   -1.4789    0.2356 O   0  0  0  0  0  0  0  0  0  9  0  0
   -2.1467    1.2397    0.1381 N   0  0  0  0  0  0  0  0  0 10  0  0
   -2.7436    2.4153    0.0151 O   0  0  0  0  0  0  0  0  0 11  0  0
   -2.8693    0.1439    0.3131 O   0  0  0  0  0  0  0  0  0 12  0  0
 10 12  1  0
 10 11  1  0
  1 10  1  0
  7  9  1  0
  7  8  1  0
  5  7  1  0
  6  1  4  0
  5  6  4  0
  4  5  4  0
  3  4  4  0
  2  3  4  0
  1  2  4  0
M  END
> <Name>
m-Dinitrobenzene

> <CAS RN>
000099-65-0

> <Log Koc>
1.56

> <VP-0>
5.54011

> <nAromBond>
6

> <MAXDP>
3.1587

> <nHBAcc>
0

> <Splitting>
2

$$$$
Ethyl 4-nitrobenzoate
  SciTegic01221512053D

 14 14  0  0  0  0            999 V2000
   -1.6258    4.1974    3.4800 C   0  0  0  0  0  0  0  0  0  1  0  0
   -2.1480    2.7788    3.1419 C   0  0  0  0  0  0  0  0  0  2  0  0
   -1.0948    1.9634    2.5917 O   0  0  0  0  0  0  0  0  0  3  0  0
   -0.7666    2.3342    1.2755 C   0  0  0  0  0  0  0  0  0  4  0  0
   -1.3741    3.2424    0.6954 O   0  0  0  0  0  0  0  0  0  5  0  0
    0.2941    1.6200    0.5744 C   0  0  0  0  0  0  0  0  0  6  0  0
    0.6212    1.9695   -0.7307 C   0  0  0  0  0  0  0  0  0  7  0  0
    1.6324    1.2886   -1.3987 C   0  0  0  0  0  0  0  0  0  8  0  0
    2.3151    0.2592   -0.7608 C   0  0  0  0  0  0  0  0  0  9  0  0
    1.9878   -0.0902    0.5444 C   0  0  0  0  0  0  0  0  0 10  0  0
    0.9767    0.5906    1.2125 C   0  0  0  0  0  0  0  0  0 11  0  0
    3.3287   -0.4233   -1.4305 N   0  0  0  0  0  0  0  0  0 12  0  0
    3.9792   -1.4039   -0.8231 O   0  0  0  0  0  0  0  0  0 13  0  0
    3.6407   -0.0907   -2.6737 O   0  0  0  0  0  0  0  0  0 14  0  0
 12 14  1  0
 12 13  1  0
  9 12  1  0
 11  6  4  0
 10 11  4  0
  9 10  4  0
  8  9  4  0
  7  8  4  0
  6  7  4  0
  4  6  1  0
  4  5  2  0
  3  4  1  0
  2  3  1  0
  1  2  1  0
M  END
> <Name>
Ethyl 4-nitrobenzoate

> <CAS RN>
000099-77-4

> <Log Koc>
2.48

> <VP-0>
7.44836

> <nAromBond>
6

> <MAXDP>
4.13375

> <nHBAcc>
2

> <Splitting>
2

$$$$
4-Methylbenzoic acid
  SciTegic01221512053D

 10 10  0  0  0  0            999 V2000
    3.5867    0.0038    0.0002 C   0  0  0  0  0  0  0  0  0  1  0  0
    2.8863   -1.1973    0.0008 C   0  0  0  0  0  0  0  0  0  2  0  0
    1.4961   -1.1909    0.0010 C   0  0  0  0  0  0  0  0  0  3  0  0
    0.8073    0.0167    0.0006 C   0  0  0  0  0  0  0  0  0  4  0  0
    1.5073    1.2179    0.0000 C   0  0  0  0  0  0  0  0  0  5  0  0
    2.8975    1.2113   -0.0002 C   0  0  0  0  0  0  0  0  0  6  0  0
   -0.6522    0.0235    0.0008 C   0  0  0  0  0  0  0  0  0  7  0  0
   -1.2647    1.0970    0.0004 O   0  0  0  0  0  0  0  0  0  8  0  0
   -1.3524   -1.1782    0.0013 O   0  0  0  0  0  0  0  0  0  9  0  0
    5.0874   -0.0032    0.0000 C   0  0  0  0  0  0  0  0  0 10  0  0
  1 10  1  0
  7  9  1  0
  7  8  2  0
  4  7  1  0
  6  1  4  0
  5  6  4  0
  4  5  4  0
  3  4  4  0
  2  3  4  0
  1  2  4  0
M  END
> <Name>
4-Methylbenzoic acid

> <CAS RN>
000099-94-5

> <Log Koc>
1.77

> <VP-0>
5.66486

> <nAromBond>
6

> <MAXDP>
3.31223

> <nHBAcc>
2

> <Splitting>
2

$$$$
4-Hydroxybenzoic Acid
  SciTegic01221512053D

 10 10  0  0  0  0            999 V2000
    3.5981    0.0054   -0.0007 C   0  0  0  0  0  0  0  0  0  1  0  0
    2.8985   -1.1962   -0.0004 C   0  0  0  0  0  0  0  0  0  2  0  0
    1.5083   -1.1908   -0.0003 C   0  0  0  0  0  0  0  0  0  3  0  0
    0.8188    0.0164   -0.0004 C   0  0  0  0  0  0  0  0  0  4  0  0
    1.5179    1.2181   -0.0006 C   0  0  0  0  0  0  0  0  0  5  0  0
    2.9080    1.2125   -0.0008 C   0  0  0  0  0  0  0  0  0  6  0  0
   -0.6409    0.0221   -0.0003 C   0  0  0  0  0  0  0  0  0  7  0  0
   -1.2541    1.0952   -0.0003 O   0  0  0  0  0  0  0  0  0  8  0  0
   -1.3402   -1.1800    0.0000 O   0  0  0  0  0  0  0  0  0  9  0  0
    4.9889   -0.0001   -0.0008 O   0  0  0  0  0  0  0  0  0 10  0  0
  1 10  1  0
  7  9  1  0
  7  8  2  0
  4  7  1  0
  6  1  4  0
  5  6  4  0
  4  5  4  0
  3  4  4  0
  2  3  4  0
  1  2  4  0
M  END
> <Name>
4-Hydroxybenzoic Acid

> <CAS RN>
000099-96-7

> <Log Koc>
1.43

> <VP-0>
5.11208

> <nAromBond>
6

> <MAXDP>
3.23059

> <nHBAcc>
2

> <Splitting>
2

$$$$
Amino-4-nitrobenzene
  SciTegic01221512053D

 10 10  0  0  0  0            999 V2000
   -1.6025    3.2402    0.9750 O   0  0  0  0  0  0  0  0  0  1  0  0
   -1.3170    1.9523    1.0898 N   0  0  0  0  0  0  0  0  0  2  0  0
   -0.1618    1.4403    0.5022 C   0  0  0  0  0  0  0  0  0  3  0  0
    0.6898    2.2822   -0.2039 C   0  0  0  0  0  0  0  0  0  4  0  0
    1.8423    1.7714   -0.7901 C   0  0  0  0  0  0  0  0  0  5  0  0
    2.1423    0.4191   -0.6697 C   0  0  0  0  0  0  0  0  0  6  0  0
    1.2903   -0.4226    0.0366 C   0  0  0  0  0  0  0  0  0  7  0  0
    0.1379    0.0881    0.6228 C   0  0  0  0  0  0  0  0  0  8  0  0
    3.2994   -0.0937   -1.2583 N   0  0  0  0  0  0  0  0  0  9  0  0
   -2.1282    1.1504    1.7624 O   0  0  0  0  0  0  0  0  0 10  0  0
  2 10  1  0
  6  9  1  0
  8  3  4  0
  7  8  4  0
  6  7  4  0
  5  6  4  0
  4  5  4  0
  3  4  4  0
  2  3  1  0
  1  2  1  0
M  END
> <Name>
Amino-4-nitrobenzene

> <CAS RN>
000100-01-6

> <Log Koc>
1.88

> <VP-0>
5.00211

> <nAromBond>
6

> <MAXDP>
3.07697

> <nHBAcc>
1

> <Splitting>
2

$$$$
4-Nitrophenol
  SciTegic01221512053D

 10 10  0  0  0  0            999 V2000
   -1.1032    0.9030   -0.0908 C   0  0  0  0  0  0  0  0  0  1  0  0
   -0.3808    2.0604    0.1772 C   0  0  0  0  0  0  0  0  0  2  0  0
    1.0034    2.0043    0.2930 C   0  0  0  0  0  0  0  0  0  3  0  0
    1.6643    0.7908    0.1407 C   0  0  0  0  0  0  0  0  0  4  0  0
    0.9424   -0.3667   -0.1273 C   0  0  0  0  0  0  0  0  0  5  0  0
   -0.4419   -0.3105   -0.2431 C   0  0  0  0  0  0  0  0  0  6  0  0
    3.0518    0.7345    0.2567 N   0  0  0  0  0  0  0  0  0  7  0  0
    3.6814   -0.4214    0.1116 O   0  0  0  0  0  0  0  0  0  8  0  0
    3.7395    1.8369    0.5120 O   0  0  0  0  0  0  0  0  0  9  0  0
   -2.4880    0.9592   -0.2066 O   0  0  0  0  0  0  0  0  0 10  0  0
  1 10  1  0
  7  9  1  0
  7  8  1  0
  4  7  1  0
  6  1  4  0
  5  6  4  0
  4  5  4  0
  3  4  4  0
  2  3  4  0
  1  2  4  0
M  END
> <Name>
4-Nitrophenol

> <CAS RN>
000100-02-7

> <Log Koc>
2.06

> <VP-0>
4.87197

> <nAromBond>
6

> <MAXDP>
3.03615

> <nHBAcc>
0

> <Splitting>
2

$$$$
Ethylbenzene
  SciTegic01221512053D

  8  8  0  0  0  0            999 V2000
   -0.6406    0.8096    0.0001 C   0  0  0  0  0  0  0  0  0  1  0  0
    0.0637    2.0094   -0.0004 C   0  0  0  0  0  0  0  0  0  2  0  0
    1.4540    2.0013   -0.0005 C   0  0  0  0  0  0  0  0  0  3  0  0
    2.1420    0.7931   -0.0002 C   0  0  0  0  0  0  0  0  0  4  0  0
    1.4391   -0.4064    0.0003 C   0  0  0  0  0  0  0  0  0  5  0  0
    0.0488   -0.3979    0.0005 C   0  0  0  0  0  0  0  0  0  6  0  0
   -2.1483    0.8084    0.0003 C   0  0  0  0  0  0  0  0  0  7  0  0
   -2.6882    2.2534   -0.0001 C   0  0  0  0  0  0  0  0  0  8  0  0
  7  8  1  0
  1  7  1  0
  6  1  4  0
  5  6  4  0
  4  5  4  0
  3  4  4  0
  2  3  4  0
  1  2  4  0
M  END
> <Name>
Ethylbenzene

> <CAS RN>
000100-41-4

> <Log Koc>
2.32

> <VP-0>
5.09386

> <nAromBond>
6

> <MAXDP>
0.162037

> <nHBAcc>
0

> <Splitting>
2

$$$$
Styrene
  SciTegic01221512053D

  8  8  0  0  0  0            999 V2000
    2.9155   -1.2552    0.0014 C   0  0  0  0  0  0  0  0  0  1  0  0
    1.5252   -1.2405    0.0020 C   0  0  0  0  0  0  0  0  0  2  0  0
    0.8428   -0.0292    0.0011 C   0  0  0  0  0  0  0  0  0  3  0  0
    1.5509    1.1676   -0.0003 C   0  0  0  0  0  0  0  0  0  4  0  0
    2.9412    1.1530   -0.0009 C   0  0  0  0  0  0  0  0  0  5  0  0
    3.6234   -0.0585    0.0000 C   0  0  0  0  0  0  0  0  0  6  0  0
   -0.6205   -0.0161    0.0017 C   0  0  0  0  0  0  0  0  0  7  0  0
   -1.2786    1.1412    0.0009 C   0  0  0  0  0  0  0  0  0  8  0  0
  7  8  2  0
  3  7  1  0
  6  1  4  0
  5  6  4  0
  4  5  4  0
  3  4  4  0
  2  3  4  0
  1  2  4  0
M  END
> <Name>
Styrene

> <CAS RN>
000100-42-5

> <Log Koc>
2.96

> <VP-0>
4.67121

> <nAromBond>
6

> <MAXDP>
0.630926

> <nHBAcc>
0

> <Splitting>
2

$$$$
Benzyl alcohol
  SciTegic01221512053D

  8  8  0  0  0  0            999 V2000
   -0.8197    0.6407    0.0004 C   0  0  0  0  0  0  0  0  0  1  0  0
   -0.1155    1.8395    0.0001 C   0  0  0  0  0  0  0  0  0  2  0  0
    1.2748    1.8298   -0.0008 C   0  0  0  0  0  0  0  0  0  3  0  0
    1.9613    0.6208   -0.0014 C   0  0  0  0  0  0  0  0  0  4  0  0
    1.2573   -0.5783   -0.0011 C   0  0  0  0  0  0  0  0  0  5  0  0
   -0.1332   -0.5683   -0.0002 C   0  0  0  0  0  0  0  0  0  6  0  0
   -0.8555    3.1442    0.0007 C   0  0  0  0  0  0  0  0  0  7  0  0
    0.0830    4.2224    0.0002 O   0  0  0  0  0  0  0  0  0  8  0  0
  7  8  1  0
  2  7  1  0
  6  1  4  0
  5  6  4  0
  4  5  4  0
  3  4  4  0
  2  3  4  0
  1  2  4  0
M  END
> <Name>
Benzyl alcohol

> <CAS RN>
000100-51-6

> <Log Koc>
0.7

> <VP-0>
4.54107

> <nAromBond>
6

> <MAXDP>
2.53759

> <nHBAcc>
1

> <Splitting>
2

$$$$
3-Cyanopyridine
  SciTegic01221512053D

  8  8  0  0  0  0            999 V2000
   -1.0470    1.7730    1.4917 C   0  0  0  0  0  0  0  0  0  1  0  0
   -1.8556    2.1454    2.2210 N   0  0  0  0  0  0  0  0  0  2  0  0
   -0.0472    1.3125    0.5899 C   0  0  0  0  0  0  0  0  0  3  0  0
    0.5395    2.1894   -0.3121 C   0  0  0  0  0  0  0  0  0  4  0  0
    1.5112    1.7028   -1.1759 C   0  0  0  0  0  0  0  0  0  5  0  0
    1.8655    0.3597   -1.1117 C   0  0  0  0  0  0  0  0  0  6  0  0
    1.2844   -0.4546   -0.2358 N   0  0  0  0  0  0  0  0  0  7  0  0
    0.3507   -0.0193    0.6045 C   0  0  0  0  0  0  0  0  0  8  0  0
  8  3  4  0
  7  8  4  0
  6  7  4  0
  5  6  4  0
  4  5  4  0
  3  4  4  0
  1  3  1  0
  1  2  3  0
M  END
> <Name>
3-Cyanopyridine

> <CAS RN>
000100-54-9

> <Log Koc>
1.65

> <VP-0>
4.20383

> <nAromBond>
6

> <MAXDP>
2.24759

> <nHBAcc>
2

> <Splitting>
2

$$$$
N-methylaniline
  SciTegic01221512053D

  8  8  0  0  0  0            999 V2000
   -1.1347    0.9561   -0.0006 C   0  0  0  0  0  0  0  0  0  1  0  0
   -0.4090    2.1420    0.0000 C   0  0  0  0  0  0  0  0  0  2  0  0
    0.9809    2.1066    0.0007 C   0  0  0  0  0  0  0  0  0  3  0  0
    1.6460    0.8857    0.0008 C   0  0  0  0  0  0  0  0  0  4  0  0
    0.9194   -0.3004    0.0001 C   0  0  0  0  0  0  0  0  0  5  0  0
   -0.4705   -0.2653   -0.0006 C   0  0  0  0  0  0  0  0  0  6  0  0
    3.0456    0.8561    0.0014 N   0  0  0  0  0  0  0  0  0  7  0  0
    3.7472   -0.3977    0.0015 C   0  0  0  0  0  0  0  0  0  8  0  0
  7  8  1  0
  4  7  1  0
  6  1  4  0
  5  6  4  0
  4  5  4  0
  3  4  4  0
  2  3  4  0
  1  2  4  0
M  END
> <Name>
N-methylaniline

> <CAS RN>
000100-61-8

> <Log Koc>
2.28

> <VP-0>
4.88675

> <nAromBond>
6

> <MAXDP>
0.526944

> <nHBAcc>
1

> <Splitting>
1

$$$$
Anisole
  SciTegic01221512053D

  8  8  0  0  0  0            999 V2000
   -1.0481    0.7139    0.0006 C   0  0  0  0  0  0  0  0  0  1  0  0
   -0.3383    1.9094    0.0007 C   0  0  0  0  0  0  0  0  0  2  0  0
    1.0522    1.8967    0.0003 C   0  0  0  0  0  0  0  0  0  3  0  0
    1.7308    0.6812   -0.0001 C   0  0  0  0  0  0  0  0  0  4  0  0
    1.0218   -0.5149   -0.0002 C   0  0  0  0  0  0  0  0  0  5  0  0
   -0.3682   -0.4987    0.0002 C   0  0  0  0  0  0  0  0  0  6  0  0
    1.7526    3.1154    0.0004 O   0  0  0  0  0  0  0  0  0  7  0  0
    3.1724    2.9027    0.0000 C   0  0  0  0  0  0  0  0  0  8  0  0
  7  8  1  0
  3  7  1  0
  6  1  4  0
  5  6  4  0
  4  5  4  0
  3  4  4  0
  2  3  4  0
  1  2  4  0
M  END
> <Name>
Anisole

> <CAS RN>
000100-66-3

> <Log Koc>
1.54

> <VP-0>
4.795

> <nAromBond>
6

> <MAXDP>
1.41417

> <nHBAcc>
0

> <Splitting>
2

$$$$
Anilazine
  SciTegic01221512053D

 16 17  0  0  0  0            999 V2000
    0.5808    5.4854    0.1830 N   0  0  0  0  0  0  0  0  0  1  0  0
    1.4748    4.5279    0.3886 C   0  0  0  0  0  0  0  0  0  2  0  0
    1.1116    3.2556    0.3167 N   0  0  0  0  0  0  0  0  0  3  0  0
   -0.1480    2.9315    0.0427 C   0  0  0  0  0  0  0  0  0  4  0  0
   -1.0400    3.8912   -0.1548 N   0  0  0  0  0  0  0  0  0  5  0  0
   -0.6771    5.1664   -0.0901 C   0  0  0  0  0  0  0  0  0  6  0  0
   -1.8427    6.4114   -0.3640 Cl  0  0  0  0  0  0  0  0  0  7  0  0
   -0.5601    1.5798   -0.0258 N   0  0  0  0  0  0  0  0  0  8  0  0
    0.3287    0.4929   -0.2146 C   0  0  0  0  0  0  0  0  0  9  0  0
    1.6302    0.6902   -0.6723 C   0  0  0  0  0  0  0  0  0 10  0  0
    2.4787   -0.3925   -0.8644 C   0  0  0  0  0  0  0  0  0 11  0  0
    2.0300   -1.6813   -0.6003 C   0  0  0  0  0  0  0  0  0 12  0  0
    0.7328   -1.8830   -0.1446 C   0  0  0  0  0  0  0  0  0 13  0  0
   -0.1156   -0.7965    0.0454 C   0  0  0  0  0  0  0  0  0 14  0  0
   -1.7271   -1.0534    0.6124 Cl  0  0  0  0  0  0  0  0  0 15  0  0
    3.1129    4.9370    0.7546 Cl  0  0  0  0  0  0  0  0  0 16  0  0
  2 16  1  0
 14 15  1  0
 14  9  4  0
 13 14  4  0
 12 13  4  0
 11 12  4  0
 10 11  4  0
  9 10  4  0
  8  9  1  0
  4  8  1  0
  6  7  1  0
  6  1  4  0
  5  6  4  0
  4  5  4  0
  3  4  4  0
  2  3  4  0
  1  2  4  0
M  END
> <Name>
Anilazine

> <CAS RN>
000101-05-3

> <Log Koc>
3.24

> <VP-0>
10.0527

> <nAromBond>
12

> <MAXDP>
1.35413

> <nHBAcc>
4

> <Splitting>
2

$$$$
Chlorpropham
  SciTegic01221512053D

 14 14  0  0  0  0            999 V2000
    1.5398    3.6820    0.3235 C   0  0  0  0  0  0  0  0  0  1  0  0
    2.9195    3.7453    0.1695 C   0  0  0  0  0  0  0  0  0  2  0  0
    3.6412    2.5842   -0.0801 C   0  0  0  0  0  0  0  0  0  3  0  0
    2.9833    1.3630   -0.1754 C   0  0  0  0  0  0  0  0  0  4  0  0
    1.6029    1.2929   -0.0218 C   0  0  0  0  0  0  0  0  0  5  0  0
    0.8854    2.4593    0.2280 C   0  0  0  0  0  0  0  0  0  6  0  0
    0.9708    0.0228   -0.1264 N   0  0  0  0  0  0  0  0  0  7  0  0
   -0.4223   -0.2085    0.0285 C   0  0  0  0  0  0  0  0  0  8  0  0
   -1.1972    0.7242    0.2768 O   0  0  0  0  0  0  0  0  0  9  0  0
   -0.8900   -1.5476   -0.1103 O   0  0  0  0  0  0  0  0  0 10  0  0
   -2.3255   -1.7453    0.0597 C   0  0  0  0  0  0  0  0  0 11  0  0
   -3.1603   -1.0109   -1.0182 C   0  0  0  0  0  0  0  0  0 12  0  0
   -2.8082   -1.3961    1.4890 C   0  0  0  0  0  0  0  0  0 13  0  0
    5.3567    2.6579   -0.2716 Cl  0  0  0  0  0  0  0  0  0 14  0  0
  3 14  1  0
 11 13  1  0
 11 12  1  0
 10 11  1  0
  8 10  1  0
  8  9  2  0
  7  8  1  0
  5  7  1  0
  6  1  4  0
  5  6  4  0
  4  5  4  0
  3  4  4  0
  2  3  4  0
  1  2  4  0
M  END
> <Name>
Chlorpropham

> <CAS RN>
000101-21-3

> <Log Koc>
2.65

> <VP-0>
8.83714

> <nAromBond>
6

> <MAXDP>
4.21419

> <nHBAcc>
3

> <Splitting>
2

$$$$
Fenuron
  SciTegic01221512053D

 12 12  0  0  0  0            999 V2000
    2.8694    1.2767    0.3137 C   0  0  0  0  0  0  0  0  0  1  0  0
    1.4942    1.2281    0.1122 C   0  0  0  0  0  0  0  0  0  2  0  0
    0.8085    2.3989   -0.1978 C   0  0  0  0  0  0  0  0  0  3  0  0
    1.4898    3.6059   -0.3053 C   0  0  0  0  0  0  0  0  0  4  0  0
    2.8641    3.6483   -0.1029 C   0  0  0  0  0  0  0  0  0  5  0  0
    3.5539    2.4822    0.2069 C   0  0  0  0  0  0  0  0  0  6  0  0
    0.8328   -0.0241    0.2307 N   0  0  0  0  0  0  0  0  0  7  0  0
   -0.5615   -0.2228    0.0505 C   0  0  0  0  0  0  0  0  0  8  0  0
   -1.3252    0.7074   -0.2318 O   0  0  0  0  0  0  0  0  0  9  0  0
   -1.0849   -1.5073    0.1966 N   0  0  0  0  0  0  0  0  0 10  0  0
   -2.4902   -1.7334    0.0195 C   0  0  0  0  0  0  0  0  0 11  0  0
   -0.2173   -2.6018    0.5242 C   0  0  0  0  0  0  0  0  0 12  0  0
 10 12  1  0
 10 11  1  0
  8 10  1  0
  8  9  2  0
  7  8  1  0
  2  7  1  0
  6  1  4  0
  5  6  4  0
  4  5  4  0
  3  4  4  0
  2  3  4  0
  1  2  4  0
M  END
> <Name>
Fenuron

> <CAS RN>
000101-42-8

> <Log Koc>
1.4

> <VP-0>
7.24221

> <nAromBond>
6

> <MAXDP>
4.12704

> <nHBAcc>
3

> <Splitting>
2

$$$$
4,4'-Methylenebis(N,N-Dimethylaniline)
  SciTegic01221512053D

 19 20  0  0  0  0            999 V2000
    0.6109    6.7907    1.3742 N   0  0  0  0  0  0  0  0  0  1  0  0
    1.7933    7.0024    2.1643 C   0  0  0  0  0  0  0  0  0  2  0  0
   -0.1449    7.9181    0.9077 C   0  0  0  0  0  0  0  0  0  3  0  0
    0.2062    5.4874    1.0522 C   0  0  0  0  0  0  0  0  0  4  0  0
    0.9589    4.4044    1.4894 C   0  0  0  0  0  0  0  0  0  5  0  0
    0.5670    3.1130    1.1653 C   0  0  0  0  0  0  0  0  0  6  0  0
   -0.5756    2.8925    0.4001 C   0  0  0  0  0  0  0  0  0  7  0  0
   -1.3356    3.9767   -0.0242 C   0  0  0  0  0  0  0  0  0  8  0  0
   -0.9425    5.2719    0.2976 C   0  0  0  0  0  0  0  0  0  9  0  0
   -1.0113    1.4784    0.0473 C   0  0  0  0  0  0  0  0  0 10  0  0
    0.1722    0.5655   -0.2266 C   0  0  0  0  0  0  0  0  0 11  0  0
    1.2288    0.9967   -1.0253 C   0  0  0  0  0  0  0  0  0 12  0  0
    2.3084    0.1602   -1.2739 C   0  0  0  0  0  0  0  0  0 13  0  0
    2.3365   -1.1169   -0.7271 C   0  0  0  0  0  0  0  0  0 14  0  0
    1.2772   -1.5560    0.0606 C   0  0  0  0  0  0  0  0  0 15  0  0
    0.1944   -0.7182    0.3070 C   0  0  0  0  0  0  0  0  0 16  0  0
    3.4342   -1.9545   -0.9714 N   0  0  0  0  0  0  0  0  0 17  0  0
    3.4862   -3.2655   -0.3893 C   0  0  0  0  0  0  0  0  0 18  0  0
    4.5200   -1.4962   -1.7945 C   0  0  0  0  0  0  0  0  0 19  0  0
 17 19  1  0
 17 18  1  0
 14 17  1  0
 16 11  4  0
 15 16  4  0
 14 15  4  0
 13 14  4  0
 12 13  4  0
 11 12  4  0
 10 11  1  0
  7 10  1  0
  9  4  4  0
  8  9  4  0
  7  8  4  0
  6  7  4  0
  5  6  4  0
  4  5  4  0
  1  4  1  0
  1  3  1  0
  1  2  1  0
M  END
> <Name>
4,4'-Methylenebis(N,N-Dimethylaniline)

> <CAS RN>
000101-61-1

> <Log Koc>
3.96

> <VP-0>
12.2203

> <nAromBond>
12

> <MAXDP>
0.203562

> <nHBAcc>
2

> <Splitting>
2

$$$$
4,4'Methylene dianiline
  SciTegic01221512053D

 15 16  0  0  0  0            999 V2000
    0.5499    5.9056    0.0023 C   0  0  0  0  0  0  0  0  0  1  0  0
    1.4992    4.9218    0.2514 C   0  0  0  0  0  0  0  0  0  2  0  0
    1.0996    3.6038    0.4339 C   0  0  0  0  0  0  0  0  0  3  0  0
   -0.2482    3.2567    0.3624 C   0  0  0  0  0  0  0  0  0  4  0  0
   -1.1934    4.2485    0.1252 C   0  0  0  0  0  0  0  0  0  5  0  0
   -0.7969    5.5687   -0.0588 C   0  0  0  0  0  0  0  0  0  6  0  0
   -0.7302    1.8188    0.5805 C   0  0  0  0  0  0  0  0  0  7  0  0
    0.2246    0.7025    0.1456 C   0  0  0  0  0  0  0  0  0  8  0  0
    1.0873    0.8480   -0.9392 C   0  0  0  0  0  0  0  0  0  9  0  0
    1.9257   -0.1930   -1.3184 C   0  0  0  0  0  0  0  0  0 10  0  0
    1.9017   -1.3925   -0.6172 C   0  0  0  0  0  0  0  0  0 11  0  0
    1.0357   -1.5488    0.4583 C   0  0  0  0  0  0  0  0  0 12  0  0
    0.1974   -0.5050    0.8346 C   0  0  0  0  0  0  0  0  0 13  0  0
    2.7440   -2.4387   -0.9955 N   0  0  0  0  0  0  0  0  0 14  0  0
    0.9493    7.2297   -0.1827 N   0  0  0  0  0  0  0  0  0 15  0  0
  1 15  1  0
 11 14  1  0
 13  8  4  0
 12 13  4  0
 11 12  4  0
 10 11  4  0
  9 10  4  0
  8  9  4  0
  7  8  1  0
  4  7  1  0
  6  1  4  0
  5  6  4  0
  4  5  4  0
  3  4  4  0
  2  3  4  0
  1  2  4  0
M  END
> <Name>
4,4'Methylene dianiline

> <CAS RN>
000101-77-9

> <Log Koc>
1.99

> <VP-0>
8.48061

> <nAromBond>
12

> <MAXDP>
1.62339

> <nHBAcc>
2

> <Splitting>
2

$$$$
Diphenyl ether
  SciTegic01221512053D

 13 14  0  0  0  0            999 V2000
   -1.6073    1.2878    1.4215 C   0  0  0  0  0  0  0  0  0  1  0  0
   -0.5173    0.8614    0.6684 C   0  0  0  0  0  0  0  0  0  2  0  0
   -0.6331    1.0033   -0.7788 O   0  0  0  0  0  0  0  0  0  3  0  0
    0.3938    0.6176   -1.7402 C   0  0  0  0  0  0  0  0  0  4  0  0
    0.0966    0.8318   -3.0829 C   0  0  0  0  0  0  0  0  0  5  0  0
    1.0052    0.4998   -4.0815 C   0  0  0  0  0  0  0  0  0  6  0  0
    2.2336   -0.0555   -3.7474 C   0  0  0  0  0  0  0  0  0  7  0  0
    2.5454   -0.2756   -2.4121 C   0  0  0  0  0  0  0  0  0  8  0  0
    1.6307    0.0595   -1.4203 C   0  0  0  0  0  0  0  0  0  9  0  0
    0.5855    0.3392    1.3428 C   0  0  0  0  0  0  0  0  0 10  0  0
    0.6004    0.2450    2.7297 C   0  0  0  0  0  0  0  0  0 11  0  0
   -0.4952    0.6748    3.4668 C   0  0  0  0  0  0  0  0  0 12  0  0
   -1.6011    1.1973    2.8089 C   0  0  0  0  0  0  0  0  0 13  0  0
 13  1  4  0
 12 13  4  0
 11 12  4  0
 10 11  4  0
  2 10  4  0
  9  4  4  0
  8  9  4  0
  7  8  4  0
  6  7  4  0
  5  6  4  0
  4  5  4  0
  3  4  1  0
  2  3  1  0
  1  2  4  0
M  END
> <Name>
Diphenyl ether

> <CAS RN>
000101-84-8

> <Log Koc>
3.29

> <VP-0>
7.18175

> <nAromBond>
12

> <MAXDP>
2.07833

> <nHBAcc>
0

> <Splitting>
2

$$$$
Ethyl Phenylacetate
  SciTegic01221512053D

 12 12  0  0  0  0            999 V2000
    0.7149    5.7445   -0.0165 C   0  0  0  0  0  0  0  0  0  1  0  0
    1.4324    4.8568    1.0297 C   0  0  0  0  0  0  0  0  0  2  0  0
    1.1455    3.4647    0.7973 O   0  0  0  0  0  0  0  0  0  3  0  0
   -0.1658    3.1149    1.1809 C   0  0  0  0  0  0  0  0  0  4  0  0
   -0.8978    3.9593    1.7116 O   0  0  0  0  0  0  0  0  0  5  0  0
   -0.6937    1.6867    1.0396 C   0  0  0  0  0  0  0  0  0  6  0  0
    0.1012    0.7547    0.1245 C   0  0  0  0  0  0  0  0  0  7  0  0
    1.0453    1.2303   -0.7805 C   0  0  0  0  0  0  0  0  0  8  0  0
    1.7392    0.3514   -1.6040 C   0  0  0  0  0  0  0  0  0  9  0  0
    1.4898   -1.0135   -1.5290 C   0  0  0  0  0  0  0  0  0 10  0  0
    0.5443   -1.4947   -0.6311 C   0  0  0  0  0  0  0  0  0 11  0  0
   -0.1482   -0.6121    0.1901 C   0  0  0  0  0  0  0  0  0 12  0  0
 12  7  4  0
 11 12  4  0
 10 11  4  0
  9 10  4  0
  8  9  4  0
  7  8  4  0
  6  7  1  0
  4  6  1  0
  4  5  2  0
  3  4  1  0
  2  3  1  0
  1  2  1  0
M  END
> <Name>
Ethyl Phenylacetate

> <CAS RN>
000101-97-3

> <Log Koc>
1.89

> <VP-0>
7.11746

> <nAromBond>
6

> <MAXDP>
3.99024

> <nHBAcc>
2

> <Splitting>
1

$$$$
Ethyl-N-phenylcarbamate
  SciTegic01221512053D

 12 12  0  0  0  0            999 V2000
    0.3641    5.9032    0.1351 C   0  0  0  0  0  0  0  0  0  1  0  0
    1.3875    4.9855    0.8485 C   0  0  0  0  0  0  0  0  0  2  0  0
    1.1424    3.6015    0.5297 O   0  0  0  0  0  0  0  0  0  3  0  0
    0.0012    3.0932    1.1843 C   0  0  0  0  0  0  0  0  0  4  0  0
   -0.6347    3.8128    1.9642 O   0  0  0  0  0  0  0  0  0  5  0  0
   -0.4297    1.7487    1.0073 N   0  0  0  0  0  0  0  0  0  6  0  0
    0.1831    0.7947    0.1474 C   0  0  0  0  0  0  0  0  0  7  0  0
    1.2689    1.1150   -0.6622 C   0  0  0  0  0  0  0  0  0  8  0  0
    1.8385    0.1544   -1.4898 C   0  0  0  0  0  0  0  0  0  9  0  0
    1.3239   -1.1364   -1.5124 C   0  0  0  0  0  0  0  0  0 10  0  0
    0.2396   -1.4623   -0.7067 C   0  0  0  0  0  0  0  0  0 11  0  0
   -0.3279   -0.4984    0.1193 C   0  0  0  0  0  0  0  0  0 12  0  0
 12  7  4  0
 11 12  4  0
 10 11  4  0
  9 10  4  0
  8  9  4  0
  7  8  4  0
  6  7  1  0
  4  6  1  0
  4  5  2  0
  3  4  1  0
  2  3  1  0
  1  2  1  0
M  END
> <Name>
Ethyl-N-phenylcarbamate

> <CAS RN>
000101-99-5

> <Log Koc>
1.82

> <VP-0>
6.91035

> <nAromBond>
6

> <MAXDP>
3.87912

> <nHBAcc>
3

> <Splitting>
2

$$$$
1,3,5-Triethylbenzene
  SciTegic01221512053D

 12 12  0  0  0  0            999 V2000
   -0.8913    0.8685   -0.0003 C   0  0  0  0  0  0  0  0  0  1  0  0
   -0.1920    2.0707   -0.0001 C   0  0  0  0  0  0  0  0  0  2  0  0
    1.1981    2.0691    0.0002 C   0  0  0  0  0  0  0  0  0  3  0  0
    1.8896    0.8624    0.0003 C   0  0  0  0  0  0  0  0  0  4  0  0
    1.1931   -0.3407    0.0001 C   0  0  0  0  0  0  0  0  0  5  0  0
   -0.1977   -0.3362   -0.0002 C   0  0  0  0  0  0  0  0  0  6  0  0
    1.9524   -1.6421    0.0003 C   0  0  0  0  0  0  0  0  0  7  0  0
    0.9748   -2.8354    0.0000 C   0  0  0  0  0  0  0  0  0  8  0  0
    1.9455    3.3774    0.0004 C   0  0  0  0  0  0  0  0  0  9  0  0
    3.4677    3.1274    0.0008 C   0  0  0  0  0  0  0  0  0 10  0  0
   -2.3981    0.8616   -0.0007 C   0  0  0  0  0  0  0  0  0 11  0  0
   -2.9426    2.3049   -0.0008 C   0  0  0  0  0  0  0  0  0 12  0  0
 11 12  1  0
  1 11  1  0
  9 10  1  0
  3  9  1  0
  7  8  1  0
  5  7  1  0
  6  1  4  0
  5  6  4  0
  4  5  4  0
  3  4  4  0
  2  3  4  0
  1  2  4  0
M  END
> <Name>
1,3,5-Triethylbenzene

> <CAS RN>
000102-25-0

> <Log Koc>
4.12

> <VP-0>
8.35337

> <nAromBond>
6

> <MAXDP>
0.318611

> <nHBAcc>
0

> <Splitting>
2

$$$$
Bis(2-ethylhexyl) adipate
  SciTegic01221512053D

 28 27  0  0  0  0            999 V2000
   -5.5098   -0.0657    2.5764 C   0  0  0  0  0  0  0  0  0  1  0  0
   -5.4690   -1.6021    2.4215 C   0  0  0  0  0  0  0  0  0  2  0  0
   -4.0269   -2.2054    2.2486 C   0  0  0  0  0  0  0  0  0  3  0  0
   -3.1223   -2.2631    3.5466 C   0  0  0  0  0  0  0  0  0  4  0  0
   -2.4991   -0.9123    4.0259 C   0  0  1  0  0  0  0  0  0  5  0  0
   -3.2900   -0.2038    4.2906 H   0  0  0  0  0  0  0  0  0  6  0  0
   -1.6416   -1.1676    5.3106 C   0  0  0  0  0  0  0  0  0  7  0  0
   -0.5088   -2.1985    5.1032 C   0  0  0  0  0  0  0  0  0  8  0  0
   -1.6735   -0.3007    2.8558 C   0  0  0  0  0  0  0  0  0  9  0  0
   -0.6993   -1.2129    2.3673 O   0  0  0  0  0  0  0  0  0 10  0  0
   -0.2582   -0.7745    1.1361 C   0  0  0  0  0  0  0  0  0 11  0  0
   -0.7132    0.2673    0.6477 O   0  0  0  0  0  0  0  0  0 12  0  0
    0.6218   -1.6521    0.3191 C   0  0  0  0  0  0  0  0  0 13  0  0
    0.5749   -1.1214   -1.1191 C   0  0  0  0  0  0  0  0  0 14  0  0
    0.8396   -2.2714   -2.1156 C   0  0  0  0  0  0  0  0  0 15  0  0
   -0.2051   -3.4160   -1.8864 C   0  0  0  0  0  0  0  0  0 16  0  0
   -1.6509   -2.9520   -2.0548 C   0  0  0  0  0  0  0  0  0 17  0  0
   -2.5737   -3.7098   -1.7338 O   0  0  0  0  0  0  0  0  0 18  0  0
   -1.9444   -1.6782   -2.5392 O   0  0  0  0  0  0  0  0  0 19  0  0
   -3.3562   -1.4610   -2.5470 C   0  0  0  0  0  0  0  0  0 20  0  0
   -3.6288   -0.0515   -3.1053 C   0  0  1  0  0  0  0  0  0 21  0  0
   -3.1203    0.6932   -2.4759 H   0  0  0  0  0  0  0  0  0 22  0  0
   -3.0825    0.0377   -4.5467 C   0  0  0  0  0  0  0  0  0 23  0  0
   -3.7840   -1.0032   -5.4467 C   0  0  0  0  0  0  0  0  0 24  0  0
   -5.1436    0.2384   -3.1057 C   0  0  0  0  0  0  0  0  0 25  0  0
   -5.6868    0.1719   -1.6640 C   0  0  0  0  0  0  0  0  0 26  0  0
   -7.1964    0.4863   -1.6591 C   0  0  0  0  0  0  0  0  0 27  0  0
   -7.9503   -0.5509   -2.5141 C   0  0  0  0  0  0  0  0  0 28  0  0
 27 28  1  0
 26 27  1  0
 25 26  1  0
 21 25  1  0
 23 24  1  0
 21 23  1  0
 21 22  1  0
 20 21  1  0
 19 20  1  0
 17 19  1  0
 17 18  2  0
 16 17  1  0
 15 16  1  0
 14 15  1  0
 13 14  1  0
 11 13  1  0
 11 12  2  0
 10 11  1  0
  9 10  1  0
  5  9  1  0
  7  8  1  0
  5  7  1  0
  5  6  1  0
  4  5  1  0
  3  4  1  0
  2  3  1  0
  1  2  1  0
M  END
> <Name>
Bis(2-ethylhexyl) adipate

> <CAS RN>
000103-23-1

> <Log Koc>
4.19

> <VP-0>
17.6872

> <nAromBond>
0

> <MAXDP>
4.79776

> <nHBAcc>
4

> <Splitting>
2

$$$$
Azobenzene
  SciTegic01221512053D

 14 15  0  0  0  0            999 V2000
    0.3862    4.1796    5.1362 C   0  0  0  0  0  0  0  0  0  1  0  0
    0.6286    4.6640    3.8556 C   0  0  0  0  0  0  0  0  0  2  0  0
    0.6529    3.7896    2.7750 C   0  0  0  0  0  0  0  0  0  3  0  0
    0.4348    2.4313    2.9755 C   0  0  0  0  0  0  0  0  0  4  0  0
    0.1925    1.9465    4.2557 C   0  0  0  0  0  0  0  0  0  5  0  0
    0.1680    2.8210    5.3363 C   0  0  0  0  0  0  0  0  0  6  0  0
    0.4596    1.5561    1.8927 N   0  0  0  0  0  0  0  0  0  7  0  0
    0.6642    1.9819    0.7796 N   0  0  0  0  0  0  0  0  0  8  0  0
    0.6911    1.1068   -0.3032 C   0  0  0  0  0  0  0  0  0  9  0  0
    0.9188    1.5941   -1.5851 C   0  0  0  0  0  0  0  0  0 10  0  0
    0.9456    0.7197   -2.6658 C   0  0  0  0  0  0  0  0  0 11  0  0
    0.7450   -0.6413   -2.4639 C   0  0  0  0  0  0  0  0  0 12  0  0
    0.5175   -1.1282   -1.1816 C   0  0  0  0  0  0  0  0  0 13  0  0
    0.4904   -0.2540   -0.1009 C   0  0  0  0  0  0  0  0  0 14  0  0
 14  9  4  0
 13 14  4  0
 12 13  4  0
 11 12  4  0
 10 11  4  0
  9 10  4  0
  8  9  1  0
  7  8  2  0
  4  7  1  0
  6  1  4  0
  5  6  4  0
  4  5  4  0
  3  4  4  0
  2  3  4  0
  1  2  4  0
M  END
> <Name>
Azobenzene

> <CAS RN>
000103-33-3

> <Log Koc>
3.22

> <VP-0>
7.66793

> <nAromBond>
12

> <MAXDP>
1.10148

> <nHBAcc>
2

> <Splitting>
2

$$$$
Propylbenzene
  SciTegic01221512053D

  9  9  0  0  0  0            999 V2000
   -1.2070    0.6856    0.3704 C   0  0  0  0  0  0  0  0  0  1  0  0
   -0.4228    1.8302    0.2809 C   0  0  0  0  0  0  0  0  0  2  0  0
    0.9027    1.7426   -0.1305 C   0  0  0  0  0  0  0  0  0  3  0  0
    1.4359    0.4996   -0.4628 C   0  0  0  0  0  0  0  0  0  4  0  0
    0.6535   -0.6461   -0.3739 C   0  0  0  0  0  0  0  0  0  5  0  0
   -0.6689   -0.5537    0.0440 C   0  0  0  0  0  0  0  0  0  6  0  0
    1.7297    3.0198   -0.2298 C   0  0  0  0  0  0  0  0  0  7  0  0
    3.2560    2.7706   -0.4061 C   0  0  0  0  0  0  0  0  0  8  0  0
    3.8991    2.2582    0.9115 C   0  0  0  0  0  0  0  0  0  9  0  0
  8  9  1  0
  7  8  1  0
  3  7  1  0
  6  1  4  0
  5  6  4  0
  4  5  4  0
  3  4  4  0
  2  3  4  0
  1  2  4  0
M  END
> <Name>
Propylbenzene

> <CAS RN>
000103-65-1

> <Log Koc>
2.87

> <VP-0>
5.80096

> <nAromBond>
6

> <MAXDP>
0.201389

> <nHBAcc>
0

> <Splitting>
2

$$$$
2-Pyridineethanol
  SciTegic01221512053D

  9  9  0  0  0  0            999 V2000
   -0.8416    3.2147    1.5177 C   0  0  0  0  0  0  0  0  0  1  0  0
   -0.8769    1.6668    1.5295 C   0  0  0  0  0  0  0  0  0  2  0  0
    0.0165    1.0707    0.4609 C   0  0  0  0  0  0  0  0  0  3  0  0
    0.6675    1.8869   -0.4592 C   0  0  0  0  0  0  0  0  0  4  0  0
    1.4762    1.3126   -1.4303 C   0  0  0  0  0  0  0  0  0  5  0  0
    1.6102   -0.0685   -1.4550 C   0  0  0  0  0  0  0  0  0  6  0  0
    0.9326   -0.8307   -0.5107 C   0  0  0  0  0  0  0  0  0  7  0  0
    0.1657   -0.2495    0.4065 N   0  0  0  0  0  0  0  0  0  8  0  0
    0.4673    3.6845    1.8665 O   0  0  0  0  0  0  0  0  0  9  0  0
  1  9  1  0
  8  3  4  0
  7  8  4  0
  6  7  4  0
  5  6  4  0
  4  5  4  0
  3  4  4  0
  2  3  1  0
  1  2  1  0
M  END
> <Name>
2-Pyridineethanol

> <CAS RN>
000103-74-2

> <Log Koc>
1.45

> <VP-0>
5.11804

> <nAromBond>
6

> <MAXDP>
2.47969

> <nHBAcc>
2

> <Splitting>
2

$$$$
Phenylacetic Acid
  SciTegic01221512053D

 10 10  0  0  0  0            999 V2000
    1.4730    1.0166   -0.0004 C   0  0  0  0  0  0  0  0  0  1  0  0
    0.6460    2.1361    0.0001 C   0  0  0  0  0  0  0  0  0  2  0  0
    1.1891    3.4157    0.0007 C   0  0  0  0  0  0  0  0  0  3  0  0
    2.5684    3.5851    0.0008 C   0  0  0  0  0  0  0  0  0  4  0  0
    3.4004    2.4720    0.0004 C   0  0  0  0  0  0  0  0  0  5  0  0
    2.8526    1.1941   -0.0002 C   0  0  0  0  0  0  0  0  0  6  0  0
    0.9260   -0.4163   -0.0011 C   0  0  0  0  0  0  0  0  0  7  0  0
   -0.5967   -0.5845   -0.0006 C   0  0  0  0  0  0  0  0  0  8  0  0
   -1.3725    0.3772    0.0007 O   0  0  0  0  0  0  0  0  0  9  0  0
   -1.1266   -1.8705   -0.0017 O   0  0  0  0  0  0  0  0  0 10  0  0
  8 10  1  0
  8  9  2  0
  7  8  1  0
  1  7  1  0
  6  1  4  0
  5  6  4  0
  4  5  4  0
  3  4  4  0
  2  3  4  0
  1  2  4  0
M  END
> <Name>
Phenylacetic Acid

> <CAS RN>
000103-82-2

> <Log Koc>
1.45

> <VP-0>
5.44932

> <nAromBond>
6

> <MAXDP>
3.16871

> <nHBAcc>
2

> <Splitting>
2

$$$$
Acetanilide
  SciTegic01221512053D

 10 10  0  0  0  0            999 V2000
   -0.4531    3.3231    1.0618 C   0  0  0  0  0  0  0  0  0  1  0  0
    0.2457    3.9334    0.2448 O   0  0  0  0  0  0  0  0  0  2  0  0
   -1.2802    4.1082    2.0371 C   0  0  0  0  0  0  0  0  0  3  0  0
   -0.4981    1.9808    1.1074 N   0  0  0  0  0  0  0  0  0  4  0  0
    0.2269    1.1005    0.2514 C   0  0  0  0  0  0  0  0  0  5  0  0
    1.0789    1.5656   -0.7466 C   0  0  0  0  0  0  0  0  0  6  0  0
    1.7669    0.6718   -1.5593 C   0  0  0  0  0  0  0  0  0  7  0  0
    1.6067   -0.6967   -1.3782 C   0  0  0  0  0  0  0  0  0  8  0  0
    0.7577   -1.1674   -0.3838 C   0  0  0  0  0  0  0  0  0  9  0  0
    0.0713   -0.2705    0.4270 C   0  0  0  0  0  0  0  0  0 10  0  0
 10  5  4  0
  9 10  4  0
  8  9  4  0
  7  8  4  0
  6  7  4  0
  5  6  4  0
  4  5  1  0
  1  4  1  0
  1  3  1  0
  1  2  2  0
M  END
> <Name>
Acetanilide

> <CAS RN>
000103-84-4

> <Log Koc>
1.43

> <VP-0>
5.795

> <nAromBond>
6

> <MAXDP>
3.50204

> <nHBAcc>
2

> <Splitting>
2

$$$$
4-Bromoacetanilide
  SciTegic01221512053D

 11 11  0  0  0  0            999 V2000
   -0.6979    3.4064    1.3584 C   0  0  0  0  0  0  0  0  0  1  0  0
   -0.3278    4.0440    0.3660 O   0  0  0  0  0  0  0  0  0  2  0  0
   -0.4360    2.0970    1.5096 N   0  0  0  0  0  0  0  0  0  3  0  0
    0.2800    1.2853    0.5812 C   0  0  0  0  0  0  0  0  0  4  0  0
    0.7923    1.7911   -0.6104 C   0  0  0  0  0  0  0  0  0  5  0  0
    1.4845    0.9641   -1.4875 C   0  0  0  0  0  0  0  0  0  6  0  0
    1.6688   -0.3778   -1.1767 C   0  0  0  0  0  0  0  0  0  7  0  0
    1.1600   -0.8893    0.0110 C   0  0  0  0  0  0  0  0  0  8  0  0
    0.4683   -0.0588    0.8855 C   0  0  0  0  0  0  0  0  0  9  0  0
    2.6148   -1.5113   -2.3739 Br  0  0  0  0  0  0  0  0  0 10  0  0
   -1.4665    4.1191    2.4320 C   0  0  0  0  0  0  0  0  0 11  0  0
  1 11  1  0
  7 10  1  0
  9  4  4  0
  8  9  4  0
  7  8  4  0
  6  7  4  0
  5  6  4  0
  4  5  4  0
  3  4  1  0
  1  3  1  0
  1  2  2  0
M  END
> <Name>
4-Bromoacetanilide

> <CAS RN>
000103-88-8

> <Log Koc>
1.95

> <VP-0>
7.68161

> <nAromBond>
6

> <MAXDP>
3.60158

> <nHBAcc>
2

> <Splitting>
2

$$$$
n-Buthylbenzene
  SciTegic01221512053D

 10 10  0  0  0  0            999 V2000
   -0.1150    1.1425    0.8640 C   0  0  0  0  0  0  0  0  0  1  0  0
    0.7158    2.2283    1.1161 C   0  0  0  0  0  0  0  0  0  2  0  0
    2.0627    2.1658    0.7778 C   0  0  0  0  0  0  0  0  0  3  0  0
    2.5777    1.0163    0.1896 C   0  0  0  0  0  0  0  0  0  4  0  0
    1.7459   -0.0690   -0.0621 C   0  0  0  0  0  0  0  0  0  5  0  0
    0.3970   -0.0072    0.2695 C   0  0  0  0  0  0  0  0  0  6  0  0
   -0.4935   -1.2094   -0.0037 C   0  0  0  0  0  0  0  0  0  7  0  0
   -2.0175   -0.9048    0.1472 C   0  0  0  0  0  0  0  0  0  8  0  0
   -2.7151   -0.5514   -1.2167 C   0  0  0  0  0  0  0  0  0  9  0  0
   -2.1698    0.7271   -1.8898 C   0  0  0  0  0  0  0  0  0 10  0  0
  9 10  1  0
  8  9  1  0
  7  8  1  0
  6  7  1  0
  6  1  4  0
  5  6  4  0
  4  5  4  0
  3  4  4  0
  2  3  4  0
  1  2  4  0
M  END
> <Name>
n-Buthylbenzene

> <CAS RN>
000104-51-8

> <Log Koc>
3.4

> <VP-0>
6.50807

> <nAromBond>
6

> <MAXDP>
0.225139

> <nHBAcc>
0

> <Splitting>
2

$$$$
Ethyl heptanoate
  SciTegic01221512053D

 11 10  0  0  0  0            999 V2000
    1.8986   -1.0553   -2.2072 C   0  0  0  0  0  0  0  0  0  1  0  0
    0.7145   -0.1638   -2.6557 C   0  0  0  0  0  0  0  0  0  2  0  0
    0.9745    1.3605   -2.3996 C   0  0  0  0  0  0  0  0  0  3  0  0
    0.6199    1.9692   -0.9692 C   0  0  0  0  0  0  0  0  0  4  0  0
    1.4146    1.4697    0.2957 C   0  0  0  0  0  0  0  0  0  5  0  0
    0.8876    0.1300    0.8857 C   0  0  0  0  0  0  0  0  0  6  0  0
   -0.5197    0.2716    1.4123 C   0  0  0  0  0  0  0  0  0  7  0  0
   -1.0612    1.3841    1.4515 O   0  0  0  0  0  0  0  0  0  8  0  0
   -1.1867   -0.8693    1.8919 O   0  0  0  0  0  0  0  0  0  9  0  0
   -2.5211   -0.5699    2.3454 C   0  0  0  0  0  0  0  0  0 10  0  0
   -3.4628   -0.3049    1.1437 C   0  0  0  0  0  0  0  0  0 11  0  0
 10 11  1  0
  9 10  1  0
  7  9  1  0
  7  8  2  0
  6  7  1  0
  5  6  1  0
  4  5  1  0
  3  4  1  0
  2  3  1  0
  1  2  1  0
M  END
> <Name>
Ethyl heptanoate

> <CAS RN>
000106-30-9

> <Log Koc>
2.61

> <VP-0>
7.55914

> <nAromBond>
0

> <MAXDP>
3.78398

> <nHBAcc>
2

> <Splitting>
2

$$$$
Ethyl octanoate
  SciTegic01221512053D

 12 11  0  0  0  0            999 V2000
    2.4825    0.6178    3.1460 C   0  0  0  0  0  0  0  0  0  1  0  0
    1.2774   -0.0296    2.4368 C   0  0  0  0  0  0  0  0  0  2  0  0
    0.1247    0.9995    2.3137 C   0  0  0  0  0  0  0  0  0  3  0  0
    0.5150    2.2657    1.4725 C   0  0  0  0  0  0  0  0  0  4  0  0
    0.3401    2.2164   -0.1120 C   0  0  0  0  0  0  0  0  0  5  0  0
    1.2443    1.2418   -0.9600 C   0  0  0  0  0  0  0  0  0  6  0  0
    0.7712   -0.2392   -0.9590 C   0  0  0  0  0  0  0  0  0  7  0  0
   -0.5879   -0.3931   -1.5954 C   0  0  0  0  0  0  0  0  0  8  0  0
   -1.1328    0.5732   -2.1450 O   0  0  0  0  0  0  0  0  0  9  0  0
   -1.2058   -1.6556   -1.5838 O   0  0  0  0  0  0  0  0  0 10  0  0
   -2.5021   -1.6334   -2.2106 C   0  0  0  0  0  0  0  0  0 11  0  0
   -3.5369   -0.9226   -1.3023 C   0  0  0  0  0  0  0  0  0 12  0  0
 11 12  1  0
 10 11  1  0
  8 10  1  0
  8  9  2  0
  7  8  1  0
  6  7  1  0
  5  6  1  0
  4  5  1  0
  3  4  1  0
  2  3  1  0
  1  2  1  0
M  END
> <Name>
Ethyl octanoate

> <CAS RN>
000106-32-1

> <Log Koc>
3.02

> <VP-0>
8.26624

> <nAromBond>
0

> <MAXDP>
3.85352

> <nHBAcc>
2

> <Splitting>
2

$$$$
4-Bromoaniline
  SciTegic01221512053D

  8  8  0  0  0  0            999 V2000
   -0.9536    0.8663   -0.0008 C   0  0  0  0  0  0  0  0  0  1  0  0
   -0.2587    2.0706   -0.0001 C   0  0  0  0  0  0  0  0  0  2  0  0
    1.1316    2.0707    0.0007 C   0  0  0  0  0  0  0  0  0  3  0  0
    1.8267    0.8665    0.0008 C   0  0  0  0  0  0  0  0  0  4  0  0
    1.1318   -0.3378    0.0001 C   0  0  0  0  0  0  0  0  0  5  0  0
   -0.2585   -0.3379   -0.0007 C   0  0  0  0  0  0  0  0  0  6  0  0
    3.7275    0.8667    0.0019 Br  0  0  0  0  0  0  0  0  0  7  0  0
   -2.3494    0.8661   -0.0016 N   0  0  0  0  0  0  0  0  0  8  0  0
  1  8  1  0
  4  7  1  0
  6  1  4  0
  5  6  4  0
  4  5  4  0
  3  4  4  0
  2  3  4  0
  1  2  4  0
M  END
> <Name>
4-Bromoaniline

> <CAS RN>
000106-40-1

> <Log Koc>
1.96

> <VP-0>
5.85071

> <nAromBond>
6

> <MAXDP>
1.45264

> <nHBAcc>
1

> <Splitting>
2

$$$$
4-Bromophenol
  SciTegic01221512053D

  8  8  0  0  0  0            999 V2000
   -0.9542    0.8661   -0.0001 C   0  0  0  0  0  0  0  0  0  1  0  0
   -0.2589    2.0701    0.0001 C   0  0  0  0  0  0  0  0  0  2  0  0
    1.1315    2.0696   -0.0003 C   0  0  0  0  0  0  0  0  0  3  0  0
    1.8260    0.8651   -0.0008 C   0  0  0  0  0  0  0  0  0  4  0  0
    1.1306   -0.3389   -0.0010 C   0  0  0  0  0  0  0  0  0  5  0  0
   -0.2597   -0.3385   -0.0006 C   0  0  0  0  0  0  0  0  0  6  0  0
    3.7269    0.8644   -0.0013 Br  0  0  0  0  0  0  0  0  0  7  0  0
   -2.3450    0.8665    0.0002 O   0  0  0  0  0  0  0  0  0  8  0  0
  1  8  1  0
  4  7  1  0
  6  1  4  0
  5  6  4  0
  4  5  4  0
  3  4  4  0
  2  3  4  0
  1  2  4  0
M  END
> <Name>
4-Bromophenol

> <CAS RN>
000106-41-2

> <Log Koc>
2.41

> <VP-0>
5.72058

> <nAromBond>
6

> <MAXDP>
2.78264

> <nHBAcc>
0

> <Splitting>
2

$$$$
1,4-Dimethylbenzene
  SciTegic01221512053D

  8  8  0  0  0  0            999 V2000
   -2.1248    1.2164    0.8515 C   0  0  0  0  0  0  0  0  0  1  0  0
   -0.6843    1.0794    0.4542 C   0  0  0  0  0  0  0  0  0  2  0  0
    0.0402    2.2018    0.0687 C   0  0  0  0  0  0  0  0  0  3  0  0
    1.3748    2.0748   -0.2994 C   0  0  0  0  0  0  0  0  0  4  0  0
    1.9848    0.8254   -0.2819 C   0  0  0  0  0  0  0  0  0  5  0  0
    1.2603   -0.2970    0.1036 C   0  0  0  0  0  0  0  0  0  6  0  0
   -0.0744   -0.1700    0.4716 C   0  0  0  0  0  0  0  0  0  7  0  0
    3.4253    0.6884   -0.6792 C   0  0  0  0  0  0  0  0  0  8  0  0
  5  8  1  0
  7  2  4  0
  6  7  4  0
  5  6  4  0
  4  5  4  0
  3  4  4  0
  2  3  4  0
  1  2  1  0
M  END
> <Name>
1,4-Dimethylbenzene

> <CAS RN>
000106-42-3

> <Log Koc>
2.47

> <VP-0>
5.3094

> <nAromBond>
6

> <MAXDP>
0.12037

> <nHBAcc>
0

> <Splitting>
2

$$$$
4-Methylphenol
  SciTegic01221512053D

  8  8  0  0  0  0            999 V2000
   -2.0480    1.1962    0.7756 O   0  0  0  0  0  0  0  0  0  1  0  0
   -0.7056    1.0758    0.4327 C   0  0  0  0  0  0  0  0  0  2  0  0
    0.0237    2.2036    0.0728 C   0  0  0  0  0  0  0  0  0  3  0  0
    1.3657    2.0832   -0.2700 C   0  0  0  0  0  0  0  0  0  4  0  0
    1.9781    0.8351   -0.2528 C   0  0  0  0  0  0  0  0  0  5  0  0
    1.2489   -0.2927    0.1071 C   0  0  0  0  0  0  0  0  0  6  0  0
   -0.0931   -0.1724    0.4499 C   0  0  0  0  0  0  0  0  0  7  0  0
    3.4266    0.7051   -0.6228 C   0  0  0  0  0  0  0  0  0  8  0  0
  5  8  1  0
  7  2  4  0
  6  7  4  0
  5  6  4  0
  4  5  4  0
  3  4  4  0
  2  3  4  0
  1  2  1  0
M  END
> <Name>
4-Methylphenol

> <CAS RN>
000106-44-5

> <Log Koc>
2.2

> <VP-0>
4.75661

> <nAromBond>
6

> <MAXDP>
2.75667

> <nHBAcc>
0

> <Splitting>
2

$$$$
1,4-Dichlorobenzene
  SciTegic01221512053D

  8  8  0  0  0  0            999 V2000
   -0.8902    0.8669   -0.0004 C   0  0  0  0  0  0  0  0  0  1  0  0
   -0.1946    2.0707   -0.0003 C   0  0  0  0  0  0  0  0  0  2  0  0
    1.1958    2.0699    0.0002 C   0  0  0  0  0  0  0  0  0  3  0  0
    1.8908    0.8656    0.0006 C   0  0  0  0  0  0  0  0  0  4  0  0
    1.1951   -0.3382    0.0006 C   0  0  0  0  0  0  0  0  0  5  0  0
   -0.1953   -0.3373    0.0001 C   0  0  0  0  0  0  0  0  0  6  0  0
   -1.0598   -1.8333    0.0000 Cl  0  0  0  0  0  0  0  0  0  7  0  0
    2.0603    3.5659    0.0002 Cl  0  0  0  0  0  0  0  0  0  8  0  0
  3  8  1  0
  6  7  1  0
  6  1  4  0
  5  6  4  0
  4  5  4  0
  3  4  4  0
  2  3  4  0
  1  2  4  0
M  END
> <Name>
1,4-Dichlorobenzene

> <CAS RN>
000106-46-7

> <Log Koc>
2.54

> <VP-0>
5.57719

> <nAromBond>
6

> <MAXDP>
0.233968

> <nHBAcc>
0

> <Splitting>
2

$$$$
4-Chloroaniline
  SciTegic01221512053D

  8  8  0  0  0  0            999 V2000
   -2.2609    1.2765    1.0305 Cl  0  0  0  0  0  0  0  0  0  1  0  0
   -0.6264    1.0951    0.5008 C   0  0  0  0  0  0  0  0  0  2  0  0
    0.0869    2.2025    0.0555 C   0  0  0  0  0  0  0  0  0  3  0  0
    1.4022    2.0565   -0.3708 C   0  0  0  0  0  0  0  0  0  4  0  0
    2.0038    0.8031   -0.3517 C   0  0  0  0  0  0  0  0  0  5  0  0
    1.2906   -0.3043    0.0936 C   0  0  0  0  0  0  0  0  0  6  0  0
   -0.0247   -0.1583    0.5198 C   0  0  0  0  0  0  0  0  0  7  0  0
    3.3242    0.6566   -0.7796 N   0  0  0  0  0  0  0  0  0  8  0  0
  5  8  1  0
  7  2  4  0
  6  7  4  0
  5  6  4  0
  4  5  4  0
  3  4  4  0
  2  3  4  0
  1  2  1  0
M  END
> <Name>
4-Chloroaniline

> <CAS RN>
000106-47-8

> <Log Koc>
1.97

> <VP-0>
5.02064

> <nAromBond>
6

> <MAXDP>
1.44484

> <nHBAcc>
1

> <Splitting>
2

$$$$
4-Chlorophenol
  SciTegic01221512053D

  8  8  0  0  0  0            999 V2000
   -0.9119    0.8299    0.0001 C   0  0  0  0  0  0  0  0  0  1  0  0
   -0.2170    2.0341   -0.0008 C   0  0  0  0  0  0  0  0  0  2  0  0
    1.1734    2.0342   -0.0008 C   0  0  0  0  0  0  0  0  0  3  0  0
    1.8692    0.8304    0.0000 C   0  0  0  0  0  0  0  0  0  4  0  0
    1.1743   -0.3739    0.0008 C   0  0  0  0  0  0  0  0  0  5  0  0
   -0.2161   -0.3739    0.0009 C   0  0  0  0  0  0  0  0  0  6  0  0
   -0.9112   -1.5785    0.0017 O   0  0  0  0  0  0  0  0  0  7  0  0
    2.0369    3.5307   -0.0019 Cl  0  0  0  0  0  0  0  0  0  8  0  0
  3  8  1  0
  6  7  1  0
  6  1  4  0
  5  6  4  0
  4  5  4  0
  3  4  4  0
  2  3  4  0
  1  2  4  0
M  END
> <Name>
4-Chlorophenol

> <CAS RN>
000106-48-9

> <Log Koc>
1.85

> <VP-0>
4.89051

> <nAromBond>
6

> <MAXDP>
2.77484

> <nHBAcc>
0

> <Splitting>
2

$$$$
4-Methylaniline
  SciTegic01221512053D

  8  8  0  0  0  0            999 V2000
   -2.0514    1.1959    0.7798 N   0  0  0  0  0  0  0  0  0  1  0  0
   -0.7045    1.0750    0.4342 C   0  0  0  0  0  0  0  0  0  2  0  0
    0.0240    2.2026    0.0723 C   0  0  0  0  0  0  0  0  0  3  0  0
    1.3657    2.0822   -0.2719 C   0  0  0  0  0  0  0  0  0  4  0  0
    1.9784    0.8342   -0.2541 C   0  0  0  0  0  0  0  0  0  5  0  0
    1.2499   -0.2934    0.1078 C   0  0  0  0  0  0  0  0  0  6  0  0
   -0.0917   -0.1730    0.4520 C   0  0  0  0  0  0  0  0  0  7  0  0
    3.4266    0.7043   -0.6256 C   0  0  0  0  0  0  0  0  0  8  0  0
  5  8  1  0
  7  2  4  0
  6  7  4  0
  5  6  4  0
  4  5  4  0
  3  4  4  0
  2  3  4  0
  1  2  1  0
M  END
> <Name>
4-Methylaniline

> <CAS RN>
000106-49-0

> <Log Koc>
1.9

> <VP-0>
4.88675

> <nAromBond>
6

> <MAXDP>
1.42667

> <nHBAcc>
1

> <Splitting>
2

$$$$
Epichlorohydrin
  SciTegic01221512053D

  6  6  0  0  0  0            999 V2000
   -0.0805    1.1932    0.3986 O   0  0  0  0  0  0  0  0  0  1  0  0
    1.1377    0.5078   -0.1058 C   0  0  0  0  0  0  0  0  0  2  0  0
   -0.0972   -0.2284    0.2723 C   0  0  1  0  0  0  0  0  0  3  0  0
   -0.0388   -0.7832    1.2203 H   0  0  0  0  0  0  0  0  0  4  0  0
   -0.9371   -0.8111   -0.8792 C   0  0  0  0  0  0  0  0  0  5  0  0
   -0.8607    0.2739   -2.2716 Cl  0  0  0  0  0  0  0  0  0  6  0  0
  5  6  1  0
  3  5  1  0
  3  1  1  0
  3  4  1  0
  2  3  1  0
  1  2  1  0
M  END
> <Name>
Epichlorohydrin

> <CAS RN>
000106-89-8

> <Log Koc>
1

> <VP-0>
3.53371

> <nAromBond>
0

> <MAXDP>
1.39853

> <nHBAcc>
1

> <Splitting>
2

$$$$
1,2-Dibromoethane
  SciTegic01221512053D

  4  3  0  0  0  0            999 V2000
   -0.5805    0.2073   -0.6887 Br  0  0  0  0  0  0  0  0  0  1  0  0
    1.2389   -0.3343   -0.2898 C   0  0  0  0  0  0  0  0  0  2  0  0
    1.6967    0.3331    1.0200 C   0  0  0  0  0  0  0  0  0  3  0  0
    0.5234   -0.2101    2.4659 Br  0  0  0  0  0  0  0  0  0  4  0  0
  3  4  1  0
  2  3  1  0
  1  2  1  0
M  END
> <Name>
1,2-Dibromoethane

> <CAS RN>
000106-93-4

> <Log Koc>
1.72

> <VP-0>
5.34214

> <nAromBond>
0

> <MAXDP>
0.15715

> <nHBAcc>
0

> <Splitting>
2

$$$$
2-Propenal
  SciTegic01221512053D

  4  3  0  0  0  0            999 V2000
    1.2137   -0.1322   -0.0002 C   0  0  0  0  0  0  0  0  0  1  0  0
    1.8919    1.0134   -0.0005 C   0  0  0  0  0  0  0  0  0  2  0  0
   -0.2488   -0.1151    0.0006 C   0  0  0  0  0  0  0  0  0  3  0  0
   -0.8536    0.9630    0.0011 O   0  0  0  0  0  0  0  0  0  4  0  0
  3  4  2  0
  1  3  1  0
  1  2  2  0
M  END
> <Name>
2-Propenal

> <CAS RN>
000107-02-8

> <Log Koc>
-0.31

> <VP-0>
2.27006

> <nAromBond>
0

> <MAXDP>
2.05556

> <nHBAcc>
1

> <Splitting>
1

$$$$
1,2-Dichloroethane
  SciTegic01221512053D

  4  3  0  0  0  0            999 V2000
   -0.2657   -0.2198   -0.3307 C   0  0  0  0  0  0  0  0  0  1  0  0
    1.2660   -0.3294   -0.2190 C   0  0  0  0  0  0  0  0  0  2  0  0
    1.7651    0.0637    1.4295 Cl  0  0  0  0  0  0  0  0  0  3  0  0
   -0.7678    1.4276    0.0637 Cl  0  0  0  0  0  0  0  0  0  4  0  0
  1  4  1  0
  2  3  1  0
  1  2  1  0
M  END
> <Name>
1,2-Dichloroethane

> <CAS RN>
000107-06-2

> <Log Koc>
1.54

> <VP-0>
3.682

> <nAromBond>
0

> <MAXDP>
0.055727

> <nHBAcc>
0

> <Splitting>
2

$$$$
1,3-Dimethylbenzene
  SciTegic01221512053D

  8  8  0  0  0  0            999 V2000
   -0.9463    0.7698    0.0000 C   0  0  0  0  0  0  0  0  0  1  0  0
   -0.2510    1.9739   -0.0002 C   0  0  0  0  0  0  0  0  0  2  0  0
    1.1393    1.9743   -0.0009 C   0  0  0  0  0  0  0  0  0  3  0  0
    1.8344    0.7702   -0.0014 C   0  0  0  0  0  0  0  0  0  4  0  0
    1.1395   -0.4341   -0.0012 C   0  0  0  0  0  0  0  0  0  5  0  0
   -0.2509   -0.4343   -0.0005 C   0  0  0  0  0  0  0  0  0  6  0  0
    3.3349    0.7706   -0.0022 C   0  0  0  0  0  0  0  0  0  7  0  0
   -1.0012    3.2734    0.0003 C   0  0  0  0  0  0  0  0  0  8  0  0
  2  8  1  0
  4  7  1  0
  6  1  4  0
  5  6  4  0
  4  5  4  0
  3  4  4  0
  2  3  4  0
  1  2  4  0
M  END
> <Name>
1,3-Dimethylbenzene

> <CAS RN>
000108-38-3

> <Log Koc>
2.77

> <VP-0>
5.3094

> <nAromBond>
6

> <MAXDP>
0.166667

> <nHBAcc>
0

> <Splitting>
2

$$$$
m-Cresol
  SciTegic01221512053D

  8  8  0  0  0  0            999 V2000
   -0.9527    0.9496    0.0008 C   0  0  0  0  0  0  0  0  0  1  0  0
   -0.2585    2.1542    0.0013 C   0  0  0  0  0  0  0  0  0  2  0  0
    1.1319    2.1553    0.0006 C   0  0  0  0  0  0  0  0  0  3  0  0
    1.8280    0.9517   -0.0005 C   0  0  0  0  0  0  0  0  0  4  0  0
    1.1340   -0.2531   -0.0010 C   0  0  0  0  0  0  0  0  0  5  0  0
   -0.2563   -0.2539   -0.0004 C   0  0  0  0  0  0  0  0  0  6  0  0
   -0.9506   -1.4588   -0.0008 O   0  0  0  0  0  0  0  0  0  7  0  0
    3.3286    0.9528   -0.0013 C   0  0  0  0  0  0  0  0  0  8  0  0
  4  8  1  0
  6  7  1  0
  6  1  4  0
  5  6  4  0
  4  5  4  0
  3  4  4  0
  2  3  4  0
  1  2  4  0
M  END
> <Name>
m-Cresol

> <CAS RN>
000108-39-4

> <Log Koc>
1.54

> <VP-0>
4.75661

> <nAromBond>
6

> <MAXDP>
2.81306

> <nHBAcc>
0

> <Splitting>
1

$$$$
3-Chlorophenol
  SciTegic01221512053D

  8  8  0  0  0  0            999 V2000
   -0.7721    0.8331    0.0006 C   0  0  0  0  0  0  0  0  0  1  0  0
   -0.0730    2.0349    0.0005 C   0  0  0  0  0  0  0  0  0  2  0  0
    1.3174    2.0306    0.0001 C   0  0  0  0  0  0  0  0  0  3  0  0
    2.0090    0.8244   -0.0003 C   0  0  0  0  0  0  0  0  0  4  0  0
    1.3099   -0.3775   -0.0002 C   0  0  0  0  0  0  0  0  0  5  0  0
   -0.0805   -0.3730    0.0003 C   0  0  0  0  0  0  0  0  0  6  0  0
   -0.7796   -1.5752    0.0004 O   0  0  0  0  0  0  0  0  0  7  0  0
   -0.9322    3.5339    0.0009 Cl  0  0  0  0  0  0  0  0  0  8  0  0
  2  8  1  0
  6  7  1  0
  6  1  4  0
  5  6  4  0
  4  5  4  0
  3  4  4  0
  2  3  4  0
  1  2  4  0
M  END
> <Name>
3-Chlorophenol

> <CAS RN>
000108-43-0

> <Log Koc>
2.18

> <VP-0>
4.89051

> <nAromBond>
6

> <MAXDP>
2.83923

> <nHBAcc>
0

> <Splitting>
2

$$$$
3-Methylaniline
  SciTegic01221512053D

  8  8  0  0  0  0            999 V2000
   -0.8280    0.7809   -0.0001 C   0  0  0  0  0  0  0  0  0  1  0  0
   -0.1338    1.9854   -0.0004 C   0  0  0  0  0  0  0  0  0  2  0  0
    1.2566    1.9860   -0.0006 C   0  0  0  0  0  0  0  0  0  3  0  0
    1.9527    0.7824   -0.0005 C   0  0  0  0  0  0  0  0  0  4  0  0
    1.2582   -0.4222   -0.0001 C   0  0  0  0  0  0  0  0  0  5  0  0
   -0.1322   -0.4229    0.0000 C   0  0  0  0  0  0  0  0  0  6  0  0
    1.9536    3.1951   -0.0009 N   0  0  0  0  0  0  0  0  0  7  0  0
   -2.3286    0.7801    0.0001 C   0  0  0  0  0  0  0  0  0  8  0  0
  1  8  1  0
  3  7  1  0
  6  1  4  0
  5  6  4  0
  4  5  4  0
  3  4  4  0
  2  3  4  0
  1  2  4  0
M  END
> <Name>
3-Methylaniline

> <CAS RN>
000108-44-1

> <Log Koc>
1.65

> <VP-0>
4.88675

> <nAromBond>
6

> <MAXDP>
1.45861

> <nHBAcc>
1

> <Splitting>
2

$$$$
3-Hydroxyphenol
  SciTegic01221512053D

  8  8  0  0  0  0            999 V2000
   -0.8411    0.7812   -0.0007 C   0  0  0  0  0  0  0  0  0  1  0  0
   -0.1461    1.9854   -0.0001 C   0  0  0  0  0  0  0  0  0  2  0  0
    1.2443    1.9851    0.0010 C   0  0  0  0  0  0  0  0  0  3  0  0
    1.9395    0.7810    0.0013 C   0  0  0  0  0  0  0  0  0  4  0  0
    1.2443   -0.4232    0.0007 C   0  0  0  0  0  0  0  0  0  5  0  0
   -0.1461   -0.4230   -0.0004 C   0  0  0  0  0  0  0  0  0  6  0  0
    1.9397    3.1894    0.0016 O   0  0  0  0  0  0  0  0  0  7  0  0
   -2.2319    0.7813   -0.0017 O   0  0  0  0  0  0  0  0  0  8  0  0
  1  8  1  0
  3  7  1  0
  6  1  4  0
  5  6  4  0
  4  5  4  0
  3  4  4  0
  2  3  4  0
  1  2  4  0
M  END
> <Name>
3-Hydroxyphenol

> <CAS RN>
000108-46-3

> <Log Koc>
1.01

> <VP-0>
4.20383

> <nAromBond>
6

> <MAXDP>
2.65306

> <nHBAcc>
0

> <Splitting>
2

$$$$
Bis(2-chloroisopropyl)ether
  SciTegic01221512053D

 11 10  0  0  0  0            999 V2000
    0.1754    2.2368   -3.3313 C   0  0  2  0  0  0  0  0  0  1  0  0
    0.1219    3.3270   -3.3335 H   0  0  0  0  0  0  0  0  0  2  0  0
    1.2802    1.7855   -2.4979 O   0  0  0  0  0  0  0  0  0  3  0  0
    1.2708    2.1653   -1.0690 C   0  0  2  0  0  0  0  0  0  4  0  0
    0.3536    1.8118   -0.5805 H   0  0  0  0  0  0  0  0  0  5  0  0
    1.4633    3.7015   -0.7843 C   0  0  0  0  0  0  0  0  0  6  0  0
    0.1253    4.7263   -1.3367 Cl  0  0  0  0  0  0  0  0  0  7  0  0
    2.4695    1.4477   -0.4236 C   0  0  0  0  0  0  0  0  0  8  0  0
    0.4313    1.7565   -4.7688 C   0  0  0  0  0  0  0  0  0  9  0  0
    1.9586    2.4306   -5.3447 Cl  0  0  0  0  0  0  0  0  0 10  0  0
   -1.1719    1.6441   -2.8523 C   0  0  0  0  0  0  0  0  0 11  0  0
  1 11  1  0
  9 10  1  0
  1  9  1  0
  4  8  1  0
  6  7  1  0
  4  6  1  0
  4  5  1  0
  3  4  1  0
  1  3  1  0
  1  2  1  0
M  END
> <Name>
Bis(2-chloroisopropyl)ether

> <CAS RN>
000108-60-1

> <Log Koc>
1.73

> <VP-0>
7.24495

> <nAromBond>
0

> <MAXDP>
2.1304

> <nHBAcc>
1

> <Splitting>
2

$$$$
1,3,5-Trimethylbenzene
  SciTegic01221512053D

  9  9  0  0  0  0            999 V2000
   -0.8911    0.8664   -0.0007 C   0  0  0  0  0  0  0  0  0  1  0  0
   -0.1960    2.0704    0.0003 C   0  0  0  0  0  0  0  0  0  2  0  0
    1.1943    2.0709    0.0005 C   0  0  0  0  0  0  0  0  0  3  0  0
    1.8895    0.8669   -0.0003 C   0  0  0  0  0  0  0  0  0  4  0  0
    1.1948   -0.3374   -0.0013 C   0  0  0  0  0  0  0  0  0  5  0  0
   -0.1955   -0.3374   -0.0015 C   0  0  0  0  0  0  0  0  0  6  0  0
   -0.9454   -1.6368   -0.0025 C   0  0  0  0  0  0  0  0  0  7  0  0
    3.3897    0.8672   -0.0002 C   0  0  0  0  0  0  0  0  0  8  0  0
   -0.9463    3.3695    0.0012 C   0  0  0  0  0  0  0  0  0  9  0  0
  2  9  1  0
  4  8  1  0
  6  7  1  0
  6  1  4  0
  5  6  4  0
  4  5  4  0
  3  4  4  0
  2  3  4  0
  1  2  4  0
M  END
> <Name>
1,3,5-Trimethylbenzene

> <CAS RN>
000108-67-8

> <Log Koc>
2.82

> <VP-0>
6.23205

> <nAromBond>
6

> <MAXDP>
0.1875

> <nHBAcc>
0

> <Splitting>
2

$$$$
3,5-Dimethylphenol
  SciTegic01221512053D

  9  9  0  0  0  0            999 V2000
   -0.8834    0.8770    0.0004 C   0  0  0  0  0  0  0  0  0  1  0  0
   -0.1884    2.0811    0.0000 C   0  0  0  0  0  0  0  0  0  2  0  0
    1.2020    2.0807   -0.0001 C   0  0  0  0  0  0  0  0  0  3  0  0
    1.8973    0.8767    0.0003 C   0  0  0  0  0  0  0  0  0  4  0  0
    1.2018   -0.3271    0.0007 C   0  0  0  0  0  0  0  0  0  5  0  0
   -0.1885   -0.3272    0.0007 C   0  0  0  0  0  0  0  0  0  6  0  0
    1.9517   -1.6266    0.0010 C   0  0  0  0  0  0  0  0  0  7  0  0
    1.8973    3.2848   -0.0004 O   0  0  0  0  0  0  0  0  0  8  0  0
   -2.3837    0.8770    0.0004 C   0  0  0  0  0  0  0  0  0  9  0  0
  1  9  1  0
  3  8  1  0
  5  7  1  0
  6  1  4  0
  5  6  4  0
  4  5  4  0
  3  4  4  0
  2  3  4  0
  1  2  4  0
M  END
> <Name>
3,5-Dimethylphenol

> <CAS RN>
000108-68-9

> <Log Koc>
2.83

> <VP-0>
5.67926

> <nAromBond>
6

> <MAXDP>
2.99389

> <nHBAcc>
0

> <Splitting>
2

$$$$
1,3,5-Trichlorobenzene
  SciTegic01221512053D

  9  9  0  0  0  0            999 V2000
   -0.8901    0.8663   -0.0002 C   0  0  0  0  0  0  0  0  0  1  0  0
   -0.1949    2.0703   -0.0002 C   0  0  0  0  0  0  0  0  0  2  0  0
    1.1954    2.0701   -0.0002 C   0  0  0  0  0  0  0  0  0  3  0  0
    1.8906    0.8660   -0.0001 C   0  0  0  0  0  0  0  0  0  4  0  0
    1.1952   -0.3380   -0.0001 C   0  0  0  0  0  0  0  0  0  5  0  0
   -0.1952   -0.3379   -0.0001 C   0  0  0  0  0  0  0  0  0  6  0  0
    2.0589   -1.8343    0.0000 Cl  0  0  0  0  0  0  0  0  0  7  0  0
    2.0594    3.5662   -0.0003 Cl  0  0  0  0  0  0  0  0  0  8  0  0
   -2.6178    0.8664   -0.0002 Cl  0  0  0  0  0  0  0  0  0  9  0  0
  1  9  1  0
  3  8  1  0
  5  7  1  0
  6  1  4  0
  5  6  4  0
  4  5  4  0
  3  4  4  0
  2  3  4  0
  1  2  4  0
M  END
> <Name>
1,3,5-Trichlorobenzene

> <CAS RN>
000108-70-3

> <Log Koc>
2.85

> <VP-0>
6.63373

> <nAromBond>
6

> <MAXDP>
0.359078

> <nHBAcc>
0

> <Splitting>
2

$$$$
Bromobenzene
  SciTegic01221512053D

  7  7  0  0  0  0            999 V2000
   -2.0306    1.4078    1.4848 Br  0  0  0  0  0  0  0  0  0  1  0  0
   -0.4021    1.1100    0.5508 C   0  0  0  0  0  0  0  0  0  2  0  0
    0.2641    2.1766   -0.0424 C   0  0  0  0  0  0  0  0  0  3  0  0
    1.4553    1.9588   -0.7256 C   0  0  0  0  0  0  0  0  0  4  0  0
    1.9802    0.6743   -0.8155 C   0  0  0  0  0  0  0  0  0  5  0  0
    1.3140   -0.3923   -0.2223 C   0  0  0  0  0  0  0  0  0  6  0  0
    0.1228   -0.1745    0.4609 C   0  0  0  0  0  0  0  0  0  7  0  0
  7  2  4  0
  6  7  4  0
  5  6  4  0
  4  5  4  0
  3  4  4  0
  2  3  4  0
  1  2  1  0
M  END
> <Name>
Bromobenzene

> <CAS RN>
000108-86-1

> <Log Koc>
2.34

> <VP-0>
5.35071

> <nAromBond>
6

> <MAXDP>
0.187243

> <nHBAcc>
0

> <Splitting>
2

$$$$
Toluene
  SciTegic01221512053D

  7  7  0  0  0  0            999 V2000
   -0.8274    0.9761    0.0006 C   0  0  0  0  0  0  0  0  0  1  0  0
   -0.1321    2.1802    0.0006 C   0  0  0  0  0  0  0  0  0  2  0  0
    1.2584    2.1801    0.0000 C   0  0  0  0  0  0  0  0  0  3  0  0
    1.9536    0.9759   -0.0005 C   0  0  0  0  0  0  0  0  0  4  0  0
    1.2583   -0.2282   -0.0004 C   0  0  0  0  0  0  0  0  0  5  0  0
   -0.1321   -0.2280    0.0002 C   0  0  0  0  0  0  0  0  0  6  0  0
   -0.8826   -1.5276    0.0002 C   0  0  0  0  0  0  0  0  0  7  0  0
  6  7  1  0
  6  1  4  0
  5  6  4  0
  4  5  4  0
  3  4  4  0
  2  3  4  0
  1  2  4  0
M  END
> <Name>
Toluene

> <CAS RN>
000108-88-3

> <Log Koc>
2.2

> <VP-0>
4.38675

> <nAromBond>
6

> <MAXDP>
0.0833333

> <nHBAcc>
0

> <Splitting>
2

$$$$
Chlorobenzene
  SciTegic01221512053D

  7  7  0  0  0  0            999 V2000
   -0.9703    0.7270    0.0003 C   0  0  0  0  0  0  0  0  0  1  0  0
   -0.2751    1.9312    0.0010 C   0  0  0  0  0  0  0  0  0  2  0  0
    1.1153    1.9311    0.0006 C   0  0  0  0  0  0  0  0  0  3  0  0
    1.8107    0.7270   -0.0005 C   0  0  0  0  0  0  0  0  0  4  0  0
    1.1155   -0.4771   -0.0012 C   0  0  0  0  0  0  0  0  0  5  0  0
   -0.2749   -0.4770   -0.0008 C   0  0  0  0  0  0  0  0  0  6  0  0
    1.9792    3.4275    0.0014 Cl  0  0  0  0  0  0  0  0  0  7  0  0
  3  7  1  0
  6  1  4  0
  5  6  4  0
  4  5  4  0
  3  4  4  0
  2  3  4  0
  1  2  4  0
M  END
> <Name>
Chlorobenzene

> <CAS RN>
000108-90-7

> <Log Koc>
2.38

> <VP-0>
4.52064

> <nAromBond>
6

> <MAXDP>
0.156036

> <nHBAcc>
0

> <Splitting>
2

$$$$
Phenol
  SciTegic01221512053D

  7  7  0  0  0  0            999 V2000
   -0.8342    0.9632    0.0014 C   0  0  0  0  0  0  0  0  0  1  0  0
   -0.1392    2.1675    0.0022 C   0  0  0  0  0  0  0  0  0  2  0  0
    1.2513    2.1675    0.0017 C   0  0  0  0  0  0  0  0  0  3  0  0
    1.9468    0.9635    0.0004 C   0  0  0  0  0  0  0  0  0  4  0  0
    1.2518   -0.2407   -0.0004 C   0  0  0  0  0  0  0  0  0  5  0  0
   -0.1386   -0.2407    0.0001 C   0  0  0  0  0  0  0  0  0  6  0  0
   -0.8339   -1.4453   -0.0006 O   0  0  0  0  0  0  0  0  0  7  0  0
  6  7  1  0
  6  1  4  0
  5  6  4  0
  4  5  4  0
  3  4  4  0
  2  3  4  0
  1  2  4  0
M  END
> <Name>
Phenol

> <CAS RN>
000108-95-2

> <Log Koc>
1.43

> <VP-0>
3.83396

> <nAromBond>
6

> <MAXDP>
2.63222

> <nHBAcc>
0

> <Splitting>
2

$$$$
n-Butylamine
  SciTegic01221512053D

  5  4  0  0  0  0            999 V2000
    0.1503   -0.0845   -1.0314 N   0  0  0  0  0  0  0  0  0  1  0  0
    1.4135    0.2566   -0.3561 C   0  0  0  0  0  0  0  0  0  2  0  0
    1.5093   -0.3480    1.0808 C   0  0  0  0  0  0  0  0  0  3  0  0
    0.4880    0.2705    2.0886 C   0  0  0  0  0  0  0  0  0  4  0  0
   -0.9758   -0.0970    1.7606 C   0  0  0  0  0  0  0  0  0  5  0  0
  4  5  1  0
  3  4  1  0
  2  3  1  0
  1  2  1  0
M  END
> <Name>
n-Butylamine

> <CAS RN>
000109-73-9

> <Log Koc>
1.88

> <VP-0>
3.69867

> <nAromBond>
0

> <MAXDP>
1.13903

> <nHBAcc>
1

> <Splitting>
2

$$$$
1-Hexanol
  SciTegic01221512053D

  7  6  0  0  0  0            999 V2000
    0.8257   -1.8110   -0.4979 C   0  0  0  0  0  0  0  0  0  1  0  0
    1.8866   -1.5031    0.5864 C   0  0  0  0  0  0  0  0  0  2  0  0
    1.7798   -0.0659    1.2226 C   0  0  0  0  0  0  0  0  0  3  0  0
    0.5488    0.1599    2.1843 C   0  0  0  0  0  0  0  0  0  4  0  0
   -0.8568    0.3154    1.5110 C   0  0  0  0  0  0  0  0  0  5  0  0
   -0.9733    1.6208    0.6713 C   0  0  0  0  0  0  0  0  0  6  0  0
   -0.0805    1.6112   -0.4463 O   0  0  0  0  0  0  0  0  0  7  0  0
  6  7  1  0
  5  6  1  0
  4  5  1  0
  3  4  1  0
  2  3  1  0
  1  2  1  0
M  END
> <Name>
1-Hexanol

> <CAS RN>
000111-27-3

> <Log Koc>
1.01

> <VP-0>
4.98275

> <nAromBond>
0

> <MAXDP>
2.29288

> <nHBAcc>
1

> <Splitting>
1

$$$$
Bis(2-chloroethyl)ether
  SciTegic01221512053D

  7  6  0  0  0  0            999 V2000
   -0.5944    1.6835   -0.4743 Cl  0  0  0  0  0  0  0  0  0  1  0  0
    0.5922    2.0714    0.7861 C   0  0  0  0  0  0  0  0  0  2  0  0
    1.3760    0.8208    1.3060 C   0  0  0  0  0  0  0  0  0  3  0  0
    0.5528   -0.1142    2.0596 O   0  0  0  0  0  0  0  0  0  4  0  0
   -0.3641   -0.9280    1.2742 C   0  0  0  0  0  0  0  0  0  5  0  0
    0.3395   -2.0746    0.4747 C   0  0  0  0  0  0  0  0  0  6  0  0
    1.3690   -1.4834   -0.8434 Cl  0  0  0  0  0  0  0  0  0  7  0  0
  6  7  1  0
  5  6  1  0
  4  5  1  0
  3  4  1  0
  2  3  1  0
  1  2  1  0
M  END
> <Name>
Bis(2-chloroethyl)ether

> <CAS RN>
000111-44-4

> <Log Koc>
1.52

> <VP-0>
5.50446

> <nAromBond>
0

> <MAXDP>
1.71373

> <nHBAcc>
1

> <Splitting>
2

$$$$
1-Heptanol
  SciTegic01221512053D

  8  7  0  0  0  0            999 V2000
   -0.1074   -2.5831   -0.3640 C   0  0  0  0  0  0  0  0  0  1  0  0
    1.0247   -2.4828    0.6889 C   0  0  0  0  0  0  0  0  0  2  0  0
    0.6652   -1.6388    1.9709 C   0  0  0  0  0  0  0  0  0  3  0  0
    0.5999   -0.0791    1.7642 C   0  0  0  0  0  0  0  0  0  4  0  0
   -0.6526    0.4232    0.9952 C   0  0  0  0  0  0  0  0  0  5  0  0
   -0.6540    1.9702    0.8054 C   0  0  0  0  0  0  0  0  0  6  0  0
    0.4730    2.4697   -0.1496 C   0  0  0  0  0  0  0  0  0  7  0  0
    1.7797    2.2551    0.3940 O   0  0  0  0  0  0  0  0  0  8  0  0
  7  8  1  0
  6  7  1  0
  5  6  1  0
  4  5  1  0
  3  4  1  0
  2  3  1  0
  1  2  1  0
M  END
> <Name>
1-Heptanol

> <CAS RN>
000111-70-6

> <Log Koc>
1.14

> <VP-0>
5.68985

> <nAromBond>
0

> <MAXDP>
2.36559

> <nHBAcc>
1

> <Splitting>
2

$$$$
1-Octanol
  SciTegic01221512053D

  9  8  0  0  0  0            999 V2000
   -1.3038   -2.1731    0.1964 C   0  0  0  0  0  0  0  0  0  1  0  0
   -1.8102   -1.9477    1.6428 C   0  0  0  0  0  0  0  0  0  2  0  0
   -0.9896   -0.8905    2.4793 C   0  0  0  0  0  0  0  0  0  3  0  0
   -1.1857    0.6155    2.0558 C   0  0  0  0  0  0  0  0  0  4  0  0
   -0.4433    1.0302    0.7584 C   0  0  0  0  0  0  0  0  0  5  0  0
    1.0765    0.8638    0.9539 C   0  0  0  0  0  0  0  0  0  6  0  0
    1.8060    1.2669   -0.3384 C   0  0  0  0  0  0  0  0  0  7  0  0
    3.3215    1.0918   -0.1422 C   0  0  0  0  0  0  0  0  0  8  0  0
    3.6049   -0.2749    0.1671 O   0  0  0  0  0  0  0  0  0  9  0  0
  8  9  1  0
  7  8  1  0
  6  7  1  0
  5  6  1  0
  4  5  1  0
  3  4  1  0
  2  3  1  0
  1  2  1  0
M  END
> <Name>
1-Octanol

> <CAS RN>
000111-87-5

> <Log Koc>
1.56

> <VP-0>
6.39696

> <nAromBond>
0

> <MAXDP>
2.42278

> <nHBAcc>
1

> <Splitting>
2

$$$$
1-Decanol
  SciTegic01221512053D

 11 10  0  0  0  0            999 V2000
   -1.9193   -0.2696   -0.3732 C   0  0  0  0  0  0  0  0  0  1  0  0
   -0.4364   -0.5612    0.0665 C   0  0  0  0  0  0  0  0  0  2  0  0
   -0.1623   -0.3859    1.5898 C   0  0  0  0  0  0  0  0  0  3  0  0
    1.3276   -0.6504    2.0265 C   0  0  0  0  0  0  0  0  0  4  0  0
    2.3641    0.4676    1.6122 C   0  0  0  0  0  0  0  0  0  5  0  0
    2.7587    0.4832    0.1065 C   0  0  0  0  0  0  0  0  0  6  0  0
    3.4940   -0.8230   -0.2806 C   0  0  0  0  0  0  0  0  0  7  0  0
    4.8151   -0.9429    0.5101 C   0  0  0  0  0  0  0  0  0  8  0  0
   -2.3308    1.2513   -0.4101 C   0  0  0  0  0  0  0  0  0  9  0  0
   -2.5129    1.9107    0.9795 C   0  0  0  0  0  0  0  0  0 10  0  0
   -2.8795    3.2819    0.8118 O   0  0  0  0  0  0  0  0  0 11  0  0
 10 11  1  0
  9 10  1  0
  1  9  1  0
  7  8  1  0
  6  7  1  0
  5  6  1  0
  4  5  1  0
  3  4  1  0
  2  3  1  0
  1  2  1  0
M  END
> <Name>
1-Decanol

> <CAS RN>
000112-30-1

> <Log Koc>
2.59

> <VP-0>
7.81117

> <nAromBond>
0

> <MAXDP>
2.50701

> <nHBAcc>
1

> <Splitting>
1

$$$$
1-Dodecanol
  SciTegic01221512053D

 13 12  0  0  0  0            999 V2000
    3.0739   -0.3848    2.1865 C   0  0  0  0  0  0  0  0  0  1  0  0
    1.8073   -0.4748    3.0869 C   0  0  0  0  0  0  0  0  0  2  0  0
    1.5559    0.8441    3.8872 C   0  0  0  0  0  0  0  0  0  3  0  0
    1.0814    2.0991    3.0561 C   0  0  0  0  0  0  0  0  0  4  0  0
   -0.4303    2.0589    2.6149 C   0  0  0  0  0  0  0  0  0  5  0  0
   -0.7514    1.0928    1.4452 C   0  0  0  0  0  0  0  0  0  6  0  0
   -0.0356    1.5661    0.1618 C   0  0  0  0  0  0  0  0  0  7  0  0
   -0.3684    0.6145   -1.0041 C   0  0  0  0  0  0  0  0  0  8  0  0
    0.1167   -0.8197   -0.6714 C   0  0  0  0  0  0  0  0  0  9  0  0
   -0.1752   -1.8915   -1.7877 C   0  0  0  0  0  0  0  0  0 10  0  0
   -1.6780   -2.3493   -1.9196 C   0  0  0  0  0  0  0  0  0 11  0  0
   -2.6240   -1.3028   -2.5601 C   0  0  0  0  0  0  0  0  0 12  0  0
    2.9375    0.6161    1.1767 O   0  0  0  0  0  0  0  0  0 13  0  0
  1 13  1  0
 11 12  1  0
 10 11  1  0
  9 10  1  0
  8  9  1  0
  7  8  1  0
  6  7  1  0
  5  6  1  0
  4  5  1  0
  3  4  1  0
  2  3  1  0
  1  2  1  0
M  END
> <Name>
1-Dodecanol

> <CAS RN>
000112-53-8

> <Log Koc>
3.52

> <VP-0>
9.22539

> <nAromBond>
0

> <MAXDP>
2.56606

> <nHBAcc>
1

> <Splitting>
2

$$$$
Propoxur
  SciTegic01221512053D

 15 15  0  0  0  0            999 V2000
    0.5855    2.4913    0.3624 C   0  0  0  0  0  0  0  0  0  1  0  0
    1.1713    3.7480    0.4035 C   0  0  0  0  0  0  0  0  0  2  0  0
    2.5430    3.8609    0.2527 C   0  0  0  0  0  0  0  0  0  3  0  0
    3.3023    2.7152    0.0637 C   0  0  0  0  0  0  0  0  0  4  0  0
    2.7298    1.4462    0.0200 C   0  0  0  0  0  0  0  0  0  5  0  0
    1.3347    1.3314    0.1734 C   0  0  0  0  0  0  0  0  0  6  0  0
    0.6869    0.0527    0.1376 O   0  0  0  0  0  0  0  0  0  7  0  0
   -0.7381   -0.0533    0.2953 C   0  0  0  0  0  0  0  0  0  8  0  0
   -1.4870    0.9152    0.4676 O   0  0  0  0  0  0  0  0  0  9  0  0
   -1.3081   -1.3256    0.2510 N   0  0  0  0  0  0  0  0  0 10  0  0
   -2.7255   -1.4816    0.4034 C   0  0  0  0  0  0  0  0  0 11  0  0
    3.7137    0.3684   -0.1894 O   0  0  0  0  0  0  0  0  0 12  0  0
    3.3943   -1.0626   -0.2769 C   0  0  0  0  0  0  0  0  0 13  0  0
    2.5821   -1.4741   -1.5324 C   0  0  0  0  0  0  0  0  0 14  0  0
    2.8837   -1.6989    1.0421 C   0  0  0  0  0  0  0  0  0 15  0  0
 13 15  1  0
 13 14  1  0
 12 13  1  0
  5 12  1  0
 10 11  1  0
  8 10  1  0
  8  9  2  0
  7  8  1  0
  6  7  1  0
  6  1  4  0
  5  6  4  0
  4  5  4  0
  3  4  4  0
  2  3  4  0
  1  2  4  0
M  END
> <Name>
Propoxur

> <CAS RN>
000114-26-1

> <Log Koc>
1.45

> <VP-0>
9.1115

> <nAromBond>
6

> <MAXDP>
4.03033

> <nHBAcc>
2

> <Splitting>
1

$$$$
2-Chlorophenylurea
  SciTegic01221512053D

 11 11  0  0  0  0            999 V2000
    0.3969    4.0187    0.6548 N   0  0  0  0  0  0  0  0  0  1  0  0
   -0.5507    3.1774    1.2481 C   0  0  0  0  0  0  0  0  0  2  0  0
   -1.3599    3.6625    2.0466 O   0  0  0  0  0  0  0  0  0  3  0  0
   -0.6163    1.7831    0.9688 N   0  0  0  0  0  0  0  0  0  4  0  0
    0.2405    1.0798    0.0765 C   0  0  0  0  0  0  0  0  0  5  0  0
    1.2545    1.7141   -0.6347 C   0  0  0  0  0  0  0  0  0  6  0  0
    2.0697    0.9897   -1.4968 C   0  0  0  0  0  0  0  0  0  7  0  0
    1.8744   -0.3773   -1.6525 C   0  0  0  0  0  0  0  0  0  8  0  0
    0.8632   -1.0160   -0.9448 C   0  0  0  0  0  0  0  0  0  9  0  0
    0.0497   -0.2884   -0.0834 C   0  0  0  0  0  0  0  0  0 10  0  0
   -1.2057   -1.0871    0.7939 Cl  0  0  0  0  0  0  0  0  0 11  0  0
 10 11  1  0
 10  5  4  0
  9 10  4  0
  8  9  4  0
  7  8  4  0
  6  7  4  0
  5  6  4  0
  4  5  1  0
  2  4  1  0
  2  3  2  0
  1  2  1  0
M  END
> <Name>
2-Chlorophenylurea

> <CAS RN>
000114-38-5

> <Log Koc>
1.61

> <VP-0>
6.42889

> <nAromBond>
6

> <MAXDP>
3.45022

> <nHBAcc>
3

> <Splitting>
2

$$$$
Chlorendic acid
  SciTegic01221512053D

 21 22  0  0  0  0            999 V2000
    0.6735    1.4281   -1.5495 C   0  0  0  0  0  0  0  0  0  1  0  0
    0.9355    2.1834   -0.5132 C   0  0  0  0  0  0  0  0  0  2  0  0
    1.8174    1.4424    0.4679 C   0  0  2  0  0  0  0  0  0  3  0  0
    3.1971    1.3675   -0.3001 C   0  0  2  0  0  0  0  0  0  4  0  0
    3.2923    2.3997   -0.6661 H   0  0  0  0  0  0  0  0  0  5  0  0
    2.8619    0.2858   -1.4547 C   0  0  2  0  0  0  0  0  0  6  0  0
    3.3640    0.5412   -2.3974 H   0  0  0  0  0  0  0  0  0  7  0  0
    1.3054    0.1493   -1.3266 C   0  0  1  0  0  0  0  0  0  8  0  0
    1.1597    0.0686    0.3433 C   0  0  0  0  0  0  0  0  0  9  0  0
    1.9268   -1.2284    1.2999 Cl  0  0  0  0  0  0  0  0  0 10  0  0
   -0.5370    0.1346    0.8257 Cl  0  0  0  0  0  0  0  0  0 11  0  0
    0.6100   -1.1347   -2.3277 Cl  0  0  0  0  0  0  0  0  0 12  0  0
    3.4289   -1.1113   -1.1302 C   0  0  0  0  0  0  0  0  0 13  0  0
    2.6905   -2.0928   -0.9879 O   0  0  0  0  0  0  0  0  0 14  0  0
    4.7912   -1.3543   -1.3180 O   0  0  0  0  0  0  0  0  0 15  0  0
    4.4679    0.9285    0.3691 C   0  0  0  0  0  0  0  0  0 16  0  0
    5.5571    1.1731   -0.1611 O   0  0  0  0  0  0  0  0  0 17  0  0
    4.4263    0.2860    1.6022 O   0  0  0  0  0  0  0  0  0 18  0  0
    1.8968    2.2947    2.0113 Cl  0  0  0  0  0  0  0  0  0 19  0  0
    0.3704    3.8005   -0.3027 Cl  0  0  0  0  0  0  0  0  0 20  0  0
   -0.2974    1.8624   -2.9090 Cl  0  0  0  0  0  0  0  0  0 21  0  0
  1 21  1  0
  2 20  1  0
  3 19  1  0
 16 18  1  0
 16 17  2  0
  4 16  1  0
 13 15  1  0
 13 14  2  0
  6 13  1  0
  8 12  1  0
  9 11  1  0
  9 10  1  0
  9  3  1  0
  8  9  1  0
  8  1  1  0
  6  8  1  0
  6  7  1  0
  4  6  1  0
  4  5  1  0
  3  4  1  0
  2  3  1  0
  1  2  2  0
M  END
> <Name>
Chlorendic acid

> <CAS RN>
000115-28-6

> <Log Koc>
2.79

> <VP-0>
13.169

> <nAromBond>
0

> <MAXDP>
4.82003

> <nHBAcc>
4

> <Splitting>
2

$$$$
Endosulfan
  SciTegic01221512053D

 21 23  0  0  0  0            999 V2000
   -1.5475    1.3893    2.8490 S   0  0  0  0  0  0  0  0  0  1  0  0
   -2.7914    2.0304    2.2592 O   0  0  0  0  0  0  0  0  0  2  0  0
   -0.2030    2.4497    2.8785 O   0  0  0  0  0  0  0  0  0  3  0  0
    0.8750    2.0005    2.0233 C   0  0  0  0  0  0  0  0  0  4  0  0
    0.5155    2.1868    0.5414 C   0  0  1  0  0  0  0  0  0  5  0  0
    0.3588    3.2453    0.3683 H   0  0  0  0  0  0  0  0  0  6  0  0
    1.5035    1.9545   -0.6066 C   0  0  1  0  0  0  0  0  0  7  0  0
    1.7520    0.5603   -0.9071 C   0  0  0  0  0  0  0  0  0  8  0  0
    0.6313    0.0797   -1.4133 C   0  0  0  0  0  0  0  0  0  9  0  0
    0.4212   -1.5371   -1.9954 Cl  0  0  0  0  0  0  0  0  0 10  0  0
   -0.4588    1.1740   -1.4097 C   0  0  1  0  0  0  0  0  0 11  0  0
   -0.7841    1.4325    0.1128 C   0  0  2  0  0  0  0  0  0 12  0  0
   -1.5976    2.1119    0.3841 H   0  0  0  0  0  0  0  0  0 13  0  0
   -1.0799   -0.0058    0.6555 C   0  0  0  0  0  0  0  0  0 14  0  0
   -1.1488   -0.0835    2.0961 O   0  0  0  0  0  0  0  0  0 15  0  0
    0.4438    2.3337   -1.7923 C   0  0  0  0  0  0  0  0  0 16  0  0
   -0.3147    3.9387   -1.7245 Cl  0  0  0  0  0  0  0  0  0 17  0  0
    1.1590    2.0958   -3.3886 Cl  0  0  0  0  0  0  0  0  0 18  0  0
   -1.8678    0.7252   -2.3730 Cl  0  0  0  0  0  0  0  0  0 19  0  0
    3.2458   -0.2847   -0.7231 Cl  0  0  0  0  0  0  0  0  0 20  0  0
    2.9610    2.9412   -0.4786 Cl  0  0  0  0  0  0  0  0  0 21  0  0
  7 21  1  0
  8 20  1  0
 11 19  1  0
 16 18  1  0
 16 17  1  0
 16  7  1  0
 11 16  1  0
 15  1  1  0
 14 15  1  0
 12 14  1  0
 12  5  1  0
 12 13  1  0
 11 12  1  0
  9 11  1  0
  9 10  1  0
  8  9  2  0
  7  8  1  0
  5  7  1  0
  5  6  1  0
  4  5  1  0
  3  4  1  0
  1  3  1  0
  1  2  2  0
M  END
> <Name>
Endosulfan

> <CAS RN>
000115-29-7

> <Log Koc>
4.13

> <VP-0>
13.9641

> <nAromBond>
0

> <MAXDP>
4.79925

> <nHBAcc>
3

> <Splitting>
2

$$$$
Dicofol
  SciTegic01221512053D

 20 21  0  0  0  0            999 V2000
    1.0743    7.2710    0.3163 Cl  0  0  0  0  0  0  0  0  0  1  0  0
    0.6509    5.6021    0.4610 C   0  0  0  0  0  0  0  0  0  2  0  0
    1.6264    4.6611    0.7686 C   0  0  0  0  0  0  0  0  0  3  0  0
    1.2847    3.3187    0.8834 C   0  0  0  0  0  0  0  0  0  4  0  0
   -0.0331    2.9126    0.6947 C   0  0  0  0  0  0  0  0  0  5  0  0
   -1.0058    3.8573    0.3848 C   0  0  0  0  0  0  0  0  0  6  0  0
   -0.6655    5.1997    0.2686 C   0  0  0  0  0  0  0  0  0  7  0  0
   -0.4302    1.4527    0.8041 C   0  0  0  0  0  0  0  0  0  8  0  0
    0.4902    0.6479   -0.1223 C   0  0  0  0  0  0  0  0  0  9  0  0
    0.4502    0.9132   -1.4878 C   0  0  0  0  0  0  0  0  0 10  0  0
    1.2623    0.2084   -2.3681 C   0  0  0  0  0  0  0  0  0 11  0  0
    2.1212   -0.7720   -1.8866 C   0  0  0  0  0  0  0  0  0 12  0  0
    2.1650   -1.0453   -0.5248 C   0  0  0  0  0  0  0  0  0 13  0  0
    1.3515   -0.3375    0.3522 C   0  0  0  0  0  0  0  0  0 14  0  0
    3.1315   -1.6497   -2.9792 Cl  0  0  0  0  0  0  0  0  0 15  0  0
   -1.7659    1.3656    0.3060 O   0  0  0  0  0  0  0  0  0 16  0  0
   -0.3969    0.9693    2.3085 C   0  0  0  0  0  0  0  0  0 17  0  0
   -0.9542   -0.7096    2.4180 Cl  0  0  0  0  0  0  0  0  0 18  0  0
   -1.5048    1.9805    3.2413 Cl  0  0  0  0  0  0  0  0  0 19  0  0
    1.2150    1.0945    3.0488 Cl  0  0  0  0  0  0  0  0  0 20  0  0
 17 20  1  0
 17 19  1  0
 17 18  1  0
  8 17  1  0
  8 16  1  0
 12 15  1  0
 14  9  4  0
 13 14  4  0
 12 13  4  0
 11 12  4  0
 10 11  4  0
  9 10  4  0
  8  9  1  0
  5  8  1  0
  7  2  4  0
  6  7  4  0
  5  6  4  0
  4  5  4  0
  3  4  4  0
  2  3  4  0
  1  2  1  0
M  END
> <Name>
Dicofol

> <CAS RN>
000115-32-2

> <Log Koc>
3.7

> <VP-0>
13.7355

> <nAromBond>
12

> <MAXDP>
5.62164

> <nHBAcc>
1

> <Splitting>
2

$$$$
Fensulfothion
  SciTegic01221512053D

 18 18  0  0  0  0            999 V2000
   -1.5413   -0.4876    0.7529 C   0  0  0  0  0  0  0  0  0  1  0  0
   -2.4498   -0.2758   -0.2793 C   0  0  0  0  0  0  0  0  0  2  0  0
   -3.6572   -1.0093   -0.3839 O   0  0  0  0  0  0  0  0  0  3  0  0
   -3.8973   -2.0499    0.7639 P   0  0  0  0  0  0  0  0  0  4  0  0
   -5.4147   -2.7741    0.4518 S   0  0  0  0  0  0  0  0  0  5  0  0
   -3.9956   -1.2306    2.1169 O   0  0  0  0  0  0  0  0  0  6  0  0
   -4.6218   -1.9541    3.1898 C   0  0  0  0  0  0  0  0  0  7  0  0
   -4.6762   -1.0626    4.4422 C   0  0  0  0  0  0  0  0  0  8  0  0
   -2.6915   -3.1204    0.7083 O   0  0  0  0  0  0  0  0  0  9  0  0
   -2.7361   -4.2571    1.6203 C   0  0  0  0  0  0  0  0  0 10  0  0
   -3.7497   -5.3312    1.1701 C   0  0  0  0  0  0  0  0  0 11  0  0
   -2.1740    0.6888   -1.2435 C   0  0  0  0  0  0  0  0  0 12  0  0
   -1.0044    1.4356   -1.1762 C   0  0  0  0  0  0  0  0  0 13  0  0
   -0.0995    1.2183   -0.1437 C   0  0  0  0  0  0  0  0  0 14  0  0
   -0.3671    0.2550    0.8208 C   0  0  0  0  0  0  0  0  0 15  0  0
    1.3894    2.1711   -0.0604 S   0  0  0  0  0  0  0  0  0 16  0  0
    2.5569    1.2975    0.3578 O   0  0  0  0  0  0  0  0  0 17  0  0
    1.7075    2.9963   -1.6386 C   0  0  0  0  0  0  0  0  0 18  0  0
 16 18  1  0
 16 17  2  0
 14 16  1  0
 15  1  4  0
 14 15  4  0
 13 14  4  0
 12 13  4  0
  2 12  4  0
 10 11  1  0
  9 10  1  0
  4  9  1  0
  7  8  1  0
  6  7  1  0
  4  6  1  0
  4  5  2  0
  3  4  1  0
  2  3  1  0
  1  2  4  0
M  END
> <Name>
Fensulfothion

> <CAS RN>
000115-90-2

> <Log Koc>
2.52

> <VP-0>
12.7901

> <nAromBond>
6

> <MAXDP>
4.48869

> <nHBAcc>
3

> <Splitting>
2

$$$$
Aldicarb
  SciTegic01221512053D

 12 11  0  0  0  0            999 V2000
    3.6822    4.8495   -0.4645 C   0  0  0  0  0  0  0  0  0  1  0  0
    2.9313    3.2045   -0.5321 S   0  0  0  0  0  0  0  0  0  2  0  0
    1.2278    3.2939    0.0703 C   0  0  0  0  0  0  0  0  0  3  0  0
    0.3933    4.2666   -0.7823 C   0  0  0  0  0  0  0  0  0  4  0  0
    1.2403    3.7952    1.5255 C   0  0  0  0  0  0  0  0  0  5  0  0
    0.6074    1.9318    0.0360 C   0  0  0  0  0  0  0  0  0  6  0  0
    1.3398    0.8986    0.1546 N   0  0  0  0  0  0  0  0  0  7  0  0
    0.8975   -0.3986    0.1400 O   0  0  0  0  0  0  0  0  0  8  0  0
   -0.5057   -0.6678   -0.0204 C   0  0  0  0  0  0  0  0  0  9  0  0
   -1.3622    0.2159   -0.1493 O   0  0  0  0  0  0  0  0  0 10  0  0
   -0.9246   -1.9990   -0.0313 N   0  0  0  0  0  0  0  0  0 11  0  0
   -2.3158   -2.3114   -0.1889 C   0  0  0  0  0  0  0  0  0 12  0  0
 11 12  1  0
  9 11  1  0
  9 10  2  0
  8  9  1  0
  7  8  1  0
  6  7  2  0
  3  6  1  0
  3  5  1  0
  3  4  1  0
  2  3  1  0
  1  2  1  0
M  END
> <Name>
Aldicarb

> <CAS RN>
000116-06-3

> <Log Koc>
1.57

> <VP-0>
8.56581

> <nAromBond>
0

> <MAXDP>
3.55628

> <nHBAcc>
2

> <Splitting>
2

$$$$
2,3,5,6-Tetrachloronitrobenzene
  SciTegic01221512053D

 13 13  0  0  0  0            999 V2000
   -1.8927    2.7728    1.3762 O   0  0  0  0  0  0  0  0  0  1  0  0
   -1.4905    1.5294    1.1900 N   0  0  0  0  0  0  0  0  0  2  0  0
   -0.2691    1.2407    0.4809 C   0  0  0  0  0  0  0  0  0  3  0  0
    0.5205    2.2772   -0.0279 C   0  0  0  0  0  0  0  0  0  4  0  0
    1.6975    1.9935   -0.7109 C   0  0  0  0  0  0  0  0  0  5  0  0
    2.1030    0.6800   -0.8961 C   0  0  0  0  0  0  0  0  0  6  0  0
    1.3260   -0.3540   -0.3949 C   0  0  0  0  0  0  0  0  0  7  0  0
    0.1474   -0.0809    0.2895 C   0  0  0  0  0  0  0  0  0  8  0  0
   -0.7674   -1.4271    0.8849 Cl  0  0  0  0  0  0  0  0  0  9  0  0
    1.8255   -1.9919   -0.6223 Cl  0  0  0  0  0  0  0  0  0 10  0  0
    2.6606    3.2857   -1.3326 Cl  0  0  0  0  0  0  0  0  0 11  0  0
    0.0824    3.9432    0.1621 Cl  0  0  0  0  0  0  0  0  0 12  0  0
   -2.2431    0.5590    1.6741 O   0  0  0  0  0  0  0  0  0 13  0  0
  2 13  1  0
  4 12  1  0
  5 11  1  0
  7 10  1  0
  8  9  1  0
  8  3  4  0
  7  8  4  0
  6  7  4  0
  5  6  4  0
  4  5  4  0
  3  4  4  0
  2  3  1  0
  1  2  1  0
M  END
> <Name>
2,3,5,6-Tetrachloronitrobenzene

> <CAS RN>
000117-18-0

> <Log Koc>
4.05

> <VP-0>
8.72828

> <nAromBond>
6

> <MAXDP>
3.84129

> <nHBAcc>
0

> <Splitting>
2

$$$$
Di-2-ethylhexyl phthalate
  SciTegic01221512053D

 30 30  0  0  0  0            999 V2000
   -6.7962    1.4051   -6.2848 C   0  0  0  0  0  0  0  0  0  1  0  0
   -5.7434    2.2972   -5.5077 C   0  0  1  0  0  0  0  0  0  2  0  0
   -5.8055    3.3389   -5.8527 H   0  0  0  0  0  0  0  0  0  3  0  0
   -6.1288    2.2407   -4.0194 C   0  0  0  0  0  0  0  0  0  4  0  0
   -6.0827    0.8712   -3.5804 O   0  0  0  0  0  0  0  0  0  5  0  0
   -5.6186    0.4772   -2.2395 C   0  0  0  0  0  0  0  0  0  6  0  0
   -5.6498   -0.7372   -2.0722 O   0  0  0  0  0  0  0  0  0  7  0  0
   -5.0101    1.3908   -1.0930 C   0  0  0  0  0  0  0  0  0  8  0  0
   -4.4909    0.8710    0.1145 C   0  0  0  0  0  0  0  0  0  9  0  0
   -3.9119    1.7294    1.0446 C   0  0  0  0  0  0  0  0  0 10  0  0
   -3.8418    3.0982    0.8387 C   0  0  0  0  0  0  0  0  0 11  0  0
   -4.3592    3.6247   -0.3307 C   0  0  0  0  0  0  0  0  0 12  0  0
   -4.9209    2.7720   -1.2698 C   0  0  0  0  0  0  0  0  0 13  0  0
   -4.4818   -0.5689    0.5378 C   0  0  0  0  0  0  0  0  0 14  0  0
   -3.7201   -0.8907    1.4553 O   0  0  0  0  0  0  0  0  0 15  0  0
   -5.3698   -1.5133   -0.0018 O   0  0  0  0  0  0  0  0  0 16  0  0
   -5.2460   -2.8794    0.4809 C   0  0  0  0  0  0  0  0  0 17  0  0
   -5.4024   -3.1756    2.0289 C   0  0  1  0  0  0  0  0  0 18  0  0
   -4.6069   -2.6591    2.5805 H   0  0  0  0  0  0  0  0  0 19  0  0
   -6.7933   -2.8437    2.7197 C   0  0  0  0  0  0  0  0  0 20  0  0
   -7.1936   -1.3367    2.8556 C   0  0  0  0  0  0  0  0  0 21  0  0
   -7.8408   -0.7330    1.5972 C   0  0  0  0  0  0  0  0  0 22  0  0
   -8.1555    0.7508    1.8673 C   0  0  0  0  0  0  0  0  0 23  0  0
   -5.1943   -4.6986    2.1797 C   0  0  0  0  0  0  0  0  0 24  0  0
   -6.3019   -5.4632    1.4194 C   0  0  0  0  0  0  0  0  0 25  0  0
   -4.2368    1.8087   -5.5624 C   0  0  0  0  0  0  0  0  0 26  0  0
   -3.5300    1.8801   -6.9389 C   0  0  0  0  0  0  0  0  0 27  0  0
   -2.0680    1.4095   -6.7920 C   0  0  0  0  0  0  0  0  0 28  0  0
   -2.0324   -0.0435   -6.2782 C   0  0  0  0  0  0  0  0  0 29  0  0
   -6.6675    1.3898   -7.8293 C   0  0  0  0  0  0  0  0  0 30  0  0
  1 30  1  0
 28 29  1  0
 27 28  1  0
 26 27  1  0
  2 26  1  0
 24 25  1  0
 18 24  1  0
 22 23  1  0
 21 22  1  0
 20 21  1  0
 18 20  1  0
 18 19  1  0
 17 18  1  0
 16 17  1  0
 14 16  1  0
 14 15  2  0
  9 14  1  0
 13  8  4  0
 12 13  4  0
 11 12  4  0
 10 11  4  0
  9 10  4  0
  8  9  4  0
  6  8  1  0
  6  7  2  0
  5  6  1  0
  4  5  1  0
  2  4  1  0
  2  3  1  0
  1  2  1  0
M  END
> <Name>
Di-2-ethylhexyl phthalate

> <CAS RN>
000117-81-7

> <Log Koc>
4.97

> <VP-0>
18.1682

> <nAromBond>
6

> <MAXDP>
5.56978

> <nHBAcc>
4

> <Splitting>
1

$$$$
bis(n-octyl) Phthalate
  SciTegic01221512053D

 28 28  0  0  0  0            999 V2000
    2.5729    1.2081    0.3793 C   0  0  0  0  0  0  0  0  0  1  0  0
    1.3887    1.2127    0.7109 O   0  0  0  0  0  0  0  0  0  2  0  0
    3.2288    0.0274   -0.2604 C   0  0  0  0  0  0  0  0  0  3  0  0
    4.7175    0.1671   -0.5471 C   0  0  0  0  0  0  0  0  0  4  0  0
    5.5058   -0.9944   -1.1189 C   0  0  0  0  0  0  0  0  0  5  0  0
    4.8115   -2.3096   -1.4041 C   0  0  0  0  0  0  0  0  0  6  0  0
    3.3318   -2.4633   -1.1156 C   0  0  0  0  0  0  0  0  0  7  0  0
    2.5291   -1.3068   -0.5461 C   0  0  0  0  0  0  0  0  0  8  0  0
    1.0916   -1.5854   -0.2758 C   0  0  0  0  0  0  0  0  0  9  0  0
    0.6904   -2.7520   -0.3536 O   0  0  0  0  0  0  0  0  0 10  0  0
    0.1911   -0.5940    0.0313 O   0  0  0  0  0  0  0  0  0 11  0  0
   -1.0667   -1.1627    0.3605 C   0  0  0  0  0  0  0  0  0 12  0  0
   -2.2029   -0.1704    0.0386 C   0  0  0  0  0  0  0  0  0 13  0  0
   -2.5209   -0.2290   -1.4769 C   0  0  0  0  0  0  0  0  0 14  0  0
   -3.0590   -1.6501   -1.7869 C   0  0  0  0  0  0  0  0  0 15  0  0
   -4.3174   -1.8939   -0.9165 C   0  0  0  0  0  0  0  0  0 16  0  0
   -4.7848   -3.3526   -1.0188 C   0  0  0  0  0  0  0  0  0 17  0  0
   -5.9599   -3.5601   -0.0407 C   0  0  0  0  0  0  0  0  0 18  0  0
   -5.4971   -3.2428    1.4012 C   0  0  0  0  0  0  0  0  0 19  0  0
    3.4121    2.2101    0.8736 O   0  0  0  0  0  0  0  0  0 20  0  0
    2.6480    3.0040    1.7730 C   0  0  0  0  0  0  0  0  0 21  0  0
    3.5590    3.6324    2.8796 C   0  0  0  0  0  0  0  0  0 22  0  0
    4.5992    2.6232    3.5440 C   0  0  0  0  0  0  0  0  0 23  0  0
    4.0412    1.1898    3.8187 C   0  0  0  0  0  0  0  0  0 24  0  0
    4.7313    0.2548    2.7826 C   0  0  0  0  0  0  0  0  0 25  0  0
    4.0013   -1.0994    2.5955 C   0  0  0  0  0  0  0  0  0 26  0  0
    4.4860   -1.8361    1.2158 C   0  0  0  0  0  0  0  0  0 27  0  0
    3.5488   -0.4475   -2.8608 C   0  0  0  0  0  0  0  0  0 28  0  0
 27 28  1  0
 26 27  1  0
 25 26  1  0
 24 25  1  0
 23 24  1  0
 22 23  1  0
 21 22  1  0
 20 21  1  0
  1 20  1  0
 18 19  1  0
 17 18  1  0
 16 17  1  0
 15 16  1  0
 14 15  1  0
 13 14  1  0
 12 13  1  0
 11 12  1  0
  9 11  1  0
  9 10  2  0
  8  9  1  0
  8  3  4  0
  7  8  4  0
  6  7  4  0
  5  6  4  0
  4  5  4  0
  3  4  4  0
  1  3  1  0
  1  2  2  0
M  END
> <Name>
bis(n-octyl) Phthalate

> <CAS RN>
000117-84-0

> <Log Koc>
4.38

> <VP-0>
17.8419

> <nAromBond>
6

> <MAXDP>
5.35181

> <nHBAcc>
4

> <Splitting>
2

$$$$
Hexachlorobenzene
  SciTegic01221512053D

 12 12  0  0  0  0            999 V2000
   -0.8904    0.8654    0.0002 C   0  0  0  0  0  0  0  0  0  1  0  0
   -0.1951    2.0692    0.0005 C   0  0  0  0  0  0  0  0  0  2  0  0
    1.1950    2.0689    0.0011 C   0  0  0  0  0  0  0  0  0  3  0  0
    1.8898    0.8649    0.0013 C   0  0  0  0  0  0  0  0  0  4  0  0
    1.1946   -0.3388    0.0010 C   0  0  0  0  0  0  0  0  0  5  0  0
   -0.1955   -0.3385    0.0004 C   0  0  0  0  0  0  0  0  0  6  0  0
   -1.0594   -1.8342    0.0000 Cl  0  0  0  0  0  0  0  0  0  7  0  0
    2.0579   -1.8348    0.0013 Cl  0  0  0  0  0  0  0  0  0  8  0  0
    3.6171    0.8646    0.0020 Cl  0  0  0  0  0  0  0  0  0  9  0  0
    2.0589    3.5646    0.0014 Cl  0  0  0  0  0  0  0  0  0 10  0  0
   -1.0584    3.5652    0.0002 Cl  0  0  0  0  0  0  0  0  0 11  0  0
   -2.6176    0.8658   -0.0005 Cl  0  0  0  0  0  0  0  0  0 12  0  0
  1 12  1  0
  2 11  1  0
  3 10  1  0
  4  9  1  0
  5  8  1  0
  6  7  1  0
  6  1  4  0
  5  6  4  0
  4  5  4  0
  3  4  4  0
  2  3  4  0
  1  2  4  0
M  END
> <Name>
Hexachlorobenzene

> <CAS RN>
000118-74-1

> <Log Koc>
3.79

> <VP-0>
9.80336

> <nAromBond>
6

> <MAXDP>
0.20454

> <nHBAcc>
0

> <Splitting>
2

$$$$
Chloranil
  SciTegic01221512053D

 12 12  0  0  0  0            999 V2000
   -0.9817    0.7873    0.0664 C   0  0  0  0  0  0  0  0  0  1  0  0
   -0.3616    1.9655    0.0762 C   0  0  0  0  0  0  0  0  0  2  0  0
    1.1005    2.0230    0.0784 C   0  0  0  0  0  0  0  0  0  3  0  0
    1.6761    3.1165    0.0875 O   0  0  0  0  0  0  0  0  0  4  0  0
    1.8807    0.7852    0.0699 C   0  0  0  0  0  0  0  0  0  5  0  0
    1.2606   -0.3929    0.0601 C   0  0  0  0  0  0  0  0  0  6  0  0
   -0.2014   -0.4504    0.0579 C   0  0  0  0  0  0  0  0  0  7  0  0
   -0.7771   -1.5439    0.0488 O   0  0  0  0  0  0  0  0  0  8  0  0
    2.1824   -1.8536    0.0501 Cl  0  0  0  0  0  0  0  0  0  9  0  0
    3.6067    0.8523    0.0726 Cl  0  0  0  0  0  0  0  0  0 10  0  0
   -1.2833    3.4262    0.0862 Cl  0  0  0  0  0  0  0  0  0 11  0  0
   -2.7077    0.7202    0.0637 Cl  0  0  0  0  0  0  0  0  0 12  0  0
  1 12  1  0
  2 11  1  0
  5 10  1  0
  6  9  1  0
  7  8  2  0
  7  1  1  0
  6  7  1  0
  5  6  2  0
  3  5  1  0
  3  4  2  0
  2  3  1  0
  1  2  2  0
M  END
> <Name>
Chloranil

> <CAS RN>
000118-75-2

> <Log Koc>
2.32

> <VP-0>
8.35207

> <nAromBond>
0

> <MAXDP>
4.55765

> <nHBAcc>
2

> <Splitting>
2

$$$$
2,4,6-Trinitrotoluene
  SciTegic01221512053D

 16 16  0  0  0  0            999 V2000
   -0.8895    0.9548    0.1798 C   0  0  0  0  0  0  0  0  0  1  0  0
   -0.1243    2.1085    0.1556 C   0  0  0  0  0  0  0  0  0  2  0  0
    1.2639    2.0444    0.1310 C   0  0  0  0  0  0  0  0  0  3  0  0
    1.9027    0.7918    0.1305 C   0  0  0  0  0  0  0  0  0  4  0  0
    1.1229   -0.3781    0.1551 C   0  0  0  0  0  0  0  0  0  5  0  0
   -0.2633   -0.2801    0.1794 C   0  0  0  0  0  0  0  0  0  6  0  0
    1.6424   -1.7260    0.1577 N   0  0  0  0  0  0  0  0  0  7  0  0
    0.7717   -2.7233    0.1824 O   0  0  0  0  0  0  0  0  0  8  0  0
    2.9345   -2.0301    0.1369 O   0  0  0  0  0  0  0  0  0  9  0  0
    3.4135    0.7035    0.1038 C   0  0  0  0  0  0  0  0  0 10  0  0
    1.9363    3.3228    0.1074 N   0  0  0  0  0  0  0  0  0 11  0  0
    3.2549    3.4744    0.0821 O   0  0  0  0  0  0  0  0  0 12  0  0
    1.1873    4.4147    0.1113 O   0  0  0  0  0  0  0  0  0 13  0  0
   -2.2799    1.0360    0.2044 N   0  0  0  0  0  0  0  0  0 14  0  0
   -2.8734    2.2198    0.2046 O   0  0  0  0  0  0  0  0  0 15  0  0
   -3.0067   -0.0707    0.2274 O   0  0  0  0  0  0  0  0  0 16  0  0
 14 16  1  0
 14 15  1  0
  1 14  1  0
 11 13  1  0
 11 12  1  0
  3 11  1  0
  4 10  1  0
  7  9  1  0
  7  8  1  0
  5  7  1  0
  6  1  4  0
  5  6  4  0
  4  5  4  0
  3  4  4  0
  2  3  4  0
  1  2  4  0
M  END
> <Name>
2,4,6-Trinitrotoluene

> <CAS RN>
000118-96-7

> <Log Koc>
2.72

> <VP-0>
7.50077

> <nAromBond>
6

> <MAXDP>
3.53176

> <nHBAcc>
0

> <Splitting>
2

$$$$
Benzophenone
  SciTegic01221512053D

 14 15  0  0  0  0            999 V2000
    2.1955    2.0684    4.4132 C   0  0  0  0  0  0  0  0  0  1  0  0
    1.2965    3.0750    4.0834 C   0  0  0  0  0  0  0  0  0  2  0  0
    0.6538    3.0574    2.8508 C   0  0  0  0  0  0  0  0  0  3  0  0
    0.8986    2.0392    1.9348 C   0  0  0  0  0  0  0  0  0  4  0  0
    1.8015    1.0349    2.2754 C   0  0  0  0  0  0  0  0  0  5  0  0
    2.4475    1.0467    3.5062 C   0  0  0  0  0  0  0  0  0  6  0  0
    0.1592    2.0955    0.6204 C   0  0  0  0  0  0  0  0  0  7  0  0
   -0.6123    3.0466    0.4550 O   0  0  0  0  0  0  0  0  0  8  0  0
    0.2700    1.1037   -0.5116 C   0  0  0  0  0  0  0  0  0  9  0  0
   -0.5014    1.3382   -1.6455 C   0  0  0  0  0  0  0  0  0 10  0  0
   -0.4539    0.4697   -2.7301 C   0  0  0  0  0  0  0  0  0 11  0  0
    0.3703   -0.6480   -2.6903 C   0  0  0  0  0  0  0  0  0 12  0  0
    1.1449   -0.8919   -1.5632 C   0  0  0  0  0  0  0  0  0 13  0  0
    1.0929   -0.0197   -0.4820 C   0  0  0  0  0  0  0  0  0 14  0  0
 14  9  4  0
 13 14  4  0
 12 13  4  0
 11 12  4  0
 10 11  4  0
  9 10  4  0
  7  9  1  0
  7  8  2  0
  4  7  1  0
  6  1  4  0
  5  6  4  0
  4  5  4  0
  3  4  4  0
  2  3  4  0
  1  2  4  0
M  END
> <Name>
Benzophenone

> <CAS RN>
000119-61-9

> <Log Koc>
2.67

> <VP-0>
7.68175

> <nAromBond>
12

> <MAXDP>
4.8463

> <nHBAcc>
1

> <Splitting>
1

$$$$
2,2'-Biquinoline
  SciTegic01221512053D

 20 23  0  0  0  0            999 V2000
   -2.3148    7.6075    1.9589 C   0  0  0  0  0  0  0  0  0  1  0  0
   -2.4759    6.8920    0.7779 C   0  0  0  0  0  0  0  0  0  2  0  0
   -1.9529    5.6088    0.6693 C   0  0  0  0  0  0  0  0  0  3  0  0
   -1.2695    5.0382    1.7375 C   0  0  0  0  0  0  0  0  0  4  0  0
   -1.1094    5.7551    2.9178 C   0  0  0  0  0  0  0  0  0  5  0  0
   -1.6317    7.0390    3.0284 C   0  0  0  0  0  0  0  0  0  6  0  0
   -0.7673    3.8119    1.6379 N   0  0  0  0  0  0  0  0  0  7  0  0
   -0.8977    3.0941    0.5267 C   0  0  0  0  0  0  0  0  0  8  0  0
   -1.5701    3.6091   -0.5754 C   0  0  0  0  0  0  0  0  0  9  0  0
   -2.1077    4.8866   -0.5056 C   0  0  0  0  0  0  0  0  0 10  0  0
   -0.3278    1.7558    0.4628 C   0  0  0  0  0  0  0  0  0 11  0  0
   -0.4497    1.0418   -0.6518 N   0  0  0  0  0  0  0  0  0 12  0  0
    0.0579   -0.1821   -0.7535 C   0  0  0  0  0  0  0  0  0 13  0  0
    0.7374   -0.7545    0.3162 C   0  0  0  0  0  0  0  0  0 14  0  0
    0.8824   -0.0366    1.4950 C   0  0  0  0  0  0  0  0  0 15  0  0
    0.3404    1.2389    1.5667 C   0  0  0  0  0  0  0  0  0 16  0  0
    1.2671   -2.0346    0.2049 C   0  0  0  0  0  0  0  0  0 17  0  0
    1.1171   -2.7452   -0.9806 C   0  0  0  0  0  0  0  0  0 18  0  0
    0.4382   -2.1748   -2.0516 C   0  0  0  0  0  0  0  0  0 19  0  0
   -0.0912   -0.8942   -1.9382 C   0  0  0  0  0  0  0  0  0 20  0  0
 20 13  4  0
 19 20  4  0
 18 19  4  0
 17 18  4  0
 14 17  4  0
 16 11  4  0
 15 16  4  0
 14 15  4  0
 13 14  4  0
 12 13  4  0
 11 12  4  0
  8 11  1  0
 10  3  4  0
  9 10  4  0
  8  9  4  0
  7  8  4  0
  4  7  4  0
  6  1  4  0
  5  6  4  0
  4  5  4  0
  3  4  4  0
  2  3  4  0
  1  2  4  0
M  END
> <Name>
2,2'-Biquinoline

> <CAS RN>
000119-91-5

> <Log Koc>
4.02

> <VP-0>
10.8226

> <nAromBond>
23

> <MAXDP>
1.68977

> <nHBAcc>
2

> <Splitting>
2

$$$$
Anthracene
  SciTegic01221512053D

 14 16  0  0  0  0            999 V2000
   -2.7220    4.0553    1.4309 C   0  0  0  0  0  0  0  0  0  1  0  0
   -3.2697    3.7145    0.1991 C   0  0  0  0  0  0  0  0  0  2  0  0
   -2.6471    2.7617   -0.5992 C   0  0  0  0  0  0  0  0  0  3  0  0
   -1.4768    2.1497   -0.1655 C   0  0  0  0  0  0  0  0  0  4  0  0
   -0.9289    2.4906    1.0667 C   0  0  0  0  0  0  0  0  0  5  0  0
   -1.5514    3.4434    1.8648 C   0  0  0  0  0  0  0  0  0  6  0  0
    0.2413    1.8790    1.5008 C   0  0  0  0  0  0  0  0  0  7  0  0
    0.8634    0.9264    0.7024 C   0  0  0  0  0  0  0  0  0  8  0  0
    0.3155    0.5855   -0.5297 C   0  0  0  0  0  0  0  0  0  9  0  0
   -0.8547    1.1971   -0.9638 C   0  0  0  0  0  0  0  0  0 10  0  0
    0.9381   -0.3672   -1.3278 C   0  0  0  0  0  0  0  0  0 11  0  0
    2.1086   -0.9792   -0.8939 C   0  0  0  0  0  0  0  0  0 12  0  0
    2.6563   -0.6384    0.3378 C   0  0  0  0  0  0  0  0  0 13  0  0
    2.0338    0.3145    1.1362 C   0  0  0  0  0  0  0  0  0 14  0  0
 14  8  4  0
 13 14  4  0
 12 13  4  0
 11 12  4  0
  9 11  4  0
 10  4  4  0
  9 10  4  0
  8  9  4  0
  7  8  4  0
  5  7  4  0
  6  1  4  0
  5  6  4  0
  4  5  4  0
  3  4  4  0
  2  3  4  0
  1  2  4  0
M  END
> <Name>
Anthracene

> <CAS RN>
000120-12-7

> <Log Koc>
4.34

> <VP-0>
7.7735

> <nAromBond>
16

> <MAXDP>
0.240741

> <nHBAcc>
0

> <Splitting>
2

$$$$
Dichloroprop
  SciTegic01221512053D

 15 15  0  0  0  0            999 V2000
   -1.2724   -0.3454    1.6364 C   0  0  0  0  0  0  0  0  0  1  0  0
   -0.7041   -1.3935    1.9627 O   0  0  0  0  0  0  0  0  0  2  0  0
   -1.5253   -0.0431    0.1780 C   0  0  2  0  0  0  0  0  0  3  0  0
   -1.3414    1.0175   -0.0395 H   0  0  0  0  0  0  0  0  0  4  0  0
   -3.0259   -0.2821   -0.0607 C   0  0  0  0  0  0  0  0  0  5  0  0
   -0.7845   -0.9222   -0.6915 O   0  0  0  0  0  0  0  0  0  6  0  0
    0.6680   -0.8423   -0.8223 C   0  0  0  0  0  0  0  0  0  7  0  0
    1.5416    0.1015   -0.2482 C   0  0  0  0  0  0  0  0  0  8  0  0
    2.9083    0.0089   -0.4980 C   0  0  0  0  0  0  0  0  0  9  0  0
    3.4297   -0.9941   -1.3021 C   0  0  0  0  0  0  0  0  0 10  0  0
    2.5756   -1.9225   -1.8752 C   0  0  0  0  0  0  0  0  0 11  0  0
    1.2118   -1.8368   -1.6324 C   0  0  0  0  0  0  0  0  0 12  0  0
    5.1309   -1.0820   -1.5912 Cl  0  0  0  0  0  0  0  0  0 13  0  0
    1.0589    1.4331    0.7643 Cl  0  0  0  0  0  0  0  0  0 14  0  0
   -1.6838    0.5551    2.6125 O   0  0  0  0  0  0  0  0  0 15  0  0
  1 15  1  0
  8 14  1  0
 10 13  1  0
 12  7  4  0
 11 12  4  0
 10 11  4  0
  9 10  4  0
  8  9  4  0
  7  8  4  0
  6  7  1  0
  3  6  1  0
  3  5  1  0
  3  4  1  0
  1  3  1  0
  1  2  2  0
M  END
> <Name>
Dichloroprop

> <CAS RN>
000120-36-5

> <Log Koc>
3

> <VP-0>
8.8409

> <nAromBond>
6

> <MAXDP>
3.57831

> <nHBAcc>
2

> <Splitting>
2

$$$$
Ethyl 4-hydroxybenzoate
  SciTegic01221512053D

 12 12  0  0  0  0            999 V2000
    1.0769    0.0972   -0.1287 C   0  0  0  0  0  0  0  0  0  1  0  0
    1.8223    1.2662   -0.2292 C   0  0  0  0  0  0  0  0  0  2  0  0
    3.2082    1.2161   -0.1326 C   0  0  0  0  0  0  0  0  0  3  0  0
    3.8475   -0.0028    0.0644 C   0  0  0  0  0  0  0  0  0  4  0  0
    3.1013   -1.1718    0.1648 C   0  0  0  0  0  0  0  0  0  5  0  0
    1.7154   -1.1218    0.0682 C   0  0  0  0  0  0  0  0  0  6  0  0
    5.2340   -0.0528    0.1610 O   0  0  0  0  0  0  0  0  0  7  0  0
   -0.3769    0.1495   -0.2299 C   0  0  0  0  0  0  0  0  0  8  0  0
   -0.9346    1.2382   -0.4143 O   0  0  0  0  0  0  0  0  0  9  0  0
   -1.1182   -1.0419   -0.1371 O   0  0  0  0  0  0  0  0  0 10  0  0
   -2.5371   -0.8113   -0.2388 C   0  0  0  0  0  0  0  0  0 11  0  0
   -3.0826   -0.1593    1.0561 C   0  0  0  0  0  0  0  0  0 12  0  0
 11 12  1  0
 10 11  1  0
  8 10  1  0
  8  9  2  0
  1  8  1  0
  4  7  1  0
  6  1  4  0
  5  6  4  0
  4  5  4  0
  3  4  4  0
  2  3  4  0
  1  2  4  0
M  END
> <Name>
Ethyl 4-hydroxybenzoate

> <CAS RN>
000120-47-8

> <Log Koc>
2.21

> <VP-0>
6.78022

> <nAromBond>
6

> <MAXDP>
4.05212

> <nHBAcc>
2

> <Splitting>
2

$$$$
Catechol
  SciTegic01221512053D

  8  8  0  0  0  0            999 V2000
   -0.7441    0.9517   -0.0010 C   0  0  0  0  0  0  0  0  0  1  0  0
   -0.0492    2.1560   -0.0019 C   0  0  0  0  0  0  0  0  0  2  0  0
    1.3411    2.1559   -0.0016 C   0  0  0  0  0  0  0  0  0  3  0  0
    2.0364    0.9518   -0.0005 C   0  0  0  0  0  0  0  0  0  4  0  0
    1.3415   -0.2525    0.0003 C   0  0  0  0  0  0  0  0  0  5  0  0
   -0.0489   -0.2523    0.0001 C   0  0  0  0  0  0  0  0  0  6  0  0
   -0.7447   -1.4562    0.0010 O   0  0  0  0  0  0  0  0  0  7  0  0
   -2.1346    0.9510   -0.0012 O   0  0  0  0  0  0  0  0  0  8  0  0
  1  8  1  0
  6  7  1  0
  6  1  4  0
  5  6  4  0
  4  5  4  0
  3  4  4  0
  2  3  4  0
  1  2  4  0
M  END
> <Name>
Catechol

> <CAS RN>
000120-80-9

> <Log Koc>
2.05

> <VP-0>
4.20383

> <nAromBond>
6

> <MAXDP>
2.66926

> <nHBAcc>
0

> <Splitting>
2

$$$$
1,2,4-Trichlorobenzene
  SciTegic01221512053D

  9  9  0  0  0  0            999 V2000
   -2.0416    1.2306    1.3355 Cl  0  0  0  0  0  0  0  0  0  1  0  0
   -0.5129    1.0515    0.5511 C   0  0  0  0  0  0  0  0  0  2  0  0
    0.0777    2.1424   -0.0765 C   0  0  0  0  0  0  0  0  0  3  0  0
    1.3080    1.9995   -0.7081 C   0  0  0  0  0  0  0  0  0  4  0  0
    1.9477    0.7650   -0.7119 C   0  0  0  0  0  0  0  0  0  5  0  0
    1.3569   -0.3260   -0.0842 C   0  0  0  0  0  0  0  0  0  6  0  0
    0.1266   -0.1830    0.5474 C   0  0  0  0  0  0  0  0  0  7  0  0
    2.1520   -1.8600   -0.0890 Cl  0  0  0  0  0  0  0  0  0  8  0  0
   -0.7181    3.6758   -0.0711 Cl  0  0  0  0  0  0  0  0  0  9  0  0
  3  9  1  0
  6  8  1  0
  7  2  4  0
  6  7  4  0
  5  6  4  0
  4  5  4  0
  3  4  4  0
  2  3  4  0
  1  2  1  0
M  END
> <Name>
1,2,4-Trichlorobenzene

> <CAS RN>
000120-82-1

> <Log Koc>
3.05

> <VP-0>
6.63373

> <nAromBond>
6

> <MAXDP>
0.390003

> <nHBAcc>
0

> <Splitting>
2

$$$$
2,4-Dichlorophenol
  SciTegic01221512053D

  9  9  0  0  0  0            999 V2000
   -0.7845    0.8348    0.0000 C   0  0  0  0  0  0  0  0  0  1  0  0
   -0.0882    2.0381    0.0001 C   0  0  0  0  0  0  0  0  0  2  0  0
    1.3022    2.0359    0.0000 C   0  0  0  0  0  0  0  0  0  3  0  0
    1.9960    0.8310   -0.0002 C   0  0  0  0  0  0  0  0  0  4  0  0
    1.2995   -0.3723   -0.0002 C   0  0  0  0  0  0  0  0  0  5  0  0
   -0.0909   -0.3701   -0.0001 C   0  0  0  0  0  0  0  0  0  6  0  0
   -0.7883   -1.5731   -0.0002 O   0  0  0  0  0  0  0  0  0  7  0  0
    2.1679    3.5311    0.0001 Cl  0  0  0  0  0  0  0  0  0  8  0  0
   -2.5120    0.8360    0.0001 Cl  0  0  0  0  0  0  0  0  0  9  0  0
  1  9  1  0
  3  8  1  0
  6  7  1  0
  6  1  4  0
  5  6  4  0
  4  5  4  0
  3  4  4  0
  2  3  4  0
  1  2  4  0
M  END
> <Name>
2,4-Dichlorophenol

> <CAS RN>
000120-83-2

> <Log Koc>
2.75

> <VP-0>
5.94705

> <nAromBond>
6

> <MAXDP>
3.10277

> <nHBAcc>
0

> <Splitting>
2

$$$$
N,N-Dimethylaniline
  SciTegic01221512053D

  9  9  0  0  0  0            999 V2000
   -1.0249    1.2214   -0.3348 C   0  0  0  0  0  0  0  0  0  1  0  0
   -0.2987    2.3970   -0.1817 C   0  0  0  0  0  0  0  0  0  2  0  0
    1.0563    2.3417    0.1242 C   0  0  0  0  0  0  0  0  0  3  0  0
    1.6848    1.1109    0.2770 C   0  0  0  0  0  0  0  0  0  4  0  0
    0.9597   -0.0662    0.1241 C   0  0  0  0  0  0  0  0  0  5  0  0
   -0.3960   -0.0091   -0.1820 C   0  0  0  0  0  0  0  0  0  6  0  0
    1.5947   -1.3093    0.2785 N   0  0  0  0  0  0  0  0  0  7  0  0
    0.8472   -2.5262    0.1209 C   0  0  0  0  0  0  0  0  0  8  0  0
    2.9950   -1.3701    0.5946 C   0  0  0  0  0  0  0  0  0  9  0  0
  7  9  1  0
  7  8  1  0
  5  7  1  0
  6  1  4  0
  5  6  4  0
  4  5  4  0
  3  4  4  0
  2  3  4  0
  1  2  4  0
M  END
> <Name>
N,N-Dimethylaniline

> <CAS RN>
000121-69-7

> <Log Koc>
2.26

> <VP-0>
5.83396

> <nAromBond>
6

> <MAXDP>
0.0833333

> <nHBAcc>
1

> <Splitting>
1

$$$$
Malathion
  SciTegic01221512053D

 20 19  0  0  0  0            999 V2000
    1.6333    3.1719   -1.8967 C   0  0  0  0  0  0  0  0  0  1  0  0
    0.9679    2.2910   -2.8079 O   0  0  0  0  0  0  0  0  0  2  0  0
   -0.5629    2.3541   -2.5690 P   0  0  0  0  0  0  0  0  0  3  0  0
   -1.0956    3.9641   -2.7795 S   0  0  0  0  0  0  0  0  0  4  0  0
   -0.9487    1.7800   -0.7569 S   0  0  0  0  0  0  0  0  0  5  0  0
   -0.2317    0.1388   -0.4268 C   0  0  1  0  0  0  0  0  0  6  0  0
    0.8501    0.1892   -0.6151 H   0  0  0  0  0  0  0  0  0  7  0  0
   -0.4269   -0.2349    1.0150 C   0  0  0  0  0  0  0  0  0  8  0  0
   -0.7233    0.6427    1.8347 O   0  0  0  0  0  0  0  0  0  9  0  0
   -0.2491   -1.5724    1.4131 O   0  0  0  0  0  0  0  0  0 10  0  0
   -0.4977   -1.7597    2.8196 C   0  0  0  0  0  0  0  0  0 11  0  0
   -2.0151   -1.6841    3.1222 C   0  0  0  0  0  0  0  0  0 12  0  0
   -0.7941   -0.9823   -1.3355 C   0  0  0  0  0  0  0  0  0 13  0  0
   -2.2827   -1.1740   -1.1358 C   0  0  0  0  0  0  0  0  0 14  0  0
   -2.9160   -0.4186   -0.3873 O   0  0  0  0  0  0  0  0  0 15  0  0
   -2.9250   -2.2434   -1.7857 O   0  0  0  0  0  0  0  0  0 16  0  0
   -4.3361   -2.3003   -1.4893 C   0  0  0  0  0  0  0  0  0 17  0  0
   -5.1084   -1.1762   -2.2211 C   0  0  0  0  0  0  0  0  0 18  0  0
   -1.2852    1.4519   -3.6007 O   0  0  0  0  0  0  0  0  0 19  0  0
   -2.6992    1.6360   -3.4841 C   0  0  0  0  0  0  0  0  0 20  0  0
 19 20  1  0
  3 19  1  0
 17 18  1  0
 16 17  1  0
 14 16  1  0
 14 15  2  0
 13 14  1  0
  6 13  1  0
 11 12  1  0
 10 11  1  0
  8 10  1  0
  8  9  2  0
  6  8  1  0
  6  7  1  0
  5  6  1  0
  3  5  1  0
  3  4  2  0
  2  3  1  0
  1  2  1  0
M  END
> <Name>
Malathion

> <CAS RN>
000121-75-5

> <Log Koc>
2.68

> <VP-0>
13.9393

> <nAromBond>
0

> <MAXDP>
4.96176

> <nHBAcc>
6

> <Splitting>
2

$$$$
3,5-Dinitrobenzamide
  SciTegic01221512053D

 15 15  0  0  0  0            999 V2000
    2.6199   -1.1902    0.2021 C   0  0  0  0  0  0  0  0  0  1  0  0
    1.2405   -1.1932    0.0311 C   0  0  0  0  0  0  0  0  0  2  0  0
    0.5507    0.0096   -0.0648 C   0  0  0  0  0  0  0  0  0  3  0  0
    1.2390    1.2149    0.0101 C   0  0  0  0  0  0  0  0  0  4  0  0
    2.6184    1.2166    0.1811 C   0  0  0  0  0  0  0  0  0  5  0  0
    3.3095    0.0143    0.2772 C   0  0  0  0  0  0  0  0  0  6  0  0
    3.3087    2.4241    0.2563 N   0  0  0  0  0  0  0  0  0  7  0  0
    4.6228    2.4257    0.4192 O   0  0  0  0  0  0  0  0  0  8  0  0
    2.6500    3.5692    0.1647 O   0  0  0  0  0  0  0  0  0  9  0  0
   -0.8973    0.0070   -0.2443 C   0  0  0  0  0  0  0  0  0 10  0  0
   -1.5108    1.0766   -0.3297 O   0  0  0  0  0  0  0  0  0 11  0  0
   -1.5881   -1.2034   -0.3195 N   0  0  0  0  0  0  0  0  0 12  0  0
    3.3116   -2.3954    0.2984 N   0  0  0  0  0  0  0  0  0 13  0  0
    2.6543   -3.5427    0.2268 O   0  0  0  0  0  0  0  0  0 14  0  0
    4.6258   -2.3926    0.4613 O   0  0  0  0  0  0  0  0  0 15  0  0
 13 15  1  0
 13 14  1  0
  1 13  1  0
 10 12  1  0
 10 11  2  0
  3 10  1  0
  7  9  1  0
  7  8  1  0
  5  7  1  0
  6  1  4  0
  5  6  4  0
  4  5  4  0
  3  4  4  0
  2  3  4  0
  1  2  4  0
M  END
> <Name>
3,5-Dinitrobenzamide

> <CAS RN>
000121-81-3

> <Log Koc>
2.31

> <VP-0>
6.94836

> <nAromBond>
6

> <MAXDP>
3.72759

> <nHBAcc>
2

> <Splitting>
1

$$$$
Fenitrothion
  SciTegic01221512053D

 17 17  0  0  0  0            999 V2000
    4.9742    4.2990    0.8848 O   0  0  0  0  0  0  0  0  0  1  0  0
    3.7996    3.8815    1.3382 N   0  0  0  0  0  0  0  0  0  2  0  0
    3.0190    2.8573    0.7010 C   0  0  0  0  0  0  0  0  0  3  0  0
    3.3923    2.1763   -0.4658 C   0  0  0  0  0  0  0  0  0  4  0  0
    4.6805    2.4433   -1.2031 C   0  0  0  0  0  0  0  0  0  5  0  0
    2.5509    1.2007   -0.9911 C   0  0  0  0  0  0  0  0  0  6  0  0
    1.3437    0.8862   -0.3807 C   0  0  0  0  0  0  0  0  0  7  0  0
    0.9751    1.5623    0.7753 C   0  0  0  0  0  0  0  0  0  8  0  0
    1.8083    2.5374    1.3070 C   0  0  0  0  0  0  0  0  0  9  0  0
    0.5240   -0.1161   -0.9600 O   0  0  0  0  0  0  0  0  0 10  0  0
   -0.8178   -0.3955   -0.1903 P   0  0  0  0  0  0  0  0  0 11  0  0
   -1.6521   -1.6514   -0.9943 S   0  0  0  0  0  0  0  0  0 12  0  0
   -1.7285    0.8692   -0.1778 O   0  0  0  0  0  0  0  0  0 13  0  0
   -2.0852    1.2291   -1.5211 C   0  0  0  0  0  0  0  0  0 14  0  0
   -0.5212   -0.8579    1.2645 O   0  0  0  0  0  0  0  0  0 15  0  0
   -1.7514   -1.1430    1.9361 C   0  0  0  0  0  0  0  0  0 16  0  0
    3.3192    4.4390    2.4389 O   0  0  0  0  0  0  0  0  0 17  0  0
  2 17  1  0
 15 16  1  0
 11 15  1  0
 13 14  1  0
 11 13  1  0
 11 12  2  0
 10 11  1  0
  7 10  1  0
  9  3  4  0
  8  9  4  0
  7  8  4  0
  6  7  4  0
  4  6  4  0
  4  5  1  0
  3  4  4  0
  2  3  1  0
  1  2  1  0
M  END
> <Name>
Fenitrothion

> <CAS RN>
000122-14-5

> <Log Koc>
2.63

> <VP-0>
11.1385

> <nAromBond>
6

> <MAXDP>
3.66934

> <nHBAcc>
2

> <Splitting>
2

$$$$
3-Nitroacetanilide
  SciTegic01221512053D

 13 13  0  0  0  0            999 V2000
   -0.6914    3.5339    2.1884 C   0  0  0  0  0  0  0  0  0  1  0  0
   -1.5855    2.3285    1.9679 C   0  0  0  0  0  0  0  0  0  2  0  0
   -2.6433    2.2851    2.6057 O   0  0  0  0  0  0  0  0  0  3  0  0
   -1.3166    1.2840    1.1376 N   0  0  0  0  0  0  0  0  0  4  0  0
   -0.1882    1.0248    0.2551 C   0  0  0  0  0  0  0  0  0  5  0  0
    0.8485    1.9239    0.0098 C   0  0  0  0  0  0  0  0  0  6  0  0
    1.8876    1.5978   -0.8523 C   0  0  0  0  0  0  0  0  0  7  0  0
    1.9049    0.3610   -1.4852 C   0  0  0  0  0  0  0  0  0  8  0  0
    0.8770   -0.5429   -1.2509 C   0  0  0  0  0  0  0  0  0  9  0  0
   -0.1606   -0.2089   -0.3875 C   0  0  0  0  0  0  0  0  0 10  0  0
    2.9127    2.5124   -1.0830 N   0  0  0  0  0  0  0  0  0 11  0  0
    3.9055    2.2017   -1.9022 O   0  0  0  0  0  0  0  0  0 12  0  0
    2.8912    3.6934   -0.4841 O   0  0  0  0  0  0  0  0  0 13  0  0
 11 13  1  0
 11 12  1  0
  7 11  1  0
 10  5  4  0
  9 10  4  0
  8  9  4  0
  7  8  4  0
  6  7  4  0
  5  6  4  0
  4  5  1  0
  2  4  1  0
  2  3  2  0
  1  2  1  0
M  END
> <Name>
3-Nitroacetanilide

> <CAS RN>
000122-28-1

> <Log Koc>
1.94

> <VP-0>
6.833

> <nAromBond>
6

> <MAXDP>
3.61334

> <nHBAcc>
2

> <Splitting>
2

$$$$
Simazine
  SciTegic01221512053D

 13 13  0  0  0  0            999 V2000
   -0.9944    0.9490    0.0376 N   0  0  0  0  0  0  0  0  0  1  0  0
   -0.1837    1.9798   -0.1607 C   0  0  0  0  0  0  0  0  0  2  0  0
    1.1310    1.7998   -0.1469 N   0  0  0  0  0  0  0  0  0  3  0  0
    1.6353    0.5918    0.0659 C   0  0  0  0  0  0  0  0  0  4  0  0
    0.8228   -0.4380    0.2661 N   0  0  0  0  0  0  0  0  0  5  0  0
   -0.4913   -0.2595    0.2514 C   0  0  0  0  0  0  0  0  0  6  0  0
   -1.5474   -1.6017    0.5106 Cl  0  0  0  0  0  0  0  0  0  7  0  0
    3.0238    0.4114    0.0815 N   0  0  0  0  0  0  0  0  0  8  0  0
    3.5925   -0.8954    0.2753 C   0  0  0  0  0  0  0  0  0  9  0  0
    3.4657   -1.7222   -1.0214 C   0  0  0  0  0  0  0  0  0 10  0  0
   -0.7212    3.2532   -0.3871 N   0  0  0  0  0  0  0  0  0 11  0  0
    0.1385    4.3924   -0.5668 C   0  0  0  0  0  0  0  0  0 12  0  0
    0.7185    4.8342    0.7933 C   0  0  0  0  0  0  0  0  0 13  0  0
 12 13  1  0
 11 12  1  0
  2 11  1  0
  9 10  1  0
  8  9  1  0
  4  8  1  0
  6  7  1  0
  6  1  4  0
  5  6  4  0
  4  5  4  0
  3  4  4  0
  2  3  4  0
  1  2  4  0
M  END
> <Name>
Simazine

> <CAS RN>
000122-34-9

> <Log Koc>
2.12

> <VP-0>
8.38975

> <nAromBond>
6

> <MAXDP>
1.20519

> <nHBAcc>
5

> <Splitting>
2

$$$$
Diphenylamine
  SciTegic01221512053D

 13 14  0  0  0  0            999 V2000
   -0.2972    5.5415    0.9108 C   0  0  0  0  0  0  0  0  0  1  0  0
   -0.6670    4.2047    1.0096 C   0  0  0  0  0  0  0  0  0  2  0  0
    0.1202    3.2060    0.4457 C   0  0  0  0  0  0  0  0  0  3  0  0
    1.2932    3.5683   -0.2134 C   0  0  0  0  0  0  0  0  0  4  0  0
    1.6686    4.9028   -0.3144 C   0  0  0  0  0  0  0  0  0  5  0  0
    0.8720    5.8926    0.2475 C   0  0  0  0  0  0  0  0  0  6  0  0
   -0.3213    1.8410    0.5970 N   0  0  0  0  0  0  0  0  0  7  0  0
    0.1839    0.6531   -0.0469 C   0  0  0  0  0  0  0  0  0  8  0  0
    1.0724    0.6764   -1.1201 C   0  0  0  0  0  0  0  0  0  9  0  0
    1.5123   -0.5055   -1.7045 C   0  0  0  0  0  0  0  0  0 10  0  0
    1.0640   -1.7282   -1.2205 C   0  0  0  0  0  0  0  0  0 11  0  0
    0.1743   -1.7622   -0.1539 C   0  0  0  0  0  0  0  0  0 12  0  0
   -0.2632   -0.5765    0.4258 C   0  0  0  0  0  0  0  0  0 13  0  0
 13  8  4  0
 12 13  4  0
 11 12  4  0
 10 11  4  0
  9 10  4  0
  8  9  4  0
  7  8  1  0
  3  7  1  0
  6  1  4  0
  5  6  4  0
  4  5  4  0
  3  4  4  0
  2  3  4  0
  1  2  4  0
M  END
> <Name>
Diphenylamine

> <CAS RN>
000122-39-4

> <Log Koc>
2.78

> <VP-0>
7.2735

> <nAromBond>
12

> <MAXDP>
0.803889

> <nHBAcc>
1

> <Splitting>
2

$$$$
Propham
  SciTegic01221512053D

 13 13  0  0  0  0            999 V2000
    1.7435    1.2989   -0.0664 C   0  0  0  0  0  0  0  0  0  1  0  0
    1.0584    2.4734    0.2312 C   0  0  0  0  0  0  0  0  0  2  0  0
    1.7393    3.6820    0.3228 C   0  0  0  0  0  0  0  0  0  3  0  0
    3.1131    3.7227    0.1168 C   0  0  0  0  0  0  0  0  0  4  0  0
    3.8026    2.5532   -0.1807 C   0  0  0  0  0  0  0  0  0  5  0  0
    3.1183    1.3463   -0.2716 C   0  0  0  0  0  0  0  0  0  6  0  0
    1.0837    0.0427   -0.1691 N   0  0  0  0  0  0  0  0  0  7  0  0
   -0.3094   -0.1630    0.0182 C   0  0  0  0  0  0  0  0  0  8  0  0
   -1.0594    0.7822    0.2943 O   0  0  0  0  0  0  0  0  0  9  0  0
   -0.8070   -1.4910   -0.1231 O   0  0  0  0  0  0  0  0  0 10  0  0
   -2.2420   -1.6619    0.0774 C   0  0  0  0  0  0  0  0  0 11  0  0
   -3.0851   -0.9011   -0.9754 C   0  0  0  0  0  0  0  0  0 12  0  0
   -2.6865   -1.3165    1.5200 C   0  0  0  0  0  0  0  0  0 13  0  0
 11 13  1  0
 11 12  1  0
 10 11  1  0
  8 10  1  0
  8  9  2  0
  7  8  1  0
  1  7  1  0
  6  1  4  0
  5  6  4  0
  4  5  4  0
  3  4  4  0
  2  3  4  0
  1  2  4  0
M  END
> <Name>
Propham

> <CAS RN>
000122-42-9

> <Log Koc>
1.77

> <VP-0>
7.7806

> <nAromBond>
6

> <MAXDP>
4.08954

> <nHBAcc>
3

> <Splitting>
1

$$$$
1,2-Diphenylhydrazine
  SciTegic01221512053D

 14 15  0  0  0  0            999 V2000
   -2.0867    2.1270    1.5790 N   0  0  0  0  0  0  0  0  0  1  0  0
   -1.3324    3.6802    1.6663 N   0  0  0  0  0  0  0  0  0  2  0  0
    0.0985    3.9097    1.0549 C   0  0  0  0  0  0  0  0  0  3  0  0
    0.3340    2.2566    1.3438 C   0  0  0  0  0  0  0  0  0  4  0  0
    0.3679    0.8447   -1.0355 C   0  0  0  0  0  0  0  0  0  5  0  0
    0.2728    1.9903   -2.3757 C   0  0  0  0  0  0  0  0  0  6  0  0
    0.1671    3.7030   -2.0846 C   0  0  0  0  0  0  0  0  0  7  0  0
    0.1049    4.5506   -0.5645 C   0  0  0  0  0  0  0  0  0  8  0  0
   -1.6015    1.0601    0.5301 C   0  0  0  0  0  0  0  0  0  9  0  0
   -1.1082    2.3948   -0.3903 C   0  0  0  0  0  0  0  0  0 10  0  0
    1.6519    2.5858   -0.4317 C   0  0  0  0  0  0  0  0  0 11  0  0
    2.3294    1.1857    0.4038 C   0  0  0  0  0  0  0  0  0 12  0  0
    1.2955   -0.0291    1.1000 C   0  0  0  0  0  0  0  0  0 13  0  0
   -0.4445   -0.0891    1.1414 C   0  0  0  0  0  0  0  0  0 14  0  0
 14  9  4  0
 13 14  4  0
 12 13  4  0
 11 12  4  0
 10 11  4  0
  9 10  4  0
  1  9  1  0
  8  3  4  0
  7  8  4  0
  6  7  4  0
  5  6  4  0
  4  5  4  0
  3  4  4  0
  2  3  1  0
  1  2  1  0
M  END
> <Name>
1,2-Diphenylhydrazine

> <CAS RN>
000122-66-7

> <Log Koc>
2.98

> <VP-0>
7.7735

> <nAromBond>
12

> <MAXDP>
0.610926

> <nHBAcc>
2

> <Splitting>
2

$$$$
Maleic hydrazine
  SciTegic01221512053D

 10 10  0  0  0  0            999 V2000
   -0.0901    0.0926   -0.9796 C   0  0  0  0  0  0  0  0  0  1  0  0
   -1.0328    0.6656   -1.5367 O   0  0  0  0  0  0  0  0  0  2  0  0
    0.7666   -0.7100   -1.7191 C   0  0  0  0  0  0  0  0  0  3  0  0
    1.8082   -1.3311   -1.0505 C   0  0  0  0  0  0  0  0  0  4  0  0
    1.9251   -1.1091    0.3141 C   0  0  0  0  0  0  0  0  0  5  0  0
    2.8402   -1.6438    0.9498 O   0  0  0  0  0  0  0  0  0  6  0  0
    1.0551   -0.3223    0.9400 N   0  0  0  0  0  0  0  0  0  7  0  0
    1.1553   -0.1754    1.9177 H   0  0  0  0  0  0  0  0  0  8  0  0
    0.1005    0.2469    0.3271 N   0  0  0  0  0  0  0  0  0  9  0  0
   -0.5238    0.8258    0.8397 H   0  0  0  0  0  0  0  0  0 10  0  0
  9  1  4  0
  9 10  1  0
  7  9  4  0
  7  8  1  0
  5  7  4  0
  5  6  2  0
  4  5  4  0
  3  4  4  0
  1  3  4  0
  1  2  2  0
M  END
> <Name>
Maleic hydrazine

> <CAS RN>
000123-33-1

> <Log Koc>
0.45

> <VP-0>
3.9712

> <nAromBond>
0

> <MAXDP>
3.19597

> <nHBAcc>
4

> <Splitting>
2

$$$$
Ethyl hexanoate
  SciTegic01221512053D

 10  9  0  0  0  0            999 V2000
   -0.2974    2.3385   -2.1921 C   0  0  0  0  0  0  0  0  0  1  0  0
   -0.5055    2.6275   -0.6896 C   0  0  0  0  0  0  0  0  0  2  0  0
    0.8670    2.7771    0.0118 C   0  0  0  0  0  0  0  0  0  3  0  0
    1.7531    1.4749    0.0348 C   0  0  0  0  0  0  0  0  0  4  0  0
    1.2501    0.3707    1.0333 C   0  0  0  0  0  0  0  0  0  5  0  0
    0.0976   -0.4673    0.5263 C   0  0  0  0  0  0  0  0  0  6  0  0
   -0.2356   -0.4105   -0.6626 O   0  0  0  0  0  0  0  0  0  7  0  0
   -0.5456   -1.3515    1.4097 O   0  0  0  0  0  0  0  0  0  8  0  0
   -1.6185   -2.0723    0.7721 C   0  0  0  0  0  0  0  0  0  9  0  0
   -2.8345   -1.1440    0.5250 C   0  0  0  0  0  0  0  0  0 10  0  0
  9 10  1  0
  8  9  1  0
  6  8  1  0
  6  7  2  0
  5  6  1  0
  4  5  1  0
  3  4  1  0
  2  3  1  0
  1  2  1  0
M  END
> <Name>
Ethyl hexanoate

> <CAS RN>
000123-66-0

> <Log Koc>
2.06

> <VP-0>
6.85203

> <nAromBond>
0

> <MAXDP>
3.69565

> <nHBAcc>
2

> <Splitting>
2

$$$$
1,4-Dioxane
  SciTegic01221512053D

  6  6  0  0  0  0            999 V2000
    0.2554   -0.7747   -0.2505 C   0  0  0  0  0  0  0  0  0  1  0  0
   -0.8860    0.1359    0.2555 C   0  0  0  0  0  0  0  0  0  2  0  0
   -0.6777    1.4734   -0.2264 O   0  0  0  0  0  0  0  0  0  3  0  0
    0.5806    1.9771    0.2503 C   0  0  0  0  0  0  0  0  0  4  0  0
    1.7221    1.0665   -0.2558 C   0  0  0  0  0  0  0  0  0  5  0  0
    1.5138   -0.2710    0.2261 O   0  0  0  0  0  0  0  0  0  6  0  0
  6  1  1  0
  5  6  1  0
  4  5  1  0
  3  4  1  0
  2  3  1  0
  1  2  1  0
M  END
> <Name>
1,4-Dioxane

> <CAS RN>
000123-91-1

> <Log Koc>
1.23

> <VP-0>
3.64492

> <nAromBond>
0

> <MAXDP>
1.44444

> <nHBAcc>
2

> <Splitting>
2

$$$$
Chlorodibromomethane
  SciTegic01221512053D

  4  3  0  0  0  0            999 V2000
   -0.0936   -0.1343   -0.1515 C   0  0  0  0  0  0  0  0  0  1  0  0
    1.8463   -0.1365   -0.1664 Br  0  0  0  0  0  0  0  0  0  2  0  0
   -0.7393    1.6951   -0.1668 Br  0  0  0  0  0  0  0  0  0  3  0  0
   -0.6732   -0.9521    1.3037 Cl  0  0  0  0  0  0  0  0  0  4  0  0
  1  4  1  0
  1  3  1  0
  1  2  1  0
M  END
> <Name>
Chlorodibromomethane

> <CAS RN>
000124-48-1

> <Log Koc>
1.92

> <VP-0>
5.63917

> <nAromBond>
0

> <MAXDP>
0.131173

> <nHBAcc>
0

> <Splitting>
2

$$$$
Tetrachloroethene
  SciTegic01221512053D

  6  5  0  0  0  0            999 V2000
    1.8100   -0.1421   -0.0017 Cl  0  0  0  0  0  0  0  0  0  1  0  0
    0.0818   -0.1424   -0.0006 C   0  0  0  0  0  0  0  0  0  2  0  0
   -0.5834    1.0104   -0.0002 C   0  0  0  0  0  0  0  0  0  3  0  0
    0.2815    2.5065   -0.0009 Cl  0  0  0  0  0  0  0  0  0  4  0  0
   -2.3116    1.0101    0.0009 Cl  0  0  0  0  0  0  0  0  0  5  0  0
   -0.7832   -1.6385    0.0001 Cl  0  0  0  0  0  0  0  0  0  6  0  0
  2  6  1  0
  3  5  1  0
  3  4  1  0
  2  3  2  0
  1  2  1  0
M  END
> <Name>
Tetrachloroethene

> <CAS RN>
000127-18-4

> <Log Koc>
2.47

> <VP-0>
5.53557

> <nAromBond>
0

> <MAXDP>
0.231824

> <nHBAcc>
0

> <Splitting>
2

$$$$
Dibenzo[a,h]pyrene-7,14-dione
  SciTegic01221512053D

 26 31  0  0  0  0            999 V2000
    6.2571    2.1184    3.4489 C   0  0  0  0  0  0  0  0  0  1  0  0
    6.1506    0.7430    3.2734 C   0  0  0  0  0  0  0  0  0  2  0  0
    5.0105    0.2017    2.6900 C   0  0  0  0  0  0  0  0  0  3  0  0
    3.9765    1.0364    2.2821 C   0  0  0  0  0  0  0  0  0  4  0  0
    4.0848    2.4093    2.4582 C   0  0  0  0  0  0  0  0  0  5  0  0
    5.2231    2.9533    3.0410 C   0  0  0  0  0  0  0  0  0  6  0  0
    3.0009    3.2671    2.0288 C   0  0  0  0  0  0  0  0  0  7  0  0
    3.0789    4.4912    2.1773 O   0  0  0  0  0  0  0  0  0  8  0  0
    1.8181    2.6754    1.4203 C   0  0  0  0  0  0  0  0  0  9  0  0
    1.7305    1.2960    1.2532 C   0  0  0  0  0  0  0  0  0 10  0  0
    2.7735    0.4697    1.6667 C   0  0  0  0  0  0  0  0  0 11  0  0
    2.6802   -0.9064    1.4974 C   0  0  0  0  0  0  0  0  0 12  0  0
    1.5477   -1.4608    0.9159 C   0  0  0  0  0  0  0  0  0 13  0  0
    0.5069   -0.6390    0.5029 C   0  0  0  0  0  0  0  0  0 14  0  0
    0.5945    0.7405    0.6699 C   0  0  0  0  0  0  0  0  0 15  0  0
   -0.4483    1.5668    0.2562 C   0  0  0  0  0  0  0  0  0 16  0  0
   -0.3551    2.9429    0.4256 C   0  0  0  0  0  0  0  0  0 17  0  0
    0.7773    3.4973    1.0073 C   0  0  0  0  0  0  0  0  0 18  0  0
   -1.6510    1.0002   -0.3599 C   0  0  0  0  0  0  0  0  0 19  0  0
   -1.7593   -0.3727   -0.5361 C   0  0  0  0  0  0  0  0  0 20  0  0
   -0.6758   -1.2306   -0.1058 C   0  0  0  0  0  0  0  0  0 21  0  0
   -0.7539   -2.4548   -0.2541 O   0  0  0  0  0  0  0  0  0 22  0  0
   -2.8971   -0.9166   -1.1199 C   0  0  0  0  0  0  0  0  0 23  0  0
   -3.9306   -0.0816   -1.5289 C   0  0  0  0  0  0  0  0  0 24  0  0
   -3.8241    1.2937   -1.3534 C   0  0  0  0  0  0  0  0  0 25  0  0
   -2.6845    1.8350   -0.7690 C   0  0  0  0  0  0  0  0  0 26  0  0
 26 19  4  0
 25 26  4  0
 24 25  4  0
 23 24  4  0
 20 23  4  0
 21 22  2  0
 21 14  1  0
 20 21  1  0
 19 20  4  0
 16 19  1  0
 18  9  4  0
 17 18  4  0
 16 17  4  0
 15 16  4  0
 15 10  4  0
 14 15  4  0
 13 14  4  0
 12 13  4  0
 11 12  4  0
 11  4  1  0
 10 11  4  0
  9 10  4  0
  7  9  1  0
  7  8  2  0
  5  7  1  0
  6  1  4  0
  5  6  4  0
  4  5  4  0
  3  4  4  0
  2  3  4  0
  1  2  4  0
M  END
> <Name>
Dibenzo[a,h]pyrene-7,14-dione

> <CAS RN>
000128-66-5

> <Log Koc>
4.28

> <VP-0>
13.7447

> <nAromBond>
25

> <MAXDP>
6.06557

> <nHBAcc>
2

> <Splitting>
2

$$$$
Pyrene
  SciTegic01221512053D

 16 19  0  0  0  0            999 V2000
   -0.9717    5.2641    0.0500 C   0  0  0  0  0  0  0  0  0  1  0  0
   -0.3089    4.1014   -0.3253 C   0  0  0  0  0  0  0  0  0  2  0  0
   -0.3310    2.9889    0.5084 C   0  0  0  0  0  0  0  0  0  3  0  0
   -1.0159    3.0391    1.7174 C   0  0  0  0  0  0  0  0  0  4  0  0
   -1.6787    4.2019    2.0927 C   0  0  0  0  0  0  0  0  0  5  0  0
   -1.6565    5.3142    1.2589 C   0  0  0  0  0  0  0  0  0  6  0  0
   -1.0379    1.9268    2.5508 C   0  0  0  0  0  0  0  0  0  7  0  0
   -0.3750    0.7639    2.1755 C   0  0  0  0  0  0  0  0  0  8  0  0
    0.3097    0.7135    0.9669 C   0  0  0  0  0  0  0  0  0  9  0  0
    0.3318    1.8260    0.1331 C   0  0  0  0  0  0  0  0  0 10  0  0
    1.0167    1.7758   -1.0759 C   0  0  0  0  0  0  0  0  0 11  0  0
    1.0387    2.8881   -1.9092 C   0  0  0  0  0  0  0  0  0 12  0  0
    0.3758    4.0510   -1.5339 C   0  0  0  0  0  0  0  0  0 13  0  0
    1.6795    0.6130   -1.4511 C   0  0  0  0  0  0  0  0  0 14  0  0
    1.6573   -0.4993   -0.6173 C   0  0  0  0  0  0  0  0  0 15  0  0
    0.9725   -0.4492    0.5916 C   0  0  0  0  0  0  0  0  0 16  0  0
 16  9  4  0
 15 16  4  0
 14 15  4  0
 11 14  4  0
 13  2  4  0
 12 13  4  0
 11 12  4  0
 10 11  4  0
 10  3  4  0
  9 10  4  0
  8  9  4  0
  7  8  4  0
  4  7  4  0
  6  1  4  0
  5  6  4  0
  4  5  4  0
  3  4  4  0
  2  3  4  0
  1  2  4  0
M  END
> <Name>
Pyrene

> <CAS RN>
000129-00-0

> <Log Koc>
4.79

> <VP-0>
8.7735

> <nAromBond>
19

> <MAXDP>
0.212407

> <nHBAcc>
0

> <Splitting>
2

$$$$
Dimethyl phthalate
  SciTegic01221512053D

 14 14  0  0  0  0            999 V2000
    3.8171   -0.2225   -0.0003 C   0  0  0  0  0  0  0  0  0  1  0  0
    3.1221   -1.4216   -0.0060 C   0  0  0  0  0  0  0  0  0  2  0  0
    1.7343   -1.4068   -0.0074 C   0  0  0  0  0  0  0  0  0  3  0  0
    1.0181   -0.2130   -0.0032 C   0  0  0  0  0  0  0  0  0  4  0  0
    1.7226    1.0041    0.0026 C   0  0  0  0  0  0  0  0  0  5  0  0
    3.1145    0.9746    0.0039 C   0  0  0  0  0  0  0  0  0  6  0  0
    1.1225    2.3758    0.0077 C   0  0  0  0  0  0  0  0  0  7  0  0
    1.8917    3.3438    0.0125 O   0  0  0  0  0  0  0  0  0  8  0  0
   -0.2383    2.6191    0.0073 O   0  0  0  0  0  0  0  0  0  9  0  0
   -0.4808    4.0291    0.0129 C   0  0  0  0  0  0  0  0  0 10  0  0
   -0.4649   -0.3676   -0.0054 C   0  0  0  0  0  0  0  0  0 11  0  0
   -1.2406    0.5873   -0.0022 O   0  0  0  0  0  0  0  0  0 12  0  0
   -0.9934   -1.6562   -0.0113 O   0  0  0  0  0  0  0  0  0 13  0  0
   -2.4227   -1.5940   -0.0125 C   0  0  0  0  0  0  0  0  0 14  0  0
 13 14  1  0
 11 13  1  0
 11 12  2  0
  4 11  1  0
  9 10  1  0
  7  9  1  0
  7  8  2  0
  5  7  1  0
  6  1  4  0
  5  6  4  0
  4  5  4  0
  3  4  4  0
  2  3  4  0
  1  2  4  0
M  END
> <Name>
Dimethyl phthalate

> <CAS RN>
000131-11-3

> <Log Koc>
2

> <VP-0>
7.94239

> <nAromBond>
6

> <MAXDP>
4.22463

> <nHBAcc>
4

> <Splitting>
2

$$$$
Dibenzofuran
  SciTegic01221512053D

 13 15  0  0  0  0            999 V2000
   -0.0210    4.8387    0.3120 C   0  0  0  0  0  0  0  0  0  1  0  0
    0.7122    3.7568   -0.1743 C   0  0  0  0  0  0  0  0  0  2  0  0
    0.2115    2.4989    0.1141 C   0  0  0  0  0  0  0  0  0  3  0  0
   -0.9414    2.2904    0.8370 C   0  0  0  0  0  0  0  0  0  4  0  0
   -1.6755    3.3605    1.3236 C   0  0  0  0  0  0  0  0  0  5  0  0
   -1.1950    4.6419    1.0484 C   0  0  0  0  0  0  0  0  0  6  0  0
   -1.1872    1.0173    0.9642 O   0  0  0  0  0  0  0  0  0  7  0  0
   -0.2364    0.3720    0.3502 C   0  0  0  0  0  0  0  0  0  8  0  0
    0.6723    1.2452   -0.2040 C   0  0  0  0  0  0  0  0  0  9  0  0
    1.7862    0.8345   -0.9158 C   0  0  0  0  0  0  0  0  0 10  0  0
    1.9567   -0.5427   -1.0535 C   0  0  0  0  0  0  0  0  0 11  0  0
    1.0410   -1.4423   -0.4954 C   0  0  0  0  0  0  0  0  0 12  0  0
   -0.0738   -0.9979    0.2176 C   0  0  0  0  0  0  0  0  0 13  0  0
 13  8  4  0
 12 13  4  0
 11 12  4  0
 10 11  4  0
  9 10  4  0
  9  3  4  0
  8  9  4  0
  7  8  4  0
  4  7  4  0
  6  1  4  0
  5  6  4  0
  4  5  4  0
  3  4  4  0
  2  3  4  0
  1  2  4  0
M  END
> <Name>
Dibenzofuran

> <CAS RN>
000132-64-9

> <Log Koc>
3.91

> <VP-0>
7.02705

> <nAromBond>
15

> <MAXDP>
2.15241

> <nHBAcc>
0

> <Splitting>
2

$$$$
Dibenzothiophene
  SciTegic01221512053D

 13 15  0  0  0  0            999 V2000
   -1.6707   -0.0147    2.0651 C   0  0  0  0  0  0  0  0  0  1  0  0
   -2.2160    1.1258    1.4685 C   0  0  0  0  0  0  0  0  0  2  0  0
   -1.5144    1.8277    0.4897 C   0  0  0  0  0  0  0  0  0  3  0  0
   -0.2631    1.3460    0.1393 C   0  0  0  0  0  0  0  0  0  4  0  0
    0.2829    0.2161    0.7269 C   0  0  0  0  0  0  0  0  0  5  0  0
   -0.4100   -0.4863    1.7011 C   0  0  0  0  0  0  0  0  0  6  0  0
    1.5499   -0.0806    0.2184 C   0  0  0  0  0  0  0  0  0  7  0  0
    1.9494    0.8280   -0.7486 C   0  0  0  0  0  0  0  0  0  8  0  0
    3.1731    0.7301   -1.3916 C   0  0  0  0  0  0  0  0  0  9  0  0
    4.0014   -0.3300   -1.0268 C   0  0  0  0  0  0  0  0  0 10  0  0
    3.6043   -1.2499   -0.0520 C   0  0  0  0  0  0  0  0  0 11  0  0
    2.3693   -1.1371    0.5856 C   0  0  0  0  0  0  0  0  0 12  0  0
    0.7817    1.9418   -0.9565 S   0  0  0  0  0  0  0  0  0 13  0  0
 13  4  4  0
  8 13  4  0
 12  7  4  0
 11 12  4  0
 10 11  4  0
  9 10  4  0
  8  9  4  0
  7  8  4  0
  5  7  4  0
  6  1  4  0
  5  6  4  0
  4  5  4  0
  3  4  4  0
  2  3  4  0
  1  2  4  0
M  END
> <Name>
Dibenzothiophene

> <CAS RN>
000132-65-0

> <Log Koc>
4.05

> <VP-0>
7.84355

> <nAromBond>
15

> <MAXDP>
0.312243

> <nHBAcc>
0

> <Splitting>
2

$$$$
Captan
  SciTegic01221512053D

 18 19  0  0  0  0            999 V2000
   -0.9079    2.1230    0.0741 C   0  0  0  0  0  0  0  0  0  1  0  0
   -2.2524    1.4380   -0.1767 C   0  0  0  0  0  0  0  0  0  2  0  0
   -2.3531    0.1844   -0.6615 C   0  0  0  0  0  0  0  0  0  3  0  0
   -1.1329   -0.6906   -0.9537 C   0  0  0  0  0  0  0  0  0  4  0  0
    0.1144    0.1840   -1.0293 C   0  0  1  0  0  0  0  0  0  5  0  0
    0.0977    0.8223   -1.9242 H   0  0  0  0  0  0  0  0  0  6  0  0
    0.1988    1.0742    0.1110 C   0  0  2  0  0  0  0  0  0  7  0  0
    0.1174    0.4428    1.0073 H   0  0  0  0  0  0  0  0  0  8  0  0
    1.6294    1.4833    0.0504 C   0  0  0  0  0  0  0  0  0  9  0  0
    2.1186    2.4803    0.5923 O   0  0  0  0  0  0  0  0  0 10  0  0
    2.3197    0.4688   -0.4938 N   0  0  0  0  0  0  0  0  0 11  0  0
    1.4715   -0.4317   -1.0131 C   0  0  0  0  0  0  0  0  0 12  0  0
    1.7876   -1.4882   -1.5704 O   0  0  0  0  0  0  0  0  0 13  0  0
    4.0165    0.3402   -0.5222 S   0  0  0  0  0  0  0  0  0 14  0  0
    4.6013   -0.2564    1.0828 C   0  0  0  0  0  0  0  0  0 15  0  0
    3.8813   -1.8343    1.4184 Cl  0  0  0  0  0  0  0  0  0 16  0  0
    4.1354    0.8838    2.3499 Cl  0  0  0  0  0  0  0  0  0 17  0  0
    6.3612   -0.4068    1.0477 Cl  0  0  0  0  0  0  0  0  0 18  0  0
 15 18  1  0
 15 17  1  0
 15 16  1  0
 14 15  1  0
 11 14  1  0
 12 13  2  0
 12  5  1  0
 11 12  1  0
  9 11  1  0
  9 10  2  0
  7  9  1  0
  7  1  1  0
  7  8  1  0
  5  7  1  0
  5  6  1  0
  4  5  1  0
  3  4  1  0
  2  3  2  0
  1  2  1  0
M  END
> <Name>
Captan

> <CAS RN>
000133-06-2

> <Log Koc>
2.3

> <VP-0>
11.1138

> <nAromBond>
0

> <MAXDP>
5.20684

> <nHBAcc>
3

> <Splitting>
2

$$$$
Folpet
  SciTegic01221512053D

 16 17  0  0  0  0            999 V2000
   -1.7936    3.5741    0.1022 C   0  0  0  0  0  0  0  0  0  1  0  0
   -2.5928    2.6899   -0.6332 C   0  0  0  0  0  0  0  0  0  2  0  0
   -2.1559    1.3995   -0.9364 C   0  0  0  0  0  0  0  0  0  3  0  0
   -0.8993    1.0493   -0.4720 C   0  0  0  0  0  0  0  0  0  4  0  0
   -0.1175    1.9143    0.2473 C   0  0  0  0  0  0  0  0  0  5  0  0
   -0.5297    3.1987    0.5600 C   0  0  0  0  0  0  0  0  0  6  0  0
    1.1082    1.2154    0.5583 C   0  0  0  0  0  0  0  0  0  7  0  0
    2.0620    1.6706    1.1986 O   0  0  0  0  0  0  0  0  0  8  0  0
    1.0275   -0.0228    0.0276 N   0  0  0  0  0  0  0  0  0  9  0  0
   -0.1545   -0.1818   -0.6036 C   0  0  0  0  0  0  0  0  0 10  0  0
   -0.5336   -1.2016   -1.1896 O   0  0  0  0  0  0  0  0  0 11  0  0
    2.2393   -1.2126    0.1392 S   0  0  0  0  0  0  0  0  0 12  0  0
    2.0299   -2.1363    1.6802 C   0  0  0  0  0  0  0  0  0 13  0  0
    0.4384   -2.9032    1.6942 Cl  0  0  0  0  0  0  0  0  0 14  0  0
    2.1636   -1.0335    3.0542 Cl  0  0  0  0  0  0  0  0  0 15  0  0
    3.2826   -3.3764    1.7972 Cl  0  0  0  0  0  0  0  0  0 16  0  0
 13 16  1  0
 13 15  1  0
 13 14  1  0
 12 13  1  0
  9 12  1  0
 10 11  2  0
 10  4  1  0
  9 10  1  0
  7  9  1  0
  7  8  2  0
  5  7  1  0
  6  1  4  0
  5  6  4  0
  4  5  4  0
  3  4  4  0
  2  3  4  0
  1  2  4  0
M  END
> <Name>
Folpet

> <CAS RN>
000133-07-3

> <Log Koc>
3.27

> <VP-0>
10.6995

> <nAromBond>
6

> <MAXDP>
5.09772

> <nHBAcc>
3

> <Splitting>
2

$$$$
Chlorambed
  SciTegic01221512053D

 12 12  0  0  0  0            999 V2000
    2.8899   -1.2492    0.0018 C   0  0  0  0  0  0  0  0  0  1  0  0
    1.5003   -1.2335    0.0015 C   0  0  0  0  0  0  0  0  0  2  0  0
    0.8115   -0.0256    0.0011 C   0  0  0  0  0  0  0  0  0  3  0  0
    1.5214    1.1743    0.0011 C   0  0  0  0  0  0  0  0  0  4  0  0
    2.9118    1.1560    0.0014 C   0  0  0  0  0  0  0  0  0  5  0  0
    3.5968   -0.0532    0.0018 C   0  0  0  0  0  0  0  0  0  6  0  0
    3.6218    2.3572    0.0014 N   0  0  0  0  0  0  0  0  0  7  0  0
    0.7049    2.7004    0.0006 Cl  0  0  0  0  0  0  0  0  0  8  0  0
   -0.6606   -0.0516    0.0007 C   0  0  0  0  0  0  0  0  0  9  0  0
   -1.3173    0.9945    0.0004 O   0  0  0  0  0  0  0  0  0 10  0  0
   -1.3215   -1.2751    0.0008 O   0  0  0  0  0  0  0  0  0 11  0  0
    3.7373   -2.7546    0.0023 Cl  0  0  0  0  0  0  0  0  0 12  0  0
  1 12  1  0
  9 11  1  0
  9 10  2  0
  3  9  1  0
  4  8  1  0
  5  7  1  0
  6  1  4  0
  5  6  4  0
  4  5  4  0
  3  4  4  0
  2  3  4  0
  1  2  4  0
M  END
> <Name>
Chlorambed

> <CAS RN>
000133-90-4

> <Log Koc>
1.4

> <VP-0>
7.3553

> <nAromBond>
6

> <MAXDP>
3.715

> <nHBAcc>
3

> <Splitting>
2

$$$$
1-Aminonaphthalene
  SciTegic01221512053D

 11 12  0  0  0  0            999 V2000
   -0.2344    3.1097    0.2727 C   0  0  0  0  0  0  0  0  0  1  0  0
   -1.2631    3.2140    1.2020 C   0  0  0  0  0  0  0  0  0  2  0  0
   -1.7120    2.0818    1.8728 C   0  0  0  0  0  0  0  0  0  3  0  0
   -1.1324    0.8447    1.6147 C   0  0  0  0  0  0  0  0  0  4  0  0
   -0.1038    0.7402    0.6855 C   0  0  0  0  0  0  0  0  0  5  0  0
    0.3450    1.8728    0.0147 C   0  0  0  0  0  0  0  0  0  6  0  0
    1.3734    1.7685   -0.9144 C   0  0  0  0  0  0  0  0  0  7  0  0
    1.9536    0.5319   -1.1732 C   0  0  0  0  0  0  0  0  0  8  0  0
    1.5049   -0.6005   -0.5025 C   0  0  0  0  0  0  0  0  0  9  0  0
    0.4762   -0.4964    0.4269 C   0  0  0  0  0  0  0  0  0 10  0  0
    1.8228    2.9053   -1.5868 N   0  0  0  0  0  0  0  0  0 11  0  0
  7 11  1  0
 10  5  4  0
  9 10  4  0
  8  9  4  0
  7  8  4  0
  6  7  4  0
  6  1  4  0
  5  6  4  0
  4  5  4  0
  3  4  4  0
  2  3  4  0
  1  2  4  0
M  END
> <Name>
1-Aminonaphthalene

> <CAS RN>
000134-32-7

> <Log Koc>
3.51

> <VP-0>
6.1188

> <nAromBond>
11

> <MAXDP>
1.7562

> <nHBAcc>
1

> <Splitting>
2

$$$$
Thiram
  SciTegic01221512053D

 12 11  0  0  0  0            999 V2000
    1.2315    3.8111    0.4609 N   0  0  0  0  0  0  0  0  0  1  0  0
    2.3697    4.2307   -0.3046 C   0  0  0  0  0  0  0  0  0  2  0  0
    0.3639    4.7892    1.0517 C   0  0  0  0  0  0  0  0  0  3  0  0
    0.9675    2.4514    0.6297 C   0  0  0  0  0  0  0  0  0  4  0  0
   -0.2739    1.9939    1.4654 S   0  0  0  0  0  0  0  0  0  5  0  0
    2.0406    1.2439   -0.0985 S   0  0  0  0  0  0  0  0  0  6  0  0
    1.3027   -0.6612    0.2862 S   0  0  0  0  0  0  0  0  0  7  0  0
   -0.2597   -0.8668   -0.5236 C   0  0  0  0  0  0  0  0  0  8  0  0
   -0.8113    0.2591   -1.4597 S   0  0  0  0  0  0  0  0  0  9  0  0
   -0.9986   -2.0338   -0.3253 N   0  0  0  0  0  0  0  0  0 10  0  0
   -2.2646   -2.2014   -0.9792 C   0  0  0  0  0  0  0  0  0 11  0  0
   -0.4943   -3.0635    0.5366 C   0  0  0  0  0  0  0  0  0 12  0  0
 10 12  1  0
 10 11  1  0
  8 10  1  0
  8  9  2  0
  7  8  1  0
  6  7  1  0
  4  6  1  0
  4  5  2  0
  1  4  1  0
  1  3  1  0
  1  2  1  0
M  END
> <Name>
Thiram

> <CAS RN>
000137-26-8

> <Log Koc>
2.83

> <VP-0>
10.4639

> <nAromBond>
0

> <MAXDP>
0.4291

> <nHBAcc>
2

> <Splitting>
1

$$$$
Propazine
  SciTegic01221512053D

 15 15  0  0  0  0            999 V2000
   -1.0411    0.8199    0.0727 N   0  0  0  0  0  0  0  0  0  1  0  0
   -0.3269    1.9372    0.0453 C   0  0  0  0  0  0  0  0  0  2  0  0
    0.9987    1.8670    0.0810 N   0  0  0  0  0  0  0  0  0  3  0  0
    1.6120    0.6923    0.1435 C   0  0  0  0  0  0  0  0  0  4  0  0
    0.8894   -0.4208    0.1706 N   0  0  0  0  0  0  0  0  0  5  0  0
   -0.4345   -0.3574    0.1352 C   0  0  0  0  0  0  0  0  0  6  0  0
   -1.3686   -1.8099    0.1708 Cl  0  0  0  0  0  0  0  0  0  7  0  0
    3.0292    0.6594    0.1799 N   0  0  0  0  0  0  0  0  0  8  0  0
    3.8030   -0.5700    0.2502 C   0  0  0  0  0  0  0  0  0  9  0  0
    3.5384   -1.4612   -0.9838 C   0  0  0  0  0  0  0  0  0 10  0  0
    3.4777   -1.3543    1.5408 C   0  0  0  0  0  0  0  0  0 11  0  0
   -1.0029    3.1823   -0.0215 N   0  0  0  0  0  0  0  0  0 12  0  0
   -0.3212    4.4665   -0.0539 C   0  0  0  0  0  0  0  0  0 13  0  0
    0.5859    4.5797   -1.2994 C   0  0  0  0  0  0  0  0  0 14  0  0
    0.5186    4.6785    1.2254 C   0  0  0  0  0  0  0  0  0 15  0  0
 13 15  1  0
 13 14  1  0
 12 13  1  0
  2 12  1  0
  9 11  1  0
  9 10  1  0
  8  9  1  0
  4  8  1  0
  6  7  1  0
  6  1  4  0
  5  6  4  0
  4  5  4  0
  3  4  4  0
  2  3  4  0
  1  2  4  0
M  END
> <Name>
Propazine

> <CAS RN>
000139-40-2

> <Log Koc>
2.3

> <VP-0>
10.1302

> <nAromBond>
6

> <MAXDP>
1.29562

> <nHBAcc>
5

> <Splitting>
2

$$$$
4,4'-Thiodianiline
  SciTegic01221512053D

 15 16  0  0  0  0            999 V2000
   -0.6228    5.7137    0.0970 C   0  0  0  0  0  0  0  0  0  1  0  0
    0.7485    5.9424    0.0975 C   0  0  0  0  0  0  0  0  0  2  0  0
    1.6285    4.8899    0.3209 C   0  0  0  0  0  0  0  0  0  3  0  0
    1.1356    3.6095    0.5408 C   0  0  0  0  0  0  0  0  0  4  0  0
   -0.2361    3.3770    0.5362 C   0  0  0  0  0  0  0  0  0  5  0  0
   -1.1149    4.4321    0.3183 C   0  0  0  0  0  0  0  0  0  6  0  0
   -0.8749    1.7420    0.8244 S   0  0  0  0  0  0  0  0  0  7  0  0
    0.1988    0.4979    0.1432 C   0  0  0  0  0  0  0  0  0  8  0  0
    0.9108    0.7441   -1.0265 C   0  0  0  0  0  0  0  0  0  9  0  0
    1.7434   -0.2337   -1.5571 C   0  0  0  0  0  0  0  0  0 10  0  0
    1.8642   -1.4623   -0.9185 C   0  0  0  0  0  0  0  0  0 11  0  0
    1.1505   -1.7125    0.2481 C   0  0  0  0  0  0  0  0  0 12  0  0
    0.3167   -0.7336    0.7774 C   0  0  0  0  0  0  0  0  0 13  0  0
    2.7012   -2.4442   -1.4498 N   0  0  0  0  0  0  0  0  0 14  0  0
    1.2426    7.2282   -0.1249 N   0  0  0  0  0  0  0  0  0 15  0  0
  2 15  1  0
 11 14  1  0
 13  8  4  0
 12 13  4  0
 11 12  4  0
 10 11  4  0
  9 10  4  0
  8  9  4  0
  7  8  1  0
  5  7  1  0
  6  1  4  0
  5  6  4  0
  4  5  4  0
  3  4  4  0
  2  3  4  0
  1  2  4  0
M  END
> <Name>
4,4'-Thiodianiline

> <CAS RN>
000139-65-1

> <Log Koc>
2.04

> <VP-0>
8.99825

> <nAromBond>
12

> <MAXDP>
1.64705

> <nHBAcc>
2

> <Splitting>
2

$$$$
Dicrotophos(cis)
  SciTegic01221512053D

 15 14  0  0  0  0            999 V2000
    4.9647    2.5752   -0.6130 N   0  0  0  0  0  0  0  0  0  1  0  0
    3.5676    2.5387   -0.6785 C   0  0  0  0  0  0  0  0  0  2  0  0
    2.9768    3.4805   -1.2196 O   0  0  0  0  0  0  0  0  0  3  0  0
    2.8452    1.3649   -0.0931 C   0  0  0  0  0  0  0  0  0  4  0  0
    1.5161    1.1747   -0.0712 C   0  0  0  0  0  0  0  0  0  5  0  0
    0.5546    2.1846   -0.6700 C   0  0  0  0  0  0  0  0  0  6  0  0
    1.0474   -0.0274    0.5450 O   0  0  0  0  0  0  0  0  0  7  0  0
   -0.5152   -0.2453    0.5699 P   0  0  0  0  0  0  0  0  0  8  0  0
   -1.0224   -0.2561   -0.7155 O   0  0  0  0  0  0  0  0  0  9  0  0
   -1.2216    0.8615    1.4277 O   0  0  0  0  0  0  0  0  0 10  0  0
   -0.7027    0.8758    2.7756 C   0  0  0  0  0  0  0  0  0 11  0  0
   -0.8008   -1.6409    1.1977 O   0  0  0  0  0  0  0  0  0 12  0  0
   -2.2029   -1.9472    1.1101 C   0  0  0  0  0  0  0  0  0 13  0  0
    5.6891    1.5008    0.0074 C   0  0  0  0  0  0  0  0  0 14  0  0
    5.6764    3.6902   -1.1676 C   0  0  0  0  0  0  0  0  0 15  0  0
  1 15  1  0
  1 14  1  0
 12 13  1  0
  8 12  1  0
 10 11  1  0
  8 10  1  0
  8  9  2  0
  7  8  1  0
  5  7  1  0
  5  6  1  0
  4  5  2  0
  2  4  1  0
  2  3  2  0
  1  2  1  0
M  END
> <Name>
Dicrotophos(cis)

> <CAS RN>
000141-66-2

> <Log Koc>
1.66

> <VP-0>
9.73696

> <nAromBond>
0

> <MAXDP>
4.60351

> <nHBAcc>
6

> <Splitting>
2

$$$$
Hexanoic Acid
  SciTegic01221512053D

  8  7  0  0  0  0            999 V2000
   -0.6182    0.9172   -2.3708 C   0  0  0  0  0  0  0  0  0  1  0  0
    0.1200    2.1838   -1.8712 C   0  0  0  0  0  0  0  0  0  2  0  0
    0.3825    2.2247   -0.3180 C   0  0  0  0  0  0  0  0  0  3  0  0
    1.5056    1.2472    0.2129 C   0  0  0  0  0  0  0  0  0  4  0  0
    1.1249   -0.2625    0.2457 C   0  0  0  0  0  0  0  0  0  5  0  0
    0.0118   -0.5286    1.2322 C   0  0  0  0  0  0  0  0  0  6  0  0
   -0.4206    0.3770    1.9545 O   0  0  0  0  0  0  0  0  0  7  0  0
   -0.5097   -1.8124    1.3511 O   0  0  0  0  0  0  0  0  0  8  0  0
  6  8  1  0
  6  7  2  0
  5  6  1  0
  4  5  1  0
  3  4  1  0
  2  3  1  0
  1  2  1  0
M  END
> <Name>
Hexanoic Acid

> <CAS RN>
000142-62-1

> <Log Koc>
1.46

> <VP-0>
5.18389

> <nAromBond>
0

> <MAXDP>
2.87412

> <nHBAcc>
2

> <Splitting>
2

$$$$
1-Nonanol
  SciTegic01221512053D

 10  9  0  0  0  0            999 V2000
   -1.8883    1.3929   -0.6959 C   0  0  0  0  0  0  0  0  0  1  0  0
   -2.4807    1.2677    0.7273 C   0  0  0  0  0  0  0  0  0  2  0  0
   -1.6214    0.3974    1.7175 C   0  0  0  0  0  0  0  0  0  3  0  0
   -1.6122   -1.1545    1.4112 C   0  0  0  0  0  0  0  0  0  4  0  0
   -0.7595   -1.6822    0.1879 C   0  0  0  0  0  0  0  0  0  5  0  0
    0.7956   -1.7026    0.4212 C   0  0  0  0  0  0  0  0  0  6  0  0
    1.4483   -0.3037    0.4768 C   0  0  0  0  0  0  0  0  0  7  0  0
    2.9594   -0.4496    0.7161 C   0  0  0  0  0  0  0  0  0  8  0  0
    3.5998    0.9476    0.7752 C   0  0  0  0  0  0  0  0  0  9  0  0
    3.0080    1.6958    1.8402 O   0  0  0  0  0  0  0  0  0 10  0  0
  9 10  1  0
  8  9  1  0
  7  8  1  0
  6  7  1  0
  5  6  1  0
  4  5  1  0
  3  4  1  0
  2  3  1  0
  1  2  1  0
M  END
> <Name>
1-Nonanol

> <CAS RN>
000143-08-8

> <Log Koc>
1.89

> <VP-0>
7.10407

> <nAromBond>
0

> <MAXDP>
2.46895

> <nHBAcc>
1

> <Splitting>
2

$$$$
Chlordecone
  SciTegic01221512053D

 21 25  0  0  0  0            999 V2000
    1.4136    0.8703   -0.0308 C   0  0  1  0  0  0  0  0  0  1  0  0
    2.5903    0.8923    1.0331 C   0  0  2  0  0  0  0  0  0  2  0  0
    3.7006    1.1327    0.0959 C   0  0  2  0  0  0  0  0  0  3  0  0
    3.3001    1.7195   -1.2715 C   0  0  0  0  0  0  0  0  0  4  0  0
    2.0960    0.7443   -1.4176 C   0  0  1  0  0  0  0  0  0  5  0  0
    2.3834   -0.6668   -1.0119 C   0  0  1  0  0  0  0  0  0  6  0  0
    3.6919   -0.3798   -0.1481 C   0  0  2  0  0  0  0  0  0  7  0  0
    3.0796   -0.6541    1.2311 C   0  0  2  0  0  0  0  0  0  8  0  0
    1.7528   -1.2999    1.1213 C   0  0  0  0  0  0  0  0  0  9  0  0
    1.2858   -2.2014    1.8252 O   0  0  0  0  0  0  0  0  0 10  0  0
    1.1097   -0.6058    0.0007 C   0  0  1  0  0  0  0  0  0 11  0  0
   -0.4124   -1.1165   -0.7355 Cl  0  0  0  0  0  0  0  0  0 12  0  0
    4.1784   -0.8899    2.5930 Cl  0  0  0  0  0  0  0  0  0 13  0  0
    5.1221   -1.0908   -0.9017 Cl  0  0  0  0  0  0  0  0  0 14  0  0
    2.5044   -2.1480   -1.9622 Cl  0  0  0  0  0  0  0  0  0 15  0  0
    0.9471    0.8946   -2.7502 Cl  0  0  0  0  0  0  0  0  0 16  0  0
    4.5223    1.5001   -2.5268 Cl  0  0  0  0  0  0  0  0  0 17  0  0
    2.8273    3.4178   -1.1715 Cl  0  0  0  0  0  0  0  0  0 18  0  0
    5.1535    1.7173    0.9106 Cl  0  0  0  0  0  0  0  0  0 19  0  0
    2.0532    1.8059    2.4434 Cl  0  0  0  0  0  0  0  0  0 20  0  0
    0.3169    2.2357    0.1985 Cl  0  0  0  0  0  0  0  0  0 21  0  0
  1 21  1  0
  2 20  1  0
  3 19  1  0
  4 18  1  0
  4 17  1  0
  5 16  1  0
  6 15  1  0
  7 14  1  0
  8 13  1  0
 11 12  1  0
 11  6  1  0
 11  1  1  0
  9 11  1  0
  9 10  2  0
  8  9  1  0
  8  2  1  0
  7  8  1  0
  7  3  1  0
  6  7  1  0
  5  6  1  0
  5  1  1  0
  4  5  1  0
  3  4  1  0
  2  3  1  0
  1  2  1  0
M  END
> <Name>
Chlordecone

> <CAS RN>
000143-50-0

> <Log Koc>
4.2

> <VP-0>
16.7472

> <nAromBond>
0

> <MAXDP>
6.82473

> <nHBAcc>
1

> <Splitting>
2

$$$$
Endothal
  SciTegic01221512053D

 17 18  0  0  0  0            999 V2000
    0.4873    2.1585   -1.3758 C   0  0  0  0  0  0  0  0  0  1  0  0
    1.3353    2.9889   -1.0306 O   0  0  0  0  0  0  0  0  0  2  0  0
    0.2193    0.9623   -0.5057 C   0  0  2  0  0  0  0  0  0  3  0  0
    0.8240    0.9594    0.4127 H   0  0  0  0  0  0  0  0  0  4  0  0
    0.2630   -0.2099   -1.4775 C   0  0  2  0  0  0  0  0  0  5  0  0
   -0.2321    0.0914   -2.4075 H   0  0  0  0  0  0  0  0  0  6  0  0
   -0.8081   -1.1408   -1.0728 C   0  0  1  0  0  0  0  0  0  7  0  0
   -0.9339   -1.9257   -1.8314 H   0  0  0  0  0  0  0  0  0  8  0  0
   -0.6385   -1.6987    0.3047 C   0  0  0  0  0  0  0  0  0  9  0  0
   -1.0528   -0.4696    1.0820 C   0  0  0  0  0  0  0  0  0 10  0  0
   -1.2139    0.6678    0.0057 C   0  0  1  0  0  0  0  0  0 11  0  0
   -1.6821    1.5326    0.4955 H   0  0  0  0  0  0  0  0  0 12  0  0
   -1.9144   -0.0740   -1.0170 O   0  0  0  0  0  0  0  0  0 13  0  0
    1.6389   -0.7032   -1.8145 C   0  0  0  0  0  0  0  0  0 14  0  0
    1.7758   -1.7567   -2.4470 O   0  0  0  0  0  0  0  0  0 15  0  0
    2.7597    0.0111   -1.4041 O   0  0  0  0  0  0  0  0  0 16  0  0
   -0.2352    2.3531   -2.5488 O   0  0  0  0  0  0  0  0  0 17  0  0
  1 17  1  0
 14 16  1  0
 14 15  2  0
  5 14  1  0
 13  7  1  0
 11 13  1  0
 11  3  1  0
 11 12  1  0
 10 11  1  0
  9 10  1  0
  7  9  1  0
  7  8  1  0
  5  7  1  0
  5  6  1  0
  3  5  1  0
  3  4  1  0
  1  3  1  0
  1  2  2  0
M  END
> <Name>
Endothal

> <CAS RN>
000145-73-3

> <Log Koc>
2.09

> <VP-0>
6.84279

> <nAromBond>
0

> <MAXDP>
3.76296

> <nHBAcc>
5

> <Splitting>
2

$$$$
Thiabendazole
  SciTegic01221512053D

 15 17  0  0  0  0            999 V2000
    0.5524    3.5477    1.1999 C   0  0  0  0  0  0  0  0  0  1  0  0
    0.3524    4.8969    1.4400 C   0  0  0  0  0  0  0  0  0  2  0  0
    1.0900    5.4621    2.4802 C   0  0  0  0  0  0  0  0  0  3  0  0
    1.9831    4.6924    3.2342 C   0  0  0  0  0  0  0  0  0  4  0  0
    2.1671    3.3342    2.9726 C   0  0  0  0  0  0  0  0  0  5  0  0
    1.4265    2.7893    1.9361 C   0  0  0  0  0  0  0  0  0  6  0  0
    1.4083    1.5419    1.4817 N   0  0  0  0  0  0  0  0  0  7  0  0
    0.5286    1.5404    0.4750 C   0  0  0  0  0  0  0  0  0  8  0  0
    0.0072    2.7534    0.3002 N   0  0  0  0  0  0  0  0  0  9  0  0
   -0.6676    3.0147   -0.3808 H   0  0  0  0  0  0  0  0  0 10  0  0
    0.1905    0.3630   -0.3209 C   0  0  0  0  0  0  0  0  0 11  0  0
   -0.7327    0.3987   -1.3645 C   0  0  0  0  0  0  0  0  0 12  0  0
   -0.7615   -1.1210   -1.9257 S   0  0  0  0  0  0  0  0  0 13  0  0
    0.3217   -1.7959   -0.9212 C   0  0  0  0  0  0  0  0  0 14  0  0
    0.7493   -0.8357   -0.0983 N   0  0  0  0  0  0  0  0  0 15  0  0
 15 11  4  0
 14 15  4  0
 13 14  4  0
 12 13  4  0
 11 12  4  0
  8 11  1  0
  9  1  4  0
  9 10  1  0
  8  9  4  0
  7  8  4  0
  6  7  4  0
  6  1  4  0
  5  6  4  0
  4  5  4  0
  3  4  4  0
  2  3  4  0
  1  2  4  0
M  END
> <Name>
Thiabendazole

> <CAS RN>
000148-79-8

> <Log Koc>
3.24

> <VP-0>
8.08327

> <nAromBond>
16

> <MAXDP>
1.4912

> <nHBAcc>
3

> <Splitting>
2

$$$$
2-Benzothiazolethiol
  SciTegic01221512053D

 11 12  0  0  0  0            999 V2000
   -0.6654   -1.1783    0.2716 S   0  0  0  0  0  0  0  0  0  1  0  0
    0.8619   -1.6950    0.4263 C   0  0  0  0  0  0  0  0  0  2  0  0
    1.6961   -0.7251   -0.0982 C   0  0  0  0  0  0  0  0  0  3  0  0
    3.0712   -0.9061   -0.0971 C   0  0  0  0  0  0  0  0  0  4  0  0
    3.5717   -2.0890    0.4466 C   0  0  0  0  0  0  0  0  0  5  0  0
    2.7178   -3.0620    0.9739 C   0  0  0  0  0  0  0  0  0  6  0  0
    1.3365   -2.8772    0.9713 C   0  0  0  0  0  0  0  0  0  7  0  0
    1.0351    0.3380   -0.5735 N   0  0  0  0  0  0  0  0  0  8  0  0
    1.4857    1.1232   -0.9839 H   0  0  0  0  0  0  0  0  0  9  0  0
   -0.2911    0.2368   -0.4404 C   0  0  0  0  0  0  0  0  0 10  0  0
   -1.3266    1.3158   -0.8997 S   0  0  0  0  0  0  0  0  0 11  0  0
 10 11  2  0
 10  1  4  0
  8 10  4  0
  8  9  1  0
  3  8  4  0
  7  2  4  0
  6  7  4  0
  5  6  4  0
  4  5  4  0
  3  4  4  0
  2  3  4  0
  1  2  4  0
M  END
> <Name>
2-Benzothiazolethiol

> <CAS RN>
000149-30-4

> <Log Koc>
2.25

> <VP-0>
6.75889

> <nAromBond>
6

> <MAXDP>
0.986821

> <nHBAcc>
1

> <Splitting>
2

$$$$
4-Aminobenzoic acid
  SciTegic01221512053D

 10 10  0  0  0  0            999 V2000
    3.5971    0.0044   -0.0002 C   0  0  0  0  0  0  0  0  0  1  0  0
    2.8969   -1.1969   -0.0010 C   0  0  0  0  0  0  0  0  0  2  0  0
    1.5067   -1.1908   -0.0010 C   0  0  0  0  0  0  0  0  0  3  0  0
    0.8177    0.0167   -0.0001 C   0  0  0  0  0  0  0  0  0  4  0  0
    1.5174    1.2180    0.0006 C   0  0  0  0  0  0  0  0  0  5  0  0
    2.9076    1.2118    0.0006 C   0  0  0  0  0  0  0  0  0  6  0  0
   -0.6419    0.0231   -0.0001 C   0  0  0  0  0  0  0  0  0  7  0  0
   -1.2547    1.0965    0.0007 O   0  0  0  0  0  0  0  0  0  8  0  0
   -1.3418   -1.1787   -0.0008 O   0  0  0  0  0  0  0  0  0  9  0  0
    4.9928   -0.0018   -0.0003 N   0  0  0  0  0  0  0  0  0 10  0  0
  1 10  1  0
  7  9  1  0
  7  8  2  0
  4  7  1  0
  6  1  4  0
  5  6  4  0
  4  5  4  0
  3  4  4  0
  2  3  4  0
  1  2  4  0
M  END
> <Name>
4-Aminobenzoic acid

> <CAS RN>
000150-13-0

> <Log Koc>
2.05

> <VP-0>
5.24221

> <nAromBond>
6

> <MAXDP>
3.27141

> <nHBAcc>
3

> <Splitting>
2

$$$$
3-Methoxyphenol
  SciTegic01221512053D

  9  9  0  0  0  0            999 V2000
   -1.8826    1.4096    0.9836 O   0  0  0  0  0  0  0  0  0  1  0  0
   -0.5972    1.2657    0.4729 C   0  0  0  0  0  0  0  0  0  2  0  0
    0.1209    2.3863    0.0717 C   0  0  0  0  0  0  0  0  0  3  0  0
    1.4058    2.2409   -0.4386 C   0  0  0  0  0  0  0  0  0  4  0  0
    1.9718    0.9756   -0.5475 C   0  0  0  0  0  0  0  0  0  5  0  0
    1.2561   -0.1473   -0.1471 C   0  0  0  0  0  0  0  0  0  6  0  0
   -0.0304    0.0008    0.3637 C   0  0  0  0  0  0  0  0  0  7  0  0
    1.8446   -1.4181   -0.2646 O   0  0  0  0  0  0  0  0  0  8  0  0
    0.9585   -2.4492    0.1966 C   0  0  0  0  0  0  0  0  0  9  0  0
  8  9  1  0
  6  8  1  0
  7  2  4  0
  6  7  4  0
  5  6  4  0
  4  5  4  0
  3  4  4  0
  2  3  4  0
  1  2  1  0
M  END
> <Name>
3-Methoxyphenol

> <CAS RN>
000150-19-6

> <Log Koc>
1.5

> <VP-0>
5.16486

> <nAromBond>
6

> <MAXDP>
2.86417

> <nHBAcc>
0

> <Splitting>
2

$$$$
Monuron
  SciTegic01221512053D

 13 13  0  0  0  0            999 V2000
    2.7567    1.2168    0.3370 C   0  0  0  0  0  0  0  0  0  1  0  0
    1.3833    1.1362    0.1325 C   0  0  0  0  0  0  0  0  0  2  0  0
    0.6684    2.2934   -0.1620 C   0  0  0  0  0  0  0  0  0  3  0  0
    1.3188    3.5188   -0.2514 C   0  0  0  0  0  0  0  0  0  4  0  0
    2.6912    3.5927   -0.0461 C   0  0  0  0  0  0  0  0  0  5  0  0
    3.4105    2.4405    0.2483 C   0  0  0  0  0  0  0  0  0  6  0  0
    3.5021    5.1144   -0.1566 Cl  0  0  0  0  0  0  0  0  0  7  0  0
    0.7539   -0.1338    0.2324 N   0  0  0  0  0  0  0  0  0  8  0  0
   -0.6346   -0.3655    0.0467 C   0  0  0  0  0  0  0  0  0  9  0  0
   -1.4213    0.5488   -0.2242 O   0  0  0  0  0  0  0  0  0 10  0  0
   -1.1253   -1.6648    0.1741 N   0  0  0  0  0  0  0  0  0 11  0  0
   -2.5242   -1.9241   -0.0089 C   0  0  0  0  0  0  0  0  0 12  0  0
   -0.2307   -2.7413    0.4882 C   0  0  0  0  0  0  0  0  0 13  0  0
 11 13  1  0
 11 12  1  0
  9 11  1  0
  9 10  2  0
  8  9  1  0
  2  8  1  0
  5  7  1  0
  6  1  4  0
  5  6  4  0
  4  5  4  0
  3  4  4  0
  2  3  4  0
  1  2  4  0
M  END
> <Name>
Monuron

> <CAS RN>
000150-68-5

> <Log Koc>
1.95

> <VP-0>
8.29876

> <nAromBond>
6

> <MAXDP>
4.22219

> <nHBAcc>
3

> <Splitting>
2

$$$$
4-Methoxyphenol
  SciTegic01221512053D

  9  9  0  0  0  0            999 V2000
   -2.1722    1.2521    0.7164 O   0  0  0  0  0  0  0  0  0  1  0  0
   -0.8186    1.1311    0.4212 C   0  0  0  0  0  0  0  0  0  2  0  0
   -0.0922    2.2461    0.0192 C   0  0  0  0  0  0  0  0  0  3  0  0
    1.2610    2.1250   -0.2758 C   0  0  0  0  0  0  0  0  0  4  0  0
    1.8917    0.8902   -0.1700 C   0  0  0  0  0  0  0  0  0  5  0  0
    1.1620   -0.2249    0.2328 C   0  0  0  0  0  0  0  0  0  6  0  0
   -0.1914   -0.1048    0.5281 C   0  0  0  0  0  0  0  0  0  7  0  0
    3.2604    0.7873   -0.4725 O   0  0  0  0  0  0  0  0  0  8  0  0
    3.7331   -0.5581   -0.3065 C   0  0  0  0  0  0  0  0  0  9  0  0
  8  9  1  0
  5  8  1  0
  7  2  4  0
  6  7  4  0
  5  6  4  0
  4  5  4  0
  3  4  4  0
  2  3  4  0
  1  2  1  0
M  END
> <Name>
4-Methoxyphenol

> <CAS RN>
000150-76-5

> <Log Koc>
1.75

> <VP-0>
5.16486

> <nAromBond>
6

> <MAXDP>
2.79663

> <nHBAcc>
0

> <Splitting>
2

$$$$
Aziridine
  SciTegic01221512053D

  3  3  0  0  0  0            999 V2000
   -0.0678    0.2418   -0.0011 N   0  0  0  0  0  0  0  0  0  1  0  0
    1.1326    1.1090    0.0012 C   0  0  0  0  0  0  0  0  0  2  0  0
    1.2647   -0.4041   -0.0015 C   0  0  0  0  0  0  0  0  0  3  0  0
  3  1  1  0
  2  3  1  0
  1  2  1  0
M  END
> <Name>
Aziridine

> <CAS RN>
000151-56-4

> <Log Koc>
0.78

> <VP-0>
1.91421

> <nAromBond>
0

> <MAXDP>
0.5

> <nHBAcc>
1

> <Splitting>
2

$$$$
trans-1,2-Dichloroethene
  SciTegic01221512053D

  4  3  0  0  0  0            999 V2000
   -0.0914    0.0968   -0.5298 C   0  0  0  0  0  0  0  0  0  1  0  0
    1.0892    0.5313   -0.0943 C   0  0  0  0  0  0  0  0  0  2  0  0
    1.8539   -0.2471    1.2460 Cl  0  0  0  0  0  0  0  0  0  3  0  0
   -0.8565   -1.2446    0.2461 Cl  0  0  0  0  0  0  0  0  0  4  0  0
  1  4  1  0
  2  3  1  0
  1  2  2  0
M  END
> <Name>
trans-1,2-Dichloroethene

> <CAS RN>
000156-60-5

> <Log Koc>
1.77

> <VP-0>
3.42249

> <nAromBond>
0

> <MAXDP>
0.236283

> <nHBAcc>
0

> <Splitting>
2

$$$$
Dibenzo[a,i]pyrene
  SciTegic01221512053D

 24 29  0  0  0  0            999 V2000
    2.8706    6.3452    3.3669 C   0  0  0  0  0  0  0  0  0  1  0  0
    3.4339    5.0997    3.6207 C   0  0  0  0  0  0  0  0  0  2  0  0
    2.9565    3.9733    2.9604 C   0  0  0  0  0  0  0  0  0  3  0  0
    1.9157    4.0920    2.0462 C   0  0  0  0  0  0  0  0  0  4  0  0
    1.3526    5.3382    1.7927 C   0  0  0  0  0  0  0  0  0  5  0  0
    1.8299    6.4644    2.4529 C   0  0  0  0  0  0  0  0  0  6  0  0
    0.3121    5.4590    0.8793 C   0  0  0  0  0  0  0  0  0  7  0  0
   -0.1657    4.3335    0.2188 C   0  0  0  0  0  0  0  0  0  8  0  0
    0.3968    3.0873    0.4716 C   0  0  0  0  0  0  0  0  0  9  0  0
    1.4377    2.9663    1.3854 C   0  0  0  0  0  0  0  0  0 10  0  0
    1.9993    1.7200    1.6375 C   0  0  0  0  0  0  0  0  0 11  0  0
    1.5207    0.5951    0.9764 C   0  0  0  0  0  0  0  0  0 12  0  0
    0.4800    0.7157    0.0627 C   0  0  0  0  0  0  0  0  0 13  0  0
   -0.0820    1.9621   -0.1897 C   0  0  0  0  0  0  0  0  0 14  0  0
   -1.1229    2.0838   -1.1034 C   0  0  0  0  0  0  0  0  0 15  0  0
   -1.6849    3.3297   -1.3559 C   0  0  0  0  0  0  0  0  0 16  0  0
   -1.2062    4.4547   -0.6947 C   0  0  0  0  0  0  0  0  0 17  0  0
   -1.6023    0.9597   -1.7650 C   0  0  0  0  0  0  0  0  0 18  0  0
   -1.0407   -0.2863   -1.5129 C   0  0  0  0  0  0  0  0  0 19  0  0
    0.0006   -0.4088   -0.5990 C   0  0  0  0  0  0  0  0  0 20  0  0
    0.5611   -1.6562   -0.3481 C   0  0  0  0  0  0  0  0  0 21  0  0
    0.0810   -2.7802   -1.0105 C   0  0  0  0  0  0  0  0  0 22  0  0
   -0.9600   -2.6572   -1.9239 C   0  0  0  0  0  0  0  0  0 23  0  0
   -1.5208   -1.4101   -2.1751 C   0  0  0  0  0  0  0  0  0 24  0  0
 24 19  4  0
 23 24  4  0
 22 23  4  0
 21 22  4  0
 20 21  4  0
 20 13  4  0
 19 20  4  0
 18 19  4  0
 15 18  4  0
 17  8  4  0
 16 17  4  0
 15 16  4  0
 14 15  4  0
 14  9  4  0
 13 14  4  0
 12 13  4  0
 11 12  4  0
 10 11  4  0
 10  4  4  0
  9 10  4  0
  8  9  4  0
  7  8  4  0
  5  7  4  0
  6  1  4  0
  5  6  4  0
  4  5  4  0
  3  4  4  0
  2  3  4  0
  1  2  4  0
M  END
> <Name>
Dibenzo[a,i]pyrene

> <CAS RN>
000189-55-9

> <Log Koc>
5.71

> <VP-0>
13.0829

> <nAromBond>
29

> <MAXDP>
0.325136

> <nHBAcc>
0

> <Splitting>
2

$$$$
Benzo[g,h,i]perylene
  SciTegic01221512053D

 22 27  0  0  0  0            999 V2000
   -0.0443    4.4159    0.7635 C   0  0  0  0  0  0  0  0  0  1  0  0
    0.7308    5.5357    0.4859 C   0  0  0  0  0  0  0  0  0  2  0  0
    1.9916    5.3849   -0.0801 C   0  0  0  0  0  0  0  0  0  3  0  0
    2.4769    4.1146   -0.3684 C   0  0  0  0  0  0  0  0  0  4  0  0
    1.7019    2.9943   -0.0909 C   0  0  0  0  0  0  0  0  0  5  0  0
    0.4411    3.1452    0.4752 C   0  0  0  0  0  0  0  0  0  6  0  0
   -0.3350    2.0260    0.7532 C   0  0  0  0  0  0  0  0  0  7  0  0
   -1.5958    2.1773    1.3193 C   0  0  0  0  0  0  0  0  0  8  0  0
   -2.0807    3.4476    1.6074 C   0  0  0  0  0  0  0  0  0  9  0  0
   -1.3049    4.5670    1.3295 C   0  0  0  0  0  0  0  0  0 10  0  0
   -2.3719    1.0581    1.5973 C   0  0  0  0  0  0  0  0  0 11  0  0
   -1.8873   -0.2126    1.3094 C   0  0  0  0  0  0  0  0  0 12  0  0
   -0.6267   -0.3638    0.7434 C   0  0  0  0  0  0  0  0  0 13  0  0
    0.1495    0.7556    0.4653 C   0  0  0  0  0  0  0  0  0 14  0  0
    1.4101    0.6044   -0.1006 C   0  0  0  0  0  0  0  0  0 15  0  0
    2.1865    1.7237   -0.3789 C   0  0  0  0  0  0  0  0  0 16  0  0
    3.4471    1.5708   -0.9449 C   0  0  0  0  0  0  0  0  0 17  0  0
    3.9309    0.2997   -1.2326 C   0  0  0  0  0  0  0  0  0 18  0  0
    3.1544   -0.8193   -0.9543 C   0  0  0  0  0  0  0  0  0 19  0  0
    1.8941   -0.6669   -0.3884 C   0  0  0  0  0  0  0  0  0 20  0  0
    1.1180   -1.7861   -0.1103 C   0  0  0  0  0  0  0  0  0 21  0  0
   -0.1426   -1.6345    0.4557 C   0  0  0  0  0  0  0  0  0 22  0  0
 22 13  4  0
 21 22  4  0
 20 21  4  0
 20 15  4  0
 19 20  4  0
 18 19  4  0
 17 18  4  0
 16 17  4  0
 16  5  4  0
 15 16  4  0
 14 15  4  0
 14  7  4  0
 13 14  4  0
 12 13  4  0
 11 12  4  0
  8 11  4  0
 10  1  4  0
  9 10  4  0
  8  9  4  0
  7  8  4  0
  6  7  4  0
  6  1  4  0
  5  6  4  0
  4  5  4  0
  3  4  4  0
  2  3  4  0
  1  2  4  0
M  END
> <Name>
Benzo[g,h,i]perylene

> <CAS RN>
000191-24-2

> <Log Koc>
5.38

> <VP-0>
11.9282

> <nAromBond>
27

> <MAXDP>
0.269167

> <nHBAcc>
0

> <Splitting>
2

$$$$
Benzo[e]pyrene
  SciTegic01221512053D

 20 24  0  0  0  0            999 V2000
    3.5927    4.2196   -2.4457 C   0  0  0  0  0  0  0  0  0  1  0  0
    4.1138    4.0715   -1.1653 C   0  0  0  0  0  0  0  0  0  2  0  0
    3.4624    3.2654   -0.2390 C   0  0  0  0  0  0  0  0  0  3  0  0
    2.2899    2.6070   -0.5923 C   0  0  0  0  0  0  0  0  0  4  0  0
    1.6388    1.8009    0.3343 C   0  0  0  0  0  0  0  0  0  5  0  0
    0.4664    1.1429   -0.0198 C   0  0  0  0  0  0  0  0  0  6  0  0
   -0.1854    0.3364    0.9065 C   0  0  0  0  0  0  0  0  0  7  0  0
   -1.3575   -0.3217    0.5530 C   0  0  0  0  0  0  0  0  0  8  0  0
   -1.8785   -0.1736   -0.7272 C   0  0  0  0  0  0  0  0  0  9  0  0
   -1.2272    0.6325   -1.6535 C   0  0  0  0  0  0  0  0  0 10  0  0
   -0.0546    1.2910   -1.3001 C   0  0  0  0  0  0  0  0  0 11  0  0
    0.5965    2.0972   -2.2269 C   0  0  0  0  0  0  0  0  0 12  0  0
    0.0745    2.2445   -3.5070 C   0  0  0  0  0  0  0  0  0 13  0  0
   -1.0978    1.5862   -3.8602 C   0  0  0  0  0  0  0  0  0 14  0  0
   -1.7488    0.7801   -2.9334 C   0  0  0  0  0  0  0  0  0 15  0  0
    1.7687    2.7551   -1.8730 C   0  0  0  0  0  0  0  0  0 16  0  0
    2.4205    3.5615   -2.7993 C   0  0  0  0  0  0  0  0  0 17  0  0
    0.3349    0.1878    2.1869 C   0  0  0  0  0  0  0  0  0 18  0  0
    1.5072    0.8457    2.5410 C   0  0  0  0  0  0  0  0  0 19  0  0
    2.1589    1.6520    1.6150 C   0  0  0  0  0  0  0  0  0 20  0  0
 20  5  4  0
 19 20  4  0
 18 19  4  0
  7 18  4  0
 17  1  4  0
 16 17  4  0
 16  4  4  0
 12 16  4  0
 15 10  4  0
 14 15  4  0
 13 14  4  0
 12 13  4  0
 11 12  4  0
 11  6  4  0
 10 11  4  0
  9 10  4  0
  8  9  4  0
  7  8  4  0
  6  7  4  0
  5  6  4  0
  4  5  4  0
  3  4  4  0
  2  3  4  0
  1  2  4  0
M  END
> <Name>
Benzo[e]pyrene

> <CAS RN>
000192-97-2

> <Log Koc>
6.07

> <VP-0>
10.9282

> <nAromBond>
24

> <MAXDP>
0.246574

> <nHBAcc>
0

> <Splitting>
2

$$$$
Indeno[1,2,3-cd]pyrene
  SciTegic01221512053D

 22 27  0  0  0  0            999 V2000
    0.4102    5.2139   -1.6306 C   0  0  0  0  0  0  0  0  0  1  0  0
   -0.7163    4.9009   -0.8657 C   0  0  0  0  0  0  0  0  0  2  0  0
   -0.8517    3.6256   -0.3410 C   0  0  0  0  0  0  0  0  0  3  0  0
    0.1465    2.7088   -0.6010 C   0  0  0  0  0  0  0  0  0  4  0  0
    1.2745    2.9808   -1.3524 C   0  0  0  0  0  0  0  0  0  5  0  0
    1.4058    4.2629   -1.8772 C   0  0  0  0  0  0  0  0  0  6  0  0
    2.2273    1.9658   -1.5517 C   0  0  0  0  0  0  0  0  0  7  0  0
    2.0615    0.6795   -1.0054 C   0  0  0  0  0  0  0  0  0  8  0  0
    0.9103    0.4583   -0.2584 C   0  0  0  0  0  0  0  0  0  9  0  0
    0.0059    1.4636   -0.0838 C   0  0  0  0  0  0  0  0  0 10  0  0
   -1.0571    1.0658    0.6738 C   0  0  0  0  0  0  0  0  0 11  0  0
   -2.0853    1.9573    0.9601 C   0  0  0  0  0  0  0  0  0 12  0  0
   -1.9611    3.2559    0.4337 C   0  0  0  0  0  0  0  0  0 13  0  0
   -2.9458    4.2076    0.6738 C   0  0  0  0  0  0  0  0  0 14  0  0
   -2.8167    5.4922    0.1494 C   0  0  0  0  0  0  0  0  0 15  0  0
   -1.7080    5.8425   -0.6181 C   0  0  0  0  0  0  0  0  0 16  0  0
   -0.8153   -0.2663    0.9989 C   0  0  0  0  0  0  0  0  0 17  0  0
    0.3961   -0.6404    0.4250 C   0  0  0  0  0  0  0  0  0 18  0  0
    0.9119   -1.9171    0.5714 C   0  0  0  0  0  0  0  0  0 19  0  0
    0.1559   -2.8155    1.3254 C   0  0  0  0  0  0  0  0  0 20  0  0
   -1.0630   -2.4390    1.9029 C   0  0  0  0  0  0  0  0  0 21  0  0
   -1.5734   -1.1495    1.7489 C   0  0  0  0  0  0  0  0  0 22  0  0
 22 17  4  0
 21 22  4  0
 20 21  4  0
 19 20  4  0
 18 19  4  0
 18  9  4  0
 17 18  4  0
 11 17  4  0
 16  2  4  0
 15 16  4  0
 14 15  4  0
 13 14  4  0
 13  3  4  0
 12 13  4  0
 11 12  4  0
 10 11  4  0
 10  4  4  0
  9 10  4  0
  8  9  4  0
  7  8  4  0
  5  7  4  0
  6  1  4  0
  5  6  4  0
  4  5  4  0
  3  4  4  0
  2  3  4  0
  1  2  4  0
M  END
> <Name>
Indeno[1,2,3-cd]pyrene

> <CAS RN>
000193-39-5

> <Log Koc>
6.33

> <VP-0>
11.9282

> <nAromBond>
27

> <MAXDP>
0.374444

> <nHBAcc>
0

> <Splitting>
2

$$$$
7H-Dibenzo[c,g]carbazole
  SciTegic01221512053D

 22 26  0  0  0  0            999 V2000
   -0.9970    5.7152    3.5061 C   0  0  0  0  0  0  0  0  0  1  0  0
   -1.8399    5.8989    2.4192 C   0  0  0  0  0  0  0  0  0  2  0  0
   -1.9587    4.9186    1.4397 C   0  0  0  0  0  0  0  0  0  3  0  0
   -1.2298    3.7261    1.5310 C   0  0  0  0  0  0  0  0  0  4  0  0
   -0.3917    3.5633    2.6279 C   0  0  0  0  0  0  0  0  0  5  0  0
   -0.2694    4.5392    3.6089 C   0  0  0  0  0  0  0  0  0  6  0  0
   -1.3915    2.7723    0.5103 C   0  0  0  0  0  0  0  0  0  7  0  0
   -2.2602    3.0526   -0.5351 C   0  0  0  0  0  0  0  0  0  8  0  0
   -2.9843    4.2272   -0.6340 C   0  0  0  0  0  0  0  0  0  9  0  0
   -2.8221    5.1654    0.3745 C   0  0  0  0  0  0  0  0  0 10  0  0
   -2.2856    2.0499   -1.3958 N   0  0  0  0  0  0  0  0  0 11  0  0
   -2.8295    2.0115   -2.2259 H   0  0  0  0  0  0  0  0  0 12  0  0
   -1.4654    1.1070   -0.9656 C   0  0  0  0  0  0  0  0  0 13  0  0
   -0.8681    1.4909    0.2267 C   0  0  0  0  0  0  0  0  0 14  0  0
    0.0419    0.6129    0.8421 C   0  0  0  0  0  0  0  0  0 15  0  0
    0.3007   -0.6128    0.2157 C   0  0  0  0  0  0  0  0  0 16  0  0
   -0.3182   -0.9643   -0.9819 C   0  0  0  0  0  0  0  0  0 17  0  0
   -1.2163   -0.1011   -1.5919 C   0  0  0  0  0  0  0  0  0 18  0  0
    1.1913   -1.5218    0.7771 C   0  0  0  0  0  0  0  0  0 19  0  0
    1.8410   -1.2326    1.9686 C   0  0  0  0  0  0  0  0  0 20  0  0
    1.5940   -0.0226    2.5994 C   0  0  0  0  0  0  0  0  0 21  0  0
    0.7037    0.8817    2.0345 C   0  0  0  0  0  0  0  0  0 22  0  0
 22 15  4  0
 21 22  4  0
 20 21  4  0
 19 20  4  0
 16 19  4  0
 18 13  4  0
 17 18  4  0
 16 17  4  0
 15 16  4  0
 14 15  4  0
 14  7  4  0
 13 14  4  0
 11 13  4  0
 11 12  1  0
  8 11  4  0
 10  3  4  0
  9 10  4  0
  8  9  4  0
  7  8  4  0
  4  7  4  0
  6  1  4  0
  5  6  4  0
  4  5  4  0
  3  4  4  0
  2  3  4  0
  1  2  4  0
M  END
> <Name>
7H-Dibenzo[c,g]carbazole

> <CAS RN>
000194-59-2

> <Log Koc>
6.02

> <VP-0>
11.4282

> <nAromBond>
25

> <MAXDP>
1.06226

> <nHBAcc>
1

> <Splitting>
2

$$$$
Perylene
  SciTegic01221512053D

 20 24  0  0  0  0            999 V2000
    1.6139    5.7682    0.2069 C   0  0  0  0  0  0  0  0  0  1  0  0
    1.8740    4.4136    0.3798 C   0  0  0  0  0  0  0  0  0  2  0  0
    0.8241    3.5223    0.5697 C   0  0  0  0  0  0  0  0  0  3  0  0
    1.0838    2.1679    0.7426 C   0  0  0  0  0  0  0  0  0  4  0  0
    0.0327    1.2776    0.9325 C   0  0  0  0  0  0  0  0  0  5  0  0
    0.2925   -0.0775    1.1055 C   0  0  0  0  0  0  0  0  0  6  0  0
   -0.7575   -0.9683    1.2954 C   0  0  0  0  0  0  0  0  0  7  0  0
   -2.0678   -0.5043    1.3124 C   0  0  0  0  0  0  0  0  0  8  0  0
   -2.3278    0.8502    1.1395 C   0  0  0  0  0  0  0  0  0  9  0  0
   -1.2779    1.7415    0.9495 C   0  0  0  0  0  0  0  0  0 10  0  0
   -1.5376    3.0960    0.7766 C   0  0  0  0  0  0  0  0  0 11  0  0
   -0.4865    3.9862    0.5867 C   0  0  0  0  0  0  0  0  0 12  0  0
   -0.7463    5.3414    0.4138 C   0  0  0  0  0  0  0  0  0 13  0  0
   -2.0562    5.8062    0.4306 C   0  0  0  0  0  0  0  0  0 14  0  0
   -3.1069    4.9160    0.6205 C   0  0  0  0  0  0  0  0  0 15  0  0
   -2.8475    3.5613    0.7934 C   0  0  0  0  0  0  0  0  0 16  0  0
    0.3037    6.2322    0.2239 C   0  0  0  0  0  0  0  0  0 17  0  0
    1.6023   -0.5423    1.0887 C   0  0  0  0  0  0  0  0  0 18  0  0
    2.6530    0.3479    0.8988 C   0  0  0  0  0  0  0  0  0 19  0  0
    2.3937    1.7026    0.7259 C   0  0  0  0  0  0  0  0  0 20  0  0
 20  4  4  0
 19 20  4  0
 18 19  4  0
  6 18  4  0
 17  1  4  0
 13 17  4  0
 16 11  4  0
 15 16  4  0
 14 15  4  0
 13 14  4  0
 12 13  4  0
 12  3  4  0
 11 12  4  0
 10 11  4  0
 10  5  4  0
  9 10  4  0
  8  9  4  0
  7  8  4  0
  6  7  4  0
  5  6  4  0
  4  5  4  0
  3  4  4  0
  2  3  4  0
  1  2  4  0
M  END
> <Name>
Perylene

> <CAS RN>
000198-55-0

> <Log Koc>
5.49

> <VP-0>
10.9282

> <nAromBond>
24

> <MAXDP>
0.246574

> <nHBAcc>
0

> <Splitting>
2

$$$$
Benzo[b]fluoranthene
  SciTegic01221512053D

 20 24  0  0  0  0            999 V2000
   -0.8135    2.9693    3.6373 C   0  0  0  0  0  0  0  0  0  1  0  0
    0.5175    2.6442    3.4042 C   0  0  0  0  0  0  0  0  0  2  0  0
    0.9683    2.4533    2.1035 C   0  0  0  0  0  0  0  0  0  3  0  0
    0.0804    2.5882    1.0202 C   0  0  0  0  0  0  0  0  0  4  0  0
    0.4979    2.4034   -0.3065 C   0  0  0  0  0  0  0  0  0  5  0  0
    1.8317    2.0804   -0.4992 C   0  0  0  0  0  0  0  0  0  6  0  0
    2.6741    1.9551    0.5693 C   0  0  0  0  0  0  0  0  0  7  0  0
    2.3026    2.1275    1.8703 C   0  0  0  0  0  0  0  0  0  8  0  0
    3.2948    1.9605    2.8345 C   0  0  0  0  0  0  0  0  0  9  0  0
    4.6014    1.6300    2.4340 C   0  0  0  0  0  0  0  0  0 10  0  0
    4.9527    1.4592    1.0865 C   0  0  0  0  0  0  0  0  0 11  0  0
    3.9376    1.6340    0.1589 C   0  0  0  0  0  0  0  0  0 12  0  0
    3.8933    1.5525   -1.2294 C   0  0  0  0  0  0  0  0  0 13  0  0
    2.5941    1.8279   -1.6353 C   0  0  0  0  0  0  0  0  0 14  0  0
    2.2274    1.8249   -2.9705 C   0  0  0  0  0  0  0  0  0 15  0  0
    3.2307    1.5304   -3.8945 C   0  0  0  0  0  0  0  0  0 16  0  0
    4.5407    1.2527   -3.4853 C   0  0  0  0  0  0  0  0  0 17  0  0
    4.8976    1.2589   -2.1363 C   0  0  0  0  0  0  0  0  0 18  0  0
   -1.2486    2.9137    1.2668 C   0  0  0  0  0  0  0  0  0 19  0  0
   -1.6944    3.1036    2.5701 C   0  0  0  0  0  0  0  0  0 20  0  0
 20  1  4  0
 19 20  4  0
  4 19  4  0
 18 13  4  0
 17 18  4  0
 16 17  4  0
 15 16  4  0
 14 15  4  0
 14  6  4  0
 13 14  4  0
 12 13  4  0
 12  7  4  0
 11 12  4  0
 10 11  4  0
  9 10  4  0
  8  9  4  0
  8  3  4  0
  7  8  4  0
  6  7  4  0
  5  6  4  0
  4  5  4  0
  3  4  4  0
  2  3  4  0
  1  2  4  0
M  END
> <Name>
Benzo[b]fluoranthene

> <CAS RN>
000205-99-2

> <Log Koc>
5.36

> <VP-0>
10.9282

> <nAromBond>
24

> <MAXDP>
0.340278

> <nHBAcc>
0

> <Splitting>
2

$$$$
Fluoranthene
  SciTegic01221512053D

 16 19  0  0  0  0            999 V2000
   -0.4736    2.4030    2.0488 C   0  0  0  0  0  0  0  0  0  1  0  0
    0.7242    3.8616    2.1776 C   0  0  0  0  0  0  0  0  0  2  0  0
    1.7515    4.5620    0.7450 C   0  0  0  0  0  0  0  0  0  3  0  0
    1.6037    3.9210   -1.0380 C   0  0  0  0  0  0  0  0  0  4  0  0
    0.1400    2.5032   -1.2013 C   0  0  0  0  0  0  0  0  0  5  0  0
   -0.8319    1.5545    0.4031 C   0  0  0  0  0  0  0  0  0  6  0  0
   -1.2482    0.3287   -0.1254 C   0  0  0  0  0  0  0  0  0  7  0  0
   -0.2993    1.0163   -0.8210 C   0  0  0  0  0  0  0  0  0  8  0  0
   -1.0322    2.1192   -1.4663 C   0  0  0  0  0  0  0  0  0  9  0  0
   -1.2982    3.4081   -1.0007 C   0  0  0  0  0  0  0  0  0 10  0  0
   -0.3988    3.7700    0.0520 C   0  0  0  0  0  0  0  0  0 11  0  0
    1.4662    2.1652    0.6185 C   0  0  0  0  0  0  0  0  0 12  0  0
    1.0205    0.9293   -0.0300 C   0  0  0  0  0  0  0  0  0 13  0  0
    1.3893   -0.2141    0.7041 C   0  0  0  0  0  0  0  0  0 14  0  0
    0.3698   -1.1519    0.9068 C   0  0  0  0  0  0  0  0  0 15  0  0
   -0.9621   -0.8578    0.5565 C   0  0  0  0  0  0  0  0  0 16  0  0
 16  7  4  0
 15 16  4  0
 14 15  4  0
 13 14  4  0
 13  8  4  0
 12 13  4  0
 11 12  4  0
 10 11  4  0
  9 10  4  0
  9  5  4  0
  8  9  4  0
  7  8  4  0
  6  7  4  0
  6  1  4  0
  5  6  4  0
  4  5  4  0
  3  4  4  0
  2  3  4  0
  1  2  4  0
M  END
> <Name>
Fluoranthene

> <CAS RN>
000206-44-0

> <Log Koc>
4.71

> <VP-0>
8.7735

> <nAromBond>
19

> <MAXDP>
0.219907

> <nHBAcc>
0

> <Splitting>
2

$$$$
Benzo[k]fluoranthene
  SciTegic01221512053D

 20 24  0  0  0  0            999 V2000
   -1.2685    5.9361    1.1267 C   0  0  0  0  0  0  0  0  0  1  0  0
   -2.0268    6.4207    2.1860 C   0  0  0  0  0  0  0  0  0  2  0  0
   -2.3968    5.5714    3.2221 C   0  0  0  0  0  0  0  0  0  3  0  0
   -2.0088    4.2369    3.1995 C   0  0  0  0  0  0  0  0  0  4  0  0
   -1.2503    3.7455    2.1430 C   0  0  0  0  0  0  0  0  0  5  0  0
   -0.8770    4.6024    1.0977 C   0  0  0  0  0  0  0  0  0  6  0  0
   -0.1162    4.1429    0.0220 C   0  0  0  0  0  0  0  0  0  7  0  0
    0.2489    2.8081    0.0387 C   0  0  0  0  0  0  0  0  0  8  0  0
   -0.1206    1.9601    1.0731 C   0  0  0  0  0  0  0  0  0  9  0  0
   -0.8748    2.4016    2.1462 C   0  0  0  0  0  0  0  0  0 10  0  0
    0.3943    0.6967    0.8005 C   0  0  0  0  0  0  0  0  0 11  0  0
    1.0634    0.7982   -0.3873 C   0  0  0  0  0  0  0  0  0 12  0  0
    0.9936    2.0723   -0.8776 C   0  0  0  0  0  0  0  0  0 13  0  0
    1.6073    2.3966   -2.0774 C   0  0  0  0  0  0  0  0  0 14  0  0
    2.2839    1.3565   -2.7322 C   0  0  0  0  0  0  0  0  0 15  0  0
    2.3437    0.0522   -2.2104 C   0  0  0  0  0  0  0  0  0 16  0  0
    1.7133   -0.2333   -1.0007 C   0  0  0  0  0  0  0  0  0 17  0  0
    1.6813   -1.4682   -0.3556 C   0  0  0  0  0  0  0  0  0 18  0  0
    0.9985   -1.5940    0.8671 C   0  0  0  0  0  0  0  0  0 19  0  0
    0.3392   -0.5140    1.4731 C   0  0  0  0  0  0  0  0  0 20  0  0
 20 11  4  0
 19 20  4  0
 18 19  4  0
 17 18  4  0
 17 12  4  0
 16 17  4  0
 15 16  4  0
 14 15  4  0
 13 14  4  0
 13  8  4  0
 12 13  4  0
 11 12  4  0
  9 11  4  0
 10  5  4  0
  9 10  4  0
  8  9  4  0
  7  8  4  0
  6  7  4  0
  6  1  4  0
  5  6  4  0
  4  5  4  0
  3  4  4  0
  2  3  4  0
  1  2  4  0
M  END
> <Name>
Benzo[k]fluoranthene

> <CAS RN>
000207-08-9

> <Log Koc>
4.99

> <VP-0>
10.9282

> <nAromBond>
24

> <MAXDP>
0.332778

> <nHBAcc>
0

> <Splitting>
2

$$$$
Acenaphthylene
  SciTegic01221512053D

 12 14  0  0  0  0            999 V2000
    2.1305    3.8813    0.1818 C   0  0  0  0  0  0  0  0  0  1  0  0
    2.8266    2.8445    0.7256 C   0  0  0  0  0  0  0  0  0  2  0  0
    1.9405    1.6499    0.6670 C   0  0  0  0  0  0  0  0  0  3  0  0
    0.7649    2.0246    0.0956 C   0  0  0  0  0  0  0  0  0  4  0  0
   -0.2969    1.1953   -0.1263 C   0  0  0  0  0  0  0  0  0  5  0  0
   -1.4212    1.7596   -0.7247 C   0  0  0  0  0  0  0  0  0  6  0  0
   -1.4088    3.1234   -1.0634 C   0  0  0  0  0  0  0  0  0  7  0  0
   -0.2980    3.9446   -0.8196 C   0  0  0  0  0  0  0  0  0  8  0  0
    0.8017    3.3461   -0.2225 C   0  0  0  0  0  0  0  0  0  9  0  0
   -0.1507   -0.1328    0.2677 C   0  0  0  0  0  0  0  0  0 10  0  0
    1.0546   -0.5456    0.8608 C   0  0  0  0  0  0  0  0  0 11  0  0
    2.1246    0.3364    1.0728 C   0  0  0  0  0  0  0  0  0 12  0  0
 12  3  4  0
 11 12  4  0
 10 11  4  0
  5 10  4  0
  9  4  4  0
  9  1  1  0
  8  9  4  0
  7  8  4  0
  6  7  4  0
  5  6  4  0
  4  5  4  0
  3  4  4  0
  2  3  1  0
  1  2  2  0
M  END
> <Name>
Acenaphthylene

> <CAS RN>
000208-96-8

> <Log Koc>
3.75

> <VP-0>
6.6188

> <nAromBond>
11

> <MAXDP>
0.178241

> <nHBAcc>
0

> <Splitting>
2

$$$$
Chrysene
  SciTegic01221512053D

 18 21  0  0  0  0            999 V2000
   -2.9882    4.9471    1.8450 C   0  0  0  0  0  0  0  0  0  1  0  0
   -2.2468    6.0203    1.3638 C   0  0  0  0  0  0  0  0  0  2  0  0
   -1.0664    5.7926    0.6657 C   0  0  0  0  0  0  0  0  0  3  0  0
   -0.6274    4.4916    0.4488 C   0  0  0  0  0  0  0  0  0  4  0  0
   -1.3688    3.4177    0.9299 C   0  0  0  0  0  0  0  0  0  5  0  0
   -2.5493    3.6460    1.6280 C   0  0  0  0  0  0  0  0  0  6  0  0
   -0.9290    2.1170    0.7124 C   0  0  0  0  0  0  0  0  0  7  0  0
    0.2521    1.8905    0.0138 C   0  0  0  0  0  0  0  0  0  8  0  0
    0.9925    2.9646   -0.4667 C   0  0  0  0  0  0  0  0  0  9  0  0
    0.5529    4.2651   -0.2494 C   0  0  0  0  0  0  0  0  0 10  0  0
    0.6919    0.5898   -0.2037 C   0  0  0  0  0  0  0  0  0 11  0  0
   -0.0494   -0.4841    0.2774 C   0  0  0  0  0  0  0  0  0 12  0  0
   -1.2298   -0.2576    0.9755 C   0  0  0  0  0  0  0  0  0 13  0  0
   -1.6694    1.0429    1.1929 C   0  0  0  0  0  0  0  0  0 14  0  0
    0.3895   -1.7851    0.0605 C   0  0  0  0  0  0  0  0  0 15  0  0
    1.5700   -2.0128   -0.6377 C   0  0  0  0  0  0  0  0  0 16  0  0
    2.3114   -0.9396   -1.1188 C   0  0  0  0  0  0  0  0  0 17  0  0
    1.8724    0.3615   -0.9018 C   0  0  0  0  0  0  0  0  0 18  0  0
 18 11  4  0
 17 18  4  0
 16 17  4  0
 15 16  4  0
 12 15  4  0
 14  7  4  0
 13 14  4  0
 12 13  4  0
 11 12  4  0
  8 11  4  0
 10  4  4  0
  9 10  4  0
  8  9  4  0
  7  8  4  0
  5  7  4  0
  6  1  4  0
  5  6  4  0
  4  5  4  0
  3  4  4  0
  2  3  4  0
  1  2  4  0
M  END
> <Name>
Chrysene

> <CAS RN>
000218-01-9

> <Log Koc>
5.5

> <VP-0>
9.9282

> <nAromBond>
21

> <MAXDP>
0.236111

> <nHBAcc>
0

> <Splitting>
1

$$$$
Dibenz[a,j]anthracene
  SciTegic01221512053D

 22 26  0  0  0  0            999 V2000
    0.0490    7.7923    0.5991 C   0  0  0  0  0  0  0  0  0  1  0  0
   -1.2496    7.4409    0.9497 C   0  0  0  0  0  0  0  0  0  2  0  0
   -1.6206    6.1018    0.9883 C   0  0  0  0  0  0  0  0  0  3  0  0
   -0.6929    5.1137    0.6763 C   0  0  0  0  0  0  0  0  0  4  0  0
    0.6057    5.4654    0.3257 C   0  0  0  0  0  0  0  0  0  5  0  0
    0.9766    6.8047    0.2871 C   0  0  0  0  0  0  0  0  0  6  0  0
   -1.0650    3.7750    0.7153 C   0  0  0  0  0  0  0  0  0  7  0  0
   -2.3643    3.4247    1.0662 C   0  0  0  0  0  0  0  0  0  8  0  0
   -3.2912    4.4125    1.3779 C   0  0  0  0  0  0  0  0  0  9  0  0
   -2.9193    5.7513    1.3390 C   0  0  0  0  0  0  0  0  0 10  0  0
   -2.7373    2.0864    1.1054 C   0  0  0  0  0  0  0  0  0 11  0  0
   -1.8110    1.0983    0.7937 C   0  0  0  0  0  0  0  0  0 12  0  0
   -0.5116    1.4482    0.4428 C   0  0  0  0  0  0  0  0  0 13  0  0
   -0.1390    2.7866    0.4037 C   0  0  0  0  0  0  0  0  0 14  0  0
    0.4141    0.4592    0.1313 C   0  0  0  0  0  0  0  0  0 15  0  0
    0.0399   -0.8797    0.1709 C   0  0  0  0  0  0  0  0  0 16  0  0
   -1.2590   -1.2292    0.5217 C   0  0  0  0  0  0  0  0  0 17  0  0
   -2.1846   -0.2400    0.8332 C   0  0  0  0  0  0  0  0  0 18  0  0
    0.9648   -1.8696   -0.1404 C   0  0  0  0  0  0  0  0  0 19  0  0
    2.2640   -1.5210   -0.4914 C   0  0  0  0  0  0  0  0  0 20  0  0
    2.6384   -0.1825   -0.5310 C   0  0  0  0  0  0  0  0  0 21  0  0
    1.7135    0.8076   -0.2197 C   0  0  0  0  0  0  0  0  0 22  0  0
 22 15  4  0
 21 22  4  0
 20 21  4  0
 19 20  4  0
 16 19  4  0
 18 12  4  0
 17 18  4  0
 16 17  4  0
 15 16  4  0
 13 15  4  0
 14  7  4  0
 13 14  4  0
 12 13  4  0
 11 12  4  0
  8 11  4  0
 10  3  4  0
  9 10  4  0
  8  9  4  0
  7  8  4  0
  4  7  4  0
  6  1  4  0
  5  6  4  0
  4  5  4  0
  3  4  4  0
  2  3  4  0
  1  2  4  0
M  END
> <Name>
Dibenz[a,j]anthracene

> <CAS RN>
000224-41-9

> <Log Koc>
6.02

> <VP-0>
12.0829

> <nAromBond>
26

> <MAXDP>
0.356481

> <nHBAcc>
0

> <Splitting>
1

$$$$
Benz[a]acridine
  SciTegic01221512053D

 18 21  0  0  0  0            999 V2000
   -0.9477    3.5723    0.2025 C   0  0  0  0  0  0  0  0  0  1  0  0
   -2.2526    3.3391    0.6210 C   0  0  0  0  0  0  0  0  0  2  0  0
   -2.6132    2.0875    1.1078 C   0  0  0  0  0  0  0  0  0  3  0  0
   -1.6695    1.0686    1.1765 C   0  0  0  0  0  0  0  0  0  4  0  0
   -0.3640    1.2998    0.7584 C   0  0  0  0  0  0  0  0  0  5  0  0
   -0.0060    2.5525    0.2719 C   0  0  0  0  0  0  0  0  0  6  0  0
    1.2988    2.7755   -0.1434 C   0  0  0  0  0  0  0  0  0  7  0  0
    2.2083    1.7310   -0.0577 C   0  0  0  0  0  0  0  0  0  8  0  0
    1.7910    0.5004    0.4376 C   0  0  0  0  0  0  0  0  0  9  0  0
    2.6954   -0.5515    0.5270 C   0  0  0  0  0  0  0  0  0 10  0  0
    4.0133   -0.3733    0.1222 C   0  0  0  0  0  0  0  0  0 11  0  0
    4.4285    0.8576   -0.3726 C   0  0  0  0  0  0  0  0  0 12  0  0
    3.5255    1.9113   -0.4629 C   0  0  0  0  0  0  0  0  0 13  0  0
    3.9409    3.1423   -0.9578 C   0  0  0  0  0  0  0  0  0 14  0  0
    5.2590    3.3195   -1.3624 C   0  0  0  0  0  0  0  0  0 15  0  0
    6.1617    2.2659   -1.2720 C   0  0  0  0  0  0  0  0  0 16  0  0
    5.7465    1.0348   -0.7771 C   0  0  0  0  0  0  0  0  0 17  0  0
    0.5328    0.3213    0.8269 N   0  0  0  0  0  0  0  0  0 18  0  0
 18  5  4  0
  9 18  4  0
 17 12  4  0
 16 17  4  0
 15 16  4  0
 14 15  4  0
 13 14  4  0
 13  8  4  0
 12 13  4  0
 11 12  4  0
 10 11  4  0
  9 10  4  0
  8  9  4  0
  7  8  4  0
  6  7  4  0
  6  1  4  0
  5  6  4  0
  4  5  4  0
  3  4  4  0
  2  3  4  0
  1  2  4  0
M  END
> <Name>
Benz[a]acridine

> <CAS RN>
000225-11-6

> <Log Koc>
4.39

> <VP-0>
9.79807

> <nAromBond>
21

> <MAXDP>
1.72782

> <nHBAcc>
1

> <Splitting>
1

$$$$
Benzo[a]fluorene
  SciTegic01221512053D

 17 20  0  0  0  0            999 V2000
   -0.4662    4.8370    0.9373 C   0  0  0  0  0  0  0  0  0  1  0  0
   -1.6721    4.5808    0.3075 C   0  0  0  0  0  0  0  0  0  2  0  0
   -1.9230    3.3175   -0.2037 C   0  0  0  0  0  0  0  0  0  3  0  0
   -0.9828    2.2898   -0.1200 C   0  0  0  0  0  0  0  0  0  4  0  0
    0.3132    2.5012    0.5622 C   0  0  0  0  0  0  0  0  0  5  0  0
    0.4797    3.8310    1.0799 C   0  0  0  0  0  0  0  0  0  6  0  0
    1.4024    0.1591    0.5622 C   0  0  0  0  0  0  0  0  0  7  0  0
    0.6638   -0.6519   -0.4361 C   0  0  0  0  0  0  0  0  0  8  0  0
   -0.4030    0.0189   -1.1266 C   0  0  0  0  0  0  0  0  0  9  0  0
   -1.3839    0.9852   -0.7295 C   0  0  0  0  0  0  0  0  0 10  0  0
   -2.0194    0.1174    0.6970 C   0  0  0  0  0  0  0  0  0 11  0  0
   -0.8069    0.4662    1.0586 C   0  0  0  0  0  0  0  0  0 12  0  0
    0.1629    0.6011   -0.7089 C   0  0  0  0  0  0  0  0  0 13  0  0
    1.8446    1.6564   -1.1147 C   0  0  0  0  0  0  0  0  0 14  0  0
    2.7164    2.1516    0.4963 C   0  0  0  0  0  0  0  0  0 15  0  0
    1.9734    1.7973    2.2094 C   0  0  0  0  0  0  0  0  0 16  0  0
    0.2620    1.0424    2.4959 C   0  0  0  0  0  0  0  0  0 17  0  0
 17 12  4  0
 16 17  4  0
 15 16  4  0
 14 15  4  0
 13 14  4  0
 13  9  1  0
 12 13  4  0
 11 12  1  0
 10 11  1  0
 10  4  4  0
  9 10  4  0
  8  9  4  0
  7  8  4  0
  5  7  4  0
  6  1  4  0
  5  6  4  0
  4  5  4  0
  3  4  4  0
  2  3  4  0
  1  2  4  0
M  END
> <Name>
Benzo[a]fluorene

> <CAS RN>
000238-84-6

> <Log Koc>
5.46

> <VP-0>
9.48061

> <nAromBond>
18

> <MAXDP>
0.267361

> <nHBAcc>
0

> <Splitting>
2

$$$$
13H-Dibenzo[a,i]carbazole
  SciTegic01221512053D

 22 26  0  0  0  0            999 V2000
   -0.5937   -0.9745    4.9001 C   0  0  0  0  0  0  0  0  0  1  0  0
    0.5055   -1.2750    4.1024 C   0  0  0  0  0  0  0  0  0  2  0  0
    0.6227   -0.7096    2.8379 C   0  0  0  0  0  0  0  0  0  3  0  0
   -0.3640    0.1547    2.3802 C   0  0  0  0  0  0  0  0  0  4  0  0
   -1.4690    0.4606    3.1746 C   0  0  0  0  0  0  0  0  0  5  0  0
   -1.5794   -0.1086    4.4380 C   0  0  0  0  0  0  0  0  0  6  0  0
   -2.4643    1.3312    2.7155 C   0  0  0  0  0  0  0  0  0  7  0  0
   -2.3842    1.9195    1.4528 C   0  0  0  0  0  0  0  0  0  8  0  0
   -1.2759    1.5967    0.6876 C   0  0  0  0  0  0  0  0  0  9  0  0
   -0.2899    0.7414    1.1284 C   0  0  0  0  0  0  0  0  0 10  0  0
    0.6450    0.6193    0.1864 N   0  0  0  0  0  0  0  0  0 11  0  0
    1.4651    0.0620    0.2488 H   0  0  0  0  0  0  0  0  0 12  0  0
    0.2906    1.3735   -0.8539 C   0  0  0  0  0  0  0  0  0 13  0  0
   -0.9049    2.0007   -0.5792 C   0  0  0  0  0  0  0  0  0 14  0  0
   -1.5264    2.8534   -1.4762 C   0  0  0  0  0  0  0  0  0 15  0  0
   -0.8796    3.0566   -2.6957 C   0  0  0  0  0  0  0  0  0 16  0  0
    0.3354    2.4251   -2.9865 C   0  0  0  0  0  0  0  0  0 17  0  0
    0.9370    1.5712   -2.0621 C   0  0  0  0  0  0  0  0  0 18  0  0
    2.1429    0.9454   -2.3528 C   0  0  0  0  0  0  0  0  0 19  0  0
    2.7553    1.1743   -3.5795 C   0  0  0  0  0  0  0  0  0 20  0  0
    2.1610    2.0247   -4.5062 C   0  0  0  0  0  0  0  0  0 21  0  0
    0.9536    2.6492   -4.2112 C   0  0  0  0  0  0  0  0  0 22  0  0
 22 17  4  0
 21 22  4  0
 20 21  4  0
 19 20  4  0
 18 19  4  0
 18 13  4  0
 17 18  4  0
 16 17  4  0
 15 16  4  0
 14 15  4  0
 14  9  4  0
 13 14  4  0
 11 13  4  0
 11 12  1  0
 10 11  4  0
 10  4  4  0
  9 10  4  0
  8  9  4  0
  7  8  4  0
  5  7  4  0
  6  1  4  0
  5  6  4  0
  4  5  4  0
  3  4  4  0
  2  3  4  0
  1  2  4  0
M  END
> <Name>
13H-Dibenzo[a,i]carbazole

> <CAS RN>
000239-64-5

> <Log Koc>
6.02

> <VP-0>
11.4282

> <nAromBond>
25

> <MAXDP>
1.16398

> <nHBAcc>
1

> <Splitting>
2

$$$$
Acridine
  SciTegic01221512053D

 14 16  0  0  0  0            999 V2000
    1.8007   -0.3864    1.0623 N   0  0  0  0  0  0  0  0  0  1  0  0
    1.9071   -1.5153    0.3688 C   0  0  0  0  0  0  0  0  0  2  0  0
    1.1091   -1.7350   -0.7489 C   0  0  0  0  0  0  0  0  0  3  0  0
    1.2246   -2.9174   -1.4703 C   0  0  0  0  0  0  0  0  0  4  0  0
    2.1413   -3.8840   -1.0730 C   0  0  0  0  0  0  0  0  0  5  0  0
    2.9402   -3.6667    0.0440 C   0  0  0  0  0  0  0  0  0  6  0  0
    2.8232   -2.4832    0.7644 C   0  0  0  0  0  0  0  0  0  7  0  0
    0.1970   -0.7644   -1.1377 C   0  0  0  0  0  0  0  0  0  8  0  0
    0.1133    0.4015   -0.3901 C   0  0  0  0  0  0  0  0  0  9  0  0
   -0.7871    1.3988   -0.7454 C   0  0  0  0  0  0  0  0  0 10  0  0
   -0.8637    2.5634    0.0098 C   0  0  0  0  0  0  0  0  0 11  0  0
   -0.0404    2.7285    1.1181 C   0  0  0  0  0  0  0  0  0 12  0  0
    0.8597    1.7295    1.4719 C   0  0  0  0  0  0  0  0  0 13  0  0
    0.9379    0.5642    0.7180 C   0  0  0  0  0  0  0  0  0 14  0  0
 14  9  4  0
 14  1  4  0
 13 14  4  0
 12 13  4  0
 11 12  4  0
 10 11  4  0
  9 10  4  0
  8  9  4  0
  3  8  4  0
  7  2  4  0
  6  7  4  0
  5  6  4  0
  4  5  4  0
  3  4  4  0
  2  3  4  0
  1  2  4  0
M  END
> <Name>
Acridine

> <CAS RN>
000260-94-6

> <Log Koc>
4.11

> <VP-0>
7.64337

> <nAromBond>
16

> <MAXDP>
1.57769

> <nHBAcc>
1

> <Splitting>
2

$$$$
Parathion methyl
  SciTegic01221512053D

 16 16  0  0  0  0            999 V2000
   -0.3780   -0.0397    0.2712 C   0  0  0  0  0  0  0  0  0  1  0  0
    0.1148    1.1707   -0.2080 C   0  0  0  0  0  0  0  0  0  2  0  0
   -0.7056    2.3196   -0.3453 O   0  0  0  0  0  0  0  0  0  3  0  0
   -2.2096    2.1279    0.0707 P   0  0  0  0  0  0  0  0  0  4  0  0
   -2.9803    0.9874   -0.9463 S   0  0  0  0  0  0  0  0  0  5  0  0
   -2.9262    3.4974   -0.1062 O   0  0  0  0  0  0  0  0  0  6  0  0
   -2.2401    4.5142    0.6426 C   0  0  0  0  0  0  0  0  0  7  0  0
   -2.3191    1.6732    1.5607 O   0  0  0  0  0  0  0  0  0  8  0  0
   -3.6937    1.4305    1.9058 C   0  0  0  0  0  0  0  0  0  9  0  0
    1.4560    1.2665   -0.5634 C   0  0  0  0  0  0  0  0  0 10  0  0
    2.2965    0.1658   -0.4432 C   0  0  0  0  0  0  0  0  0 11  0  0
    1.7976   -1.0396    0.0353 C   0  0  0  0  0  0  0  0  0 12  0  0
    0.4590   -1.1425    0.3930 C   0  0  0  0  0  0  0  0  0 13  0  0
    2.6389   -2.1438    0.1565 N   0  0  0  0  0  0  0  0  0 14  0  0
    2.1621   -3.2917    0.6131 O   0  0  0  0  0  0  0  0  0 15  0  0
    3.9145   -2.0441   -0.1848 O   0  0  0  0  0  0  0  0  0 16  0  0
 14 16  1  0
 14 15  1  0
 12 14  1  0
 13  1  4  0
 12 13  4  0
 11 12  4  0
 10 11  4  0
  2 10  4  0
  8  9  1  0
  4  8  1  0
  6  7  1  0
  4  6  1  0
  4  5  2  0
  3  4  1  0
  2  3  1  0
  1  2  4  0
M  END
> <Name>
Parathion methyl

> <CAS RN>
000298-00-0

> <Log Koc>
3

> <VP-0>
10.2159

> <nAromBond>
6

> <MAXDP>
3.44851

> <nHBAcc>
2

> <Splitting>
2

$$$$
Phorate
  SciTegic01221512053D

 13 12  0  0  0  0            999 V2000
   -0.0197    3.0134   -1.6823 S   0  0  0  0  0  0  0  0  0  1  0  0
    1.2423    1.7185   -1.7405 C   0  0  0  0  0  0  0  0  0  2  0  0
    0.5274    0.1221   -1.2505 S   0  0  0  0  0  0  0  0  0  3  0  0
   -0.1032    0.1793    0.5818 P   0  0  0  0  0  0  0  0  0  4  0  0
   -1.2550    1.4373    0.7035 S   0  0  0  0  0  0  0  0  0  5  0  0
    1.1084    0.5198    1.5319 O   0  0  0  0  0  0  0  0  0  6  0  0
    2.3123   -0.2602    1.2576 C   0  0  0  0  0  0  0  0  0  7  0  0
    2.1718   -1.7553    1.6079 C   0  0  0  0  0  0  0  0  0  8  0  0
   -0.7547   -1.2228    0.9370 O   0  0  0  0  0  0  0  0  0  9  0  0
   -1.3268   -1.2964    2.2786 C   0  0  0  0  0  0  0  0  0 10  0  0
   -2.7578   -0.7169    2.3430 C   0  0  0  0  0  0  0  0  0 11  0  0
    0.7227    4.5963   -2.1446 C   0  0  0  0  0  0  0  0  0 12  0  0
    1.8575    4.9351   -1.1604 C   0  0  0  0  0  0  0  0  0 13  0  0
 12 13  1  0
  1 12  1  0
 10 11  1  0
  9 10  1  0
  4  9  1  0
  7  8  1  0
  6  7  1  0
  4  6  1  0
  4  5  2  0
  3  4  1  0
  2  3  1  0
  1  2  1  0
M  END
> <Name>
Phorate

> <CAS RN>
000298-02-2

> <Log Koc>
3.11

> <VP-0>
11.6608

> <nAromBond>
0

> <MAXDP>
2.5357

> <nHBAcc>
2

> <Splitting>
1

$$$$
Disulfoton
  SciTegic01221512053D

 14 13  0  0  0  0            999 V2000
   -0.8526   -1.1337   -2.6834 C   0  0  0  0  0  0  0  0  0  1  0  0
   -0.3951    0.4158   -3.5088 S   0  0  0  0  0  0  0  0  0  2  0  0
    0.0649    1.7368   -2.3338 C   0  0  0  0  0  0  0  0  0  3  0  0
    1.4073    1.4298   -1.6132 C   0  0  0  0  0  0  0  0  0  4  0  0
    1.2711    0.0564   -0.4272 S   0  0  0  0  0  0  0  0  0  5  0  0
    0.2951    0.5899    1.1660 P   0  0  0  0  0  0  0  0  0  6  0  0
   -1.2319    1.2024    0.7003 S   0  0  0  0  0  0  0  0  0  7  0  0
    1.0887    1.7481    1.8819 O   0  0  0  0  0  0  0  0  0  8  0  0
    2.5205    1.4915    2.0060 C   0  0  0  0  0  0  0  0  0  9  0  0
    2.8595    0.3539    2.9907 C   0  0  0  0  0  0  0  0  0 10  0  0
    0.1343   -0.6785    2.1039 O   0  0  0  0  0  0  0  0  0 11  0  0
   -0.6371   -0.4321    3.3181 C   0  0  0  0  0  0  0  0  0 12  0  0
   -2.1599   -0.5463    3.0804 C   0  0  0  0  0  0  0  0  0 13  0  0
   -2.1300   -0.9249   -1.8501 C   0  0  0  0  0  0  0  0  0 14  0  0
  1 14  1  0
 12 13  1  0
 11 12  1  0
  6 11  1  0
  9 10  1  0
  8  9  1  0
  6  8  1  0
  6  7  2  0
  5  6  1  0
  4  5  1  0
  3  4  1  0
  2  3  1  0
  1  2  1  0
M  END
> <Name>
Disulfoton

> <CAS RN>
000298-04-4

> <Log Koc>
3.13

> <VP-0>
12.3679

> <nAromBond>
0

> <MAXDP>
2.55893

> <nHBAcc>
2

> <Splitting>
2

$$$$
Naled
  SciTegic01221512053D

 14 13  0  0  0  0            999 V2000
   -0.1501    4.8182   -1.6047 C   0  0  0  0  0  0  0  0  0  1  0  0
   -0.8747    3.7794   -0.9198 O   0  0  0  0  0  0  0  0  0  2  0  0
   -0.3828    2.3069   -1.2468 P   0  0  0  0  0  0  0  0  0  3  0  0
    0.9937    2.2441   -1.1676 O   0  0  0  0  0  0  0  0  0  4  0  0
   -0.8787    1.7700   -2.6544 O   0  0  0  0  0  0  0  0  0  5  0  0
   -0.1565    2.2983   -3.7849 C   0  0  0  0  0  0  0  0  0  6  0  0
   -0.9823    1.4029   -0.1201 O   0  0  0  0  0  0  0  0  0  7  0  0
   -0.4684    0.0520   -0.1469 C   0  0  1  0  0  0  0  0  0  8  0  0
    0.6280    0.0742   -0.0713 H   0  0  0  0  0  0  0  0  0  9  0  0
   -1.0421   -0.7054    1.0591 C   0  0  0  0  0  0  0  0  0 10  0  0
   -2.8041   -0.7422    0.9435 Cl  0  0  0  0  0  0  0  0  0 11  0  0
   -0.5647    0.1160    2.5480 Cl  0  0  0  0  0  0  0  0  0 12  0  0
   -0.3544   -2.5186    1.0686 Br  0  0  0  0  0  0  0  0  0 13  0  0
   -0.9978   -0.8955   -1.7587 Br  0  0  0  0  0  0  0  0  0 14  0  0
  8 14  1  0
 10 13  1  0
 10 12  1  0
 10 11  1  0
  8 10  1  0
  8  9  1  0
  7  8  1  0
  3  7  1  0
  5  6  1  0
  3  5  1  0
  3  4  2  0
  2  3  1  0
  1  2  1  0
M  END
> <Name>
Naled

> <CAS RN>
000300-76-5

> <Log Koc>
2.23

> <VP-0>
11.5772

> <nAromBond>
0

> <MAXDP>
4.7643

> <nHBAcc>
4

> <Splitting>
1

$$$$
Oxydemeton-Methyl
  SciTegic01221512053D

 11 10  0  0  0  0            999 V2000
    1.5529   -3.4919    1.0011 C   0  0  0  0  0  0  0  0  0  1  0  0
    0.8292   -2.0560    0.5914 P   0  0  0  0  0  0  0  0  0  2  0  0
    1.2638   -1.6719   -0.6613 O   0  0  0  0  0  0  0  0  0  3  0  0
    1.2660   -0.9251    1.7325 C   0  0  0  0  0  0  0  0  0  4  0  0
   -1.0953   -2.3244    0.5676 S   0  0  0  0  0  0  0  0  0  5  0  0
   -2.0622   -1.0544   -0.3410 C   0  0  0  0  0  0  0  0  0  6  0  0
   -1.8548    0.3993    0.1444 C   0  0  0  0  0  0  0  0  0  7  0  0
   -0.2445    1.0263   -0.3876 S   0  0  0  0  0  0  0  0  0  8  0  0
   -0.1592    0.9835   -1.9012 O   0  0  0  0  0  0  0  0  0  9  0  0
   -0.0404    2.7307    0.1817 C   0  0  0  0  0  0  0  0  0 10  0  0
    1.3325    3.2589   -0.2712 C   0  0  0  0  0  0  0  0  0 11  0  0
 10 11  1  0
  8 10  1  0
  8  9  2  0
  7  8  1  0
  6  7  1  0
  5  6  1  0
  2  5  1  0
  2  4  1  0
  2  3  2  0
  1  2  1  0
M  END
> <Name>
Oxydemeton-Methyl

> <CAS RN>
000301-12-2

> <Log Koc>
1.05

> <VP-0>
8.70083

> <nAromBond>
0

> <MAXDP>
4.4255

> <nHBAcc>
2

> <Splitting>
2

$$$$
Aldrin
  SciTegic01221512053D

 22 25  0  0  0  0            999 V2000
   -1.2413   -2.1005    0.0487 C   0  0  0  0  0  0  0  0  0  1  0  0
   -0.0863   -1.9497   -0.5441 C   0  0  0  0  0  0  0  0  0  2  0  0
   -0.0547   -0.6046   -1.1560 C   0  0  1  0  0  0  0  0  0  3  0  0
   -1.0470   -0.7459   -2.4402 C   0  0  1  0  0  0  0  0  0  4  0  0
   -0.6496   -1.5711   -3.0462 H   0  0  0  0  0  0  0  0  0  5  0  0
   -2.4648   -0.9285   -1.7107 C   0  0  1  0  0  0  0  0  0  6  0  0
   -3.0152   -1.8694   -1.8442 H   0  0  0  0  0  0  0  0  0  7  0  0
   -2.0221   -0.8620   -0.1453 C   0  0  2  0  0  0  0  0  0  8  0  0
   -0.8273    0.1821   -0.0073 C   0  0  0  0  0  0  0  0  0  9  0  0
   -0.0073    0.0190    1.5476 Cl  0  0  0  0  0  0  0  0  0 10  0  0
   -1.1426    1.9151   -0.1788 Cl  0  0  0  0  0  0  0  0  0 11  0  0
   -3.3796   -0.7499    0.9762 Cl  0  0  0  0  0  0  0  0  0 12  0  0
   -3.3154    0.2005   -2.4458 C   0  0  2  0  0  0  0  0  0 13  0  0
   -4.2824    0.4026   -1.9655 H   0  0  0  0  0  0  0  0  0 14  0  0
   -3.4836   -0.2724   -3.8478 C   0  0  0  0  0  0  0  0  0 15  0  0
   -2.3209   -0.1252   -4.4467 C   0  0  0  0  0  0  0  0  0 16  0  0
   -1.3838    0.4455   -3.4417 C   0  0  2  0  0  0  0  0  0 17  0  0
   -0.4948    0.8838   -3.9151 H   0  0  0  0  0  0  0  0  0 18  0  0
   -2.3540    1.3887   -2.6896 C   0  0  0  0  0  0  0  0  0 19  0  0
    1.5850   -0.1043   -1.5735 Cl  0  0  0  0  0  0  0  0  0 20  0  0
    1.1861   -3.1148   -0.5952 Cl  0  0  0  0  0  0  0  0  0 21  0  0
   -1.7602   -3.4988    0.9172 Cl  0  0  0  0  0  0  0  0  0 22  0  0
  1 22  1  0
  2 21  1  0
  3 20  1  0
 19 13  1  0
 17 19  1  0
 17  4  1  0
 17 18  1  0
 16 17  1  0
 15 16  2  0
 13 15  1  0
 13 14  1  0
  6 13  1  0
  8 12  1  0
  9 11  1  0
  9 10  1  0
  9  3  1  0
  8  9  1  0
  8  1  1  0
  6  8  1  0
  6  7  1  0
  4  6  1  0
  4  5  1  0
  3  4  1  0
  2  3  1  0
  1  2  2  0
M  END
> <Name>
Aldrin

> <CAS RN>
000309-00-2

> <Log Koc>
4.4

> <VP-0>
13.4746

> <nAromBond>
0

> <MAXDP>
0.653733

> <nHBAcc>
0

> <Splitting>
2

$$$$
Bromacil
  SciTegic01221512053D

 16 16  0  0  0  0            999 V2000
   -1.3360   -2.6575    2.7286 C   0  0  0  0  0  0  0  0  0  1  0  0
   -0.4579   -2.4555    1.6748 C   0  0  0  0  0  0  0  0  0  2  0  0
    0.4688   -3.2600    1.5148 O   0  0  0  0  0  0  0  0  0  3  0  0
   -0.6336   -1.4069    0.8652 N   0  0  0  0  0  0  0  0  0  4  0  0
   -1.6457   -0.5648    1.0784 C   0  0  0  0  0  0  0  0  0  5  0  0
   -1.8020    0.4046    0.3280 O   0  0  0  0  0  0  0  0  0  6  0  0
   -2.5008   -0.7372    2.0812 N   0  0  0  0  0  0  0  0  0  7  0  0
   -3.2438   -0.0900    2.2088 H   0  0  0  0  0  0  0  0  0  8  0  0
   -2.3749   -1.7607    2.9129 C   0  0  0  0  0  0  0  0  0  9  0  0
   -3.3458   -1.9446    4.0409 C   0  0  0  0  0  0  0  0  0 10  0  0
    0.2716   -1.1381   -0.2711 C   0  0  1  0  0  0  0  0  0 11  0  0
   -0.0564   -0.2351   -0.8003 H   0  0  0  0  0  0  0  0  0 12  0  0
    1.7113   -0.9162    0.2483 C   0  0  0  0  0  0  0  0  0 13  0  0
    0.3013   -2.3257   -1.2762 C   0  0  0  0  0  0  0  0  0 14  0  0
   -1.1004   -2.5678   -1.8794 C   0  0  0  0  0  0  0  0  0 15  0  0
   -1.1162   -4.1389    3.8982 Br  0  0  0  0  0  0  0  0  0 16  0  0
  1 16  1  0
 14 15  1  0
 11 14  1  0
 11 13  1  0
 11 12  1  0
  4 11  1  0
  9 10  1  0
  9  1  4  0
  7  9  4  0
  7  8  1  0
  5  7  4  0
  5  6  2  0
  4  5  4  0
  2  4  4  0
  2  3  2  0
  1  2  4  0
M  END
> <Name>
Bromacil

> <CAS RN>
000314-40-9

> <Log Koc>
1.73

> <VP-0>
10.0121

> <nAromBond>
0

> <MAXDP>
4.81215

> <nHBAcc>
4

> <Splitting>
2

$$$$
Isocil
  SciTegic01221512053D

 14 14  0  0  0  0            999 V2000
    0.2869    1.6276   -0.7850 N   0  0  0  0  0  0  0  0  0  1  0  0
   -0.4340    2.1283   -1.2504 H   0  0  0  0  0  0  0  0  0  2  0  0
    1.4975    2.1580   -0.6930 C   0  0  0  0  0  0  0  0  0  3  0  0
    1.7825    3.5052   -1.2866 C   0  0  0  0  0  0  0  0  0  4  0  0
    2.4953    1.4506   -0.0443 C   0  0  0  0  0  0  0  0  0  5  0  0
    2.1980    0.2066    0.4919 C   0  0  0  0  0  0  0  0  0  6  0  0
    3.1071   -0.4122    1.0562 O   0  0  0  0  0  0  0  0  0  7  0  0
    0.9561   -0.2784    0.3725 N   0  0  0  0  0  0  0  0  0  8  0  0
    0.0268    0.4347   -0.2626 C   0  0  0  0  0  0  0  0  0  9  0  0
   -1.1165   -0.0240   -0.3693 O   0  0  0  0  0  0  0  0  0 10  0  0
    0.5306   -1.5941    0.9024 C   0  0  0  0  0  0  0  0  0 11  0  0
    0.6804   -2.6761   -0.1857 C   0  0  0  0  0  0  0  0  0 12  0  0
    1.2198   -2.0612    2.2115 C   0  0  0  0  0  0  0  0  0 13  0  0
    4.2476    2.1714    0.1058 Br  0  0  0  0  0  0  0  0  0 14  0  0
  5 14  1  0
 11 13  1  0
 11 12  1  0
  8 11  1  0
  9 10  2  0
  9  1  4  0
  8  9  4  0
  6  8  4  0
  6  7  2  0
  5  6  4  0
  3  5  4  0
  3  4  1  0
  1  3  4  0
  1  2  1  0
M  END
> <Name>
Isocil

> <CAS RN>
000314-42-1

> <Log Koc>
2.11

> <VP-0>
9.30502

> <nAromBond>
0

> <MAXDP>
4.65326

> <nHBAcc>
4

> <Splitting>
2

$$$$
alpha-HCH
  SciTegic01221512053D

 18 18  0  0  0  0            999 V2000
   -0.6003    0.1570    0.2462 C   0  0  0  0  0  0  0  0  0  1  0  0
   -0.7384    0.9371   -0.5151 H   0  0  0  0  0  0  0  0  0  2  0  0
   -0.3539    0.7093    1.7894 C   0  0  0  0  0  0  0  0  0  3  0  0
   -0.4055   -0.0893    2.5418 H   0  0  0  0  0  0  0  0  0  4  0  0
    1.1334    1.3999    2.0930 C   0  0  0  0  0  0  0  0  0  5  0  0
    1.0563    1.9879    3.0180 H   0  0  0  0  0  0  0  0  0  6  0  0
    1.4260    2.1085    0.8740 C   0  0  0  0  0  0  0  0  0  7  0  0
    2.3367    2.7230    0.8617 H   0  0  0  0  0  0  0  0  0  8  0  0
    1.6364    0.8643   -0.1949 C   0  0  0  0  0  0  0  0  0  9  0  0
    2.6250    0.3937   -0.1129 H   0  0  0  0  0  0  0  0  0 10  0  0
    0.6177   -0.4326   -0.0466 C   0  0  0  0  0  0  0  0  0 11  0  0
    0.8159   -1.0795    0.8209 H   0  0  0  0  0  0  0  0  0 12  0  0
    0.7315   -1.3766   -1.5335 Cl  0  0  0  0  0  0  0  0  0 13  0  0
    1.5095    1.6691   -1.7619 Cl  0  0  0  0  0  0  0  0  0 14  0  0
    0.0655    3.1928    0.5103 Cl  0  0  0  0  0  0  0  0  0 15  0  0
    2.4829    0.2479    2.2987 Cl  0  0  0  0  0  0  0  0  0 16  0  0
   -1.7404    1.7894    2.0526 Cl  0  0  0  0  0  0  0  0  0 17  0  0
   -2.0119   -0.9019    0.2786 Cl  0  0  0  0  0  0  0  0  0 18  0  0
  1 18  1  0
  3 17  1  0
  5 16  1  0
  7 15  1  0
  9 14  1  0
 11 13  1  0
 11  1  1  0
 11 12  1  0
  9 11  1  0
  9 10  1  0
  7  9  1  0
  7  8  1  0
  5  7  1  0
  5  6  1  0
  3  5  1  0
  3  4  1  0
  1  3  1  0
  1  2  1  0
M  END
> <Name>
alpha-HCH

> <CAS RN>
000319-84-6

> <Log Koc>
3.25

> <VP-0>
10.2675

> <nAromBond>
0

> <MAXDP>
0.00786694

> <nHBAcc>
0

> <Splitting>
1

$$$$
beta-HCH
  SciTegic01221512053D

 18 18  0  0  0  0            999 V2000
   -0.1849    0.1836    0.8241 C   0  0  0  0  0  0  0  0  0  1  0  0
   -0.6552    0.2326   -0.1685 H   0  0  0  0  0  0  0  0  0  2  0  0
    0.0519    1.6255    1.5702 C   0  0  0  0  0  0  0  0  0  3  0  0
    0.3512    1.5063    2.6204 H   0  0  0  0  0  0  0  0  0  4  0  0
    1.2360    2.5824    0.9507 C   0  0  0  0  0  0  0  0  0  5  0  0
    2.2679    2.2419    1.1350 H   0  0  0  0  0  0  0  0  0  6  0  0
    1.0341    2.4015   -0.4092 C   0  0  0  0  0  0  0  0  0  7  0  0
   -0.0417    2.5593   -0.5727 H   0  0  0  0  0  0  0  0  0  8  0  0
    1.5605    0.8575   -0.5846 C   0  0  0  0  0  0  0  0  0  9  0  0
    2.6569    0.7900   -0.5911 H   0  0  0  0  0  0  0  0  0 10  0  0
    1.1281   -0.2000    0.5971 C   0  0  0  0  0  0  0  0  0 11  0  0
    1.6374   -0.0657    1.5652 H   0  0  0  0  0  0  0  0  0 12  0  0
    1.4123   -1.8335   -0.0083 Cl  0  0  0  0  0  0  0  0  0 13  0  0
    0.9359    0.3948   -2.1723 Cl  0  0  0  0  0  0  0  0  0 14  0  0
    1.9616    3.4172   -1.5152 Cl  0  0  0  0  0  0  0  0  0 15  0  0
    1.0153    4.2074    1.6035 Cl  0  0  0  0  0  0  0  0  0 16  0  0
   -1.5427    2.3851    1.4984 Cl  0  0  0  0  0  0  0  0  0 17  0  0
   -1.1574   -0.8261    1.8964 Cl  0  0  0  0  0  0  0  0  0 18  0  0
  1 18  1  0
  3 17  1  0
  5 16  1  0
  7 15  1  0
  9 14  1  0
 11 13  1  0
 11  1  1  0
 11 12  1  0
  9 11  1  0
  9 10  1  0
  7  9  1  0
  7  8  1  0
  5  7  1  0
  5  6  1  0
  3  5  1  0
  3  4  1  0
  1  3  1  0
  1  2  1  0
M  END
> <Name>
beta-HCH

> <CAS RN>
000319-85-7

> <Log Koc>
3.36

> <VP-0>
10.2675

> <nAromBond>
0

> <MAXDP>
0.00786694

> <nHBAcc>
0

> <Splitting>
2

$$$$
3-(3-Fluorophenyl)-1,1-dimethylurea
  SciTegic01221512053D

 13 13  0  0  0  0            999 V2000
    2.7211    3.6570   -0.1540 C   0  0  0  0  0  0  0  0  0  1  0  0
    3.4389    2.4937    0.0976 C   0  0  0  0  0  0  0  0  0  2  0  0
    2.7755    1.2771    0.2085 C   0  0  0  0  0  0  0  0  0  3  0  0
    1.3931    1.2142    0.0690 C   0  0  0  0  0  0  0  0  0  4  0  0
    0.6794    2.3821   -0.1829 C   0  0  0  0  0  0  0  0  0  5  0  0
    1.3397    3.6004   -0.2942 C   0  0  0  0  0  0  0  0  0  6  0  0
    0.7538   -0.0491    0.1894 N   0  0  0  0  0  0  0  0  0  7  0  0
   -0.6441   -0.2635    0.0632 C   0  0  0  0  0  0  0  0  0  8  0  0
   -1.4309    0.6613   -0.1692 O   0  0  0  0  0  0  0  0  0  9  0  0
   -1.1443   -1.5577    0.2055 N   0  0  0  0  0  0  0  0  0 10  0  0
   -2.5526   -1.7998    0.0816 C   0  0  0  0  0  0  0  0  0 11  0  0
   -0.2497   -2.6461    0.4758 C   0  0  0  0  0  0  0  0  0 12  0  0
    4.7716    2.5449    0.2332 F   0  0  0  0  0  0  0  0  0 13  0  0
  2 13  1  0
 10 12  1  0
 10 11  1  0
  8 10  1  0
  8  9  2  0
  7  8  1  0
  4  7  1  0
  6  1  4  0
  5  6  4  0
  4  5  4  0
  3  4  4  0
  2  3  4  0
  1  2  4  0
M  END
> <Name>
3-(3-Fluorophenyl)-1,1-dimethylurea

> <CAS RN>
000330-39-2

> <Log Koc>
1.73

> <VP-0>
7.54283

> <nAromBond>
6

> <MAXDP>
4.65378

> <nHBAcc>
3

> <Splitting>
2

$$$$
Diuron
  SciTegic01221512053D

 14 14  0  0  0  0            999 V2000
    2.6603    1.2076    0.2104 C   0  0  0  0  0  0  0  0  0  1  0  0
    1.2781    1.1182    0.0856 C   0  0  0  0  0  0  0  0  0  2  0  0
    0.5360    2.2761   -0.1284 C   0  0  0  0  0  0  0  0  0  3  0  0
    1.1682    3.5110   -0.2167 C   0  0  0  0  0  0  0  0  0  4  0  0
    2.5497    3.5936   -0.0913 C   0  0  0  0  0  0  0  0  0  5  0  0
    3.2958    2.4410    0.1223 C   0  0  0  0  0  0  0  0  0  6  0  0
    5.0134    2.5414    0.2783 Cl  0  0  0  0  0  0  0  0  0  7  0  0
    3.3390    5.1265   -0.2008 Cl  0  0  0  0  0  0  0  0  0  8  0  0
    0.6677   -0.1613    0.1817 N   0  0  0  0  0  0  0  0  0  9  0  0
   -0.7263   -0.4036    0.0629 C   0  0  0  0  0  0  0  0  0 10  0  0
   -1.5353    0.5086   -0.1411 O   0  0  0  0  0  0  0  0  0 11  0  0
   -1.1966   -1.7115    0.1795 N   0  0  0  0  0  0  0  0  0 12  0  0
   -2.6005   -1.9818    0.0623 C   0  0  0  0  0  0  0  0  0 13  0  0
   -0.2760   -2.7858    0.4170 C   0  0  0  0  0  0  0  0  0 14  0  0
 12 14  1  0
 12 13  1  0
 10 12  1  0
 10 11  2  0
  9 10  1  0
  2  9  1  0
  5  8  1  0
  6  7  1  0
  6  1  4  0
  5  6  4  0
  4  5  4  0
  3  4  4  0
  2  3  4  0
  1  2  4  0
M  END
> <Name>
Diuron

> <CAS RN>
000330-54-1

> <Log Koc>
2.5

> <VP-0>
9.3553

> <nAromBond>
6

> <MAXDP>
4.34685

> <nHBAcc>
3

> <Splitting>
1

$$$$
Linuron
  SciTegic01221512053D

 15 15  0  0  0  0            999 V2000
    1.3192    3.6041   -0.1376 C   0  0  0  0  0  0  0  0  0  1  0  0
    2.7075    3.6322   -0.0832 C   0  0  0  0  0  0  0  0  0  2  0  0
    3.4185    2.4478    0.0657 C   0  0  0  0  0  0  0  0  0  3  0  0
    2.7411    1.2373    0.1602 C   0  0  0  0  0  0  0  0  0  4  0  0
    1.3520    1.2017    0.1060 C   0  0  0  0  0  0  0  0  0  5  0  0
    0.6455    2.3919   -0.0433 C   0  0  0  0  0  0  0  0  0  6  0  0
    0.7006   -0.0602    0.2064 N   0  0  0  0  0  0  0  0  0  7  0  0
   -0.7057   -0.2640    0.1420 C   0  0  0  0  0  0  0  0  0  8  0  0
   -1.4656    0.6989   -0.0164 O   0  0  0  0  0  0  0  0  0  9  0  0
   -1.1751   -1.6302    0.2667 N   0  0  0  0  0  0  0  0  0 10  0  0
   -2.4891   -2.0608    0.2288 O   0  0  0  0  0  0  0  0  0 11  0  0
   -3.5201   -1.0775    0.0467 C   0  0  0  0  0  0  0  0  0 12  0  0
   -0.1729   -2.6404    0.4480 C   0  0  0  0  0  0  0  0  0 13  0  0
    5.1444    2.4799    0.1331 Cl  0  0  0  0  0  0  0  0  0 14  0  0
    3.5486    5.1367   -0.2005 Cl  0  0  0  0  0  0  0  0  0 15  0  0
  2 15  1  0
  3 14  1  0
 10 13  1  0
 11 12  1  0
 10 11  1  0
  8 10  1  0
  8  9  2  0
  7  8  1  0
  5  7  1  0
  6  1  4  0
  5  6  4  0
  4  5  4  0
  3  4  4  0
  2  3  4  0
  1  2  4  0
M  END
> <Name>
Linuron

> <CAS RN>
000330-55-2

> <Log Koc>
2.81

> <VP-0>
9.76355

> <nAromBond>
6

> <MAXDP>
4.4531

> <nHBAcc>
2

> <Splitting>
2

$$$$
3-(4-Fluorophenyl)-1,1-dimethylurea
  SciTegic01221512053D

 13 13  0  0  0  0            999 V2000
    2.2472    3.4471    1.0338 C   0  0  0  0  0  0  0  0  0  1  0  0
    0.9664    4.0427    1.2997 N   0  0  0  0  0  0  0  0  0  2  0  0
    0.9673    5.3603    1.8666 C   0  0  0  0  0  0  0  0  0  3  0  0
   -0.3322    3.4073    1.1014 C   0  0  0  0  0  0  0  0  0  4  0  0
   -1.3037    4.0696    1.4828 O   0  0  0  0  0  0  0  0  0  5  0  0
   -0.6337    2.0410    0.6665 N   0  0  0  0  0  0  0  0  0  6  0  0
    0.1665    1.0553    0.0097 C   0  0  0  0  0  0  0  0  0  7  0  0
    1.0279    1.3795   -1.0350 C   0  0  0  0  0  0  0  0  0  8  0  0
    1.7628    0.3884   -1.6753 C   0  0  0  0  0  0  0  0  0  9  0  0
    1.6300   -0.9377   -1.2814 C   0  0  0  0  0  0  0  0  0 10  0  0
    0.7575   -1.2701   -0.2522 C   0  0  0  0  0  0  0  0  0 11  0  0
    0.0241   -0.2760    0.3856 C   0  0  0  0  0  0  0  0  0 12  0  0
    2.3384   -1.8950   -1.8969 F   0  0  0  0  0  0  0  0  0 13  0  0
 10 13  1  0
 12  7  4  0
 11 12  4  0
 10 11  4  0
  9 10  4  0
  8  9  4  0
  7  8  4  0
  6  7  1  0
  4  6  1  0
  4  5  2  0
  2  4  1  0
  2  3  1  0
  1  2  1  0
M  END
> <Name>
3-(4-Fluorophenyl)-1,1-dimethylurea

> <CAS RN>
000332-33-2

> <Log Koc>
1.43

> <VP-0>
7.54283

> <nAromBond>
6

> <MAXDP>
4.45955

> <nHBAcc>
3

> <Splitting>
1

$$$$
Diazinon
  SciTegic01221512053D

 19 19  0  0  0  0            999 V2000
    4.6861    2.6907   -2.0000 C   0  0  0  0  0  0  0  0  0  1  0  0
    3.3302    2.4674   -1.3992 C   0  0  0  0  0  0  0  0  0  2  0  0
    2.9216    1.1873   -1.0536 C   0  0  0  0  0  0  0  0  0  3  0  0
    1.6588    1.0301   -0.5017 C   0  0  0  0  0  0  0  0  0  4  0  0
    0.8911    2.0969   -0.3205 N   0  0  0  0  0  0  0  0  0  5  0  0
    1.3105    3.3101   -0.6612 C   0  0  0  0  0  0  0  0  0  6  0  0
    2.5143    3.4936   -1.1937 N   0  0  0  0  0  0  0  0  0  7  0  0
    0.4110    4.4868   -0.4383 C   0  0  0  0  0  0  0  0  0  8  0  0
    1.1987    5.7992   -0.2759 C   0  0  0  0  0  0  0  0  0  9  0  0
   -0.6121    4.2294    0.6833 C   0  0  0  0  0  0  0  0  0 10  0  0
    1.2079   -0.2480   -0.1298 O   0  0  0  0  0  0  0  0  0 11  0  0
   -0.2438   -0.1923    0.4508 P   0  0  0  0  0  0  0  0  0 12  0  0
   -1.2597    0.4748   -0.7534 S   0  0  0  0  0  0  0  0  0 13  0  0
   -0.3098    0.7036    1.7605 O   0  0  0  0  0  0  0  0  0 14  0  0
    0.3862    0.1361    2.9242 C   0  0  0  0  0  0  0  0  0 15  0  0
    1.9218    0.1311    2.7921 C   0  0  0  0  0  0  0  0  0 16  0  0
   -0.7287   -1.6614    0.7301 O   0  0  0  0  0  0  0  0  0 17  0  0
   -2.1820   -1.7896    0.7769 C   0  0  0  0  0  0  0  0  0 18  0  0
   -2.8273   -1.0801    1.9866 C   0  0  0  0  0  0  0  0  0 19  0  0
 18 19  1  0
 17 18  1  0
 12 17  1  0
 15 16  1  0
 14 15  1  0
 12 14  1  0
 12 13  2  0
 11 12  1  0
  4 11  1  0
  8 10  1  0
  8  9  1  0
  6  8  1  0
  7  2  4  0
  6  7  4  0
  5  6  4  0
  4  5  4  0
  3  4  4  0
  2  3  4  0
  1  2  1  0
M  END
> <Name>
Diazinon

> <CAS RN>
000333-41-5

> <Log Koc>
2.75

> <VP-0>
13.7545

> <nAromBond>
6

> <MAXDP>
2.57165

> <nHBAcc>
4

> <Splitting>
2

$$$$
Mevinphos(trans)
  SciTegic01221512053D

 14 13  0  0  0  0            999 V2000
    2.4140    1.0765    0.7433 O   0  0  0  0  0  0  0  0  0  1  0  0
    3.1796    2.4091    0.4034 P   0  0  0  0  0  0  0  0  0  2  0  0
    3.4994    2.4639   -0.9399 O   0  0  0  0  0  0  0  0  0  3  0  0
    4.4980    2.4254    1.2157 O   0  0  0  0  0  0  0  0  0  4  0  0
    5.2900    1.2894    0.8586 C   0  0  0  0  0  0  0  0  0  5  0  0
    2.3404    3.6532    0.8134 O   0  0  0  0  0  0  0  0  0  6  0  0
    3.0822    4.8439    0.5324 C   0  0  0  0  0  0  0  0  0  7  0  0
    1.1721    0.8725    0.0750 C   0  0  0  0  0  0  0  0  0  8  0  0
    0.5107   -0.2611    0.3598 C   0  0  0  0  0  0  0  0  0  9  0  0
   -0.8018   -0.6932   -0.2120 C   0  0  0  0  0  0  0  0  0 10  0  0
   -1.4248   -0.0137   -1.0367 O   0  0  0  0  0  0  0  0  0 11  0  0
   -1.3411   -1.9092    0.2025 O   0  0  0  0  0  0  0  0  0 12  0  0
   -2.5902   -2.1358   -0.4571 C   0  0  0  0  0  0  0  0  0 13  0  0
    0.6280    1.8883   -0.9108 C   0  0  0  0  0  0  0  0  0 14  0  0
  8 14  1  0
 12 13  1  0
 10 12  1  0
 10 11  2  0
  9 10  1  0
  8  9  2  0
  1  8  1  0
  6  7  1  0
  2  6  1  0
  4  5  1  0
  2  4  1  0
  2  3  2  0
  1  2  1  0
M  END
> <Name>
Mevinphos(trans)

> <CAS RN>
000338-45-4

> <Log Koc>
1.97

> <VP-0>
8.698

> <nAromBond>
0

> <MAXDP>
4.49477

> <nHBAcc>
6

> <Splitting>
2

$$$$
3-Fluoroacetanilide
  SciTegic01221512053D

 11 11  0  0  0  0            999 V2000
   -0.5173    4.1040    2.6229 C   0  0  0  0  0  0  0  0  0  1  0  0
   -0.2476    3.3600    1.3481 C   0  0  0  0  0  0  0  0  0  2  0  0
   -0.3792    3.9534    0.2715 O   0  0  0  0  0  0  0  0  0  3  0  0
    0.1287    2.0718    1.4169 N   0  0  0  0  0  0  0  0  0  4  0  0
    0.4193    1.2354    0.2992 C   0  0  0  0  0  0  0  0  0  5  0  0
    0.3372    1.6909   -1.0138 C   0  0  0  0  0  0  0  0  0  6  0  0
    0.6295    0.8413   -2.0745 C   0  0  0  0  0  0  0  0  0  7  0  0
    1.0068   -0.4732   -1.8279 C   0  0  0  0  0  0  0  0  0  8  0  0
    1.0907   -0.9340   -0.5195 C   0  0  0  0  0  0  0  0  0  9  0  0
    0.7976   -0.0813    0.5388 C   0  0  0  0  0  0  0  0  0 10  0  0
    1.4543   -2.2015   -0.2776 F   0  0  0  0  0  0  0  0  0 11  0  0
  9 11  1  0
 10  5  4  0
  9 10  4  0
  8  9  4  0
  7  8  4  0
  6  7  4  0
  5  6  4  0
  4  5  1  0
  2  4  1  0
  2  3  2  0
  1  2  1  0
M  END
> <Name>
3-Fluoroacetanilide

> <CAS RN>
000351-28-0

> <Log Koc>
1.57

> <VP-0>
6.09561

> <nAromBond>
6

> <MAXDP>
4.46628

> <nHBAcc>
2

> <Splitting>
1

$$$$
3-Trifluoromethylacetanilide
  SciTegic01221512053D

 14 14  0  0  0  0            999 V2000
   -0.6548    4.3470    2.8506 C   0  0  0  0  0  0  0  0  0  1  0  0
   -0.4262    3.6546    1.5391 C   0  0  0  0  0  0  0  0  0  2  0  0
   -0.7237    4.2434    0.4936 O   0  0  0  0  0  0  0  0  0  3  0  0
    0.0952    2.4161    1.5426 N   0  0  0  0  0  0  0  0  0  4  0  0
    0.3694    1.6323    0.3837 C   0  0  0  0  0  0  0  0  0  5  0  0
    0.1109    2.0913   -0.9050 C   0  0  0  0  0  0  0  0  0  6  0  0
    0.3937    1.2936   -2.0078 C   0  0  0  0  0  0  0  0  0  7  0  0
    0.9384    0.0281   -1.8282 C   0  0  0  0  0  0  0  0  0  8  0  0
    1.1987   -0.4352   -0.5443 C   0  0  0  0  0  0  0  0  0  9  0  0
    0.9146    0.3647    0.5563 C   0  0  0  0  0  0  0  0  0 10  0  0
    1.7855   -1.7983   -0.3461 C   0  0  0  0  0  0  0  0  0 11  0  0
    0.7468   -2.7040   -0.2987 F   0  0  0  0  0  0  0  0  0 12  0  0
    2.4663   -1.8578    0.8521 F   0  0  0  0  0  0  0  0  0 13  0  0
    2.5855   -2.1312   -1.4192 F   0  0  0  0  0  0  0  0  0 14  0  0
 11 14  1  0
 11 13  1  0
 11 12  1  0
  9 11  1  0
 10  5  4  0
  9 10  4  0
  8  9  4  0
  7  8  4  0
  6  7  4  0
  5  6  4  0
  4  5  1  0
  2  4  1  0
  2  3  2  0
  1  2  1  0
M  END
> <Name>
3-Trifluoromethylacetanilide

> <CAS RN>
000351-36-0

> <Log Koc>
1.75

> <VP-0>
7.35154

> <nAromBond>
6

> <MAXDP>
4.19261

> <nHBAcc>
2

> <Splitting>
2

$$$$
4-Fluoroacetanilide
  SciTegic01221512053D

 11 11  0  0  0  0            999 V2000
   -1.4036    4.0414    2.4489 C   0  0  0  0  0  0  0  0  0  1  0  0
   -0.6482    3.3663    1.3419 C   0  0  0  0  0  0  0  0  0  2  0  0
   -0.3082    4.0334    0.3582 O   0  0  0  0  0  0  0  0  0  3  0  0
   -0.3651    2.0576    1.4550 N   0  0  0  0  0  0  0  0  0  4  0  0
    0.3421    1.2793    0.4920 C   0  0  0  0  0  0  0  0  0  5  0  0
    0.8220    1.8215   -0.6971 C   0  0  0  0  0  0  0  0  0  6  0  0
    1.5067    1.0263   -1.6088 C   0  0  0  0  0  0  0  0  0  7  0  0
    1.7160   -0.3200   -1.3354 C   0  0  0  0  0  0  0  0  0  8  0  0
    1.2397   -0.8678   -0.1504 C   0  0  0  0  0  0  0  0  0  9  0  0
    0.5554   -0.0691    0.7587 C   0  0  0  0  0  0  0  0  0 10  0  0
    2.3761   -1.0888   -2.2132 F   0  0  0  0  0  0  0  0  0 11  0  0
  8 11  1  0
 10  5  4  0
  9 10  4  0
  8  9  4  0
  7  8  4  0
  6  7  4  0
  5  6  4  0
  4  5  1  0
  2  4  1  0
  2  3  2  0
  1  2  1  0
M  END
> <Name>
4-Fluoroacetanilide

> <CAS RN>
000351-83-7

> <Log Koc>
1.48

> <VP-0>
6.09561

> <nAromBond>
6

> <MAXDP>
4.3114

> <nHBAcc>
2

> <Splitting>
2

$$$$
2,2'-Bipyridine
  SciTegic01221512053D

 12 13  0  0  0  0            999 V2000
   -1.1792    4.1030    2.4751 C   0  0  0  0  0  0  0  0  0  1  0  0
   -0.4511    3.0792    3.0655 C   0  0  0  0  0  0  0  0  0  2  0  0
    0.0973    2.0963    2.2531 C   0  0  0  0  0  0  0  0  0  3  0  0
   -0.0973    2.1647    0.8784 C   0  0  0  0  0  0  0  0  0  4  0  0
   -0.7997    3.1581    0.3428 N   0  0  0  0  0  0  0  0  0  5  0  0
   -1.3373    4.1140    1.0940 C   0  0  0  0  0  0  0  0  0  6  0  0
    0.4741    1.1378    0.0166 C   0  0  0  0  0  0  0  0  0  7  0  0
    0.2796    1.2062   -1.3581 C   0  0  0  0  0  0  0  0  0  8  0  0
    0.8279    0.2233   -2.1705 C   0  0  0  0  0  0  0  0  0  9  0  0
    1.5561   -0.8005   -1.5801 C   0  0  0  0  0  0  0  0  0 10  0  0
    1.7141   -0.8116   -0.1990 C   0  0  0  0  0  0  0  0  0 11  0  0
    1.1766    0.1444    0.5521 N   0  0  0  0  0  0  0  0  0 12  0  0
 12  7  4  0
 11 12  4  0
 10 11  4  0
  9 10  4  0
  8  9  4  0
  7  8  4  0
  4  7  1  0
  6  1  4  0
  5  6  4  0
  4  5  4  0
  3  4  4  0
  2  3  4  0
  1  2  4  0
M  END
> <Name>
2,2'-Bipyridine

> <CAS RN>
000366-18-7

> <Log Koc>
1.6

> <VP-0>
6.51323

> <nAromBond>
13

> <MAXDP>
1.18648

> <nHBAcc>
2

> <Splitting>
2

$$$$
Auramine
  SciTegic01221512053D

 20 21  0  0  0  0            999 V2000
    2.5033    1.8630    3.7347 C   0  0  0  0  0  0  0  0  0  1  0  0
    1.9167    1.5865    2.5066 C   0  0  0  0  0  0  0  0  0  2  0  0
    0.8701    2.3641    2.0204 C   0  0  0  0  0  0  0  0  0  3  0  0
    0.4142    3.4281    2.7935 C   0  0  0  0  0  0  0  0  0  4  0  0
    1.0004    3.7144    4.0215 C   0  0  0  0  0  0  0  0  0  5  0  0
    2.0505    2.9337    4.4930 C   0  0  0  0  0  0  0  0  0  6  0  0
    2.6615    3.2284    5.7205 N   0  0  0  0  0  0  0  0  0  7  0  0
    3.7393    2.4081    6.2025 C   0  0  0  0  0  0  0  0  0  8  0  0
    2.2430    4.3722    6.4802 C   0  0  0  0  0  0  0  0  0  9  0  0
    0.2216    2.1446    0.6720 C   0  0  0  0  0  0  0  0  0 10  0  0
   -0.7359    2.9179    0.3568 N   0  0  0  0  0  0  0  0  0 11  0  0
    0.6901    1.1641   -0.3796 C   0  0  0  0  0  0  0  0  0 12  0  0
    0.0898    1.2231   -1.6342 C   0  0  0  0  0  0  0  0  0 13  0  0
    0.5069    0.3820   -2.6599 C   0  0  0  0  0  0  0  0  0 14  0  0
    1.5298   -0.5341   -2.4394 C   0  0  0  0  0  0  0  0  0 15  0  0
    2.1252   -0.6093   -1.1879 C   0  0  0  0  0  0  0  0  0 16  0  0
    1.7076    0.2382   -0.1699 C   0  0  0  0  0  0  0  0  0 17  0  0
    1.9708   -1.3716   -3.4744 N   0  0  0  0  0  0  0  0  0 18  0  0
    3.0189   -2.3250   -3.2308 C   0  0  0  0  0  0  0  0  0 19  0  0
    1.4082   -1.2529   -4.7897 C   0  0  0  0  0  0  0  0  0 20  0  0
 18 20  1  0
 18 19  1  0
 15 18  1  0
 17 12  4  0
 16 17  4  0
 15 16  4  0
 14 15  4  0
 13 14  4  0
 12 13  4  0
 10 12  1  0
 10 11  2  0
  3 10  1  0
  7  9  1  0
  7  8  1  0
  6  7  1  0
  6  1  4  0
  5  6  4  0
  4  5  4  0
  3  4  4  0
  2  3  4  0
  1  2  4  0
M  END
> <Name>
Auramine

> <CAS RN>
000492-80-8

> <Log Koc>
3.31

> <VP-0>
12.5132

> <nAromBond>
12

> <MAXDP>
3.29921

> <nHBAcc>
3

> <Splitting>
1

$$$$
Indane
  SciTegic01221512053D

  9 10  0  0  0  0            999 V2000
    1.3996    0.0256    2.0386 C   0  0  0  0  0  0  0  0  0  1  0  0
    2.5492    0.7209    1.6590 C   0  0  0  0  0  0  0  0  0  2  0  0
    2.6239    1.3479    0.4169 C   0  0  0  0  0  0  0  0  0  3  0  0
    1.5207    1.2662   -0.4204 C   0  0  0  0  0  0  0  0  0  4  0  0
    0.3877    0.5806   -0.0463 C   0  0  0  0  0  0  0  0  0  5  0  0
    0.3027   -0.0561    1.1834 C   0  0  0  0  0  0  0  0  0  6  0  0
   -0.6581    0.5957   -1.0991 C   0  0  0  0  0  0  0  0  0  7  0  0
   -0.1531    1.8086   -1.9650 C   0  0  0  0  0  0  0  0  0  8  0  0
    1.4094    1.8461   -1.7818 C   0  0  0  0  0  0  0  0  0  9  0  0
  9  4  1  0
  8  9  1  0
  7  8  1  0
  5  7  1  0
  6  1  4  0
  5  6  4  0
  4  5  4  0
  3  4  4  0
  2  3  4  0
  1  2  4  0
M  END
> <Name>
Indane

> <CAS RN>
000496-11-7

> <Log Koc>
3.63

> <VP-0>
5.43072

> <nAromBond>
6

> <MAXDP>
0.238426

> <nHBAcc>
0

> <Splitting>
2

$$$$
Chlorobenzilate
  SciTegic01221512053D

 21 22  0  0  0  0            999 V2000
    1.6733   -1.9352   -4.1426 C   0  0  0  0  0  0  0  0  0  1  0  0
    2.2273   -0.6653   -4.0388 C   0  0  0  0  0  0  0  0  0  2  0  0
    1.9106    0.1454   -2.9542 C   0  0  0  0  0  0  0  0  0  3  0  0
    1.0430   -0.3091   -1.9670 C   0  0  0  0  0  0  0  0  0  4  0  0
    0.4845   -1.5806   -2.0803 C   0  0  0  0  0  0  0  0  0  5  0  0
    0.7998   -2.3926   -3.1626 C   0  0  0  0  0  0  0  0  0  6  0  0
    0.7107    0.6114   -0.7928 C   0  0  0  0  0  0  0  0  0  7  0  0
    0.5801    1.9745   -1.1981 O   0  0  0  0  0  0  0  0  0  8  0  0
    1.8509    0.5389    0.1994 C   0  0  0  0  0  0  0  0  0  9  0  0
    2.6290   -0.6084    0.3286 C   0  0  0  0  0  0  0  0  0 10  0  0
    3.6683   -0.6474    1.2502 C   0  0  0  0  0  0  0  0  0 11  0  0
    3.9317    0.4606    2.0476 C   0  0  0  0  0  0  0  0  0 12  0  0
    3.1546    1.6059    1.9229 C   0  0  0  0  0  0  0  0  0 13  0  0
    2.1158    1.6435    1.0000 C   0  0  0  0  0  0  0  0  0 14  0  0
    5.2241    0.4140    3.1934 Cl  0  0  0  0  0  0  0  0  0 15  0  0
   -0.5243    0.1627   -0.0435 C   0  0  0  0  0  0  0  0  0 16  0  0
   -1.4553    0.9636    0.1034 O   0  0  0  0  0  0  0  0  0 17  0  0
   -0.6037   -1.1370    0.4992 O   0  0  0  0  0  0  0  0  0 18  0  0
   -1.8353   -1.3560    1.2118 C   0  0  0  0  0  0  0  0  0 19  0  0
   -1.8098   -0.6275    2.5772 C   0  0  0  0  0  0  0  0  0 20  0  0
    2.0674   -2.9443   -5.4888 Cl  0  0  0  0  0  0  0  0  0 21  0  0
  1 21  1  0
 19 20  1  0
 18 19  1  0
 16 18  1  0
 16 17  2  0
  7 16  1  0
 12 15  1  0
 14  9  4  0
 13 14  4  0
 12 13  4  0
 11 12  4  0
 10 11  4  0
  9 10  4  0
  7  9  1  0
  7  8  1  0
  4  7  1  0
  6  1  4  0
  5  6  4  0
  4  5  4  0
  3  4  4  0
  2  3  4  0
  1  2  4  0
M  END
> <Name>
Chlorobenzilate

> <CAS RN>
000510-15-6

> <Log Koc>
3.38

> <VP-0>
12.8574

> <nAromBond>
12

> <MAXDP>
5.38397

> <nHBAcc>
3

> <Splitting>
2

$$$$
1,2,3-Trimethylbenzene
  SciTegic01221512053D

  9  9  0  0  0  0            999 V2000
   -0.7912    1.0372    0.0002 C   0  0  0  0  0  0  0  0  0  1  0  0
   -0.0949    2.2406   -0.0006 C   0  0  0  0  0  0  0  0  0  2  0  0
    1.2951    2.2409   -0.0011 C   0  0  0  0  0  0  0  0  0  3  0  0
    1.9895    1.0368   -0.0009 C   0  0  0  0  0  0  0  0  0  4  0  0
    1.2951   -0.1677   -0.0001 C   0  0  0  0  0  0  0  0  0  5  0  0
   -0.0967   -0.1690    0.0005 C   0  0  0  0  0  0  0  0  0  6  0  0
   -0.8503   -1.4738    0.0013 C   0  0  0  0  0  0  0  0  0  7  0  0
    2.0548   -1.4651    0.0002 C   0  0  0  0  0  0  0  0  0  8  0  0
   -2.2946    1.0468    0.0008 C   0  0  0  0  0  0  0  0  0  9  0  0
  1  9  1  0
  5  8  1  0
  6  7  1  0
  6  1  4  0
  5  6  4  0
  4  5  4  0
  3  4  4  0
  2  3  4  0
  1  2  4  0
M  END
> <Name>
1,2,3-Trimethylbenzene

> <CAS RN>
000526-73-8

> <Log Koc>
2.8

> <VP-0>
6.23205

> <nAromBond>
6

> <MAXDP>
0.157407

> <nHBAcc>
0

> <Splitting>
1

$$$$
Pentachloroaniline
  SciTegic01221512053D

 12 12  0  0  0  0            999 V2000
   -2.1037    2.0376   -0.7919 Cl  0  0  0  0  0  0  0  0  0  1  0  0
   -0.5451    1.4480   -0.3374 C   0  0  0  0  0  0  0  0  0  2  0  0
    0.3558    2.2892    0.3054 C   0  0  0  0  0  0  0  0  0  3  0  0
   -0.0833    3.9238    0.6495 Cl  0  0  0  0  0  0  0  0  0  4  0  0
    1.6102    1.8147    0.6712 C   0  0  0  0  0  0  0  0  0  5  0  0
    2.7296    2.8598    1.4698 Cl  0  0  0  0  0  0  0  0  0  6  0  0
    1.9636    0.4991    0.3942 C   0  0  0  0  0  0  0  0  0  7  0  0
    1.0627   -0.3420   -0.2486 C   0  0  0  0  0  0  0  0  0  8  0  0
   -0.1917    0.1324   -0.6144 C   0  0  0  0  0  0  0  0  0  9  0  0
   -1.0960   -0.7118   -1.2595 N   0  0  0  0  0  0  0  0  0 10  0  0
    1.5019   -1.9766   -0.5926 Cl  0  0  0  0  0  0  0  0  0 11  0  0
    3.5222   -0.0904    0.8488 Cl  0  0  0  0  0  0  0  0  0 12  0  0
  7 12  1  0
  8 11  1  0
  9 10  1  0
  9  2  4  0
  8  9  4  0
  7  8  4  0
  5  7  4  0
  5  6  1  0
  3  5  4  0
  3  4  1  0
  2  3  4  0
  1  2  1  0
M  END
> <Name>
Pentachloroaniline

> <CAS RN>
000527-20-8

> <Log Koc>
4.62

> <VP-0>
9.24682

> <nAromBond>
6

> <MAXDP>
2.10472

> <nHBAcc>
1

> <Splitting>
2

$$$$
3,4-Dinitrobenzoic Acid
  SciTegic01221512053D

 15 15  0  0  0  0            999 V2000
   -2.7371    0.1225    1.6287 O   0  0  0  0  0  0  0  0  0  1  0  0
   -1.9663    1.2295    1.2906 C   0  0  0  0  0  0  0  0  0  2  0  0
   -2.4493    2.3651    1.3599 O   0  0  0  0  0  0  0  0  0  3  0  0
   -0.5856    1.0503    0.8534 C   0  0  0  0  0  0  0  0  0  4  0  0
    0.1872    2.1517    0.5150 C   0  0  0  0  0  0  0  0  0  5  0  0
    1.5073    2.0162    0.0942 C   0  0  0  0  0  0  0  0  0  6  0  0
    2.0644    0.7261    0.0130 C   0  0  0  0  0  0  0  0  0  7  0  0
    1.2758   -0.3692    0.3559 C   0  0  0  0  0  0  0  0  0  8  0  0
   -0.0390   -0.2201    0.7738 C   0  0  0  0  0  0  0  0  0  9  0  0
    3.3953    0.3938   -0.3954 N   0  0  0  0  0  0  0  0  0 10  0  0
    3.7374   -0.8854   -0.4096 O   0  0  0  0  0  0  0  0  0 11  0  0
    4.2925    1.2697   -0.7520 O   0  0  0  0  0  0  0  0  0 12  0  0
    2.1601    3.2513   -0.2159 N   0  0  0  0  0  0  0  0  0 13  0  0
    3.3924    3.3448   -0.6306 O   0  0  0  0  0  0  0  0  0 14  0  0
    1.4665    4.3704   -0.0745 O   0  0  0  0  0  0  0  0  0 15  0  0
 13 15  1  0
 13 14  1  0
  6 13  1  0
 10 12  1  0
 10 11  1  0
  7 10  1  0
  9  4  4  0
  8  9  4  0
  7  8  4  0
  6  7  4  0
  5  6  4  0
  4  5  4  0
  2  4  1  0
  2  3  2  0
  1  2  1  0
M  END
> <Name>
3,4-Dinitrobenzoic Acid

> <CAS RN>
000528-45-0

> <Log Koc>
1.53

> <VP-0>
6.81822

> <nAromBond>
6

> <MAXDP>
3.46445

> <nHBAcc>
2

> <Splitting>
2

$$$$
2-Chloroacetanilide
  SciTegic01221512053D

 11 11  0  0  0  0            999 V2000
   -0.8124    3.6466    2.6450 C   0  0  0  0  0  0  0  0  0  1  0  0
   -0.2631    3.0911    1.3641 C   0  0  0  0  0  0  0  0  0  2  0  0
    0.1618    3.8745    0.5073 O   0  0  0  0  0  0  0  0  0  3  0  0
   -0.2505    1.7592    1.1887 N   0  0  0  0  0  0  0  0  0  4  0  0
    0.2367    1.0831    0.0323 C   0  0  0  0  0  0  0  0  0  5  0  0
    0.7637    1.7628   -1.0624 C   0  0  0  0  0  0  0  0  0  6  0  0
    1.2277    1.0624   -2.1699 C   0  0  0  0  0  0  0  0  0  7  0  0
    1.1670   -0.3258   -2.1891 C   0  0  0  0  0  0  0  0  0  8  0  0
    0.6419   -1.0096   -1.0992 C   0  0  0  0  0  0  0  0  0  9  0  0
    0.1787   -0.3061    0.0070 C   0  0  0  0  0  0  0  0  0 10  0  0
   -0.4730   -1.1610    1.3590 Cl  0  0  0  0  0  0  0  0  0 11  0  0
 10 11  1  0
 10  5  4  0
  9 10  4  0
  8  9  4  0
  7  8  4  0
  6  7  4  0
  5  6  4  0
  4  5  1  0
  2  4  1  0
  2  3  2  0
  1  2  1  0
M  END
> <Name>
2-Chloroacetanilide

> <CAS RN>
000533-17-5

> <Log Koc>
1.58

> <VP-0>
6.85154

> <nAromBond>
6

> <MAXDP>
3.67244

> <nHBAcc>
2

> <Splitting>
2

$$$$
3-Methylacetanilide
  SciTegic01221512053D

 11 11  0  0  0  0            999 V2000
    4.6132    2.3453    0.7806 C   0  0  0  0  0  0  0  0  0  1  0  0
    3.1534    2.2594    0.4437 C   0  0  0  0  0  0  0  0  0  2  0  0
    2.5224    1.0214    0.3996 C   0  0  0  0  0  0  0  0  0  3  0  0
    1.1699    0.9301    0.0885 C   0  0  0  0  0  0  0  0  0  4  0  0
    0.4537    2.0937   -0.1787 C   0  0  0  0  0  0  0  0  0  5  0  0
    1.0813    3.3334   -0.1355 C   0  0  0  0  0  0  0  0  0  6  0  0
    2.4330    3.4172    0.1760 C   0  0  0  0  0  0  0  0  0  7  0  0
    0.5672   -0.3616    0.0556 N   0  0  0  0  0  0  0  0  0  8  0  0
   -0.7226   -0.6118   -0.2268 C   0  0  0  0  0  0  0  0  0  9  0  0
   -1.5276    0.2882   -0.4920 O   0  0  0  0  0  0  0  0  0 10  0  0
   -1.2020   -2.0337   -0.2197 C   0  0  0  0  0  0  0  0  0 11  0  0
  9 11  1  0
  9 10  2  0
  8  9  1  0
  4  8  1  0
  7  2  4  0
  6  7  4  0
  5  6  4  0
  4  5  4  0
  3  4  4  0
  2  3  4  0
  1  2  1  0
M  END
> <Name>
3-Methylacetanilide

> <CAS RN>
000537-92-8

> <Log Koc>
1.45

> <VP-0>
6.71765

> <nAromBond>
6

> <MAXDP>
3.61334

> <nHBAcc>
2

> <Splitting>
2

$$$$
Ethyl pentanoate
  SciTegic01221512053D

  9  8  0  0  0  0            999 V2000
    0.6835    2.9223   -1.4525 C   0  0  0  0  0  0  0  0  0  1  0  0
    0.9380    2.5485    0.0229 C   0  0  0  0  0  0  0  0  0  2  0  0
    1.8792    1.3193    0.1037 C   0  0  0  0  0  0  0  0  0  3  0  0
    1.2396    0.0799   -0.5749 C   0  0  0  0  0  0  0  0  0  4  0  0
    0.0227   -0.4051    0.1819 C   0  0  0  0  0  0  0  0  0  5  0  0
   -0.2742    0.0995    1.2727 O   0  0  0  0  0  0  0  0  0  6  0  0
   -0.7359   -1.4628   -0.3504 O   0  0  0  0  0  0  0  0  0  7  0  0
   -1.8624   -1.7991    0.4832 C   0  0  0  0  0  0  0  0  0  8  0  0
   -2.9663   -0.7168    0.3791 C   0  0  0  0  0  0  0  0  0  9  0  0
  8  9  1  0
  7  8  1  0
  5  7  1  0
  5  6  2  0
  4  5  1  0
  3  4  1  0
  2  3  1  0
  1  2  1  0
M  END
> <Name>
Ethyl pentanoate

> <CAS RN>
000539-82-2

> <Log Koc>
1.97

> <VP-0>
6.14492

> <nAromBond>
0

> <MAXDP>
3.57972

> <nHBAcc>
2

> <Splitting>
1

$$$$
1,3-Dichlorobenzene
  SciTegic01221512053D

  8  8  0  0  0  0            999 V2000
   -1.0305    0.8660   -0.0001 C   0  0  0  0  0  0  0  0  0  1  0  0
   -0.3353    2.0701    0.0002 C   0  0  0  0  0  0  0  0  0  2  0  0
    1.0552    2.0700    0.0010 C   0  0  0  0  0  0  0  0  0  3  0  0
    1.7505    0.8660    0.0013 C   0  0  0  0  0  0  0  0  0  4  0  0
    1.0552   -0.3379    0.0010 C   0  0  0  0  0  0  0  0  0  5  0  0
   -0.3353   -0.3380    0.0003 C   0  0  0  0  0  0  0  0  0  6  0  0
    1.9190   -1.8342    0.0015 Cl  0  0  0  0  0  0  0  0  0  7  0  0
    1.9191    3.5663    0.0014 Cl  0  0  0  0  0  0  0  0  0  8  0  0
  3  8  1  0
  5  7  1  0
  6  1  4  0
  5  6  4  0
  4  5  4  0
  3  4  4  0
  2  3  4  0
  1  2  4  0
M  END
> <Name>
1,3-Dichlorobenzene

> <CAS RN>
000541-73-1

> <Log Koc>
2.48

> <VP-0>
5.57719

> <nAromBond>
6

> <MAXDP>
0.312071

> <nHBAcc>
0

> <Splitting>
1

$$$$
1,3-Dichloropropene
  SciTegic01221512053D

  5  4  0  0  0  0            999 V2000
    0.4245   -2.5875   -0.0023 Cl  0  0  0  0  0  0  0  0  0  1  0  0
   -0.7398   -1.2587    0.0007 C   0  0  0  0  0  0  0  0  0  2  0  0
   -0.0052    0.0503   -0.0008 C   0  0  0  0  0  0  0  0  0  3  0  0
   -0.6850    1.1948    0.0010 C   0  0  0  0  0  0  0  0  0  4  0  0
    0.1609    2.7019   -0.0007 Cl  0  0  0  0  0  0  0  0  0  5  0  0
  4  5  1  0
  3  4  2  0
  2  3  1  0
  1  2  1  0
M  END
> <Name>
1,3-Dichloropropene

> <CAS RN>
000542-75-6

> <Log Koc>
1.52

> <VP-0>
4.12959

> <nAromBond>
0

> <MAXDP>
0.270405

> <nHBAcc>
0

> <Splitting>
2

$$$$
2,4-Dichloroaniline
  SciTegic01221512053D

  9  9  0  0  0  0            999 V2000
   -0.7856    0.8360    0.0004 C   0  0  0  0  0  0  0  0  0  1  0  0
   -0.0892    2.0392    0.0005 C   0  0  0  0  0  0  0  0  0  2  0  0
    1.3011    2.0370    0.0006 C   0  0  0  0  0  0  0  0  0  3  0  0
    1.9949    0.8320    0.0006 C   0  0  0  0  0  0  0  0  0  4  0  0
    1.2983   -0.3712    0.0005 C   0  0  0  0  0  0  0  0  0  5  0  0
   -0.0921   -0.3689    0.0004 C   0  0  0  0  0  0  0  0  0  6  0  0
   -0.7921   -1.5762    0.0003 N   0  0  0  0  0  0  0  0  0  7  0  0
    2.1670    3.5321    0.0007 Cl  0  0  0  0  0  0  0  0  0  8  0  0
   -2.5131    0.8373    0.0003 Cl  0  0  0  0  0  0  0  0  0  9  0  0
  1  9  1  0
  3  8  1  0
  6  7  1  0
  6  1  4  0
  5  6  4  0
  4  5  4  0
  3  4  4  0
  2  3  4  0
  1  2  4  0
M  END
> <Name>
2,4-Dichloroaniline

> <CAS RN>
000554-00-7

> <Log Koc>
2.72

> <VP-0>
6.07719

> <nAromBond>
6

> <MAXDP>
1.64777

> <nHBAcc>
1

> <Splitting>
1

$$$$
3-Nitrophenol
  SciTegic01221512053D

 10 10  0  0  0  0            999 V2000
   -0.8217    1.1743   -0.1298 C   0  0  0  0  0  0  0  0  0  1  0  0
   -0.0788    2.3375   -0.2964 C   0  0  0  0  0  0  0  0  0  2  0  0
    1.3086    2.2934   -0.2164 C   0  0  0  0  0  0  0  0  0  3  0  0
    1.9530    1.0862    0.0303 C   0  0  0  0  0  0  0  0  0  4  0  0
    1.2102   -0.0770    0.1970 C   0  0  0  0  0  0  0  0  0  5  0  0
   -0.1769   -0.0324    0.1169 C   0  0  0  0  0  0  0  0  0  6  0  0
   -0.9216   -1.1982    0.2840 N   0  0  0  0  0  0  0  0  0  7  0  0
   -2.2429   -1.1558    0.2077 O   0  0  0  0  0  0  0  0  0  8  0  0
   -0.3072   -2.3475    0.5189 O   0  0  0  0  0  0  0  0  0  9  0  0
    3.3407    1.0424    0.1103 O   0  0  0  0  0  0  0  0  0 10  0  0
  4 10  1  0
  7  9  1  0
  7  8  1  0
  6  7  1  0
  6  1  4  0
  5  6  4  0
  4  5  4  0
  3  4  4  0
  2  3  4  0
  1  2  4  0
M  END
> <Name>
3-Nitrophenol

> <CAS RN>
000554-84-7

> <Log Koc>
1.72

> <VP-0>
4.87197

> <nAromBond>
6

> <MAXDP>
3.04759

> <nHBAcc>
0

> <Splitting>
2

$$$$
Neburon
  SciTegic01221512053D

 17 17  0  0  0  0            999 V2000
    2.6363    1.4113    0.5721 C   0  0  0  0  0  0  0  0  0  1  0  0
    1.3989    1.2377   -0.0381 C   0  0  0  0  0  0  0  0  0  2  0  0
    0.8303    2.2958   -0.7415 C   0  0  0  0  0  0  0  0  0  3  0  0
    1.4912    3.5149   -0.8350 C   0  0  0  0  0  0  0  0  0  4  0  0
    2.7286    3.6815   -0.2249 C   0  0  0  0  0  0  0  0  0  5  0  0
    3.3016    2.6287    0.4780 C   0  0  0  0  0  0  0  0  0  6  0  0
    4.8414    2.8333    1.2340 Cl  0  0  0  0  0  0  0  0  0  7  0  0
    3.5534    5.1951   -0.3401 Cl  0  0  0  0  0  0  0  0  0  8  0  0
    0.7496   -0.0192    0.0828 N   0  0  0  0  0  0  0  0  0  9  0  0
   -0.4306   -0.3917   -0.6193 C   0  0  0  0  0  0  0  0  0 10  0  0
   -0.9585    0.3707   -1.4363 O   0  0  0  0  0  0  0  0  0 11  0  0
   -1.0024   -1.6763   -0.4337 N   0  0  0  0  0  0  0  0  0 12  0  0
   -2.1311   -2.0550   -1.2431 C   0  0  0  0  0  0  0  0  0 13  0  0
   -0.4459   -2.6490    0.5022 C   0  0  0  0  0  0  0  0  0 14  0  0
   -0.2014   -2.1256    1.9647 C   0  0  0  0  0  0  0  0  0 15  0  0
   -1.5135   -1.8966    2.7887 C   0  0  0  0  0  0  0  0  0 16  0  0
   -2.3783   -0.7395    2.2491 C   0  0  0  0  0  0  0  0  0 17  0  0
 16 17  1  0
 15 16  1  0
 14 15  1  0
 12 14  1  0
 12 13  1  0
 10 12  1  0
 10 11  2  0
  9 10  1  0
  2  9  1  0
  5  8  1  0
  6  7  1  0
  6  1  4  0
  5  6  4  0
  4  5  4  0
  3  4  4  0
  2  3  4  0
  1  2  4  0
M  END
> <Name>
Neburon

> <CAS RN>
000555-37-3

> <Log Koc>
3.38

> <VP-0>
11.4766

> <nAromBond>
6

> <MAXDP>
4.85291

> <nHBAcc>
3

> <Splitting>
2

$$$$
Methyl Isothiocyanate
  SciTegic01221512053D

  4  3  0  0  0  0            999 V2000
    1.1648   -0.3035   -0.0272 N   0  0  0  0  0  0  0  0  0  1  0  0
    0.0826    0.2905   -0.0808 C   0  0  0  0  0  0  0  0  0  2  0  0
   -1.2571    1.0259   -0.1471 S   0  0  0  0  0  0  0  0  0  3  0  0
    2.0082   -0.1542    1.1239 C   0  0  0  0  0  0  0  0  0  4  0  0
  1  4  1  0
  2  3  2  0
  1  2  2  0
M  END
> <Name>
Methyl Isothiocyanate

> <CAS RN>
000556-61-6

> <Log Koc>
0.97

> <VP-0>
3.17196

> <nAromBond>
0

> <MAXDP>
0.5643

> <nHBAcc>
1

> <Splitting>
2

$$$$
Ethion
  SciTegic01221512053D

 19 18  0  0  0  0            999 V2000
    0.2067   -1.8673   -0.2545 S   0  0  0  0  0  0  0  0  0  1  0  0
    0.9044   -1.1631   -1.7691 C   0  0  0  0  0  0  0  0  0  2  0  0
    2.7101   -0.9763   -1.6416 S   0  0  0  0  0  0  0  0  0  3  0  0
    3.2215    0.1054   -0.1252 P   0  0  0  0  0  0  0  0  0  4  0  0
    2.7664   -0.6760    1.3248 S   0  0  0  0  0  0  0  0  0  5  0  0
    2.5391    1.4917   -0.2179 O   0  0  0  0  0  0  0  0  0  6  0  0
    2.9538    2.1504   -1.4168 C   0  0  0  0  0  0  0  0  0  7  0  0
    2.2640    3.5220   -1.5118 C   0  0  0  0  0  0  0  0  0  8  0  0
    4.7576    0.2917   -0.1324 O   0  0  0  0  0  0  0  0  0  9  0  0
    5.3899   -0.9874   -0.0500 C   0  0  0  0  0  0  0  0  0 10  0  0
    6.9177   -0.8047   -0.0582 C   0  0  0  0  0  0  0  0  0 11  0  0
   -0.7016   -0.4934    0.7601 P   0  0  0  0  0  0  0  0  0 12  0  0
   -1.9442    0.1885   -0.1977 S   0  0  0  0  0  0  0  0  0 13  0  0
    0.2849    0.6375    1.1255 O   0  0  0  0  0  0  0  0  0 14  0  0
   -0.4050    1.6336    1.8840 C   0  0  0  0  0  0  0  0  0 15  0  0
    0.5728    2.7545    2.2767 C   0  0  0  0  0  0  0  0  0 16  0  0
   -1.2462   -1.1206    2.0960 O   0  0  0  0  0  0  0  0  0 17  0  0
   -2.0284   -2.3258    1.8929 C   0  0  0  0  0  0  0  0  0 18  0  0
   -3.4510   -2.0329    1.3707 C   0  0  0  0  0  0  0  0  0 19  0  0
 18 19  1  0
 17 18  1  0
 12 17  1  0
 15 16  1  0
 14 15  1  0
 12 14  1  0
 12 13  2  0
  1 12  1  0
 10 11  1  0
  9 10  1  0
  4  9  1  0
  7  8  1  0
  6  7  1  0
  4  6  1  0
  4  5  2  0
  3  4  1  0
  2  3  1  0
  1  2  1  0
M  END
> <Name>
Ethion

> <CAS RN>
000563-12-2

> <Log Koc>
4.13

> <VP-0>
16.7508

> <nAromBond>
0

> <MAXDP>
2.68261

> <nHBAcc>
4

> <Splitting>
2

$$$$
2,3-Dichlorophenol
  SciTegic01221512053D

  9  9  0  0  0  0            999 V2000
    0.1441    0.8171   -0.6650 C   0  0  0  0  0  0  0  0  0  1  0  0
    1.3083    1.1359   -1.3549 C   0  0  0  0  0  0  0  0  0  2  0  0
    2.4973    0.4822   -1.0513 C   0  0  0  0  0  0  0  0  0  3  0  0
    2.5220   -0.4902   -0.0578 C   0  0  0  0  0  0  0  0  0  4  0  0
    1.3576   -0.8088    0.6319 C   0  0  0  0  0  0  0  0  0  5  0  0
    1.3871   -2.0169    1.8665 Cl  0  0  0  0  0  0  0  0  0  6  0  0
    0.1688   -0.1552    0.3283 C   0  0  0  0  0  0  0  0  0  7  0  0
   -1.2776   -0.5512    1.1854 Cl  0  0  0  0  0  0  0  0  0  8  0  0
   -1.0454    1.4704   -0.9681 O   0  0  0  0  0  0  0  0  0  9  0  0
  1  9  1  0
  7  8  1  0
  7  1  4  0
  5  7  4  0
  5  6  1  0
  4  5  4  0
  3  4  4  0
  2  3  4  0
  1  2  4  0
M  END
> <Name>
2,3-Dichlorophenol

> <CAS RN>
000576-24-9

> <Log Koc>
2.65

> <VP-0>
5.94705

> <nAromBond>
6

> <MAXDP>
3.16716

> <nHBAcc>
0

> <Splitting>
2

$$$$
2,3-dimethylnaphthalene
  SciTegic01221512053D

 12 13  0  0  0  0            999 V2000
   -1.5827    1.8780   -0.7405 C   0  0  0  0  0  0  0  0  0  1  0  0
   -1.5031    2.1966    0.6119 C   0  0  0  0  0  0  0  0  0  2  0  0
   -0.4412    1.7249    1.3751 C   0  0  0  0  0  0  0  0  0  3  0  0
    0.5407    0.9355    0.7883 C   0  0  0  0  0  0  0  0  0  4  0  0
    0.4612    0.6170   -0.5631 C   0  0  0  0  0  0  0  0  0  5  0  0
   -0.6001    1.0883   -1.3267 C   0  0  0  0  0  0  0  0  0  6  0  0
    1.4430   -0.1725   -1.1504 C   0  0  0  0  0  0  0  0  0  7  0  0
    2.5045   -0.6436   -0.3861 C   0  0  0  0  0  0  0  0  0  8  0  0
    2.5839   -0.3252    0.9651 C   0  0  0  0  0  0  0  0  0  9  0  0
    1.6020    0.4644    1.5525 C   0  0  0  0  0  0  0  0  0 10  0  0
   -2.5610    3.0499    1.2543 C   0  0  0  0  0  0  0  0  0 11  0  0
   -2.7273    2.3836   -1.5736 C   0  0  0  0  0  0  0  0  0 12  0  0
  1 12  1  0
  2 11  1  0
 10  4  4  0
  9 10  4  0
  8  9  4  0
  7  8  4  0
  5  7  4  0
  6  1  4  0
  5  6  4  0
  4  5  4  0
  3  4  4  0
  2  3  4  0
  1  2  4  0
M  END
> <Name>
2,3-dimethylnaphthalene

> <CAS RN>
000581-40-8

> <Log Koc>
4.08

> <VP-0>
7.4641

> <nAromBond>
11

> <MAXDP>
0.240741

> <nHBAcc>
0

> <Splitting>
2

$$$$
4-Bromonitrobenzene
  SciTegic01221512053D

 10 10  0  0  0  0            999 V2000
   -1.3990    1.9291    1.0659 N   0  0  0  0  0  0  0  0  0  1  0  0
   -1.7177    3.2074    0.9325 O   0  0  0  0  0  0  0  0  0  2  0  0
   -0.2177    1.4443    0.5078 C   0  0  0  0  0  0  0  0  0  3  0  0
    0.6251    2.3032   -0.1884 C   0  0  0  0  0  0  0  0  0  4  0  0
    1.8036    1.8196   -0.7451 C   0  0  0  0  0  0  0  0  0  5  0  0
    2.1385    0.4774   -0.6052 C   0  0  0  0  0  0  0  0  0  6  0  0
    1.2954   -0.3814    0.0912 C   0  0  0  0  0  0  0  0  0  7  0  0
    0.1169    0.1022    0.6479 C   0  0  0  0  0  0  0  0  0  8  0  0
    3.7499   -0.1839   -1.3664 Br  0  0  0  0  0  0  0  0  0  9  0  0
   -2.2018    1.1110    1.7290 O   0  0  0  0  0  0  0  0  0 10  0  0
  1 10  1  0
  6  9  1  0
  8  3  4  0
  7  8  4  0
  6  7  4  0
  5  6  4  0
  4  5  4  0
  3  4  4  0
  1  3  1  0
  1  2  1  0
M  END
> <Name>
4-Bromonitrobenzene

> <CAS RN>
000586-78-7

> <Log Koc>
2.42

> <VP-0>
6.38872

> <nAromBond>
6

> <MAXDP>
3.13687

> <nHBAcc>
0

> <Splitting>
2

$$$$
3-(3-Chlorophenyl)-1,1-dimethylurea
  SciTegic01221512053D

 13 13  0  0  0  0            999 V2000
    2.8574    1.1707    0.2652 C   0  0  0  0  0  0  0  0  0  1  0  0
    1.4743    1.1091    0.1329 C   0  0  0  0  0  0  0  0  0  2  0  0
    0.7549    2.2845   -0.0614 C   0  0  0  0  0  0  0  0  0  3  0  0
    1.4106    3.5086   -0.1230 C   0  0  0  0  0  0  0  0  0  4  0  0
    2.7930    3.5641    0.0096 C   0  0  0  0  0  0  0  0  0  5  0  0
    3.5164    2.3935    0.2038 C   0  0  0  0  0  0  0  0  0  6  0  0
    0.5067    4.9610   -0.3642 Cl  0  0  0  0  0  0  0  0  0  7  0  0
    0.8396   -0.1602    0.2019 N   0  0  0  0  0  0  0  0  0  8  0  0
   -0.5584   -0.3734    0.0740 C   0  0  0  0  0  0  0  0  0  9  0  0
   -1.3491    0.5580   -0.1147 O   0  0  0  0  0  0  0  0  0 10  0  0
   -1.0541   -1.6739    0.1645 N   0  0  0  0  0  0  0  0  0 11  0  0
   -2.4625   -1.9149    0.0386 C   0  0  0  0  0  0  0  0  0 12  0  0
   -0.1550   -2.7700    0.3840 C   0  0  0  0  0  0  0  0  0 13  0  0
 11 13  1  0
 11 12  1  0
  9 11  1  0
  9 10  2  0
  8  9  1  0
  2  8  1  0
  4  7  1  0
  6  1  4  0
  5  6  4  0
  4  5  4  0
  3  4  4  0
  2  3  4  0
  1  2  4  0
M  END
> <Name>
3-(3-Chlorophenyl)-1,1-dimethylurea

> <CAS RN>
000587-34-8

> <Log Koc>
1.79

> <VP-0>
8.29876

> <nAromBond>
6

> <MAXDP>
4.25169

> <nHBAcc>
3

> <Splitting>
2

$$$$
o-Chloroacetanilide
  SciTegic01221512053D

 11 11  0  0  0  0            999 V2000
   -0.1593    3.1213    1.4047 C   0  0  0  0  0  0  0  0  0  1  0  0
   -0.4749    3.5780    2.5090 O   0  0  0  0  0  0  0  0  0  2  0  0
   -0.0224    4.1071    0.2613 C   0  0  0  0  0  0  0  0  0  3  0  0
   -0.3685    5.7370    0.8469 Cl  0  0  0  0  0  0  0  0  0  4  0  0
    0.0367    1.7771    1.3203 N   0  0  0  0  0  0  0  0  0  5  0  0
    0.4078    0.9278    0.1969 C   0  0  0  0  0  0  0  0  0  6  0  0
    0.6365    1.3830   -1.1006 C   0  0  0  0  0  0  0  0  0  7  0  0
    0.9875    0.5011   -2.1163 C   0  0  0  0  0  0  0  0  0  8  0  0
    1.1149   -0.8552   -1.8453 C   0  0  0  0  0  0  0  0  0  9  0  0
    0.8895   -1.3218   -0.5565 C   0  0  0  0  0  0  0  0  0 10  0  0
    0.5387   -0.4336    0.4540 C   0  0  0  0  0  0  0  0  0 11  0  0
 11  6  4  0
 10 11  4  0
  9 10  4  0
  8  9  4  0
  7  8  4  0
  6  7  4  0
  5  6  1  0
  1  5  1  0
  3  4  1  0
  1  3  1  0
  1  2  2  0
M  END
> <Name>
o-Chloroacetanilide

> <CAS RN>
000587-65-5

> <Log Koc>
1.58

> <VP-0>
6.636

> <nAromBond>
6

> <MAXDP>
3.91099

> <nHBAcc>
2

> <Splitting>
2

$$$$
3-Chloroacetanilide
  SciTegic01221512053D

 11 11  0  0  0  0            999 V2000
   -0.0273    3.7312    1.1541 O   0  0  0  0  0  0  0  0  0  1  0  0
   -0.5078    2.8393    1.8626 C   0  0  0  0  0  0  0  0  0  2  0  0
   -1.2302    3.2237    3.1204 C   0  0  0  0  0  0  0  0  0  3  0  0
   -0.4059    1.5373    1.5461 N   0  0  0  0  0  0  0  0  0  4  0  0
    0.2469    1.0172    0.3902 C   0  0  0  0  0  0  0  0  0  5  0  0
    0.8613    1.8385   -0.5512 C   0  0  0  0  0  0  0  0  0  6  0  0
    1.4869    1.2892   -1.6644 C   0  0  0  0  0  0  0  0  0  7  0  0
    1.5021   -0.0887   -1.8439 C   0  0  0  0  0  0  0  0  0  8  0  0
    0.8906   -0.9140   -0.9079 C   0  0  0  0  0  0  0  0  0  9  0  0
    0.2659   -0.3610    0.2043 C   0  0  0  0  0  0  0  0  0 10  0  0
    2.2455    2.3202   -2.8247 Cl  0  0  0  0  0  0  0  0  0 11  0  0
  7 11  1  0
 10  5  4  0
  9 10  4  0
  8  9  4  0
  7  8  4  0
  6  7  4  0
  5  6  4  0
  4  5  1  0
  2  4  1  0
  2  3  1  0
  1  2  2  0
M  END
> <Name>
3-Chloroacetanilide

> <CAS RN>
000588-07-8

> <Log Koc>
1.86

> <VP-0>
6.85154

> <nAromBond>
6

> <MAXDP>
3.62669

> <nHBAcc>
2

> <Splitting>
2

$$$$
3,5-Dichlorophenol
  SciTegic01221512053D

  9  9  0  0  0  0            999 V2000
   -0.9275    0.8651   -0.0001 C   0  0  0  0  0  0  0  0  0  1  0  0
   -0.2328    2.0694    0.0005 C   0  0  0  0  0  0  0  0  0  2  0  0
    1.1575    2.0697    0.0009 C   0  0  0  0  0  0  0  0  0  3  0  0
    1.8531    0.8659    0.0007 C   0  0  0  0  0  0  0  0  0  4  0  0
    1.1582   -0.3383    0.0001 C   0  0  0  0  0  0  0  0  0  5  0  0
   -0.2321   -0.3388   -0.0003 C   0  0  0  0  0  0  0  0  0  6  0  0
    2.0225   -1.8343   -0.0002 Cl  0  0  0  0  0  0  0  0  0  7  0  0
    2.0210    3.5662    0.0016 Cl  0  0  0  0  0  0  0  0  0  8  0  0
   -2.3182    0.8647   -0.0005 O   0  0  0  0  0  0  0  0  0  9  0  0
  1  9  1  0
  3  8  1  0
  5  7  1  0
  6  1  4  0
  5  6  4  0
  4  5  4  0
  3  4  4  0
  2  3  4  0
  1  2  4  0
M  END
> <Name>
3,5-Dichlorophenol

> <CAS RN>
000591-35-5

> <Log Koc>
2.83

> <VP-0>
5.94705

> <nAromBond>
6

> <MAXDP>
3.04623

> <nHBAcc>
0

> <Splitting>
2

$$$$
Iodobenzene
  SciTegic01221512053D

  7  7  0  0  0  0            999 V2000
   -0.7871    1.0455    0.0000 C   0  0  0  0  0  0  0  0  0  1  0  0
   -0.0912    2.2493    0.0001 C   0  0  0  0  0  0  0  0  0  2  0  0
    1.2992    2.2485    0.0008 C   0  0  0  0  0  0  0  0  0  3  0  0
    1.9939    1.0440    0.0014 C   0  0  0  0  0  0  0  0  0  4  0  0
    1.2981   -0.1598    0.0013 C   0  0  0  0  0  0  0  0  0  5  0  0
   -0.0923   -0.1589    0.0006 C   0  0  0  0  0  0  0  0  0  6  0  0
   -1.1236   -1.9432    0.0004 I   0  0  0  0  0  0  0  0  0  7  0  0
  6  7  1  0
  6  1  4  0
  5  6  4  0
  4  5  4  0
  3  4  4  0
  2  3  4  0
  1  2  4  0
M  END
> <Name>
Iodobenzene

> <CAS RN>
000591-50-4

> <Log Koc>
3.1

> <VP-0>
5.92221

> <nAromBond>
6

> <MAXDP>
0.191679

> <nHBAcc>
0

> <Splitting>
2

$$$$
Dibromodichloromethane
  SciTegic01221512053D

  5  4  0  0  0  0            999 V2000
   -0.7912   -0.0008    0.0355 Cl  0  0  0  0  0  0  0  0  0  1  0  0
    0.9758   -0.0003    0.0331 C   0  0  0  0  0  0  0  0  0  2  0  0
    1.5670    0.0014    1.6983 Cl  0  0  0  0  0  0  0  0  0  3  0  0
    1.6208    1.5830   -0.8837 Br  0  0  0  0  0  0  0  0  0  4  0  0
    1.6216   -1.5850   -0.8808 Br  0  0  0  0  0  0  0  0  0  5  0  0
  2  5  1  0
  2  4  1  0
  2  3  1  0
  1  2  1  0
M  END
> <Name>
Dibromodichloromethane

> <CAS RN>
000594-18-3

> <Log Koc>
1.92

> <VP-0>
6.69571

> <nAromBond>
0

> <MAXDP>
0.086334

> <nHBAcc>
0

> <Splitting>
2

$$$$
Trichloroacetamide
  SciTegic01221512053D

  7  6  0  0  0  0            999 V2000
    1.1485    0.0173   -0.0307 C   0  0  0  0  0  0  0  0  0  1  0  0
   -0.3513    0.0255   -0.0022 C   0  0  0  0  0  0  0  0  0  2  0  0
   -0.9629    1.0995    0.0123 O   0  0  0  0  0  0  0  0  0  3  0  0
   -1.0554   -1.1800    0.0073 N   0  0  0  0  0  0  0  0  0  4  0  0
    1.7255    0.0162    1.6392 Cl  0  0  0  0  0  0  0  0  0  5  0  0
    1.7528    1.4804   -0.8149 Cl  0  0  0  0  0  0  0  0  0  6  0  0
    1.7372   -1.4535   -0.8126 Cl  0  0  0  0  0  0  0  0  0  7  0  0
  1  7  1  0
  1  6  1  0
  1  5  1  0
  2  4  1  0
  2  3  2  0
  1  2  1  0
M  END
> <Name>
Trichloroacetamide

> <CAS RN>
000594-65-0

> <Log Koc>
0.99

> <VP-0>
5.38728

> <nAromBond>
0

> <MAXDP>
3.36574

> <nHBAcc>
2

> <Splitting>
2

$$$$
Methyl-urea
  SciTegic01221512053D

  5  4  0  0  0  0            999 V2000
    1.9045    1.2686   -0.0024 C   0  0  0  0  0  0  0  0  0  1  0  0
    1.2311    0.0017   -0.0024 N   0  0  0  0  0  0  0  0  0  2  0  0
   -0.1644   -0.0470   -0.0013 C   0  0  0  0  0  0  0  0  0  3  0  0
   -0.8195    1.0014   -0.0003 O   0  0  0  0  0  0  0  0  0  4  0  0
   -0.8198   -1.2799   -0.0014 N   0  0  0  0  0  0  0  0  0  5  0  0
  3  5  1  0
  3  4  2  0
  2  3  1  0
  1  2  1  0
M  END
> <Name>
Methyl-urea

> <CAS RN>
000598-50-5

> <Log Koc>
1.77

> <VP-0>
2.9856

> <nAromBond>
0

> <MAXDP>
2.47917

> <nHBAcc>
3

> <Splitting>
2

$$$$
2,6-Dichloroaniline
  SciTegic01221512053D

  9  9  0  0  0  0            999 V2000
   -0.9955    0.6829   -0.0022 C   0  0  0  0  0  0  0  0  0  1  0  0
   -0.3000    1.8868   -0.0013 C   0  0  0  0  0  0  0  0  0  2  0  0
    1.0902    1.8865   -0.0004 C   0  0  0  0  0  0  0  0  0  3  0  0
    1.7852    0.6825   -0.0004 C   0  0  0  0  0  0  0  0  0  4  0  0
    1.0900   -0.5216   -0.0012 C   0  0  0  0  0  0  0  0  0  5  0  0
   -0.3004   -0.5213   -0.0021 C   0  0  0  0  0  0  0  0  0  6  0  0
    3.5127    0.6833    0.0007 Cl  0  0  0  0  0  0  0  0  0  7  0  0
    1.7881    3.0948    0.0005 N   0  0  0  0  0  0  0  0  0  8  0  0
   -1.1626    3.3835   -0.0013 Cl  0  0  0  0  0  0  0  0  0  9  0  0
  2  9  1  0
  3  8  1  0
  4  7  1  0
  6  1  4  0
  5  6  4  0
  4  5  4  0
  3  4  4  0
  2  3  4  0
  1  2  4  0
M  END
> <Name>
2,6-Dichloroaniline

> <CAS RN>
000608-31-1

> <Log Koc>
3.25

> <VP-0>
6.07719

> <nAromBond>
6

> <MAXDP>
1.76364

> <nHBAcc>
1

> <Splitting>
2

$$$$
Pentachlorobenzene
  SciTegic01221512053D

 11 11  0  0  0  0            999 V2000
   -0.9928    0.8663   -0.0004 C   0  0  0  0  0  0  0  0  0  1  0  0
   -0.2976    2.0703   -0.0005 C   0  0  0  0  0  0  0  0  0  2  0  0
    1.0926    2.0705   -0.0004 C   0  0  0  0  0  0  0  0  0  3  0  0
    1.7880    0.8669   -0.0003 C   0  0  0  0  0  0  0  0  0  4  0  0
    1.0932   -0.3371   -0.0001 C   0  0  0  0  0  0  0  0  0  5  0  0
   -0.2970   -0.3374   -0.0002 C   0  0  0  0  0  0  0  0  0  6  0  0
   -1.1594   -1.8342   -0.0001 Cl  0  0  0  0  0  0  0  0  0  7  0  0
    1.9572   -1.8327    0.0001 Cl  0  0  0  0  0  0  0  0  0  8  0  0
    3.5152    0.8672   -0.0002 Cl  0  0  0  0  0  0  0  0  0  9  0  0
    1.9560    3.5665   -0.0006 Cl  0  0  0  0  0  0  0  0  0 10  0  0
   -1.1606    3.5666   -0.0007 Cl  0  0  0  0  0  0  0  0  0 11  0  0
  2 11  1  0
  3 10  1  0
  4  9  1  0
  5  8  1  0
  6  7  1  0
  6  1  4  0
  5  6  4  0
  4  5  4  0
  3  4  4  0
  2  3  4  0
  1  2  4  0
M  END
> <Name>
Pentachlorobenzene

> <CAS RN>
000608-93-5

> <Log Koc>
4.41

> <VP-0>
8.74682

> <nAromBond>
6

> <MAXDP>
0.514942

> <nHBAcc>
0

> <Splitting>
2

$$$$
3,4,5-Trichlorophenol
  SciTegic01221512053D

 10 10  0  0  0  0            999 V2000
   -1.0347    0.8656    0.0006 C   0  0  0  0  0  0  0  0  0  1  0  0
   -0.3398    2.0698    0.0007 C   0  0  0  0  0  0  0  0  0  2  0  0
    1.0505    2.0696    0.0001 C   0  0  0  0  0  0  0  0  0  3  0  0
    1.7454    0.8655   -0.0006 C   0  0  0  0  0  0  0  0  0  4  0  0
    1.0504   -0.3385   -0.0006 C   0  0  0  0  0  0  0  0  0  5  0  0
   -0.3398   -0.3386    0.0000 C   0  0  0  0  0  0  0  0  0  6  0  0
    1.9151   -1.8339   -0.0015 Cl  0  0  0  0  0  0  0  0  0  7  0  0
    3.4727    0.8655   -0.0013 Cl  0  0  0  0  0  0  0  0  0  8  0  0
    1.9152    3.5650    0.0002 Cl  0  0  0  0  0  0  0  0  0  9  0  0
   -2.4254    0.8656    0.0012 O   0  0  0  0  0  0  0  0  0 10  0  0
  1 10  1  0
  3  9  1  0
  4  8  1  0
  5  7  1  0
  6  1  4  0
  5  6  4  0
  4  5  4  0
  3  4  4  0
  2  3  4  0
  1  2  4  0
M  END
> <Name>
3,4,5-Trichlorophenol

> <CAS RN>
000609-19-8

> <Log Koc>
3.56

> <VP-0>
7.00359

> <nAromBond>
6

> <MAXDP>
3.18885

> <nHBAcc>
0

> <Splitting>
2

$$$$
2-Chlorobenzamide
  SciTegic01221512053D

 10 10  0  0  0  0            999 V2000
    3.0248    1.3183    0.0012 C   0  0  0  0  0  0  0  0  0  1  0  0
    3.7357    0.1249    0.0013 C   0  0  0  0  0  0  0  0  0  2  0  0
    3.0539   -1.0860    0.0008 C   0  0  0  0  0  0  0  0  0  3  0  0
    1.6633   -1.1114    0.0003 C   0  0  0  0  0  0  0  0  0  4  0  0
    0.9482    0.0868    0.0002 C   0  0  0  0  0  0  0  0  0  5  0  0
    1.6353    1.2962    0.0007 C   0  0  0  0  0  0  0  0  0  6  0  0
   -0.5284    0.1213   -0.0003 C   0  0  0  0  0  0  0  0  0  7  0  0
   -1.1052    1.2144   -0.0004 O   0  0  0  0  0  0  0  0  0  8  0  0
   -1.2866   -1.0489   -0.0008 N   0  0  0  0  0  0  0  0  0  9  0  0
    0.8617   -2.6455   -0.0003 Cl  0  0  0  0  0  0  0  0  0 10  0  0
  4 10  1  0
  7  9  1  0
  7  8  2  0
  5  7  1  0
  6  1  4  0
  5  6  4  0
  4  5  4  0
  3  4  4  0
  2  3  4  0
  1  2  4  0
M  END
> <Name>
2-Chlorobenzamide

> <CAS RN>
000609-66-5

> <Log Koc>
1.51

> <VP-0>
5.92889

> <nAromBond>
6

> <MAXDP>
3.67015

> <nHBAcc>
2

> <Splitting>
1

$$$$
2-Nitrobenzamide
  SciTegic01221512053D

 12 12  0  0  0  0            999 V2000
    3.7136   -0.2183   -0.0359 C   0  0  0  0  0  0  0  0  0  1  0  0
    3.0110   -1.4007   -0.2075 C   0  0  0  0  0  0  0  0  0  2  0  0
    1.6233   -1.3780   -0.1982 C   0  0  0  0  0  0  0  0  0  3  0  0
    0.9152   -0.1926   -0.0203 C   0  0  0  0  0  0  0  0  0  4  0  0
    1.6270    1.0077    0.1538 C   0  0  0  0  0  0  0  0  0  5  0  0
    3.0188    0.9701    0.1424 C   0  0  0  0  0  0  0  0  0  6  0  0
    1.0611    2.3108    0.3486 N   0  0  0  0  0  0  0  0  0  7  0  0
    1.8920    3.3312    0.4956 O   0  0  0  0  0  0  0  0  0  8  0  0
   -0.2247    2.5555    0.3902 O   0  0  0  0  0  0  0  0  0  9  0  0
   -0.5679   -0.3351   -0.0350 C   0  0  0  0  0  0  0  0  0 10  0  0
   -1.3337    0.6164    0.1086 O   0  0  0  0  0  0  0  0  0 11  0  0
   -1.1119   -1.6069   -0.2204 N   0  0  0  0  0  0  0  0  0 12  0  0
 10 12  1  0
 10 11  2  0
  4 10  1  0
  7  9  1  0
  7  8  1  0
  5  7  1  0
  6  1  4  0
  5  6  4  0
  4  5  4  0
  3  4  4  0
  2  3  4  0
  1  2  4  0
M  END
> <Name>
2-Nitrobenzamide

> <CAS RN>
000610-15-1

> <Log Koc>
1.45

> <VP-0>
5.91035

> <nAromBond>
6

> <MAXDP>
3.64398

> <nHBAcc>
2

> <Splitting>
2

$$$$
N,N-Dimethylbenzamide
  SciTegic01221512053D

 11 11  0  0  0  0            999 V2000
    3.9544    0.1943   -0.0414 C   0  0  0  0  0  0  0  0  0  1  0  0
    3.3176   -1.0139    0.2115 C   0  0  0  0  0  0  0  0  0  2  0  0
    1.9291   -1.0751    0.2408 C   0  0  0  0  0  0  0  0  0  3  0  0
    1.1568    0.0636    0.0192 C   0  0  0  0  0  0  0  0  0  4  0  0
    1.8079    1.2674   -0.2329 C   0  0  0  0  0  0  0  0  0  5  0  0
    3.1961    1.3366   -0.2638 C   0  0  0  0  0  0  0  0  0  6  0  0
   -0.3642    0.0952    0.0314 C   0  0  0  0  0  0  0  0  0  7  0  0
   -0.8862    1.1945   -0.1853 O   0  0  0  0  0  0  0  0  0  8  0  0
   -1.2784   -1.0154    0.2678 N   0  0  0  0  0  0  0  0  0  9  0  0
   -2.6837   -0.7309    0.2272 C   0  0  0  0  0  0  0  0  0 10  0  0
   -0.8855   -2.3804    0.5399 C   0  0  0  0  0  0  0  0  0 11  0  0
  9 11  1  0
  9 10  1  0
  7  9  1  0
  7  8  2  0
  4  7  1  0
  6  1  4  0
  5  6  4  0
  4  5  4  0
  3  4  4  0
  2  3  4  0
  1  2  4  0
M  END
> <Name>
N,N-Dimethylbenzamide

> <CAS RN>
000611-74-5

> <Log Koc>
1.54

> <VP-0>
6.74221

> <nAromBond>
6

> <MAXDP>
4.27037

> <nHBAcc>
2

> <Splitting>
2

$$$$
2-Aminoanthracene
  SciTegic01221512053D

 15 17  0  0  0  0            999 V2000
   -2.6820    4.1657    1.5777 C   0  0  0  0  0  0  0  0  0  1  0  0
   -3.2175    4.0059    0.3045 C   0  0  0  0  0  0  0  0  0  2  0  0
   -2.6490    3.0964   -0.5801 C   0  0  0  0  0  0  0  0  0  3  0  0
   -1.5449    2.3468   -0.1911 C   0  0  0  0  0  0  0  0  0  4  0  0
   -1.0092    2.5066    1.0825 C   0  0  0  0  0  0  0  0  0  5  0  0
   -1.5777    3.4160    1.9668 C   0  0  0  0  0  0  0  0  0  6  0  0
    0.0948    1.7573    1.4718 C   0  0  0  0  0  0  0  0  0  7  0  0
    0.6628    0.8481    0.5872 C   0  0  0  0  0  0  0  0  0  8  0  0
    0.1271    0.6883   -0.6864 C   0  0  0  0  0  0  0  0  0  9  0  0
   -0.9768    1.4376   -1.0757 C   0  0  0  0  0  0  0  0  0 10  0  0
    0.6956   -0.2211   -1.5708 C   0  0  0  0  0  0  0  0  0 11  0  0
    1.7998   -0.9707   -1.1817 C   0  0  0  0  0  0  0  0  0 12  0  0
    2.3352   -0.8108    0.0914 C   0  0  0  0  0  0  0  0  0 13  0  0
    1.7669    0.0986    0.9761 C   0  0  0  0  0  0  0  0  0 14  0  0
    3.4437   -1.5636    0.4816 N   0  0  0  0  0  0  0  0  0 15  0  0
 13 15  1  0
 14  8  4  0
 13 14  4  0
 12 13  4  0
 11 12  4  0
  9 11  4  0
 10  4  4  0
  9 10  4  0
  8  9  4  0
  7  8  4  0
  5  7  4  0
  6  1  4  0
  5  6  4  0
  4  5  4  0
  3  4  4  0
  2  3  4  0
  1  2  4  0
M  END
> <Name>
2-Aminoanthracene

> <CAS RN>
000613-13-8

> <Log Koc>
4.45

> <VP-0>
8.2735

> <nAromBond>
16

> <MAXDP>
1.76794

> <nHBAcc>
1

> <Splitting>
2

$$$$
N-Methylbenzamide
  SciTegic01221512053D

 10 10  0  0  0  0            999 V2000
    3.1414    1.2311    0.0004 C   0  0  0  0  0  0  0  0  0  1  0  0
    3.8205    0.0178    0.0006 C   0  0  0  0  0  0  0  0  0  2  0  0
    3.1097   -1.1773    0.0007 C   0  0  0  0  0  0  0  0  0  3  0  0
    1.7196   -1.1590    0.0007 C   0  0  0  0  0  0  0  0  0  4  0  0
    1.0412    0.0544    0.0005 C   0  0  0  0  0  0  0  0  0  5  0  0
    1.7513    1.2495    0.0004 C   0  0  0  0  0  0  0  0  0  6  0  0
   -0.4177    0.0737    0.0005 C   0  0  0  0  0  0  0  0  0  7  0  0
   -1.0208    1.1525    0.0004 O   0  0  0  0  0  0  0  0  0  8  0  0
   -1.0963   -1.0696    0.0007 N   0  0  0  0  0  0  0  0  0  9  0  0
   -2.5306   -1.0523    0.0007 C   0  0  0  0  0  0  0  0  0 10  0  0
  9 10  1  0
  7  9  1  0
  7  8  2  0
  5  7  1  0
  6  1  4  0
  5  6  4  0
  4  5  4  0
  3  4  4  0
  2  3  4  0
  1  2  4  0
M  END
> <Name>
N-Methylbenzamide

> <CAS RN>
000613-93-4

> <Log Koc>
1.42

> <VP-0>
5.795

> <nAromBond>
6

> <MAXDP>
3.90231

> <nHBAcc>
2

> <Splitting>
2

$$$$
Ethyl 3,5-dinitrobenzoate
  SciTegic01221512053D

 17 17  0  0  0  0            999 V2000
    3.5251    0.0306    0.2277 C   0  0  0  0  0  0  0  0  0  1  0  0
    2.7989   -1.1542    0.1987 C   0  0  0  0  0  0  0  0  0  2  0  0
    1.4098   -1.1187    0.1628 C   0  0  0  0  0  0  0  0  0  3  0  0
    0.7473    0.1031    0.1560 C   0  0  0  0  0  0  0  0  0  4  0  0
    1.4720    1.2887    0.1850 C   0  0  0  0  0  0  0  0  0  5  0  0
    2.8610    1.2518    0.2208 C   0  0  0  0  0  0  0  0  0  6  0  0
    3.5881    2.4396    0.2499 N   0  0  0  0  0  0  0  0  0  7  0  0
    4.9114    2.4044    0.2840 O   0  0  0  0  0  0  0  0  0  8  0  0
    2.9552    3.6027    0.2433 O   0  0  0  0  0  0  0  0  0  9  0  0
   -0.7094    0.1409    0.1183 C   0  0  0  0  0  0  0  0  0 10  0  0
   -1.2894    1.2336    0.1217 O   0  0  0  0  0  0  0  0  0 11  0  0
   -1.4305   -1.0663    0.0999 O   0  0  0  0  0  0  0  0  0 12  0  0
   -2.8543   -0.8509    0.0448 C   0  0  0  0  0  0  0  0  0 13  0  0
   -3.2830   -0.3643   -1.3620 C   0  0  0  0  0  0  0  0  0 14  0  0
    3.4636   -2.3783    0.2055 N   0  0  0  0  0  0  0  0  0 15  0  0
    2.7714   -3.5069    0.1779 O   0  0  0  0  0  0  0  0  0 16  0  0
    4.7869   -2.4123    0.2397 O   0  0  0  0  0  0  0  0  0 17  0  0
 15 17  1  0
 15 16  1  0
  2 15  1  0
 13 14  1  0
 12 13  1  0
 10 12  1  0
 10 11  2  0
  4 10  1  0
  7  9  1  0
  7  8  1  0
  6  7  1  0
  6  1  4  0
  5  6  4  0
  4  5  4  0
  3  4  4  0
  2  3  4  0
  1  2  4  0
M  END
> <Name>
Ethyl 3,5-dinitrobenzoate

> <CAS RN>
000618-71-3

> <Log Koc>
2.74

> <VP-0>
8.48636

> <nAromBond>
6

> <MAXDP>
4.3269

> <nHBAcc>
2

> <Splitting>
1

$$$$
3,5-Dinitroaniline
  SciTegic01221512053D

 13 13  0  0  0  0            999 V2000
   -0.7925    0.7923    0.1787 C   0  0  0  0  0  0  0  0  0  1  0  0
   -0.0362    1.9580    0.2118 C   0  0  0  0  0  0  0  0  0  2  0  0
    1.3480    1.8901    0.1053 C   0  0  0  0  0  0  0  0  0  3  0  0
    1.9760    0.6577   -0.0342 C   0  0  0  0  0  0  0  0  0  4  0  0
    1.2188   -0.5078   -0.0673 C   0  0  0  0  0  0  0  0  0  5  0  0
   -0.1657   -0.4406    0.0392 C   0  0  0  0  0  0  0  0  0  6  0  0
    1.8487   -1.7452   -0.2073 N   0  0  0  0  0  0  0  0  0  7  0  0
    2.1066    3.0581    0.1384 N   0  0  0  0  0  0  0  0  0  8  0  0
    3.4254    2.9936    0.0370 O   0  0  0  0  0  0  0  0  0  9  0  0
    1.5081    4.2319    0.2713 O   0  0  0  0  0  0  0  0  0 10  0  0
   -2.1800    0.8597    0.2853 N   0  0  0  0  0  0  0  0  0 11  0  0
   -2.7768    2.0343    0.4182 O   0  0  0  0  0  0  0  0  0 12  0  0
   -2.9006   -0.2508    0.2538 O   0  0  0  0  0  0  0  0  0 13  0  0
 11 13  1  0
 11 12  1  0
  1 11  1  0
  8 10  1  0
  8  9  1  0
  3  8  1  0
  5  7  1  0
  6  1  4  0
  5  6  4  0
  4  5  4  0
  3  4  4  0
  2  3  4  0
  1  2  4  0
M  END
> <Name>
3,5-Dinitroaniline

> <CAS RN>
000618-87-1

> <Log Koc>
2.55

> <VP-0>
6.04011

> <nAromBond>
6

> <MAXDP>
3.25537

> <nHBAcc>
1

> <Splitting>
2

$$$$
4-Methylbenzamide
  SciTegic01221512053D

 10 10  0  0  0  0            999 V2000
    4.9128   -0.2966    0.6545 C   0  0  0  0  0  0  0  0  0  1  0  0
    3.4356   -0.1961    0.4104 C   0  0  0  0  0  0  0  0  0  2  0  0
    2.6935   -1.3443    0.1569 C   0  0  0  0  0  0  0  0  0  3  0  0
    1.3250   -1.2513   -0.0692 C   0  0  0  0  0  0  0  0  0  4  0  0
    0.6995   -0.0101   -0.0417 C   0  0  0  0  0  0  0  0  0  5  0  0
    1.4411    1.1382    0.2117 C   0  0  0  0  0  0  0  0  0  6  0  0
    2.8096    1.0451    0.4378 C   0  0  0  0  0  0  0  0  0  7  0  0
   -0.7373    0.0876   -0.2792 C   0  0  0  0  0  0  0  0  0  8  0  0
   -1.2936    1.1911   -0.2548 O   0  0  0  0  0  0  0  0  0  9  0  0
   -1.4818   -1.0653   -0.5335 N   0  0  0  0  0  0  0  0  0 10  0  0
  8 10  1  0
  8  9  2  0
  5  8  1  0
  7  2  4  0
  6  7  4  0
  5  6  4  0
  4  5  4  0
  3  4  4  0
  2  3  4  0
  1  2  1  0
M  END
> <Name>
4-Methylbenzamide

> <CAS RN>
000619-55-6

> <Log Koc>
1.78

> <VP-0>
5.795

> <nAromBond>
6

> <MAXDP>
3.53445

> <nHBAcc>
2

> <Splitting>
2

$$$$
4-Nitrobenzamide
  SciTegic01221512053D

 12 12  0  0  0  0            999 V2000
    1.3548   -1.0674   -0.4339 C   0  0  0  0  0  0  0  0  0  1  0  0
    0.6003    0.0131    0.0088 C   0  0  0  0  0  0  0  0  0  2  0  0
    1.2320    1.1713    0.4470 C   0  0  0  0  0  0  0  0  0  3  0  0
    2.6199    1.2492    0.4425 C   0  0  0  0  0  0  0  0  0  4  0  0
    3.3745    0.1687   -0.0002 C   0  0  0  0  0  0  0  0  0  5  0  0
    2.7427   -0.9895   -0.4384 C   0  0  0  0  0  0  0  0  0  6  0  0
    4.7657    0.2468   -0.0047 N   0  0  0  0  0  0  0  0  0  7  0  0
    5.3677    1.3500    0.4126 O   0  0  0  0  0  0  0  0  0  8  0  0
    5.4847   -0.7822   -0.4263 O   0  0  0  0  0  0  0  0  0  9  0  0
   -0.8571   -0.0688    0.0135 C   0  0  0  0  0  0  0  0  0 10  0  0
   -1.5282    0.8916    0.4070 O   0  0  0  0  0  0  0  0  0 11  0  0
   -1.4914   -1.2316   -0.4264 N   0  0  0  0  0  0  0  0  0 12  0  0
 10 12  1  0
 10 11  2  0
  2 10  1  0
  7  9  1  0
  7  8  1  0
  5  7  1  0
  6  1  4  0
  5  6  4  0
  4  5  4  0
  3  4  4  0
  2  3  4  0
  1  2  4  0
M  END
> <Name>
4-Nitrobenzamide

> <CAS RN>
000619-80-7

> <Log Koc>
1.93

> <VP-0>
5.91035

> <nAromBond>
6

> <MAXDP>
3.53445

> <nHBAcc>
2

> <Splitting>
2

$$$$
3-Bromoacetanilide
  SciTegic01221512053D

 11 11  0  0  0  0            999 V2000
    2.7965    1.0231   -0.0017 C   0  0  0  0  0  0  0  0  0  1  0  0
    1.4116    0.8937   -0.0009 C   0  0  0  0  0  0  0  0  0  2  0  0
    0.6219    2.0401    0.0001 C   0  0  0  0  0  0  0  0  0  3  0  0
    1.2087    3.3002    0.0002 C   0  0  0  0  0  0  0  0  0  4  0  0
    2.5929    3.4223   -0.0007 C   0  0  0  0  0  0  0  0  0  5  0  0
    3.3870    2.2818   -0.0016 C   0  0  0  0  0  0  0  0  0  6  0  0
    0.1171    4.8561    0.0015 Br  0  0  0  0  0  0  0  0  0  7  0  0
    0.8525   -0.4178   -0.0010 N   0  0  0  0  0  0  0  0  0  8  0  0
   -0.4605   -0.7040   -0.0002 C   0  0  0  0  0  0  0  0  0  9  0  0
   -1.3287    0.1761    0.0006 O   0  0  0  0  0  0  0  0  0 10  0  0
   -0.8874   -2.1425   -0.0005 C   0  0  0  0  0  0  0  0  0 11  0  0
  9 11  1  0
  9 10  2  0
  8  9  1  0
  2  8  1  0
  4  7  1  0
  6  1  4  0
  5  6  4  0
  4  5  4  0
  3  4  4  0
  2  3  4  0
  1  2  4  0
M  END
> <Name>
3-Bromoacetanilide

> <CAS RN>
000621-38-5

> <Log Koc>
2.01

> <VP-0>
7.68161

> <nAromBond>
6

> <MAXDP>
3.63243

> <nHBAcc>
2

> <Splitting>
2

$$$$
4-Ethyltoluene
  SciTegic01221512053D

  9  9  0  0  0  0            999 V2000
   -0.7675    0.8167   -0.0006 C   0  0  0  0  0  0  0  0  0  1  0  0
   -0.0658    2.0180   -0.0008 C   0  0  0  0  0  0  0  0  0  2  0  0
    1.3245    2.0128   -0.0001 C   0  0  0  0  0  0  0  0  0  3  0  0
    2.0147    0.8060    0.0009 C   0  0  0  0  0  0  0  0  0  4  0  0
    1.3146   -0.3951    0.0012 C   0  0  0  0  0  0  0  0  0  5  0  0
   -0.0757   -0.3894    0.0004 C   0  0  0  0  0  0  0  0  0  6  0  0
    3.5153    0.7999    0.0017 C   0  0  0  0  0  0  0  0  0  7  0  0
   -2.2750    0.8123   -0.0013 C   0  0  0  0  0  0  0  0  0  8  0  0
   -2.8180    2.2562   -0.0024 C   0  0  0  0  0  0  0  0  0  9  0  0
  8  9  1  0
  1  8  1  0
  4  7  1  0
  6  1  4  0
  5  6  4  0
  4  5  4  0
  3  4  4  0
  2  3  4  0
  1  2  4  0
M  END
> <Name>
4-Ethyltoluene

> <CAS RN>
000622-96-8

> <Log Koc>
3.62

> <VP-0>
6.01651

> <nAromBond>
6

> <MAXDP>
0.175926

> <nHBAcc>
0

> <Splitting>
2

$$$$
3,5-Dichloroaniline
  SciTegic01221512053D

  9  9  0  0  0  0            999 V2000
   -0.8720    0.8976    0.0002 C   0  0  0  0  0  0  0  0  0  1  0  0
   -0.1770    2.1017   -0.0002 C   0  0  0  0  0  0  0  0  0  2  0  0
    1.2134    2.1016   -0.0004 C   0  0  0  0  0  0  0  0  0  3  0  0
    1.9087    0.8977    0.0000 C   0  0  0  0  0  0  0  0  0  4  0  0
    1.2135   -0.3064    0.0005 C   0  0  0  0  0  0  0  0  0  5  0  0
   -0.1768   -0.3065    0.0006 C   0  0  0  0  0  0  0  0  0  6  0  0
    2.0774   -1.8026    0.0009 Cl  0  0  0  0  0  0  0  0  0  7  0  0
    1.9111    3.3103   -0.0008 N   0  0  0  0  0  0  0  0  0  8  0  0
   -2.5996    0.8975    0.0004 Cl  0  0  0  0  0  0  0  0  0  9  0  0
  1  9  1  0
  3  8  1  0
  5  7  1  0
  6  1  4  0
  5  6  4  0
  4  5  4  0
  3  4  4  0
  2  3  4  0
  1  2  4  0
M  END
> <Name>
3,5-Dichloroaniline

> <CAS RN>
000626-43-7

> <Log Koc>
2.44

> <VP-0>
6.07719

> <nAromBond>
6

> <MAXDP>
1.61179

> <nHBAcc>
1

> <Splitting>
2

$$$$
1,1,1,2-Tetrachloroethane
  SciTegic01221512053D

  6  5  0  0  0  0            999 V2000
   -0.1028   -0.0837   -0.0979 C   0  0  0  0  0  0  0  0  0  1  0  0
    1.4265   -0.2566   -0.0784 C   0  0  0  0  0  0  0  0  0  2  0  0
    2.0704    0.3885    1.4347 Cl  0  0  0  0  0  0  0  0  0  3  0  0
   -0.5020    1.6326    0.0305 Cl  0  0  0  0  0  0  0  0  0  4  0  0
   -0.8104   -0.9565    1.2656 Cl  0  0  0  0  0  0  0  0  0  5  0  0
   -0.7499   -0.7282   -1.6105 Cl  0  0  0  0  0  0  0  0  0  6  0  0
  1  6  1  0
  1  5  1  0
  1  4  1  0
  2  3  1  0
  1  2  1  0
M  END
> <Name>
1,1,1,2-Tetrachloroethane

> <CAS RN>
000630-20-6

> <Log Koc>
1.73

> <VP-0>
5.74268

> <nAromBond>
0

> <MAXDP>
0.152521

> <nHBAcc>
0

> <Splitting>
2

$$$$
Tetrachlorophthalate
  SciTegic01221512053D

 16 16  0  0  0  0            999 V2000
    3.5473   -0.0977    0.0004 C   0  0  0  0  0  0  0  0  0  1  0  0
    2.8524   -1.2900   -0.0001 C   0  0  0  0  0  0  0  0  0  2  0  0
    1.4673   -1.2850   -0.0002 C   0  0  0  0  0  0  0  0  0  3  0  0
    0.7441   -0.0832    0.0001 C   0  0  0  0  0  0  0  0  0  4  0  0
    1.4576    1.1402    0.0006 C   0  0  0  0  0  0  0  0  0  5  0  0
    2.8590    1.1038    0.0007 C   0  0  0  0  0  0  0  0  0  6  0  0
    3.8201    2.5473    0.0013 Cl  0  0  0  0  0  0  0  0  0  7  0  0
    0.8150    2.5406    0.0010 C   0  0  0  0  0  0  0  0  0  8  0  0
    1.5300    3.5453    0.0013 O   0  0  0  0  0  0  0  0  0  9  0  0
   -0.5392    2.7649    0.0009 O   0  0  0  0  0  0  0  0  0 10  0  0
   -0.7885   -0.1930   -0.0001 C   0  0  0  0  0  0  0  0  0 11  0  0
   -1.5253    0.7874    0.0001 O   0  0  0  0  0  0  0  0  0 12  0  0
   -1.4155   -1.4281   -0.0006 O   0  0  0  0  0  0  0  0  0 13  0  0
    0.6947   -2.8358   -0.0008 Cl  0  0  0  0  0  0  0  0  0 14  0  0
    3.7100   -2.7891   -0.0004 Cl  0  0  0  0  0  0  0  0  0 15  0  0
    5.2744   -0.1040    0.0006 Cl  0  0  0  0  0  0  0  0  0 16  0  0
  1 16  1  0
  2 15  1  0
  3 14  1  0
 11 13  1  0
 11 12  2  0
  4 11  1  0
  8 10  1  0
  8  9  2  0
  5  8  1  0
  6  7  1  0
  6  1  4  0
  5  6  4  0
  4  5  4  0
  3  4  4  0
  2  3  4  0
  1  2  4  0
M  END
> <Name>
Tetrachlorophthalate

> <CAS RN>
000632-58-6

> <Log Koc>
3.3

> <VP-0>
10.2465

> <nAromBond>
6

> <MAXDP>
4.17533

> <nHBAcc>
4

> <Splitting>
2

$$$$
1,2,3,4-Tetrachlorobenzene
  SciTegic01221512053D

 10 10  0  0  0  0            999 V2000
   -1.0575    0.9630    0.0022 C   0  0  0  0  0  0  0  0  0  1  0  0
   -0.3619    2.1668    0.0015 C   0  0  0  0  0  0  0  0  0  2  0  0
    1.0284    2.1661    0.0004 C   0  0  0  0  0  0  0  0  0  3  0  0
    1.7231    0.9620    0.0000 C   0  0  0  0  0  0  0  0  0  4  0  0
    1.0277   -0.2417    0.0008 C   0  0  0  0  0  0  0  0  0  5  0  0
   -0.3625   -0.2412    0.0019 C   0  0  0  0  0  0  0  0  0  6  0  0
   -1.2258   -1.7376    0.0028 Cl  0  0  0  0  0  0  0  0  0  7  0  0
    1.8909   -1.7378    0.0003 Cl  0  0  0  0  0  0  0  0  0  8  0  0
    3.4504    0.9613   -0.0014 Cl  0  0  0  0  0  0  0  0  0  9  0  0
    1.8937    3.6613   -0.0006 Cl  0  0  0  0  0  0  0  0  0 10  0  0
  3 10  1  0
  4  9  1  0
  5  8  1  0
  6  7  1  0
  6  1  4  0
  5  6  4  0
  4  5  4  0
  3  4  4  0
  2  3  4  0
  1  2  4  0
M  END
> <Name>
1,2,3,4-Tetrachlorobenzene

> <CAS RN>
000634-66-2

> <Log Koc>
3.76

> <VP-0>
7.69027

> <nAromBond>
6

> <MAXDP>
0.358906

> <nHBAcc>
0

> <Splitting>
2

$$$$
2,3,4-Trichloroaniline
  SciTegic01221512053D

 10 10  0  0  0  0            999 V2000
   -2.3875    0.5294    0.7170 Cl  0  0  0  0  0  0  0  0  0  1  0  0
   -0.7211    0.5657    0.2630 C   0  0  0  0  0  0  0  0  0  2  0  0
    0.0225    1.7264    0.4433 C   0  0  0  0  0  0  0  0  0  3  0  0
   -0.7199    3.1312    1.1207 Cl  0  0  0  0  0  0  0  0  0  4  0  0
    1.3634    1.7565    0.0783 C   0  0  0  0  0  0  0  0  0  5  0  0
    1.9609    0.6259   -0.4670 C   0  0  0  0  0  0  0  0  0  6  0  0
    1.2175   -0.5351   -0.6473 C   0  0  0  0  0  0  0  0  0  7  0  0
   -0.1237   -0.5652   -0.2822 C   0  0  0  0  0  0  0  0  0  8  0  0
    3.3071    0.6568   -0.8332 N   0  0  0  0  0  0  0  0  0  9  0  0
    2.2871    3.1987    0.3022 Cl  0  0  0  0  0  0  0  0  0 10  0  0
  5 10  1  0
  6  9  1  0
  8  2  4  0
  7  8  4  0
  6  7  4  0
  5  6  4  0
  3  5  4  0
  3  4  1  0
  2  3  4  0
  1  2  1  0
M  END
> <Name>
2,3,4-Trichloroaniline

> <CAS RN>
000634-67-3

> <Log Koc>
2.63

> <VP-0>
7.13373

> <nAromBond>
6

> <MAXDP>
1.77478

> <nHBAcc>
1

> <Splitting>
2

$$$$
2,3,4,5-Tetrachloroaniline
  SciTegic01221512053D

 11 11  0  0  0  0            999 V2000
   -2.3874    1.7982   -0.0540 Cl  0  0  0  0  0  0  0  0  0  1  0  0
   -0.7142    1.3838    0.0589 C   0  0  0  0  0  0  0  0  0  2  0  0
    0.2043    2.3190    0.5221 C   0  0  0  0  0  0  0  0  0  3  0  0
    1.5507    1.9843    0.6125 C   0  0  0  0  0  0  0  0  0  4  0  0
    2.4735    2.9221    1.0773 N   0  0  0  0  0  0  0  0  0  5  0  0
    1.9782    0.7151    0.2398 C   0  0  0  0  0  0  0  0  0  6  0  0
    1.0596   -0.2198   -0.2234 C   0  0  0  0  0  0  0  0  0  7  0  0
   -0.2866    0.1146   -0.3138 C   0  0  0  0  0  0  0  0  0  8  0  0
   -1.4281   -1.0469   -0.8892 Cl  0  0  0  0  0  0  0  0  0  9  0  0
    1.5908   -1.7967   -0.6864 Cl  0  0  0  0  0  0  0  0  0 10  0  0
    3.6510    0.2995    0.3521 Cl  0  0  0  0  0  0  0  0  0 11  0  0
  6 11  1  0
  7 10  1  0
  8  9  1  0
  8  2  4  0
  7  8  4  0
  6  7  4  0
  4  6  4  0
  4  5  1  0
  3  4  4  0
  2  3  4  0
  1  2  1  0
M  END
> <Name>
2,3,4,5-Tetrachloroaniline

> <CAS RN>
000634-83-3

> <Log Koc>
3.04

> <VP-0>
8.19027

> <nAromBond>
6

> <MAXDP>
1.90179

> <nHBAcc>
1

> <Splitting>
1

$$$$
1,2,3,5-Tetrachlorobenzene
  SciTegic01221512053D

 10 10  0  0  0  0            999 V2000
   -1.0015    0.8661   -0.0009 C   0  0  0  0  0  0  0  0  0  1  0  0
   -0.3066    2.0703   -0.0007 C   0  0  0  0  0  0  0  0  0  2  0  0
    1.0837    2.0701   -0.0005 C   0  0  0  0  0  0  0  0  0  3  0  0
    1.7786    0.8661   -0.0004 C   0  0  0  0  0  0  0  0  0  4  0  0
    1.0837   -0.3379   -0.0006 C   0  0  0  0  0  0  0  0  0  5  0  0
   -0.3066   -0.3381   -0.0008 C   0  0  0  0  0  0  0  0  0  6  0  0
    1.9484   -1.8333   -0.0005 Cl  0  0  0  0  0  0  0  0  0  7  0  0
    3.5060    0.8661   -0.0001 Cl  0  0  0  0  0  0  0  0  0  8  0  0
    1.9484    3.5656   -0.0003 Cl  0  0  0  0  0  0  0  0  0  9  0  0
   -2.7292    0.8661   -0.0012 Cl  0  0  0  0  0  0  0  0  0 10  0  0
  1 10  1  0
  3  9  1  0
  4  8  1  0
  5  7  1  0
  6  1  4  0
  5  6  4  0
  4  5  4  0
  3  4  4  0
  2  3  4  0
  1  2  4  0
M  END
> <Name>
1,2,3,5-Tetrachlorobenzene

> <CAS RN>
000634-90-2

> <Log Koc>
3.35

> <VP-0>
7.69027

> <nAromBond>
6

> <MAXDP>
0.43701

> <nHBAcc>
0

> <Splitting>
2

$$$$
3-Nitrobenzamide
  SciTegic01221512053D

 12 12  0  0  0  0            999 V2000
   -1.6210    1.2776    1.4112 C   0  0  0  0  0  0  0  0  0  1  0  0
   -1.9534    2.4282    1.7169 O   0  0  0  0  0  0  0  0  0  2  0  0
   -0.3492    1.0416    0.7355 C   0  0  0  0  0  0  0  0  0  3  0  0
    0.4869    2.1110    0.4366 C   0  0  0  0  0  0  0  0  0  4  0  0
    1.6981    1.8855   -0.2070 C   0  0  0  0  0  0  0  0  0  5  0  0
    2.0734    0.5920   -0.5515 C   0  0  0  0  0  0  0  0  0  6  0  0
    1.2367   -0.4772   -0.2522 C   0  0  0  0  0  0  0  0  0  7  0  0
    0.0251   -0.2524    0.3915 C   0  0  0  0  0  0  0  0  0  8  0  0
    2.5364    2.9571   -0.5069 N   0  0  0  0  0  0  0  0  0  9  0  0
    3.6904    2.7428   -1.1200 O   0  0  0  0  0  0  0  0  0 10  0  0
    2.1783    4.1889   -0.1784 O   0  0  0  0  0  0  0  0  0 11  0  0
   -2.4607    0.2040    1.7115 N   0  0  0  0  0  0  0  0  0 12  0  0
  1 12  1  0
  9 11  1  0
  9 10  1  0
  5  9  1  0
  8  3  4  0
  7  8  4  0
  6  7  4  0
  5  6  4  0
  4  5  4  0
  3  4  4  0
  1  3  1  0
  1  2  2  0
M  END
> <Name>
3-Nitrobenzamide

> <CAS RN>
000645-09-0

> <Log Koc>
1.95

> <VP-0>
5.91035

> <nAromBond>
6

> <MAXDP>
3.57537

> <nHBAcc>
2

> <Splitting>
1

$$$$
Pentafluorophenyl methyl sufone
  SciTegic01221512053D

 15 15  0  0  0  0            999 V2000
    3.0245    1.1974    0.0278 C   0  0  0  0  0  0  0  0  0  1  0  0
    3.6937    0.0000   -0.1940 C   0  0  0  0  0  0  0  0  0  2  0  0
    2.9767   -1.1851   -0.3038 C   0  0  0  0  0  0  0  0  0  3  0  0
    1.5917   -1.1728   -0.1923 C   0  0  0  0  0  0  0  0  0  4  0  0
    0.9199    0.0248    0.0301 C   0  0  0  0  0  0  0  0  0  5  0  0
    1.6392    1.2112    0.1403 C   0  0  0  0  0  0  0  0  0  6  0  0
    1.0060    2.3711    0.3550 F   0  0  0  0  0  0  0  0  0  7  0  0
   -0.8522    0.0253    0.1714 S   0  0  0  0  0  0  0  0  0  8  0  0
   -1.4013    1.4377    0.1064 O   0  0  0  0  0  0  0  0  0  9  0  0
   -1.4431   -0.8207   -0.9403 O   0  0  0  0  0  0  0  0  0 10  0  0
   -1.3128   -0.7246    1.7535 C   0  0  0  0  0  0  0  0  0 11  0  0
    0.9059   -2.3193   -0.3000 F   0  0  0  0  0  0  0  0  0 12  0  0
    3.6211   -2.3402   -0.5174 F   0  0  0  0  0  0  0  0  0 13  0  0
    5.0291   -0.0118   -0.3019 F   0  0  0  0  0  0  0  0  0 14  0  0
    3.7157    2.3404    0.1335 F   0  0  0  0  0  0  0  0  0 15  0  0
  1 15  1  0
  2 14  1  0
  3 13  1  0
  4 12  1  0
  8 11  1  0
  8 10  2  0
  8  9  2  0
  5  8  1  0
  6  7  1  0
  6  1  4  0
  5  6  4  0
  4  5  4  0
  3  4  4  0
  2  3  4  0
  1  2  4  0
M  END
> <Name>
Pentafluorophenyl methyl sufone

> <CAS RN>
000651-85-4

> <Log Koc>
1.46

> <VP-0>
7.31831

> <nAromBond>
6

> <MAXDP>
4.83549

> <nHBAcc>
2

> <Splitting>
2

$$$$
2-Fluorophenylurea
  SciTegic01221512053D

 11 11  0  0  0  0            999 V2000
    2.8255    1.1042   -0.0928 C   0  0  0  0  0  0  0  0  0  1  0  0
    1.4445    1.0277    0.0620 C   0  0  0  0  0  0  0  0  0  2  0  0
    0.7151    2.2161    0.1937 C   0  0  0  0  0  0  0  0  0  3  0  0
    1.3731    3.4412    0.1592 C   0  0  0  0  0  0  0  0  0  4  0  0
    2.7507    3.5036   -0.0043 C   0  0  0  0  0  0  0  0  0  5  0  0
    3.4795    2.3294   -0.1285 C   0  0  0  0  0  0  0  0  0  6  0  0
   -0.6065    2.2308    0.3702 F   0  0  0  0  0  0  0  0  0  7  0  0
    0.8811   -0.3016    0.0866 N   0  0  0  0  0  0  0  0  0  8  0  0
   -0.4676   -0.6907   -0.1478 C   0  0  0  0  0  0  0  0  0  9  0  0
   -1.3429    0.1203   -0.4591 O   0  0  0  0  0  0  0  0  0 10  0  0
   -0.8072   -2.0402   -0.0409 N   0  0  0  0  0  0  0  0  0 11  0  0
  9 11  1  0
  9 10  2  0
  8  9  1  0
  2  8  1  0
  3  7  1  0
  6  1  4  0
  5  6  4  0
  4  5  4  0
  3  4  4  0
  2  3  4  0
  1  2  4  0
M  END
> <Name>
2-Fluorophenylurea

> <CAS RN>
000656-31-5

> <Log Koc>
1.32

> <VP-0>
5.67296

> <nAromBond>
6

> <MAXDP>
4.67968

> <nHBAcc>
3

> <Splitting>
2

$$$$
4-Fluorophenylurea
  SciTegic01221512053D

 11 11  0  0  0  0            999 V2000
    2.4833    3.4823    0.0002 C   0  0  0  0  0  0  0  0  0  1  0  0
    3.2961    2.3550    0.0001 C   0  0  0  0  0  0  0  0  0  2  0  0
    2.7258    1.0871    0.0000 C   0  0  0  0  0  0  0  0  0  3  0  0
    1.3430    0.9373    0.0000 C   0  0  0  0  0  0  0  0  0  4  0  0
    0.5342    2.0701    0.0001 C   0  0  0  0  0  0  0  0  0  5  0  0
    1.1009    3.3394    0.0002 C   0  0  0  0  0  0  0  0  0  6  0  0
    0.8006   -0.3768    0.0000 N   0  0  0  0  0  0  0  0  0  7  0  0
   -0.5874   -0.6797    0.0000 C   0  0  0  0  0  0  0  0  0  8  0  0
   -1.4510    0.2049    0.0001 O   0  0  0  0  0  0  0  0  0  9  0  0
   -0.9880   -2.0169   -0.0001 N   0  0  0  0  0  0  0  0  0 10  0  0
    3.0318    4.7056    0.0002 F   0  0  0  0  0  0  0  0  0 11  0  0
  1 11  1  0
  8 10  1  0
  8  9  2  0
  7  8  1  0
  4  7  1  0
  6  1  4  0
  5  6  4  0
  4  5  4  0
  3  4  4  0
  2  3  4  0
  1  2  4  0
M  END
> <Name>
4-Fluorophenylurea

> <CAS RN>
000659-30-3

> <Log Koc>
1.52

> <VP-0>
5.67296

> <nAromBond>
6

> <MAXDP>
4.28015

> <nHBAcc>
3

> <Splitting>
1

$$$$
Simatone
  SciTegic01221512053D

 14 14  0  0  0  0            999 V2000
   -0.6570    0.9622   -0.2884 N   0  0  0  0  0  0  0  0  0  1  0  0
    0.1334    2.0270   -0.3056 C   0  0  0  0  0  0  0  0  0  2  0  0
    1.4476    1.8768   -0.2027 N   0  0  0  0  0  0  0  0  0  3  0  0
    1.9709    0.6642   -0.0811 C   0  0  0  0  0  0  0  0  0  4  0  0
    1.1787   -0.3999   -0.0630 N   0  0  0  0  0  0  0  0  0  5  0  0
   -0.1357   -0.2518   -0.1660 C   0  0  0  0  0  0  0  0  0  6  0  0
   -0.9655   -1.3796   -0.1486 N   0  0  0  0  0  0  0  0  0  7  0  0
   -2.3950   -1.2405   -0.2239 C   0  0  0  0  0  0  0  0  0  8  0  0
   -2.9508   -0.7745    1.1380 C   0  0  0  0  0  0  0  0  0  9  0  0
    3.3530    0.5138    0.0269 O   0  0  0  0  0  0  0  0  0 10  0  0
    3.6871   -0.8726    0.1471 C   0  0  0  0  0  0  0  0  0 11  0  0
   -0.4252    3.3046   -0.4362 N   0  0  0  0  0  0  0  0  0 12  0  0
    0.4085    4.4768   -0.4195 C   0  0  0  0  0  0  0  0  0 13  0  0
    0.8691    4.7755    1.0229 C   0  0  0  0  0  0  0  0  0 14  0  0
 13 14  1  0
 12 13  1  0
  2 12  1  0
 10 11  1  0
  4 10  1  0
  8  9  1  0
  7  8  1  0
  6  7  1  0
  6  1  4  0
  5  6  4  0
  4  5  4  0
  3  4  4  0
  2  3  4  0
  1  2  4  0
M  END
> <Name>
Simatone

> <CAS RN>
000673-04-1

> <Log Koc>
2.34

> <VP-0>
8.6641

> <nAromBond>
6

> <MAXDP>
1.44595

> <nHBAcc>
5

> <Splitting>
2

$$$$
Diethylacetamide
  SciTegic01221512053D

  8  7  0  0  0  0            999 V2000
   -0.1115   -1.1220    0.5858 O   0  0  0  0  0  0  0  0  0  1  0  0
    0.8193   -0.3219    0.4401 C   0  0  0  0  0  0  0  0  0  2  0  0
    1.6526    0.0685    1.6362 C   0  0  0  0  0  0  0  0  0  3  0  0
    1.1134    0.1689   -0.8518 N   0  0  0  0  0  0  0  0  0  4  0  0
    2.2087    1.1085   -1.0564 C   0  0  0  0  0  0  0  0  0  5  0  0
    1.7100    2.5804   -0.9383 C   0  0  0  0  0  0  0  0  0  6  0  0
    0.3114   -0.3072   -1.9707 C   0  0  0  0  0  0  0  0  0  7  0  0
    0.9534    0.0205   -3.3416 C   0  0  0  0  0  0  0  0  0  8  0  0
  7  8  1  0
  4  7  1  0
  5  6  1  0
  4  5  1  0
  2  4  1  0
  2  3  1  0
  1  2  2  0
M  END
> <Name>
Diethylacetamide

> <CAS RN>
000685-91-6

> <Log Koc>
1.84

> <VP-0>
5.76968

> <nAromBond>
0

> <MAXDP>
3.53194

> <nHBAcc>
2

> <Splitting>
1

$$$$
2,3,5-Trimethylphenol
  SciTegic01221512053D

 10 10  0  0  0  0            999 V2000
   -0.8088    0.8558   -0.0009 C   0  0  0  0  0  0  0  0  0  1  0  0
   -0.1128    2.0609   -0.0012 C   0  0  0  0  0  0  0  0  0  2  0  0
    1.2775    2.0592   -0.0009 C   0  0  0  0  0  0  0  0  0  3  0  0
    1.9725    0.8553   -0.0003 C   0  0  0  0  0  0  0  0  0  4  0  0
    1.2776   -0.3486    0.0000 C   0  0  0  0  0  0  0  0  0  5  0  0
   -0.1126   -0.3477   -0.0003 C   0  0  0  0  0  0  0  0  0  6  0  0
   -0.8078   -1.5518    0.0000 O   0  0  0  0  0  0  0  0  0  7  0  0
    3.4727    0.8554    0.0000 C   0  0  0  0  0  0  0  0  0  8  0  0
   -0.8565    3.3673   -0.0018 C   0  0  0  0  0  0  0  0  0  9  0  0
   -2.3121    0.8470   -0.0012 C   0  0  0  0  0  0  0  0  0 10  0  0
  1 10  1  0
  2  9  1  0
  4  8  1  0
  6  7  1  0
  6  1  4  0
  5  6  4  0
  4  5  4  0
  3  4  4  0
  2  3  4  0
  1  2  4  0
M  END
> <Name>
2,3,5-Trimethylphenol

> <CAS RN>
000697-82-5

> <Log Koc>
3.61

> <VP-0>
6.60191

> <nAromBond>
6

> <MAXDP>
3.28093

> <nHBAcc>
0

> <Splitting>
2

$$$$
Propanil
  SciTegic01221512053D

 13 13  0  0  0  0            999 V2000
    2.6571    1.1258   -0.0019 C   0  0  0  0  0  0  0  0  0  1  0  0
    1.2706    1.0157   -0.0006 C   0  0  0  0  0  0  0  0  0  2  0  0
    0.4965    2.1729    0.0010 C   0  0  0  0  0  0  0  0  0  3  0  0
    1.1001    3.4251    0.0014 C   0  0  0  0  0  0  0  0  0  4  0  0
    2.4859    3.5272    0.0002 C   0  0  0  0  0  0  0  0  0  5  0  0
    3.2645    2.3763   -0.0015 C   0  0  0  0  0  0  0  0  0  6  0  0
    4.9876    2.5002   -0.0031 Cl  0  0  0  0  0  0  0  0  0  7  0  0
    3.2400    5.0814    0.0007 Cl  0  0  0  0  0  0  0  0  0  8  0  0
    0.6940   -0.2880   -0.0011 N   0  0  0  0  0  0  0  0  0  9  0  0
   -0.6225   -0.5565    0.0000 C   0  0  0  0  0  0  0  0  0 10  0  0
   -1.4787    0.3355    0.0015 O   0  0  0  0  0  0  0  0  0 11  0  0
   -1.0681   -1.9893   -0.0007 C   0  0  0  0  0  0  0  0  0 12  0  0
   -2.6067   -2.0496    0.0007 C   0  0  0  0  0  0  0  0  0 13  0  0
 12 13  1  0
 10 12  1  0
 10 11  2  0
  9 10  1  0
  2  9  1  0
  5  8  1  0
  6  7  1  0
  6  1  4  0
  5  6  4  0
  4  5  4  0
  3  4  4  0
  2  3  4  0
  1  2  4  0
M  END
> <Name>
Propanil

> <CAS RN>
000709-98-8

> <Log Koc>
2.18

> <VP-0>
8.61519

> <nAromBond>
6

> <MAXDP>
4.0899

> <nHBAcc>
2

> <Splitting>
2

$$$$
Anthracene-9-carboxylic acid
  SciTegic01221512053D

 17 19  0  0  0  0            999 V2000
   -2.9123    3.8472    1.3098 C   0  0  0  0  0  0  0  0  0  1  0  0
   -3.5638    2.6595    1.0079 C   0  0  0  0  0  0  0  0  0  2  0  0
   -2.8351    1.5652    0.5578 C   0  0  0  0  0  0  0  0  0  3  0  0
   -1.4529    1.6309    0.4004 C   0  0  0  0  0  0  0  0  0  4  0  0
   -0.8117    2.8289    0.7070 C   0  0  0  0  0  0  0  0  0  5  0  0
   -1.5346    3.9278    1.1579 C   0  0  0  0  0  0  0  0  0  6  0  0
    0.5613    2.9441    0.5669 C   0  0  0  0  0  0  0  0  0  7  0  0
    1.3020    1.8627    0.1195 C   0  0  0  0  0  0  0  0  0  8  0  0
    0.6742    0.6582   -0.1909 C   0  0  0  0  0  0  0  0  0  9  0  0
   -0.7161    0.5265   -0.0539 C   0  0  0  0  0  0  0  0  0 10  0  0
   -1.4278   -0.8040   -0.3945 C   0  0  0  0  0  0  0  0  0 11  0  0
   -2.6517   -0.9274   -0.2764 O   0  0  0  0  0  0  0  0  0 12  0  0
   -0.7317   -1.9235   -0.8486 O   0  0  0  0  0  0  0  0  0 13  0  0
    1.4636   -0.3984   -0.6366 C   0  0  0  0  0  0  0  0  0 14  0  0
    2.8402   -0.2660   -0.7716 C   0  0  0  0  0  0  0  0  0 15  0  0
    3.4528    0.9394   -0.4589 C   0  0  0  0  0  0  0  0  0 16  0  0
    2.6791    2.0024   -0.0132 C   0  0  0  0  0  0  0  0  0 17  0  0
 17  8  4  0
 16 17  4  0
 15 16  4  0
 14 15  4  0
  9 14  4  0
 11 13  1  0
 11 12  2  0
 10 11  1  0
 10  4  4  0
  9 10  4  0
  8  9  4  0
  7  8  4  0
  5  7  4  0
  6  1  4  0
  5  6  4  0
  4  5  4  0
  3  4  4  0
  2  3  4  0
  1  2  4  0
M  END
> <Name>
Anthracene-9-carboxylic acid

> <CAS RN>
000723-62-6

> <Log Koc>
2.69

> <VP-0>
9.05161

> <nAromBond>
16

> <MAXDP>
4.4289

> <nHBAcc>
2

> <Splitting>
2

$$$$
Phosmet
  SciTegic01221512053D

 19 20  0  0  0  0            999 V2000
   -3.0736   -1.6487    2.7122 C   0  0  0  0  0  0  0  0  0  1  0  0
   -3.4412   -2.2265    1.4489 O   0  0  0  0  0  0  0  0  0  2  0  0
   -2.9004   -1.3455    0.2893 P   0  0  0  0  0  0  0  0  0  3  0  0
   -3.4307   -1.9744   -1.2083 S   0  0  0  0  0  0  0  0  0  4  0  0
   -1.3439   -1.3259    0.3017 O   0  0  0  0  0  0  0  0  0  5  0  0
   -0.8249   -2.6318    0.0113 C   0  0  0  0  0  0  0  0  0  6  0  0
   -3.5744    0.4544    0.4903 S   0  0  0  0  0  0  0  0  0  7  0  0
   -2.8229    1.4777   -0.7930 C   0  0  0  0  0  0  0  0  0  8  0  0
   -1.4115    1.5549   -0.5487 N   0  0  0  0  0  0  0  0  0  9  0  0
   -0.7868    1.5965    0.7246 C   0  0  0  0  0  0  0  0  0 10  0  0
   -1.3519    1.5843    1.8236 O   0  0  0  0  0  0  0  0  0 11  0  0
    0.6442    1.6336    0.5034 C   0  0  0  0  0  0  0  0  0 12  0  0
    0.8749    1.6275   -0.8533 C   0  0  0  0  0  0  0  0  0 13  0  0
   -0.4069    1.5882   -1.5372 C   0  0  0  0  0  0  0  0  0 14  0  0
   -0.5833    1.5622   -2.7598 O   0  0  0  0  0  0  0  0  0 15  0  0
    2.1563    1.6528   -1.3793 C   0  0  0  0  0  0  0  0  0 16  0  0
    3.2103    1.6858   -0.4659 C   0  0  0  0  0  0  0  0  0 17  0  0
    2.9751    1.6929    0.9137 C   0  0  0  0  0  0  0  0  0 18  0  0
    1.6777    1.6664    1.4252 C   0  0  0  0  0  0  0  0  0 19  0  0
 19 12  4  0
 18 19  4  0
 17 18  4  0
 16 17  4  0
 13 16  4  0
 14 15  2  0
 14  9  1  0
 13 14  1  0
 12 13  4  0
 10 12  1  0
 10 11  2  0
  9 10  1  0
  8  9  1  0
  7  8  1  0
  3  7  1  0
  5  6  1  0
  3  5  1  0
  3  4  2  0
  2  3  1  0
  1  2  1  0
M  END
> <Name>
Phosmet

> <CAS RN>
000732-11-6

> <Log Koc>
2.85

> <VP-0>
12.8878

> <nAromBond>
6

> <MAXDP>
5.19866

> <nHBAcc>
5

> <Splitting>
2

$$$$
Bensulide
  SciTegic01221512053D

 23 23  0  0  0  0            999 V2000
   -4.0365   -2.9288   -0.3291 C   0  0  0  0  0  0  0  0  0  1  0  0
   -3.5960   -2.0835   -1.3380 C   0  0  0  0  0  0  0  0  0  2  0  0
   -2.2482   -1.7461   -1.4205 C   0  0  0  0  0  0  0  0  0  3  0  0
   -1.3390   -2.2447   -0.4969 C   0  0  0  0  0  0  0  0  0  4  0  0
   -1.7854   -3.0954    0.5127 C   0  0  0  0  0  0  0  0  0  5  0  0
   -3.1286   -3.4364    0.5956 C   0  0  0  0  0  0  0  0  0  6  0  0
    0.4024   -1.8265   -0.5735 S   0  0  0  0  0  0  0  0  0  7  0  0
    1.0833   -2.3463    0.6780 O   0  0  0  0  0  0  0  0  0  8  0  0
    1.0160   -2.4903   -1.7912 O   0  0  0  0  0  0  0  0  0  9  0  0
    0.6691   -0.0944   -0.7049 N   0  0  0  0  0  0  0  0  0 10  0  0
    0.1669    0.4255   -1.9795 C   0  0  0  0  0  0  0  0  0 11  0  0
    0.3206    1.9561   -2.0634 C   0  0  0  0  0  0  0  0  0 12  0  0
   -0.6271    2.8272   -0.7681 S   0  0  0  0  0  0  0  0  0 13  0  0
    0.1742    2.5867    0.9853 P   0  0  0  0  0  0  0  0  0 14  0  0
   -0.4868    3.7454    2.0562 S   0  0  0  0  0  0  0  0  0 15  0  0
    1.6908    2.9385    0.7878 O   0  0  0  0  0  0  0  0  0 16  0  0
    2.4374    3.0346    2.0246 C   0  0  0  0  0  0  0  0  0 17  0  0
    2.5945    1.6667    2.7197 C   0  0  0  0  0  0  0  0  0 18  0  0
    3.8414    3.5780    1.7096 C   0  0  0  0  0  0  0  0  0 19  0  0
   -0.0048    1.0828    1.5055 O   0  0  0  0  0  0  0  0  0 20  0  0
   -1.3088    0.6965    2.0759 C   0  0  0  0  0  0  0  0  0 21  0  0
   -2.5099    1.0063    1.1642 C   0  0  0  0  0  0  0  0  0 22  0  0
   -1.5412    1.2354    3.5050 C   0  0  0  0  0  0  0  0  0 23  0  0
 21 23  1  0
 21 22  1  0
 20 21  1  0
 14 20  1  0
 17 19  1  0
 17 18  1  0
 16 17  1  0
 14 16  1  0
 14 15  2  0
 13 14  1  0
 12 13  1  0
 11 12  1  0
 10 11  1  0
  7 10  1  0
  7  9  2  0
  7  8  2  0
  4  7  1  0
  6  1  4  0
  5  6  4  0
  4  5  4  0
  3  4  4  0
  2  3  4  0
  1  2  4  0
M  END
> <Name>
Bensulide

> <CAS RN>
000741-58-2

> <Log Koc>
3.5

> <VP-0>
16.4918

> <nAromBond>
6

> <MAXDP>
5.34056

> <nHBAcc>
5

> <Splitting>
2

$$$$
EPTC
  SciTegic01221512053D

 12 11  0  0  0  0            999 V2000
    2.6112    2.4352   -0.4400 C   0  0  0  0  0  0  0  0  0  1  0  0
    3.0353    0.9566   -0.3418 C   0  0  0  0  0  0  0  0  0  2  0  0
    1.7887    0.0257    0.5844 S   0  0  0  0  0  0  0  0  0  3  0  0
    0.2414    0.0657   -0.2786 C   0  0  0  0  0  0  0  0  0  4  0  0
    0.1890    0.5628   -1.4098 O   0  0  0  0  0  0  0  0  0  5  0  0
   -0.9110   -0.4803    0.3454 N   0  0  0  0  0  0  0  0  0  6  0  0
   -2.2326   -0.4620   -0.3107 C   0  0  0  0  0  0  0  0  0  7  0  0
   -2.6232    0.9268   -0.8919 C   0  0  0  0  0  0  0  0  0  8  0  0
   -2.7555    1.9685    0.2416 C   0  0  0  0  0  0  0  0  0  9  0  0
   -0.7509   -1.0621    1.6773 C   0  0  0  0  0  0  0  0  0 10  0  0
   -1.7839   -2.1789    2.0085 C   0  0  0  0  0  0  0  0  0 11  0  0
   -1.4834   -3.4751    1.2060 C   0  0  0  0  0  0  0  0  0 12  0  0
 11 12  1  0
 10 11  1  0
  6 10  1  0
  8  9  1  0
  7  8  1  0
  6  7  1  0
  4  6  1  0
  4  5  2  0
  3  4  1  0
  2  3  1  0
  1  2  1  0
M  END
> <Name>
EPTC

> <CAS RN>
000759-94-4

> <Log Koc>
2.38

> <VP-0>
9.11574

> <nAromBond>
0

> <MAXDP>
4.54368

> <nHBAcc>
2

> <Splitting>
2

$$$$
3-Fluorophenylurea
  SciTegic01221512053D

 11 11  0  0  0  0            999 V2000
    1.1684    3.3305    0.0002 C   0  0  0  0  0  0  0  0  0  1  0  0
    2.5505    3.4756    0.0007 C   0  0  0  0  0  0  0  0  0  2  0  0
    3.3639    2.3488    0.0010 C   0  0  0  0  0  0  0  0  0  3  0  0
    2.7949    1.0803    0.0007 C   0  0  0  0  0  0  0  0  0  4  0  0
    1.4123    0.9288    0.0002 C   0  0  0  0  0  0  0  0  0  5  0  0
    0.6026    2.0608   -0.0001 C   0  0  0  0  0  0  0  0  0  6  0  0
    0.8709   -0.3856   -0.0001 N   0  0  0  0  0  0  0  0  0  7  0  0
   -0.5169   -0.6892   -0.0006 C   0  0  0  0  0  0  0  0  0  8  0  0
   -1.3811    0.1949   -0.0009 O   0  0  0  0  0  0  0  0  0  9  0  0
   -0.9168   -2.0266   -0.0009 N   0  0  0  0  0  0  0  0  0 10  0  0
    0.3805    4.4149    0.0000 F   0  0  0  0  0  0  0  0  0 11  0  0
  1 11  1  0
  8 10  1  0
  8  9  2  0
  7  8  1  0
  5  7  1  0
  6  1  4  0
  5  6  4  0
  4  5  4  0
  3  4  4  0
  2  3  4  0
  1  2  4  0
M  END
> <Name>
3-Fluorophenylurea

> <CAS RN>
000770-19-4

> <Log Koc>
1.77

> <VP-0>
5.67296

> <nAromBond>
6

> <MAXDP>
4.42547

> <nHBAcc>
3

> <Splitting>
2

$$$$
9-Methylanthracene
  SciTegic01221512053D

 15 17  0  0  0  0            999 V2000
   -2.8350    3.8857    1.4435 C   0  0  0  0  0  0  0  0  0  1  0  0
   -3.2580    3.7499    0.1262 C   0  0  0  0  0  0  0  0  0  2  0  0
   -2.5678    2.9124   -0.7425 C   0  0  0  0  0  0  0  0  0  3  0  0
   -1.4547    2.2108   -0.2941 C   0  0  0  0  0  0  0  0  0  4  0  0
   -1.0305    2.3459    1.0237 C   0  0  0  0  0  0  0  0  0  5  0  0
   -1.7218    3.1839    1.8919 C   0  0  0  0  0  0  0  0  0  6  0  0
    0.0833    1.6433    1.4713 C   0  0  0  0  0  0  0  0  0  7  0  0
    0.7718    0.8061    0.5998 C   0  0  0  0  0  0  0  0  0  8  0  0
    0.3463    0.6722   -0.7177 C   0  0  0  0  0  0  0  0  0  9  0  0
   -0.7666    1.3743   -1.1645 C   0  0  0  0  0  0  0  0  0 10  0  0
    1.0336   -0.1642   -1.5897 C   0  0  0  0  0  0  0  0  0 11  0  0
    2.1472   -0.8677   -1.1453 C   0  0  0  0  0  0  0  0  0 12  0  0
    2.5734   -0.7345    0.1713 C   0  0  0  0  0  0  0  0  0 13  0  0
    1.8860    0.1020    1.0432 C   0  0  0  0  0  0  0  0  0 14  0  0
    0.5429    1.7888    2.8966 C   0  0  0  0  0  0  0  0  0 15  0  0
  7 15  1  0
 14  8  4  0
 13 14  4  0
 12 13  4  0
 11 12  4  0
  9 11  4  0
 10  4  4  0
  9 10  4  0
  8  9  4  0
  7  8  4  0
  5  7  4  0
  6  1  4  0
  5  6  4  0
  4  5  4  0
  3  4  4  0
  2  3  4  0
  1  2  4  0
M  END
> <Name>
9-Methylanthracene

> <CAS RN>
000779-02-2

> <Log Koc>
4.81

> <VP-0>
8.69615

> <nAromBond>
16

> <MAXDP>
0.261574

> <nHBAcc>
0

> <Splitting>
2

$$$$
9-Acetylanthracene
  SciTegic01221512053D

 17 19  0  0  0  0            999 V2000
    0.9948    2.9098   -2.0617 C   0  0  0  0  0  0  0  0  0  1  0  0
    2.3180    2.6712   -2.4013 C   0  0  0  0  0  0  0  0  0  2  0  0
    2.9609    1.5590   -1.8772 C   0  0  0  0  0  0  0  0  0  3  0  0
    2.2886    0.6929   -1.0217 C   0  0  0  0  0  0  0  0  0  4  0  0
    0.9597    0.9155   -0.6688 C   0  0  0  0  0  0  0  0  0  5  0  0
    0.3330    2.0379   -1.2061 C   0  0  0  0  0  0  0  0  0  6  0  0
    0.2789    0.0381    0.1978 C   0  0  0  0  0  0  0  0  0  7  0  0
    0.9953   -1.0768    0.6957 C   0  0  0  0  0  0  0  0  0  8  0  0
    2.3274   -1.2795    0.3278 C   0  0  0  0  0  0  0  0  0  9  0  0
    2.9692   -0.4009   -0.5247 C   0  0  0  0  0  0  0  0  0 10  0  0
    3.0541   -2.3664    0.8025 C   0  0  0  0  0  0  0  0  0 11  0  0
    2.4732   -3.2872    1.6610 C   0  0  0  0  0  0  0  0  0 12  0  0
    1.1529   -3.1085    2.0410 C   0  0  0  0  0  0  0  0  0 13  0  0
    0.4383   -2.0188    1.5598 C   0  0  0  0  0  0  0  0  0 14  0  0
   -1.2545    0.3677    0.5546 C   0  0  0  0  0  0  0  0  0 15  0  0
   -1.8052    1.3641    0.0755 O   0  0  0  0  0  0  0  0  0 16  0  0
   -2.1575   -0.4512    1.4654 C   0  0  0  0  0  0  0  0  0 17  0  0
 15 17  1  0
 15 16  2  0
  7 15  1  0
 14  8  4  0
 13 14  4  0
 12 13  4  0
 11 12  4  0
  9 11  4  0
 10  4  4  0
  9 10  4  0
  8  9  4  0
  7  8  4  0
  5  7  4  0
  6  1  4  0
  5  6  4  0
  4  5  4  0
  3  4  4  0
  2  3  4  0
  1  2  4  0
M  END
> <Name>
9-Acetylanthracene

> <CAS RN>
000784-04-3

> <Log Koc>
3.58

> <VP-0>
9.6044

> <nAromBond>
16

> <MAXDP>
4.87334

> <nHBAcc>
1

> <Splitting>
2

$$$$
Carbophenothion
  SciTegic01221512053D

 18 18  0  0  0  0            999 V2000
   -2.1641    1.3837    0.5479 S   0  0  0  0  0  0  0  0  0  1  0  0
   -1.0254    2.7464    0.8924 C   0  0  0  0  0  0  0  0  0  2  0  0
   -0.1224    3.1564   -0.6291 S   0  0  0  0  0  0  0  0  0  3  0  0
    1.7894    2.9635   -0.4052 P   0  0  0  0  0  0  0  0  0  4  0  0
    2.5633    3.3664   -1.8765 S   0  0  0  0  0  0  0  0  0  5  0  0
    2.2792    3.8553    0.7980 O   0  0  0  0  0  0  0  0  0  6  0  0
    1.9270    5.2573    0.6713 C   0  0  0  0  0  0  0  0  0  7  0  0
    2.8688    6.0176   -0.2873 C   0  0  0  0  0  0  0  0  0  8  0  0
    2.1347    1.4900   -0.0910 O   0  0  0  0  0  0  0  0  0  9  0  0
    3.5564    1.3708    0.0285 C   0  0  0  0  0  0  0  0  0 10  0  0
    3.9437   -0.0924    0.3017 C   0  0  0  0  0  0  0  0  0 11  0  0
   -1.2364   -0.1058    0.3439 C   0  0  0  0  0  0  0  0  0 12  0  0
   -0.0938   -0.3134    1.1050 C   0  0  0  0  0  0  0  0  0 13  0  0
    0.6395   -1.4850    0.9532 C   0  0  0  0  0  0  0  0  0 14  0  0
    0.2314   -2.4459    0.0376 C   0  0  0  0  0  0  0  0  0 15  0  0
   -0.9143   -2.2388   -0.7243 C   0  0  0  0  0  0  0  0  0 16  0  0
   -1.6500   -1.0701   -0.5697 C   0  0  0  0  0  0  0  0  0 17  0  0
    1.1478   -3.8978   -0.1541 Cl  0  0  0  0  0  0  0  0  0 18  0  0
 15 18  1  0
 17 12  4  0
 16 17  4  0
 15 16  4  0
 14 15  4  0
 13 14  4  0
 12 13  4  0
  1 12  1  0
 10 11  1  0
  9 10  1  0
  4  9  1  0
  7  8  1  0
  6  7  1  0
  4  6  1  0
  4  5  2  0
  3  4  1  0
  2  3  1  0
  1  2  1  0
M  END
> <Name>
Carbophenothion

> <CAS RN>
000786-19-6

> <Log Koc>
4.66

> <VP-0>
14.397

> <nAromBond>
6

> <MAXDP>
2.65274

> <nHBAcc>
2

> <Splitting>
2

$$$$
Cyclohexylbenzene
  SciTegic01221512053D

 12 13  0  0  0  0            999 V2000
   -1.4461   -0.2728    0.5666 C   0  0  0  0  0  0  0  0  0  1  0  0
   -1.3288    1.1039    0.4128 C   0  0  0  0  0  0  0  0  0  2  0  0
   -0.1032    1.6630    0.0688 C   0  0  0  0  0  0  0  0  0  3  0  0
    1.0065    0.8466   -0.1214 C   0  0  0  0  0  0  0  0  0  4  0  0
    0.8877   -0.5306    0.0321 C   0  0  0  0  0  0  0  0  0  5  0  0
   -0.3377   -1.0901    0.3760 C   0  0  0  0  0  0  0  0  0  6  0  0
    2.3337    1.4524   -0.4951 C   0  0  0  0  0  0  0  0  0  7  0  0
    2.4497    2.9003    0.0226 C   0  0  0  0  0  0  0  0  0  8  0  0
    3.7961    3.4987   -0.4360 C   0  0  0  0  0  0  0  0  0  9  0  0
    4.9605    2.6295    0.0929 C   0  0  0  0  0  0  0  0  0 10  0  0
    4.8364    1.1961   -0.4738 C   0  0  0  0  0  0  0  0  0 11  0  0
    3.5031    0.5688   -0.0157 C   0  0  0  0  0  0  0  0  0 12  0  0
 12  7  1  0
 11 12  1  0
 10 11  1  0
  9 10  1  0
  8  9  1  0
  7  8  1  0
  4  7  1  0
  6  1  4  0
  5  6  4  0
  4  5  4  0
  3  4  4  0
  2  3  4  0
  1  2  4  0
M  END
> <Name>
Cyclohexylbenzene

> <CAS RN>
000827-52-1

> <Log Koc>
4.18

> <VP-0>
7.49964

> <nAromBond>
6

> <MAXDP>
0.273796

> <nHBAcc>
0

> <Splitting>
2

$$$$
Ametryn
  SciTegic01221512053D

 15 15  0  0  0  0            999 V2000
   -0.9196    0.8285   -0.1039 N   0  0  0  0  0  0  0  0  0  1  0  0
   -0.1846    1.9288   -0.0088 C   0  0  0  0  0  0  0  0  0  2  0  0
    1.1393    1.8299    0.0200 N   0  0  0  0  0  0  0  0  0  3  0  0
    1.7248    0.6416   -0.0450 C   0  0  0  0  0  0  0  0  0  4  0  0
    0.9854   -0.4552   -0.1411 N   0  0  0  0  0  0  0  0  0  5  0  0
   -0.3368   -0.3610   -0.1700 C   0  0  0  0  0  0  0  0  0  6  0  0
   -1.3252   -1.8229   -0.2968 S   0  0  0  0  0  0  0  0  0  7  0  0
   -3.0751   -1.3633   -0.3081 C   0  0  0  0  0  0  0  0  0  8  0  0
    3.1221    0.5532   -0.0154 N   0  0  0  0  0  0  0  0  0  9  0  0
    3.7782   -0.7266   -0.0478 C   0  0  0  0  0  0  0  0  0 10  0  0
    3.6647   -1.4118    1.3302 C   0  0  0  0  0  0  0  0  0 11  0  0
   -0.8373    3.1862    0.0595 N   0  0  0  0  0  0  0  0  0 12  0  0
   -0.1319    4.4535    0.1650 C   0  0  0  0  0  0  0  0  0 13  0  0
    0.7791    4.6827   -1.0616 C   0  0  0  0  0  0  0  0  0 14  0  0
    0.7096    4.5113    1.4593 C   0  0  0  0  0  0  0  0  0 15  0  0
 13 15  1  0
 13 14  1  0
 12 13  1  0
  2 12  1  0
 10 11  1  0
  9 10  1  0
  4  9  1  0
  7  8  1  0
  6  7  1  0
  6  1  4  0
  5  6  4  0
  4  5  4  0
  3  4  4  0
  2  3  4  0
  1  2  4  0
M  END
> <Name>
Ametryn

> <CAS RN>
000834-12-8

> <Log Koc>
2.59

> <VP-0>
10.3508

> <nAromBond>
6

> <MAXDP>
1.39561

> <nHBAcc>
5

> <Splitting>
1

$$$$
1-Phenylazo-2-naphthalenol
  SciTegic01221512053D

 19 21  0  0  0  0            999 V2000
    0.5793    5.3183    3.9503 C   0  0  0  0  0  0  0  0  0  1  0  0
    0.1797    4.3878    2.9975 C   0  0  0  0  0  0  0  0  0  2  0  0
    1.0968    3.9114    2.0680 C   0  0  0  0  0  0  0  0  0  3  0  0
    2.4108    4.3646    2.0888 C   0  0  0  0  0  0  0  0  0  4  0  0
    2.8087    5.2988    3.0380 C   0  0  0  0  0  0  0  0  0  5  0  0
    1.8930    5.7741    3.9700 C   0  0  0  0  0  0  0  0  0  6  0  0
    0.7087    2.9714    1.1218 N   0  0  0  0  0  0  0  0  0  7  0  0
   -0.4595    2.7055    0.9528 N   0  0  0  0  0  0  0  0  0  8  0  0
   -0.8960    1.6946    0.0478 C   0  0  0  0  0  0  0  0  0  9  0  0
   -0.0707    0.6484   -0.3806 C   0  0  0  0  0  0  0  0  0 10  0  0
   -0.5694   -0.3042   -1.2669 C   0  0  0  0  0  0  0  0  0 11  0  0
   -1.8769   -0.2192   -1.7276 C   0  0  0  0  0  0  0  0  0 12  0  0
   -2.6964    0.8166   -1.3008 C   0  0  0  0  0  0  0  0  0 13  0  0
   -2.2059    1.7669   -0.4142 C   0  0  0  0  0  0  0  0  0 14  0  0
   -3.0295    2.8036    0.0096 O   0  0  0  0  0  0  0  0  0 15  0  0
    0.2351   -1.3535   -1.6979 C   0  0  0  0  0  0  0  0  0 16  0  0
    1.5443   -1.4645   -1.2469 C   0  0  0  0  0  0  0  0  0 17  0  0
    2.0486   -0.5214   -0.3614 C   0  0  0  0  0  0  0  0  0 18  0  0
    1.2425    0.5263    0.0660 C   0  0  0  0  0  0  0  0  0 19  0  0
 19 10  4  0
 18 19  4  0
 17 18  4  0
 16 17  4  0
 11 16  4  0
 14 15  1  0
 14  9  4  0
 13 14  4  0
 12 13  4  0
 11 12  4  0
 10 11  4  0
  9 10  4  0
  8  9  1  0
  7  8  2  0
  3  7  1  0
  6  1  4  0
  5  6  4  0
  4  5  4  0
  3  4  4  0
  2  3  4  0
  1  2  4  0
M  END
> <Name>
1-Phenylazo-2-naphthalenol

> <CAS RN>
000842-07-9

> <Log Koc>
3.58

> <VP-0>
10.1925

> <nAromBond>
17

> <MAXDP>
3.9328

> <nHBAcc>
2

> <Splitting>
2

$$$$
2,3,4,5-Tetrachloronitrobenzene
  SciTegic01221512053D

 13 13  0  0  0  0            999 V2000
   -1.9202    2.9959    1.2237 O   0  0  0  0  0  0  0  0  0  1  0  0
   -1.6061    1.7168    1.0884 N   0  0  0  0  0  0  0  0  0  2  0  0
   -0.3523    1.3717    0.5385 C   0  0  0  0  0  0  0  0  0  3  0  0
    0.5036    2.4007    0.1603 C   0  0  0  0  0  0  0  0  0  4  0  0
    1.7491    2.1171   -0.3861 C   0  0  0  0  0  0  0  0  0  5  0  0
    2.1451    0.7972   -0.5573 C   0  0  0  0  0  0  0  0  0  6  0  0
    1.2946   -0.2351   -0.1815 C   0  0  0  0  0  0  0  0  0  7  0  0
    0.0473    0.0453    0.3657 C   0  0  0  0  0  0  0  0  0  8  0  0
   -0.9726   -1.2801    0.8165 Cl  0  0  0  0  0  0  0  0  0  9  0  0
    1.7893   -1.8761   -0.3953 Cl  0  0  0  0  0  0  0  0  0 10  0  0
    3.6925    0.4394   -1.2362 Cl  0  0  0  0  0  0  0  0  0 11  0  0
    2.8036    3.4036   -0.8520 Cl  0  0  0  0  0  0  0  0  0 12  0  0
   -2.4732    0.7957    1.4712 O   0  0  0  0  0  0  0  0  0 13  0  0
  2 13  1  0
  5 12  1  0
  6 11  1  0
  7 10  1  0
  8  9  1  0
  8  3  4  0
  7  8  4  0
  6  7  4  0
  5  6  4  0
  4  5  4  0
  3  4  4  0
  2  3  1  0
  1  2  1  0
M  END
> <Name>
2,3,4,5-Tetrachloronitrobenzene

> <CAS RN>
000879-39-0

> <Log Koc>
4.23

> <VP-0>
8.72828

> <nAromBond>
6

> <MAXDP>
3.71894

> <nHBAcc>
0

> <Splitting>
2

$$$$
Terbutryn
  SciTegic01221512053D

 16 16  0  0  0  0            999 V2000
   -0.8503    0.7473   -0.2090 N   0  0  0  0  0  0  0  0  0  1  0  0
   -0.0873    1.8300   -0.1384 C   0  0  0  0  0  0  0  0  0  2  0  0
    1.2310    1.6950   -0.0482 N   0  0  0  0  0  0  0  0  0  3  0  0
    1.7824    0.4889   -0.0311 C   0  0  0  0  0  0  0  0  0  4  0  0
    1.0145   -0.5902   -0.1035 N   0  0  0  0  0  0  0  0  0  5  0  0
   -0.3020   -0.4601   -0.1907 C   0  0  0  0  0  0  0  0  0  6  0  0
   -1.3292   -1.8975   -0.2819 S   0  0  0  0  0  0  0  0  0  7  0  0
   -3.0646   -1.3897   -0.3438 C   0  0  0  0  0  0  0  0  0  8  0  0
    3.1744    0.3618    0.0570 N   0  0  0  0  0  0  0  0  0  9  0  0
    3.7936   -0.9368    0.0864 C   0  0  0  0  0  0  0  0  0 10  0  0
    3.6232   -1.5723    1.4818 C   0  0  0  0  0  0  0  0  0 11  0  0
   -0.7073    3.1065   -0.1628 N   0  0  0  0  0  0  0  0  0 12  0  0
    0.0186    4.3633   -0.0582 C   0  0  0  0  0  0  0  0  0 13  0  0
    1.0753    4.4878   -1.1797 C   0  0  0  0  0  0  0  0  0 14  0  0
    0.7201    4.4555    1.3141 C   0  0  0  0  0  0  0  0  0 15  0  0
   -0.9818    5.5259   -0.1870 C   0  0  0  0  0  0  0  0  0 16  0  0
 13 16  1  0
 13 15  1  0
 13 14  1  0
 12 13  1  0
  2 12  1  0
 10 11  1  0
  9 10  1  0
  4  9  1  0
  7  8  1  0
  6  7  1  0
  6  1  4  0
  5  6  4  0
  4  5  4  0
  3  4  4  0
  2  3  4  0
  1  2  4  0
M  END
> <Name>
Terbutryn

> <CAS RN>
000886-50-0

> <Log Koc>
2.85

> <VP-0>
11.2735

> <nAromBond>
6

> <MAXDP>
1.44082

> <nHBAcc>
5

> <Splitting>
2

$$$$
3-Phenyl-1-cyclohexylurea
  SciTegic01221512053D

 16 17  0  0  0  0            999 V2000
    1.1747    2.5849   -0.4393 C   0  0  0  0  0  0  0  0  0  1  0  0
    1.7270    3.8218   -0.7524 C   0  0  0  0  0  0  0  0  0  2  0  0
    3.0410    4.1053   -0.3996 C   0  0  0  0  0  0  0  0  0  3  0  0
    3.7996    3.1500    0.2665 C   0  0  0  0  0  0  0  0  0  4  0  0
    3.2439    1.9144    0.5786 C   0  0  0  0  0  0  0  0  0  5  0  0
    1.9296    1.6244    0.2274 C   0  0  0  0  0  0  0  0  0  6  0  0
    1.4004    0.3492    0.5676 N   0  0  0  0  0  0  0  0  0  7  0  0
    0.0953   -0.1026    0.2375 C   0  0  0  0  0  0  0  0  0  8  0  0
   -0.6897    0.6096   -0.4010 O   0  0  0  0  0  0  0  0  0  9  0  0
   -0.2907   -1.3974    0.6618 N   0  0  0  0  0  0  0  0  0 10  0  0
   -1.5963   -1.9683    0.3851 C   0  0  0  0  0  0  0  0  0 11  0  0
   -1.8542   -2.1037   -1.1230 C   0  0  0  0  0  0  0  0  0 12  0  0
   -3.1839   -2.8920   -1.3401 C   0  0  0  0  0  0  0  0  0 13  0  0
   -4.0370   -2.9426   -0.0336 C   0  0  0  0  0  0  0  0  0 14  0  0
   -4.1271   -1.5327    0.5544 C   0  0  0  0  0  0  0  0  0 15  0  0
   -2.7147   -1.0732    1.0120 C   0  0  0  0  0  0  0  0  0 16  0  0
 16 11  1  0
 15 16  1  0
 14 15  1  0
 13 14  1  0
 12 13  1  0
 11 12  1  0
 10 11  1  0
  8 10  1  0
  8  9  2  0
  7  8  1  0
  6  7  1  0
  6  1  4  0
  5  6  4  0
  4  5  4  0
  3  4  4  0
  2  3  4  0
  1  2  4  0
M  END
> <Name>
3-Phenyl-1-cyclohexylurea

> <CAS RN>
000886-59-9

> <Log Koc>
2.07

> <VP-0>
9.40788

> <nAromBond>
6

> <MAXDP>
4.65845

> <nHBAcc>
3

> <Splitting>
2

$$$$
Demeton-S-methyl
  SciTegic01221512053D

 12 11  0  0  0  0            999 V2000
    1.0191   -0.5648   -3.1699 C   0  0  0  0  0  0  0  0  0  1  0  0
    1.4025   -1.1478   -1.9204 O   0  0  0  0  0  0  0  0  0  2  0  0
    0.2070   -1.0986   -0.9340 P   0  0  0  0  0  0  0  0  0  3  0  0
   -0.8626   -1.7740   -1.4864 O   0  0  0  0  0  0  0  0  0  4  0  0
   -0.2940    0.7490   -0.6180 S   0  0  0  0  0  0  0  0  0  5  0  0
    1.1315    1.7347   -0.0560 C   0  0  0  0  0  0  0  0  0  6  0  0
    1.6530    1.2305    1.3007 C   0  0  0  0  0  0  0  0  0  7  0  0
    0.3464    1.3868    2.5419 S   0  0  0  0  0  0  0  0  0  8  0  0
   -0.1507    3.1206    2.6789 C   0  0  0  0  0  0  0  0  0  9  0  0
   -1.2665    3.2520    3.7311 C   0  0  0  0  0  0  0  0  0 10  0  0
    0.6013   -1.7936    0.3954 O   0  0  0  0  0  0  0  0  0 11  0  0
   -0.5435   -1.8678    1.2543 C   0  0  0  0  0  0  0  0  0 12  0  0
 11 12  1  0
  3 11  1  0
  9 10  1  0
  8  9  1  0
  7  8  1  0
  6  7  1  0
  5  6  1  0
  3  5  1  0
  3  4  2  0
  2  3  1  0
  1  2  1  0
M  END
> <Name>
Demeton-S-methyl

> <CAS RN>
000919-86-8

> <Log Koc>
1.49

> <VP-0>
9.46671

> <nAromBond>
0

> <MAXDP>
4.71117

> <nHBAcc>
3

> <Splitting>
2

$$$$
2,3,5-Trichlorophenol
  SciTegic01221512053D

 10 10  0  0  0  0            999 V2000
   -0.8681    0.9609    0.0009 C   0  0  0  0  0  0  0  0  0  1  0  0
   -0.1743    2.1657    0.0007 C   0  0  0  0  0  0  0  0  0  2  0  0
    1.2160    2.1668    0.0003 C   0  0  0  0  0  0  0  0  0  3  0  0
    1.9126    0.9635    0.0000 C   0  0  0  0  0  0  0  0  0  4  0  0
    1.2185   -0.2410    0.0002 C   0  0  0  0  0  0  0  0  0  5  0  0
   -0.1717   -0.2422    0.0006 C   0  0  0  0  0  0  0  0  0  6  0  0
   -1.0338   -1.7390    0.0007 Cl  0  0  0  0  0  0  0  0  0  7  0  0
    2.0827   -1.7367   -0.0002 Cl  0  0  0  0  0  0  0  0  0  8  0  0
    2.0784    3.6639    0.0002 Cl  0  0  0  0  0  0  0  0  0  9  0  0
   -2.2585    0.9588    0.0013 O   0  0  0  0  0  0  0  0  0 10  0  0
  1 10  1  0
  3  9  1  0
  5  8  1  0
  6  7  1  0
  6  1  4  0
  5  6  4  0
  4  5  4  0
  3  4  4  0
  2  3  4  0
  1  2  4  0
M  END
> <Name>
2,3,5-Trichlorophenol

> <CAS RN>
000933-78-8

> <Log Koc>
3.61

> <VP-0>
7.00359

> <nAromBond>
6

> <MAXDP>
3.37417

> <nHBAcc>
0

> <Splitting>
2

$$$$
2-Ethylnaphthalene
  SciTegic01221512053D

 12 13  0  0  0  0            999 V2000
   -2.3469    1.6708    0.1669 C   0  0  0  0  0  0  0  0  0  1  0  0
   -1.4842    1.0370    1.0539 C   0  0  0  0  0  0  0  0  0  2  0  0
   -0.1616    0.8069    0.6939 C   0  0  0  0  0  0  0  0  0  3  0  0
    0.3001    1.2106   -0.5544 C   0  0  0  0  0  0  0  0  0  4  0  0
   -0.5613    1.8443   -1.4422 C   0  0  0  0  0  0  0  0  0  5  0  0
   -1.8841    2.0741   -1.0815 C   0  0  0  0  0  0  0  0  0  6  0  0
    1.6229    0.9804   -0.9144 C   0  0  0  0  0  0  0  0  0  7  0  0
    2.4842    0.3464   -0.0260 C   0  0  0  0  0  0  0  0  0  8  0  0
    2.0226   -0.0571    1.2220 C   0  0  0  0  0  0  0  0  0  9  0  0
    0.6996    0.1731    1.5821 C   0  0  0  0  0  0  0  0  0 10  0  0
   -3.7794    1.9159    0.5665 C   0  0  0  0  0  0  0  0  0 11  0  0
   -4.5415    2.6279   -0.5701 C   0  0  0  0  0  0  0  0  0 12  0  0
 11 12  1  0
  1 11  1  0
 10  3  4  0
  9 10  4  0
  8  9  4  0
  7  8  4  0
  4  7  4  0
  6  1  4  0
  5  6  4  0
  4  5  4  0
  3  4  4  0
  2  3  4  0
  1  2  4  0
M  END
> <Name>
2-Ethylnaphthalene

> <CAS RN>
000939-27-5

> <Log Koc>
3.76

> <VP-0>
7.24856

> <nAromBond>
11

> <MAXDP>
0.259259

> <nHBAcc>
0

> <Splitting>
1

$$$$
Fonofos
  SciTegic01221512053D

 14 14  0  0  0  0            999 V2000
   -0.5608    0.3022    1.5252 C   0  0  0  0  0  0  0  0  0  1  0  0
    0.7832    0.2867    0.7830 C   0  0  0  0  0  0  0  0  0  2  0  0
    0.7396   -0.5840   -0.6550 P   0  0  1  0  0  0  0  0  0  3  0  0
    2.2882   -0.4250   -1.3607 S   0  0  0  0  0  0  0  0  0  4  0  0
    0.4172   -2.4888   -0.3161 S   0  0  0  0  0  0  0  0  0  5  0  0
   -1.2646   -2.9023    0.1339 C   0  0  0  0  0  0  0  0  0  6  0  0
   -2.3215   -2.0533   -0.1777 C   0  0  0  0  0  0  0  0  0  7  0  0
   -3.6226   -2.3980    0.1697 C   0  0  0  0  0  0  0  0  0  8  0  0
   -3.8712   -3.5971    0.8271 C   0  0  0  0  0  0  0  0  0  9  0  0
   -2.8179   -4.4505    1.1347 C   0  0  0  0  0  0  0  0  0 10  0  0
   -1.5173   -4.1038    0.7869 C   0  0  0  0  0  0  0  0  0 11  0  0
   -0.3201    0.0597   -1.6229 O   0  0  0  0  0  0  0  0  0 12  0  0
   -0.1173   -0.2927   -3.0210 C   0  0  0  0  0  0  0  0  0 13  0  0
   -0.4399   -1.7661   -3.3396 C   0  0  0  0  0  0  0  0  0 14  0  0
 13 14  1  0
 12 13  1  0
  3 12  1  0
 11  6  4  0
 10 11  4  0
  9 10  4  0
  8  9  4  0
  7  8  4  0
  6  7  4  0
  5  6  1  0
  3  5  1  0
  3  4  2  0
  2  3  1  0
  1  2  1  0
M  END
> <Name>
Fonofos

> <CAS RN>
000944-22-9

> <Log Koc>
3.32

> <VP-0>
11.0003

> <nAromBond>
6

> <MAXDP>
2.68996

> <nHBAcc>
1

> <Splitting>
2

$$$$
Methidathion
  SciTegic01221512053D

 16 16  0  0  0  0            999 V2000
    1.5552    4.6506    0.2165 C   0  0  0  0  0  0  0  0  0  1  0  0
    1.0381    3.4248    0.7378 O   0  0  0  0  0  0  0  0  0  2  0  0
   -0.3610    3.6711    1.3524 P   0  0  0  0  0  0  0  0  0  3  0  0
   -1.4193    4.2595    0.1467 S   0  0  0  0  0  0  0  0  0  4  0  0
   -0.2386    4.7215    2.4850 O   0  0  0  0  0  0  0  0  0  5  0  0
   -1.5274    4.9513    3.0620 C   0  0  0  0  0  0  0  0  0  6  0  0
   -1.0736    2.0308    2.0949 S   0  0  0  0  0  0  0  0  0  7  0  0
   -1.3341    0.7646    0.8177 C   0  0  0  0  0  0  0  0  0  8  0  0
   -0.0895    0.3314    0.2475 N   0  0  0  0  0  0  0  0  0  9  0  0
    1.0358    0.8738    0.5361 N   0  0  0  0  0  0  0  0  0 10  0  0
    2.0688    0.3196   -0.1029 C   0  0  0  0  0  0  0  0  0 11  0  0
    1.5283   -0.8832   -1.0438 S   0  0  0  0  0  0  0  0  0 12  0  0
   -0.0203   -0.6765   -0.6228 C   0  0  0  0  0  0  0  0  0 13  0  0
   -0.9767   -1.3418   -1.0360 O   0  0  0  0  0  0  0  0  0 14  0  0
    3.3969    0.7140    0.0208 O   0  0  0  0  0  0  0  0  0 15  0  0
    4.2196   -0.1065   -0.8123 C   0  0  0  0  0  0  0  0  0 16  0  0
 15 16  1  0
 11 15  1  0
 13 14  2  0
 13  9  4  0
 12 13  4  0
 11 12  4  0
 10 11  4  0
  9 10  4  0
  8  9  1  0
  7  8  1  0
  3  7  1  0
  5  6  1  0
  3  5  1  0
  3  4  2  0
  2  3  1  0
  1  2  1  0
M  END
> <Name>
Methidathion

> <CAS RN>
000950-37-8

> <Log Koc>
2.03

> <VP-0>
12.2504

> <nAromBond>
0

> <MAXDP>
4.65599

> <nHBAcc>
6

> <Splitting>
2

$$$$
Carbophenothion-methyl
  SciTegic01221512053D

 16 16  0  0  0  0            999 V2000
   -3.2177   -0.4753   -1.0517 C   0  0  0  0  0  0  0  0  0  1  0  0
   -2.9486    0.8040   -1.5262 C   0  0  0  0  0  0  0  0  0  2  0  0
   -1.6343    1.2464   -1.6287 C   0  0  0  0  0  0  0  0  0  3  0  0
   -0.5897    0.4093   -1.2528 C   0  0  0  0  0  0  0  0  0  4  0  0
   -0.8595   -0.8703   -0.7817 C   0  0  0  0  0  0  0  0  0  5  0  0
   -2.1729   -1.3133   -0.6803 C   0  0  0  0  0  0  0  0  0  6  0  0
    1.0885    0.9606   -1.3834 S   0  0  0  0  0  0  0  0  0  7  0  0
    2.1448   -0.0817   -0.3434 C   0  0  0  0  0  0  0  0  0  8  0  0
    2.3712    0.6465    1.3108 S   0  0  0  0  0  0  0  0  0  9  0  0
    0.6973    1.0841    2.1759 P   0  0  0  0  0  0  0  0  0 10  0  0
   -0.2723   -0.3137    2.3317 S   0  0  0  0  0  0  0  0  0 11  0  0
   -0.0504    2.1617    1.3499 O   0  0  0  0  0  0  0  0  0 12  0  0
   -1.2591    2.5264    2.0220 C   0  0  0  0  0  0  0  0  0 13  0  0
    0.9953    1.6460    3.5875 O   0  0  0  0  0  0  0  0  0 14  0  0
    1.6787    0.6528    4.3577 C   0  0  0  0  0  0  0  0  0 15  0  0
   -4.8506   -1.0257   -0.9253 Cl  0  0  0  0  0  0  0  0  0 16  0  0
  1 16  1  0
 14 15  1  0
 10 14  1  0
 12 13  1  0
 10 12  1  0
 10 11  2  0
  9 10  1  0
  8  9  1  0
  7  8  1  0
  4  7  1  0
  6  1  4  0
  5  6  4  0
  4  5  4  0
  3  4  4  0
  2  3  4  0
  1  2  4  0
M  END
> <Name>
Carbophenothion-methyl

> <CAS RN>
000953-17-3

> <Log Koc>
4.67

> <VP-0>
12.9828

> <nAromBond>
6

> <MAXDP>
2.26982

> <nHBAcc>
2

> <Splitting>
2

$$$$
Diphenamid
  SciTegic01221512053D

 18 19  0  0  0  0            999 V2000
    0.6456   -2.6910    3.1803 C   0  0  0  0  0  0  0  0  0  1  0  0
    1.9500   -3.1167    3.4014 C   0  0  0  0  0  0  0  0  0  2  0  0
    2.9631   -2.7252    2.5340 C   0  0  0  0  0  0  0  0  0  3  0  0
    2.6705   -1.9088    1.4486 C   0  0  0  0  0  0  0  0  0  4  0  0
    1.3653   -1.4758    1.2245 C   0  0  0  0  0  0  0  0  0  5  0  0
    0.3550   -1.8733    2.0940 C   0  0  0  0  0  0  0  0  0  6  0  0
    1.0551   -0.5792    0.0189 C   0  0  0  0  0  0  0  0  0  7  0  0
    1.9873    0.6163    0.0192 C   0  0  0  0  0  0  0  0  0  8  0  0
    2.3074    1.2791    1.2021 C   0  0  0  0  0  0  0  0  0  9  0  0
    3.1565    2.3789    1.1795 C   0  0  0  0  0  0  0  0  0 10  0  0
    3.6886    2.8206   -0.0264 C   0  0  0  0  0  0  0  0  0 11  0  0
    3.3671    2.1641   -1.2088 C   0  0  0  0  0  0  0  0  0 12  0  0
    2.5149    1.0658   -1.1856 C   0  0  0  0  0  0  0  0  0 13  0  0
   -0.3891   -0.1039    0.0684 C   0  0  0  0  0  0  0  0  0 14  0  0
   -0.6361    1.0300    0.4943 O   0  0  0  0  0  0  0  0  0 15  0  0
   -1.4669   -0.9172   -0.3751 N   0  0  0  0  0  0  0  0  0 16  0  0
   -2.8037   -0.4033   -0.2994 C   0  0  0  0  0  0  0  0  0 17  0  0
   -1.2487   -2.2287   -0.9439 C   0  0  0  0  0  0  0  0  0 18  0  0
 16 18  1  0
 16 17  1  0
 14 16  1  0
 14 15  2  0
  7 14  1  0
 13  8  4  0
 12 13  4  0
 11 12  4  0
 10 11  4  0
  9 10  4  0
  8  9  4  0
  7  8  1  0
  5  7  1  0
  6  1  4  0
  5  6  4  0
  4  5  4  0
  3  4  4  0
  2  3  4  0
  1  2  4  0
M  END
> <Name>
Diphenamid

> <CAS RN>
000957-51-7

> <Log Koc>
2.06

> <VP-0>
10.7063

> <nAromBond>
12

> <MAXDP>
5.36982

> <nHBAcc>
2

> <Splitting>
2

$$$$
Stirofos
  SciTegic01221512053D

 19 19  0  0  0  0            999 V2000
   -0.6320    1.9228    3.7099 P   0  0  0  0  0  0  0  0  0  1  0  0
    0.4575    2.5798    4.2495 O   0  0  0  0  0  0  0  0  0  2  0  0
   -0.2205    1.1776    2.3841 O   0  0  0  0  0  0  0  0  0  3  0  0
    0.2258    2.0101    1.3207 C   0  0  0  0  0  0  0  0  0  4  0  0
    0.2752    3.3389    1.5364 C   0  0  0  0  0  0  0  0  0  5  0  0
    0.8979    4.5688    0.5014 Cl  0  0  0  0  0  0  0  0  0  6  0  0
    0.6570    1.2536    0.0706 C   0  0  0  0  0  0  0  0  0  7  0  0
    0.7015    1.7253   -1.2504 C   0  0  0  0  0  0  0  0  0  8  0  0
    1.1230    0.8791   -2.2724 C   0  0  0  0  0  0  0  0  0  9  0  0
    1.5031   -0.4291   -2.0112 C   0  0  0  0  0  0  0  0  0 10  0  0
    1.4473   -0.9073   -0.7118 C   0  0  0  0  0  0  0  0  0 11  0  0
    1.0230   -0.0702    0.3102 C   0  0  0  0  0  0  0  0  0 12  0  0
    1.9073   -2.5365   -0.3671 Cl  0  0  0  0  0  0  0  0  0 13  0  0
    2.0296   -1.4566   -3.2963 Cl  0  0  0  0  0  0  0  0  0 14  0  0
    0.1980    3.2967   -1.7426 Cl  0  0  0  0  0  0  0  0  0 15  0  0
   -1.7904    2.9410    3.4534 O   0  0  0  0  0  0  0  0  0 16  0  0
   -2.0809    3.6726    4.6576 C   0  0  0  0  0  0  0  0  0 17  0  0
   -1.1132    0.8489    4.7269 O   0  0  0  0  0  0  0  0  0 18  0  0
   -2.1833    0.0764    4.1566 C   0  0  0  0  0  0  0  0  0 19  0  0
 18 19  1  0
  1 18  1  0
 16 17  1  0
  1 16  1  0
  8 15  1  0
 10 14  1  0
 11 13  1  0
 12  7  4  0
 11 12  4  0
 10 11  4  0
  9 10  4  0
  8  9  4  0
  7  8  4  0
  4  7  1  0
  5  6  1  0
  4  5  2  0
  3  4  1  0
  1  3  1  0
  1  2  2  0
M  END
> <Name>
Stirofos

> <CAS RN>
000961-11-5

> <Log Koc>
3.07

> <VP-0>
13.0718

> <nAromBond>
6

> <MAXDP>
5.22227

> <nHBAcc>
4

> <Splitting>
2

$$$$
3-Phenyl-1-methylurea
  SciTegic01221512053D

 11 11  0  0  0  0            999 V2000
    2.8892    1.1971   -0.0009 C   0  0  0  0  0  0  0  0  0  1  0  0
    1.5000    1.1291   -0.0004 C   0  0  0  0  0  0  0  0  0  2  0  0
    0.7596    2.3077    0.0002 C   0  0  0  0  0  0  0  0  0  3  0  0
    1.4005    3.5413    0.0003 C   0  0  0  0  0  0  0  0  0  4  0  0
    2.7889    3.6030   -0.0002 C   0  0  0  0  0  0  0  0  0  5  0  0
    3.5333    2.4293   -0.0008 C   0  0  0  0  0  0  0  0  0  6  0  0
    0.8809   -0.1505   -0.0005 N   0  0  0  0  0  0  0  0  0  7  0  0
   -0.5221   -0.3703    0.0000 C   0  0  0  0  0  0  0  0  0  8  0  0
   -1.3318    0.5639    0.0005 O   0  0  0  0  0  0  0  0  0  9  0  0
   -1.0010   -1.6809   -0.0002 N   0  0  0  0  0  0  0  0  0 10  0  0
   -2.4141   -1.9273    0.0003 C   0  0  0  0  0  0  0  0  0 11  0  0
 10 11  1  0
  8 10  1  0
  8  9  2  0
  7  8  1  0
  2  7  1  0
  6  1  4  0
  5  6  4  0
  4  5  4  0
  3  4  4  0
  2  3  4  0
  1  2  4  0
M  END
> <Name>
3-Phenyl-1-methylurea

> <CAS RN>
001007-36-9

> <Log Koc>
1.29

> <VP-0>
6.295

> <nAromBond>
6

> <MAXDP>
3.75899

> <nHBAcc>
3

> <Splitting>
2

$$$$
Heptachlor epoxid
  SciTegic01221512053D

 23 26  0  0  0  0            999 V2000
   -1.6736   -0.2372   -1.5485 Cl  0  0  0  0  0  0  0  0  0  1  0  0
   -1.2676   -0.4226    0.1608 C   0  0  1  0  0  0  0  0  0  2  0  0
   -2.1072   -0.0980    0.7842 H   0  0  0  0  0  0  0  0  0  3  0  0
   -0.8974   -1.9210    0.4678 C   0  0  2  0  0  0  0  0  0  4  0  0
   -1.7252   -2.6001    0.2110 H   0  0  0  0  0  0  0  0  0  5  0  0
   -0.5316   -2.5737    1.9153 C   0  0  2  0  0  0  0  0  0  6  0  0
   -1.7281   -2.2674    3.1708 Cl  0  0  0  0  0  0  0  0  0  7  0  0
    0.9816   -2.4477    2.2274 C   0  0  0  0  0  0  0  0  0  8  0  0
    1.6027   -0.8425    2.7699 Cl  0  0  0  0  0  0  0  0  0  9  0  0
    1.4786   -3.5620    3.4985 Cl  0  0  0  0  0  0  0  0  0 10  0  0
    1.3202   -3.0820    0.7307 C   0  0  2  0  0  0  0  0  0 11  0  0
    0.5489   -2.1003   -0.2256 C   0  0  1  0  0  0  0  0  0 12  0  0
    0.5246   -2.3047   -1.3114 H   0  0  0  0  0  0  0  0  0 13  0  0
    1.1653   -0.6907   -0.0436 C   0  0  2  0  0  0  0  0  0 14  0  0
    2.2205   -0.4529   -0.2084 H   0  0  0  0  0  0  0  0  0 15  0  0
    0.0189    0.3126    0.3762 C   0  0  2  0  0  0  0  0  0 16  0  0
    0.0582    1.4069    0.3100 H   0  0  0  0  0  0  0  0  0 17  0  0
    0.5247    0.0727   -0.9558 O   0  0  0  0  0  0  0  0  0 18  0  0
    0.5609   -4.3081    0.8178 C   0  0  0  0  0  0  0  0  0 19  0  0
   -0.5023   -4.0450    1.5303 C   0  0  0  0  0  0  0  0  0 20  0  0
   -1.7219   -5.1884    1.9653 Cl  0  0  0  0  0  0  0  0  0 21  0  0
    1.0086   -5.8423    0.1629 Cl  0  0  0  0  0  0  0  0  0 22  0  0
    3.0189   -3.3062    0.3256 Cl  0  0  0  0  0  0  0  0  0 23  0  0
 11 23  1  0
 19 22  1  0
 20 21  1  0
 20  6  1  0
 19 20  2  0
 11 19  1  0
 18 14  1  0
 16 18  1  0
 16  2  1  0
 16 17  1  0
 14 16  1  0
 14 15  1  0
 12 14  1  0
 12  4  1  0
 12 13  1  0
 11 12  1  0
  8 11  1  0
  8 10  1  0
  8  9  1  0
  6  8  1  0
  6  7  1  0
  4  6  1  0
  4  5  1  0
  2  4  1  0
  2  3  1  0
  1  2  1  0
M  END
> <Name>
Heptachlor epoxid

> <CAS RN>
001024-57-3

> <Log Koc>
4.02

> <VP-0>
13.7323

> <nAromBond>
0

> <MAXDP>
2.64927

> <nHBAcc>
1

> <Splitting>
1

$$$$
Pebulate
  SciTegic01221512053D

 13 12  0  0  0  0            999 V2000
    4.1788   -0.3393    0.1250 C   0  0  0  0  0  0  0  0  0  1  0  0
    3.4244    0.1205    1.4029 C   0  0  0  0  0  0  0  0  0  2  0  0
    1.8912   -0.1135    1.2670 C   0  0  0  0  0  0  0  0  0  3  0  0
    1.2269    0.8045    0.3458 N   0  0  0  0  0  0  0  0  0  4  0  0
    1.7853    2.1442    0.0965 C   0  0  0  0  0  0  0  0  0  5  0  0
    0.7231    3.2673    0.1811 C   0  0  0  0  0  0  0  0  0  6  0  0
    0.0254    0.3637   -0.2673 C   0  0  0  0  0  0  0  0  0  7  0  0
   -0.5981    1.0733   -1.0659 O   0  0  0  0  0  0  0  0  0  8  0  0
   -0.5915   -1.2520    0.1205 S   0  0  0  0  0  0  0  0  0  9  0  0
   -2.2439   -1.4677   -0.5874 C   0  0  0  0  0  0  0  0  0 10  0  0
   -3.2150   -0.4533    0.0485 C   0  0  0  0  0  0  0  0  0 11  0  0
   -3.2754   -0.6837    1.5707 C   0  0  0  0  0  0  0  0  0 12  0  0
    5.6865   -0.0847    0.3029 C   0  0  0  0  0  0  0  0  0 13  0  0
  1 13  1  0
 11 12  1  0
 10 11  1  0
  9 10  1  0
  7  9  1  0
  7  8  2  0
  4  7  1  0
  5  6  1  0
  4  5  1  0
  3  4  1  0
  2  3  1  0
  1  2  1  0
M  END
> <Name>
Pebulate

> <CAS RN>
001114-71-2

> <Log Koc>
2.8

> <VP-0>
9.82285

> <nAromBond>
0

> <MAXDP>
4.65961

> <nHBAcc>
2

> <Splitting>
2

$$$$
1-Ethylnaphthalene
  SciTegic01221512053D

 12 13  0  0  0  0            999 V2000
   -1.7734    2.3793   -0.7423 C   0  0  0  0  0  0  0  0  0  1  0  0
   -1.7699    2.3106    0.6462 C   0  0  0  0  0  0  0  0  0  2  0  0
   -0.7357    1.6598    1.3109 C   0  0  0  0  0  0  0  0  0  3  0  0
    0.2963    1.0771    0.5825 C   0  0  0  0  0  0  0  0  0  4  0  0
    0.2925    1.1460   -0.8069 C   0  0  0  0  0  0  0  0  0  5  0  0
   -0.7418    1.7967   -1.4692 C   0  0  0  0  0  0  0  0  0  6  0  0
    1.3235    0.5639   -1.5354 C   0  0  0  0  0  0  0  0  0  7  0  0
    2.3593   -0.0876   -0.8757 C   0  0  0  0  0  0  0  0  0  8  0  0
    2.3640   -0.1570    0.5128 C   0  0  0  0  0  0  0  0  0  9  0  0
    1.3330    0.4251    1.2413 C   0  0  0  0  0  0  0  0  0 10  0  0
   -0.7288    1.5834    2.8185 C   0  0  0  0  0  0  0  0  0 11  0  0
   -1.9667    2.2964    3.3998 C   0  0  0  0  0  0  0  0  0 12  0  0
 11 12  1  0
  3 11  1  0
 10  4  4  0
  9 10  4  0
  8  9  4  0
  7  8  4  0
  5  7  4  0
  6  1  4  0
  5  6  4  0
  4  5  4  0
  3  4  4  0
  2  3  4  0
  1  2  4  0
M  END
> <Name>
1-Ethylnaphthalene

> <CAS RN>
001127-76-0

> <Log Koc>
3.78

> <VP-0>
7.24856

> <nAromBond>
11

> <MAXDP>
0.196759

> <nHBAcc>
0

> <Splitting>
2

$$$$
Butyranilide
  SciTegic01221512053D

 12 12  0  0  0  0            999 V2000
    1.7248    3.6728   -0.2069 C   0  0  0  0  0  0  0  0  0  1  0  0
    3.0946    3.6666    0.0275 C   0  0  0  0  0  0  0  0  0  2  0  0
    3.7507    2.4633    0.2576 C   0  0  0  0  0  0  0  0  0  3  0  0
    3.0374    1.2699    0.2530 C   0  0  0  0  0  0  0  0  0  4  0  0
    1.6663    1.2686    0.0188 C   0  0  0  0  0  0  0  0  0  5  0  0
    1.0150    2.4775   -0.2109 C   0  0  0  0  0  0  0  0  0  6  0  0
    0.9788    0.0192    0.0241 N   0  0  0  0  0  0  0  0  0  7  0  0
   -0.3365   -0.1477   -0.1939 C   0  0  0  0  0  0  0  0  0  8  0  0
   -1.0854    0.8063   -0.4365 O   0  0  0  0  0  0  0  0  0  9  0  0
   -0.8977   -1.5515   -0.1604 C   0  0  0  0  0  0  0  0  0 10  0  0
   -2.4404   -1.5585   -0.3032 C   0  0  0  0  0  0  0  0  0 11  0  0
   -3.1065   -0.9092    0.9322 C   0  0  0  0  0  0  0  0  0 12  0  0
 11 12  1  0
 10 11  1  0
  8 10  1  0
  8  9  2  0
  7  8  1  0
  5  7  1  0
  6  1  4  0
  5  6  4  0
  4  5  4  0
  3  4  4  0
  2  3  4  0
  1  2  4  0
M  END
> <Name>
Butyranilide

> <CAS RN>
001129-50-6

> <Log Koc>
1.71

> <VP-0>
7.20921

> <nAromBond>
6

> <MAXDP>
4.10135

> <nHBAcc>
2

> <Splitting>
2

$$$$
Cycloate
  SciTegic01221512053D

 14 14  0  0  0  0            999 V2000
    3.0711    1.7745    2.0423 C   0  0  0  0  0  0  0  0  0  1  0  0
    4.4433    1.9516    2.1785 C   0  0  0  0  0  0  0  0  0  2  0  0
    5.3207    1.2159    1.3909 C   0  0  0  0  0  0  0  0  0  3  0  0
    4.8234    0.3024    0.4691 C   0  0  0  0  0  0  0  0  0  4  0  0
    3.4509    0.1273    0.3350 C   0  0  0  0  0  0  0  0  0  5  0  0
    2.5668    0.8638    1.1175 C   0  0  0  0  0  0  0  0  0  6  0  0
    1.1663    0.6575    0.9583 N   0  0  0  0  0  0  0  0  0  7  0  0
    0.1954    1.4038    1.7577 C   0  0  0  0  0  0  0  0  0  8  0  0
    0.0372    2.8743    1.2785 C   0  0  0  0  0  0  0  0  0  9  0  0
    0.7362   -0.4431    0.0980 C   0  0  0  0  0  0  0  0  0 10  0  0
   -0.8856   -0.2111   -0.7114 S   0  0  0  0  0  0  0  0  0 11  0  0
   -1.9984   -0.0167    0.3020 O   0  0  0  0  0  0  0  0  0 12  0  0
   -0.8294    1.1729   -1.8824 C   0  0  0  0  0  0  0  0  0 13  0  0
    0.2846    0.9204   -2.9152 C   0  0  0  0  0  0  0  0  0 14  0  0
 13 14  1  0
 11 13  1  0
 11 12  2  0
 10 11  1  0
  7 10  1  0
  8  9  1  0
  7  8  1  0
  6  7  1  0
  6  1  4  0
  5  6  4  0
  4  5  4  0
  3  4  4  0
  2  3  4  0
  1  2  4  0
M  END
> <Name>
Cycloate

> <CAS RN>
001134-23-2

> <Log Koc>
2.54

> <VP-0>
9.23064

> <nAromBond>
6

> <MAXDP>
4.6214

> <nHBAcc>
2

> <Splitting>
2

$$$$
Dichlobenil
  SciTegic01221512053D

 10 10  0  0  0  0            999 V2000
   -0.5997    0.8659    0.0000 C   0  0  0  0  0  0  0  0  0  1  0  0
    0.0947    2.0699    0.0003 C   0  0  0  0  0  0  0  0  0  2  0  0
    1.4850    2.0703    0.0005 C   0  0  0  0  0  0  0  0  0  3  0  0
    2.1802    0.8661    0.0003 C   0  0  0  0  0  0  0  0  0  4  0  0
    1.4853   -0.3382    0.0000 C   0  0  0  0  0  0  0  0  0  5  0  0
    0.0950   -0.3381   -0.0001 C   0  0  0  0  0  0  0  0  0  6  0  0
   -0.7705   -1.8330   -0.0005 Cl  0  0  0  0  0  0  0  0  0  7  0  0
   -0.7710    3.5647    0.0004 Cl  0  0  0  0  0  0  0  0  0  8  0  0
   -2.0215    0.8657   -0.0002 C   0  0  0  0  0  0  0  0  0  9  0  0
   -3.1723    0.8656   -0.0003 N   0  0  0  0  0  0  0  0  0 10  0  0
  9 10  3  0
  1  9  1  0
  2  8  1  0
  6  7  1  0
  6  1  4  0
  5  6  4  0
  4  5  4  0
  3  4  4  0
  2  3  4  0
  1  2  4  0
M  END
> <Name>
Dichlobenil

> <CAS RN>
001194-65-6

> <Log Koc>
2.38

> <VP-0>
6.44705

> <nAromBond>
6

> <MAXDP>
2.7016

> <nHBAcc>
1

> <Splitting>
2

$$$$
Tetrachlorocatechol
  SciTegic01221512053D

 12 12  0  0  0  0            999 V2000
   -0.8485    0.8902    0.0002 C   0  0  0  0  0  0  0  0  0  1  0  0
   -0.1536    2.0941    0.0008 C   0  0  0  0  0  0  0  0  0  2  0  0
    1.2365    2.0943    0.0007 C   0  0  0  0  0  0  0  0  0  3  0  0
    1.9317    0.8905   -0.0001 C   0  0  0  0  0  0  0  0  0  4  0  0
    1.2368   -0.3134   -0.0006 C   0  0  0  0  0  0  0  0  0  5  0  0
   -0.1533   -0.3136   -0.0005 C   0  0  0  0  0  0  0  0  0  6  0  0
   -1.0167   -1.8095   -0.0012 Cl  0  0  0  0  0  0  0  0  0  7  0  0
    2.1005   -1.8091   -0.0015 Cl  0  0  0  0  0  0  0  0  0  8  0  0
    3.3219    0.8907   -0.0002 O   0  0  0  0  0  0  0  0  0  9  0  0
    1.9314    3.2984    0.0013 O   0  0  0  0  0  0  0  0  0 10  0  0
   -1.0175    3.5897    0.0017 Cl  0  0  0  0  0  0  0  0  0 11  0  0
   -2.5757    0.8899    0.0004 Cl  0  0  0  0  0  0  0  0  0 12  0  0
  1 12  1  0
  2 11  1  0
  3 10  1  0
  4  9  1  0
  5  8  1  0
  6  7  1  0
  6  1  4  0
  5  6  4  0
  4  5  4  0
  3  4  4  0
  2  3  4  0
  1  2  4  0
M  END
> <Name>
Tetrachlorocatechol

> <CAS RN>
001198-55-6

> <Log Koc>
1.56

> <VP-0>
8.43

> <nAromBond>
6

> <MAXDP>
3.55382

> <nHBAcc>
0

> <Splitting>
2

$$$$
9-Anthracenemethanol
  SciTegic01221512053D

 16 18  0  0  0  0            999 V2000
   -2.8989    3.9407    1.2975 C   0  0  0  0  0  0  0  0  0  1  0  0
   -3.3151    3.7364   -0.0109 C   0  0  0  0  0  0  0  0  0  2  0  0
   -2.6105    2.8586   -0.8238 C   0  0  0  0  0  0  0  0  0  3  0  0
   -1.4957    2.1875   -0.3337 C   0  0  0  0  0  0  0  0  0  4  0  0
   -1.0680    2.3846    0.9791 C   0  0  0  0  0  0  0  0  0  5  0  0
   -1.7842    3.2676    1.7827 C   0  0  0  0  0  0  0  0  0  6  0  0
    0.0589    1.6969    1.4518 C   0  0  0  0  0  0  0  0  0  7  0  0
    0.7318    0.8270    0.5972 C   0  0  0  0  0  0  0  0  0  8  0  0
    0.2989    0.6365   -0.7094 C   0  0  0  0  0  0  0  0  0  9  0  0
   -0.8155    1.3174   -1.1745 C   0  0  0  0  0  0  0  0  0 10  0  0
    0.9788   -0.2344   -1.5529 C   0  0  0  0  0  0  0  0  0 11  0  0
    2.0965   -0.9193   -1.0911 C   0  0  0  0  0  0  0  0  0 12  0  0
    2.5327   -0.7316    0.2151 C   0  0  0  0  0  0  0  0  0 13  0  0
    1.8509    0.1400    1.0566 C   0  0  0  0  0  0  0  0  0 14  0  0
    0.6299    1.8312    2.8855 C   0  0  0  0  0  0  0  0  0 15  0  0
   -0.0595    2.7253    3.7627 O   0  0  0  0  0  0  0  0  0 16  0  0
 15 16  1  0
  7 15  1  0
 14  8  4  0
 13 14  4  0
 12 13  4  0
 11 12  4  0
  9 11  4  0
 10  4  4  0
  9 10  4  0
  8  9  4  0
  7  8  4  0
  5  7  4  0
  6  1  4  0
  5  6  4  0
  4  5  4  0
  3  4  4  0
  2  3  4  0
  1  2  4  0
M  END
> <Name>
9-Anthracenemethanol

> <CAS RN>
001468-95-7

> <Log Koc>
3.61

> <VP-0>
8.85047

> <nAromBond>
16

> <MAXDP>
3.53364

> <nHBAcc>
1

> <Splitting>
1

$$$$
5-Indanol
  SciTegic01221512053D

 10 11  0  0  0  0            999 V2000
   -2.3787    1.7478   -0.3421 C   0  0  0  0  0  0  0  0  0  1  0  0
   -1.8592    0.9405    0.9047 C   0  0  0  0  0  0  0  0  0  2  0  0
   -0.4538    0.7071    0.4901 C   0  0  0  0  0  0  0  0  0  3  0  0
   -0.0508    1.5632   -0.5089 C   0  0  0  0  0  0  0  0  0  4  0  0
   -1.1240    2.5026   -0.9184 C   0  0  0  0  0  0  0  0  0  5  0  0
    1.2387    1.5205   -1.0183 C   0  0  0  0  0  0  0  0  0  6  0  0
    2.1174    0.5755   -0.4932 C   0  0  0  0  0  0  0  0  0  7  0  0
    1.7095   -0.2939    0.5204 C   0  0  0  0  0  0  0  0  0  8  0  0
    0.4132   -0.2330    1.0276 C   0  0  0  0  0  0  0  0  0  9  0  0
    2.6060   -1.2263    1.0309 O   0  0  0  0  0  0  0  0  0 10  0  0
  8 10  1  0
  9  3  4  0
  8  9  4  0
  7  8  4  0
  6  7  4  0
  4  6  4  0
  5  1  1  0
  4  5  1  0
  3  4  4  0
  2  3  1  0
  1  2  1  0
M  END
> <Name>
5-Indanol

> <CAS RN>
001470-94-6

> <Log Koc>
3.63

> <VP-0>
5.80058

> <nAromBond>
6

> <MAXDP>
3.09639

> <nHBAcc>
0

> <Splitting>
2

$$$$
Butyl-N-phenylcarbamate
  SciTegic01221512053D

 14 14  0  0  0  0            999 V2000
    1.8904    5.4590   -2.0754 C   0  0  0  0  0  0  0  0  0  1  0  0
    0.4732    5.1700   -1.5399 C   0  0  0  0  0  0  0  0  0  2  0  0
    0.4071    5.4873   -0.0286 C   0  0  0  0  0  0  0  0  0  3  0  0
    1.4234    4.6024    0.7360 C   0  0  0  0  0  0  0  0  0  4  0  0
    1.1178    3.2097    0.5478 O   0  0  0  0  0  0  0  0  0  5  0  0
    0.0172    2.7953    1.3234 C   0  0  0  0  0  0  0  0  0  6  0  0
   -0.5239    3.5931    2.0985 O   0  0  0  0  0  0  0  0  0  7  0  0
   -0.4609    1.4570    1.2866 N   0  0  0  0  0  0  0  0  0  8  0  0
    0.0366    0.4357    0.4296 C   0  0  0  0  0  0  0  0  0  9  0  0
    0.9812    0.6941   -0.5590 C   0  0  0  0  0  0  0  0  0 10  0  0
    1.4389   -0.3282   -1.3822 C   0  0  0  0  0  0  0  0  0 11  0  0
    0.9522   -1.6197   -1.2205 C   0  0  0  0  0  0  0  0  0 12  0  0
    0.0077   -1.8842   -0.2357 C   0  0  0  0  0  0  0  0  0 13  0  0
   -0.4486   -0.8587    0.5847 C   0  0  0  0  0  0  0  0  0 14  0  0
 14  9  4  0
 13 14  4  0
 12 13  4  0
 11 12  4  0
 10 11  4  0
  9 10  4  0
  8  9  1  0
  6  8  1  0
  6  7  2  0
  5  6  1  0
  4  5  1  0
  3  4  1  0
  2  3  1  0
  1  2  1  0
M  END
> <Name>
Butyl-N-phenylcarbamate

> <CAS RN>
001538-74-5

> <Log Koc>
2.26

> <VP-0>
8.32457

> <nAromBond>
6

> <MAXDP>
4.15394

> <nHBAcc>
3

> <Splitting>
2

$$$$
Carbofuran
  SciTegic01221512053D

 16 17  0  0  0  0            999 V2000
    4.4604    1.6586    0.1875 C   0  0  0  0  0  0  0  0  0  1  0  0
    4.0607    2.9887    0.9355 C   0  0  0  0  0  0  0  0  0  2  0  0
    2.6021    2.9102    0.7064 C   0  0  0  0  0  0  0  0  0  3  0  0
    2.2366    1.6209    0.3978 C   0  0  0  0  0  0  0  0  0  4  0  0
    3.3195    0.8164    0.3307 O   0  0  0  0  0  0  0  0  0  5  0  0
    0.9124    1.2659    0.1900 C   0  0  0  0  0  0  0  0  0  6  0  0
   -0.0397    2.2802    0.3051 C   0  0  0  0  0  0  0  0  0  7  0  0
    0.3301    3.5900    0.6211 C   0  0  0  0  0  0  0  0  0  8  0  0
    1.6657    3.9236    0.8361 C   0  0  0  0  0  0  0  0  0  9  0  0
    0.6102   -0.0976   -0.1303 O   0  0  0  0  0  0  0  0  0 10  0  0
   -0.7520   -0.4746   -0.3494 C   0  0  0  0  0  0  0  0  0 11  0  0
   -1.6965    0.3193   -0.2771 O   0  0  0  0  0  0  0  0  0 12  0  0
   -1.0283   -1.8064   -0.6605 N   0  0  0  0  0  0  0  0  0 13  0  0
   -2.3819   -2.2234   -0.8871 C   0  0  0  0  0  0  0  0  0 14  0  0
    5.7937    1.0600    0.6682 C   0  0  0  0  0  0  0  0  0 15  0  0
    4.5481    1.9684   -1.3219 C   0  0  0  0  0  0  0  0  0 16  0  0
  1 16  1  0
  1 15  1  0
 13 14  1  0
 11 13  1  0
 11 12  2  0
 10 11  1  0
  6 10  1  0
  9  3  4  0
  8  9  4  0
  7  8  4  0
  6  7  4  0
  4  6  4  0
  5  1  1  0
  4  5  1  0
  3  4  4  0
  2  3  1  0
  1  2  1  0
M  END
> <Name>
Carbofuran

> <CAS RN>
001563-66-2

> <Log Koc>
1.61

> <VP-0>
9.6639

> <nAromBond>
6

> <MAXDP>
4.15353

> <nHBAcc>
2

> <Splitting>
2

$$$$
Trifluralin
  SciTegic01221512053D

 23 23  0  0  0  0            999 V2000
   -1.0207    1.6568   -0.1693 C   0  0  0  0  0  0  0  0  0  1  0  0
   -0.0432    2.6140   -0.3727 C   0  0  0  0  0  0  0  0  0  2  0  0
    1.2865    2.2352   -0.3613 C   0  0  0  0  0  0  0  0  0  3  0  0
    1.6502    0.9089   -0.1500 C   0  0  0  0  0  0  0  0  0  4  0  0
    0.6668   -0.0721    0.0740 C   0  0  0  0  0  0  0  0  0  5  0  0
   -0.6839    0.3298    0.0555 C   0  0  0  0  0  0  0  0  0  6  0  0
   -1.7810   -0.5351    0.2842 N   0  0  0  0  0  0  0  0  0  7  0  0
   -3.0052   -0.0599    0.1082 O   0  0  0  0  0  0  0  0  0  8  0  0
   -1.6419   -1.7394    0.7734 O   0  0  0  0  0  0  0  0  0  9  0  0
    1.0104   -1.4832    0.3017 N   0  0  0  0  0  0  0  0  0 10  0  0
    0.6717   -2.4629   -0.7593 C   0  0  0  0  0  0  0  0  0 11  0  0
    0.8587   -3.9707   -0.3533 C   0  0  0  0  0  0  0  0  0 12  0  0
   -0.2404   -4.4778    0.6315 C   0  0  0  0  0  0  0  0  0 13  0  0
    1.8652   -1.9263    1.4405 C   0  0  0  0  0  0  0  0  0 14  0  0
    1.9352   -0.9269    2.6147 C   0  0  0  0  0  0  0  0  0 15  0  0
    2.9105   -1.4743    3.6729 C   0  0  0  0  0  0  0  0  0 16  0  0
    3.0509    0.6602   -0.2102 N   0  0  0  0  0  0  0  0  0 17  0  0
    3.5573   -0.5479   -0.3352 O   0  0  0  0  0  0  0  0  0 18  0  0
    3.8710    1.6976   -0.2816 O   0  0  0  0  0  0  0  0  0 19  0  0
   -0.4244    4.0426   -0.6047 C   0  0  0  0  0  0  0  0  0 20  0  0
    0.6957    4.8397   -0.7165 F   0  0  0  0  0  0  0  0  0 21  0  0
   -1.2339    4.4615    0.4305 F   0  0  0  0  0  0  0  0  0 22  0  0
   -1.1890    4.1132   -1.7503 F   0  0  0  0  0  0  0  0  0 23  0  0
 20 23  1  0
 20 22  1  0
 20 21  1  0
  2 20  1  0
 17 19  1  0
 17 18  1  0
  4 17  1  0
 15 16  1  0
 14 15  1  0
 10 14  1  0
 12 13  1  0
 11 12  1  0
 10 11  1  0
  5 10  1  0
  7  9  1  0
  7  8  1  0
  6  7  1  0
  6  1  4  0
  5  6  4  0
  4  5  4  0
  3  4  4  0
  2  3  4  0
  1  2  4  0
M  END
> <Name>
Trifluralin

> <CAS RN>
001582-09-8

> <Log Koc>
4.15

> <VP-0>
12.2949

> <nAromBond>
6

> <MAXDP>
4.84483

> <nHBAcc>
1

> <Splitting>
1

$$$$
Atratone
  SciTegic01221512053D

 15 15  0  0  0  0            999 V2000
   -1.0380    1.0130   -0.1539 C   0  0  0  0  0  0  0  0  0  1  0  0
   -0.2974    2.1090   -0.0510 N   0  0  0  0  0  0  0  0  0  2  0  0
    1.0240    2.0194    0.0305 C   0  0  0  0  0  0  0  0  0  3  0  0
    1.6005    0.8233    0.0087 N   0  0  0  0  0  0  0  0  0  4  0  0
    0.8633   -0.2744   -0.0931 C   0  0  0  0  0  0  0  0  0  5  0  0
   -0.4571   -0.1787   -0.1754 N   0  0  0  0  0  0  0  0  0  6  0  0
    1.4853   -1.5289   -0.1168 N   0  0  0  0  0  0  0  0  0  7  0  0
    0.7051   -2.7354   -0.1900 C   0  0  0  0  0  0  0  0  0  8  0  0
    0.0575   -3.0288    1.1798 C   0  0  0  0  0  0  0  0  0  9  0  0
    1.7871    3.2100    0.1387 N   0  0  0  0  0  0  0  0  0 10  0  0
    3.2382    3.2293    0.2316 C   0  0  0  0  0  0  0  0  0 11  0  0
    3.8807    2.6039   -1.0265 C   0  0  0  0  0  0  0  0  0 12  0  0
    3.7213    2.4794    1.4930 C   0  0  0  0  0  0  0  0  0 13  0  0
   -2.4265    1.1083   -0.2397 O   0  0  0  0  0  0  0  0  0 14  0  0
   -2.8268    2.4817   -0.1974 C   0  0  0  0  0  0  0  0  0 15  0  0
 14 15  1  0
  1 14  1  0
 11 13  1  0
 11 12  1  0
 10 11  1  0
  3 10  1  0
  8  9  1  0
  7  8  1  0
  5  7  1  0
  6  1  4  0
  5  6  4  0
  4  5  4  0
  3  4  4  0
  2  3  4  0
  1  2  4  0
M  END
> <Name>
Atratone

> <CAS RN>
001610-17-9

> <Log Koc>
2.64

> <VP-0>
9.53435

> <nAromBond>
6

> <MAXDP>
1.48119

> <nHBAcc>
5

> <Splitting>
2

$$$$
Prometon
  SciTegic01221512053D

 16 16  0  0  0  0            999 V2000
   -0.9838    0.8266    0.0548 N   0  0  0  0  0  0  0  0  0  1  0  0
   -0.2763    1.9487    0.0371 C   0  0  0  0  0  0  0  0  0  2  0  0
    1.0493    1.8864    0.0807 N   0  0  0  0  0  0  0  0  0  3  0  0
    1.6690    0.7152    0.1416 C   0  0  0  0  0  0  0  0  0  4  0  0
    0.9531   -0.4024    0.1589 N   0  0  0  0  0  0  0  0  0  5  0  0
   -0.3710   -0.3481    0.1156 C   0  0  0  0  0  0  0  0  0  6  0  0
   -1.1134   -1.5282    0.1344 O   0  0  0  0  0  0  0  0  0  7  0  0
   -2.5118   -1.2281    0.0801 C   0  0  0  0  0  0  0  0  0  8  0  0
    3.0861    0.6906    0.1867 N   0  0  0  0  0  0  0  0  0  9  0  0
    3.8671   -0.5342    0.2559 C   0  0  0  0  0  0  0  0  0 10  0  0
    3.6160   -1.4208   -0.9842 C   0  0  0  0  0  0  0  0  0 11  0  0
    3.5385   -1.3271    1.5404 C   0  0  0  0  0  0  0  0  0 12  0  0
   -0.9598    3.1897   -0.0282 N   0  0  0  0  0  0  0  0  0 13  0  0
   -0.2860    4.4783   -0.0504 C   0  0  0  0  0  0  0  0  0 14  0  0
    0.6282    4.6030   -1.2895 C   0  0  0  0  0  0  0  0  0 15  0  0
    0.5443    4.6897    1.2352 C   0  0  0  0  0  0  0  0  0 16  0  0
 14 16  1  0
 14 15  1  0
 13 14  1  0
  2 13  1  0
 10 12  1  0
 10 11  1  0
  9 10  1  0
  4  9  1  0
  7  8  1  0
  6  7  1  0
  6  1  4  0
  5  6  4  0
  4  5  4  0
  3  4  4  0
  2  3  4  0
  1  2  4  0
M  END
> <Name>
Prometon

> <CAS RN>
001610-18-0

> <Log Koc>
2.57

> <VP-0>
10.4046

> <nAromBond>
6

> <MAXDP>
1.51643

> <nHBAcc>
5

> <Splitting>
2

$$$$
N,N'-Diethylhydrazine
  SciTegic01221512053D

  6  5  0  0  0  0            999 V2000
    0.9222   -2.2397    0.0458 C   0  0  0  0  0  0  0  0  0  1  0  0
    1.8704   -1.3336    0.8539 C   0  0  0  0  0  0  0  0  0  2  0  0
    1.3595    0.0464    0.8481 N   0  0  0  0  0  0  0  0  0  3  0  0
    0.0867    0.0786    1.4320 N   0  0  0  0  0  0  0  0  0  4  0  0
   -0.4153    1.4617    1.4454 C   0  0  0  0  0  0  0  0  0  5  0  0
   -0.5094    1.9919    0.0020 C   0  0  0  0  0  0  0  0  0  6  0  0
  5  6  1  0
  4  5  1  0
  3  4  1  0
  2  3  1  0
  1  2  1  0
M  END
> <Name>
N,N'-Diethylhydrazine

> <CAS RN>
001615-80-1

> <Log Koc>
1.18

> <VP-0>
4.41421

> <nAromBond>
0

> <MAXDP>
0.447917

> <nHBAcc>
2

> <Splitting>
2

$$$$
Aldicarb sulfoxide
  SciTegic01221512053D

 13 12  0  0  0  0            999 V2000
    1.3601    0.9801    4.6525 C   0  0  0  0  0  0  0  0  0  1  0  0
    0.3874    0.7860    3.6173 N   0  0  0  0  0  0  0  0  0  2  0  0
   -0.9468    1.1306    3.8392 C   0  0  0  0  0  0  0  0  0  3  0  0
   -1.2929    1.6029    4.9278 O   0  0  0  0  0  0  0  0  0  4  0  0
   -1.8821    0.9450    2.8322 O   0  0  0  0  0  0  0  0  0  5  0  0
   -1.2748    0.4329    1.7780 N   0  0  0  0  0  0  0  0  0  6  0  0
   -1.9306    0.1858    0.7199 C   0  0  0  0  0  0  0  0  0  7  0  0
   -1.2283   -0.3962   -0.4694 C   0  0  0  0  0  0  0  0  0  8  0  0
   -1.8743    0.1329   -1.7623 C   0  0  0  0  0  0  0  0  0  9  0  0
   -1.3814   -1.9270   -0.4334 C   0  0  0  0  0  0  0  0  0 10  0  0
    0.5329    0.0196   -0.4129 S   0  0  0  0  0  0  0  0  0 11  0  0
    1.2328   -0.5968   -1.6090 O   0  0  0  0  0  0  0  0  0 12  0  0
    0.7376    1.8186   -0.4578 C   0  0  0  0  0  0  0  0  0 13  0  0
 11 13  1  0
 11 12  2  0
  8 11  1  0
  8 10  1  0
  8  9  1  0
  7  8  1  0
  6  7  2  0
  5  6  1  0
  3  5  1  0
  3  4  2  0
  2  3  1  0
  1  2  1  0
M  END
> <Name>
Aldicarb sulfoxide

> <CAS RN>
001646-87-3

> <Log Koc>
0.56

> <VP-0>
8.61642

> <nAromBond>
0

> <MAXDP>
4.27203

> <nHBAcc>
3

> <Splitting>
2

$$$$
Aldicarb sulfone (=aldoxycarb)
  SciTegic01221512053D

 14 13  0  0  0  0            999 V2000
    2.7796    2.3417   -2.3522 C   0  0  0  0  0  0  0  0  0  1  0  0
    2.7813    3.1364   -0.7264 S   0  0  0  0  0  0  0  0  0  2  0  0
    3.5962    2.3027    0.2441 O   0  0  0  0  0  0  0  0  0  3  0  0
    3.3904    4.5208   -0.8394 O   0  0  0  0  0  0  0  0  0  4  0  0
    1.0831    3.2752   -0.1230 C   0  0  0  0  0  0  0  0  0  5  0  0
    0.2356    4.1263   -1.0852 C   0  0  0  0  0  0  0  0  0  6  0  0
    1.1191    3.9415    1.2634 C   0  0  0  0  0  0  0  0  0  7  0  0
    0.4881    1.9070    0.0061 C   0  0  0  0  0  0  0  0  0  8  0  0
    1.1503    0.9766    0.5664 N   0  0  0  0  0  0  0  0  0  9  0  0
    0.7203   -0.3118    0.7455 O   0  0  0  0  0  0  0  0  0 10  0  0
   -0.5847   -0.6950    0.2800 C   0  0  0  0  0  0  0  0  0 11  0  0
   -1.3654    0.0811   -0.2852 O   0  0  0  0  0  0  0  0  0 12  0  0
   -0.9941   -2.0144    0.4777 N   0  0  0  0  0  0  0  0  0 13  0  0
   -2.2895   -2.4378    0.0299 C   0  0  0  0  0  0  0  0  0 14  0  0
 13 14  1  0
 11 13  1  0
 11 12  2  0
 10 11  1  0
  9 10  1  0
  8  9  2  0
  5  8  1  0
  5  7  1  0
  5  6  1  0
  2  5  1  0
  2  4  2  0
  2  3  2  0
  1  2  1  0
M  END
> <Name>
Aldicarb sulfone (=aldoxycarb)

> <CAS RN>
001646-88-4

> <Log Koc>
0.71

> <VP-0>
8.76955

> <nAromBond>
0

> <MAXDP>
4.29903

> <nHBAcc>
4

> <Splitting>
2

$$$$
Bromoxynil
  SciTegic01221512053D

 11 11  0  0  0  0            999 V2000
   -0.9163    0.8659   -0.0003 C   0  0  0  0  0  0  0  0  0  1  0  0
   -0.2220    2.0704    0.0003 C   0  0  0  0  0  0  0  0  0  2  0  0
    1.1682    2.0705    0.0003 C   0  0  0  0  0  0  0  0  0  3  0  0
    1.8635    0.8667   -0.0002 C   0  0  0  0  0  0  0  0  0  4  0  0
    1.1689   -0.3375   -0.0008 C   0  0  0  0  0  0  0  0  0  5  0  0
   -0.2213   -0.3381   -0.0008 C   0  0  0  0  0  0  0  0  0  6  0  0
    2.1206   -1.9823   -0.0016 Br  0  0  0  0  0  0  0  0  0  7  0  0
    3.2539    0.8671   -0.0002 O   0  0  0  0  0  0  0  0  0  8  0  0
    2.1189    3.7159    0.0011 Br  0  0  0  0  0  0  0  0  0  9  0  0
   -2.3387    0.8655   -0.0003 C   0  0  0  0  0  0  0  0  0 10  0  0
   -3.4896    0.8651   -0.0004 N   0  0  0  0  0  0  0  0  0 11  0  0
 10 11  3  0
  1 10  1  0
  3  9  1  0
  4  8  1  0
  5  7  1  0
  6  1  4  0
  5  6  4  0
  4  5  4  0
  3  4  4  0
  2  3  4  0
  1  2  4  0
M  END
> <Name>
Bromoxynil

> <CAS RN>
001689-84-5

> <Log Koc>
2.28

> <VP-0>
8.47705

> <nAromBond>
6

> <MAXDP>
3.43375

> <nHBAcc>
1

> <Splitting>
2

$$$$
Bromoxynil octanoate
  SciTegic01221512053D

 20 20  0  0  0  0            999 V2000
    3.4291    4.8886   -2.9283 C   0  0  0  0  0  0  0  0  0  1  0  0
    2.2988    3.9542   -2.4659 C   0  0  0  0  0  0  0  0  0  2  0  0
    1.0432    4.8006   -2.1637 C   0  0  0  0  0  0  0  0  0  3  0  0
    1.2364    5.7878   -0.9570 C   0  0  0  0  0  0  0  0  0  4  0  0
    0.8460    5.1687    0.4376 C   0  0  0  0  0  0  0  0  0  5  0  0
    1.7810    4.0483    0.9918 C   0  0  0  0  0  0  0  0  0  6  0  0
    1.0704    3.2245    2.1541 C   0  0  0  0  0  0  0  0  0  7  0  0
   -0.1238    2.4892    1.5368 C   0  0  0  0  0  0  0  0  0  8  0  0
   -1.0137    3.1401    0.9852 O   0  0  0  0  0  0  0  0  0  9  0  0
   -0.0869    1.0429    1.4416 O   0  0  0  0  0  0  0  0  0 10  0  0
   -0.8381    0.3800    0.4014 C   0  0  0  0  0  0  0  0  0 11  0  0
   -0.3658    1.1256   -0.6833 C   0  0  0  0  0  0  0  0  0 12  0  0
    0.9767    1.0181   -1.0398 C   0  0  0  0  0  0  0  0  0 13  0  0
    1.7647    0.0271   -0.4665 C   0  0  0  0  0  0  0  0  0 14  0  0
    1.1489   -0.9630    0.2903 C   0  0  0  0  0  0  0  0  0 15  0  0
   -0.1956   -0.8387    0.6194 C   0  0  0  0  0  0  0  0  0 16  0  0
   -1.0950   -2.2373    1.5421 Br  0  0  0  0  0  0  0  0  0 17  0  0
    3.1602   -0.0131   -0.7017 C   0  0  0  0  0  0  0  0  0 18  0  0
    4.2941   -0.0441   -0.8929 N   0  0  0  0  0  0  0  0  0 19  0  0
   -1.5098    2.3851   -1.5653 Br  0  0  0  0  0  0  0  0  0 20  0  0
 12 20  1  0
 18 19  3  0
 14 18  1  0
 16 17  1  0
 16 11  4  0
 15 16  4  0
 14 15  4  0
 13 14  4  0
 12 13  4  0
 11 12  4  0
 10 11  1  0
  8 10  1  0
  8  9  2  0
  7  8  1  0
  6  7  1  0
  5  6  1  0
  4  5  1  0
  3  4  1  0
  2  3  1  0
  1  2  1  0
M  END
> <Name>
Bromoxynil octanoate

> <CAS RN>
001689-99-2

> <Log Koc>
4

> <VP-0>
14.589

> <nAromBond>
6

> <MAXDP>
4.86878

> <nHBAcc>
2

> <Splitting>
2

$$$$
Pyrazon
  SciTegic01221512053D

 17 18  0  0  0  0            999 V2000
    0.7457   -0.9080   -1.3549 N   0  0  0  0  0  0  0  0  0  1  0  0
    1.8797   -0.3050   -0.6416 C   0  0  1  0  0  0  0  0  0  2  0  0
    2.7559   -0.9654   -0.7095 H   0  0  0  0  0  0  0  0  0  3  0  0
    2.2210    1.0463   -1.2271 C   0  0  1  0  0  0  0  0  0  4  0  0
    2.5155    0.9795   -2.2839 H   0  0  0  0  0  0  0  0  0  5  0  0
    1.0597    1.9657   -1.0796 C   0  0  0  0  0  0  0  0  0  6  0  0
    0.9375    2.8620   -1.9210 O   0  0  0  0  0  0  0  0  0  7  0  0
    0.1683    1.8036   -0.0623 N   0  0  0  0  0  0  0  0  0  8  0  0
    0.3011    0.7818    0.8925 N   0  0  0  0  0  0  0  0  0  9  0  0
    1.5158   -0.0612    0.8018 C   0  0  0  0  0  0  0  0  0 10  0  0
   -0.9797    2.6475    0.1035 C   0  0  0  0  0  0  0  0  0 11  0  0
   -1.8296    2.3853    1.1730 C   0  0  0  0  0  0  0  0  0 12  0  0
   -2.9591    3.1666    1.3883 C   0  0  0  0  0  0  0  0  0 13  0  0
   -3.2486    4.2214    0.5313 C   0  0  0  0  0  0  0  0  0 14  0  0
   -2.4054    4.4909   -0.5397 C   0  0  0  0  0  0  0  0  0 15  0  0
   -1.2772    3.7065   -0.7505 C   0  0  0  0  0  0  0  0  0 16  0  0
    3.5764    1.7173   -0.3152 Cl  0  0  0  0  0  0  0  0  0 17  0  0
  4 17  1  0
 16 11  4  0
 15 16  4  0
 14 15  4  0
 13 14  4  0
 12 13  4  0
 11 12  4  0
  8 11  1  0
 10  2  1  0
  9 10  1  0
  8  9  1  0
  6  8  1  0
  6  7  2  0
  4  6  1  0
  4  5  1  0
  2  4  1  0
  2  3  1  0
  1  2  1  0
M  END
> <Name>
Pyrazon

> <CAS RN>
001698-60-8

> <Log Koc>
2.07

> <VP-0>
8.81526

> <nAromBond>
6

> <MAXDP>
4.96048

> <nHBAcc>
4

> <Splitting>
2

$$$$
Monolinuron
  SciTegic01221512053D

 14 14  0  0  0  0            999 V2000
    1.4758    3.6010   -0.1764 C   0  0  0  0  0  0  0  0  0  1  0  0
    2.8605    3.6129   -0.0588 C   0  0  0  0  0  0  0  0  0  2  0  0
    3.5476    2.4235    0.1517 C   0  0  0  0  0  0  0  0  0  3  0  0
    2.8496    1.2247    0.2444 C   0  0  0  0  0  0  0  0  0  4  0  0
    1.4638    1.2054    0.1275 C   0  0  0  0  0  0  0  0  0  5  0  0
    0.7815    2.4003   -0.0833 C   0  0  0  0  0  0  0  0  0  6  0  0
    0.7912   -0.0453    0.2290 N   0  0  0  0  0  0  0  0  0  7  0  0
   -0.6152   -0.2304    0.1234 C   0  0  0  0  0  0  0  0  0  8  0  0
   -1.3559    0.7405   -0.0732 O   0  0  0  0  0  0  0  0  0  9  0  0
   -1.1082   -1.5874    0.2563 N   0  0  0  0  0  0  0  0  0 10  0  0
   -2.4269   -1.9997    0.1874 O   0  0  0  0  0  0  0  0  0 11  0  0
   -3.4376   -1.0047   -0.0387 C   0  0  0  0  0  0  0  0  0 12  0  0
   -0.1267   -2.6088    0.4826 C   0  0  0  0  0  0  0  0  0 13  0  0
    3.7261    5.1038   -0.1743 Cl  0  0  0  0  0  0  0  0  0 14  0  0
  2 14  1  0
 10 13  1  0
 11 12  1  0
 10 11  1  0
  8 10  1  0
  8  9  2  0
  7  8  1  0
  5  7  1  0
  6  1  4  0
  5  6  4  0
  4  5  4  0
  3  4  4  0
  2  3  4  0
  1  2  4  0
M  END
> <Name>
Monolinuron

> <CAS RN>
001746-81-2

> <Log Koc>
2.2

> <VP-0>
8.707

> <nAromBond>
6

> <MAXDP>
4.32844

> <nHBAcc>
2

> <Splitting>
2

$$$$
Diamidafos
  SciTegic01221512053D

 13 13  0  0  0  0            999 V2000
    3.2658    1.1816   -0.2804 C   0  0  0  0  0  0  0  0  0  1  0  0
    1.9081    1.0325   -0.0184 C   0  0  0  0  0  0  0  0  0  2  0  0
    1.2206    2.0609    0.6197 C   0  0  0  0  0  0  0  0  0  3  0  0
    1.8820    3.2252    0.9925 C   0  0  0  0  0  0  0  0  0  4  0  0
    3.2389    3.3680    0.7282 C   0  0  0  0  0  0  0  0  0  5  0  0
    3.9307    2.3448    0.0910 C   0  0  0  0  0  0  0  0  0  6  0  0
    1.2676   -0.1722   -0.4162 O   0  0  0  0  0  0  0  0  0  7  0  0
   -0.2679   -0.2619   -0.0820 P   0  0  0  0  0  0  0  0  0  8  0  0
   -0.7329   -1.4912   -0.5033 O   0  0  0  0  0  0  0  0  0  9  0  0
   -1.0914    0.8724   -0.8496 N   0  0  0  0  0  0  0  0  0 10  0  0
   -0.9446    0.6976   -2.3057 C   0  0  0  0  0  0  0  0  0 11  0  0
   -0.5080   -0.1508    1.4910 N   0  0  0  0  0  0  0  0  0 12  0  0
   -1.9438   -0.2774    1.7769 C   0  0  0  0  0  0  0  0  0 13  0  0
 12 13  1  0
  8 12  1  0
 10 11  1  0
  8 10  1  0
  8  9  2  0
  7  8  1  0
  2  7  1  0
  6  1  4  0
  5  6  4  0
  4  5  4  0
  3  4  4  0
  2  3  4  0
  1  2  4  0
M  END
> <Name>
Diamidafos

> <CAS RN>
001754-58-1

> <Log Koc>
1.51

> <VP-0>
7.8744

> <nAromBond>
6

> <MAXDP>
4.79911

> <nHBAcc>
3

> <Splitting>
2

$$$$
Nitrofen
  SciTegic01221512053D

 18 19  0  0  0  0            999 V2000
    2.0825    7.3560    0.6721 O   0  0  0  0  0  0  0  0  0  1  0  0
    1.0152    6.8425    1.2664 N   0  0  0  0  0  0  0  0  0  2  0  0
    0.2390    7.6093    2.0139 O   0  0  0  0  0  0  0  0  0  3  0  0
    0.7197    5.4917    1.1077 C   0  0  0  0  0  0  0  0  0  4  0  0
    1.5288    4.6973    0.3128 C   0  0  0  0  0  0  0  0  0  5  0  0
    1.2346    3.3479    0.1582 C   0  0  0  0  0  0  0  0  0  6  0  0
    0.1364    2.7712    0.7778 C   0  0  0  0  0  0  0  0  0  7  0  0
   -0.6606    3.5786    1.5872 C   0  0  0  0  0  0  0  0  0  8  0  0
   -0.3802    4.9302    1.7485 C   0  0  0  0  0  0  0  0  0  9  0  0
   -0.2104    1.3699    0.7089 O   0  0  0  0  0  0  0  0  0 10  0  0
    0.3400    0.3023   -0.1604 C   0  0  0  0  0  0  0  0  0 11  0  0
    1.1155    0.3835   -1.3355 C   0  0  0  0  0  0  0  0  0 12  0  0
    1.5201   -0.7843   -1.9761 C   0  0  0  0  0  0  0  0  0 13  0  0
    1.1808   -2.0360   -1.4886 C   0  0  0  0  0  0  0  0  0 14  0  0
    0.4038   -2.1298   -0.3466 C   0  0  0  0  0  0  0  0  0 15  0  0
   -0.0071   -0.9697    0.2945 C   0  0  0  0  0  0  0  0  0 16  0  0
    1.7128   -3.4614   -2.3065 Cl  0  0  0  0  0  0  0  0  0 17  0  0
    1.5958    1.8315   -2.1431 Cl  0  0  0  0  0  0  0  0  0 18  0  0
 12 18  1  0
 14 17  1  0
 16 11  4  0
 15 16  4  0
 14 15  4  0
 13 14  4  0
 12 13  4  0
 11 12  4  0
 10 11  1  0
  7 10  1  0
  9  4  4  0
  8  9  4  0
  7  8  4  0
  6  7  4  0
  5  6  4  0
  4  5  4  0
  2  4  1  0
  2  3  1  0
  1  2  1  0
M  END
> <Name>
Nitrofen

> <CAS RN>
001836-75-5

> <Log Koc>
3.65

> <VP-0>
10.3328

> <nAromBond>
12

> <MAXDP>
3.53796

> <nHBAcc>
0

> <Splitting>
2

$$$$
Chlornitrofen
  SciTegic01221512053D

 19 20  0  0  0  0            999 V2000
    1.6494    5.5331   -1.9367 O   0  0  0  0  0  0  0  0  0  1  0  0
    2.2007    4.3781   -2.2797 N   0  0  0  0  0  0  0  0  0  2  0  0
    1.8417    3.2130   -1.6084 C   0  0  0  0  0  0  0  0  0  3  0  0
    0.8887    3.2656   -0.6004 C   0  0  0  0  0  0  0  0  0  4  0  0
    0.5328    2.1056    0.0722 C   0  0  0  0  0  0  0  0  0  5  0  0
    1.1037    0.8795   -0.2452 C   0  0  0  0  0  0  0  0  0  6  0  0
    0.8246   -0.3585    0.4438 O   0  0  0  0  0  0  0  0  0  7  0  0
   -0.2428   -0.6689    1.4229 C   0  0  0  0  0  0  0  0  0  8  0  0
    0.0245   -1.8362    2.1326 C   0  0  0  0  0  0  0  0  0  9  0  0
   -0.8329   -2.3159    3.1155 C   0  0  0  0  0  0  0  0  0 10  0  0
   -1.9987   -1.6274    3.4022 C   0  0  0  0  0  0  0  0  0 11  0  0
   -3.0772   -2.2013    4.6231 Cl  0  0  0  0  0  0  0  0  0 12  0  0
   -2.2972   -0.4755    2.6931 C   0  0  0  0  0  0  0  0  0 13  0  0
   -1.4442    0.0164    1.7113 C   0  0  0  0  0  0  0  0  0 14  0  0
   -2.0317    1.4253    0.9048 Cl  0  0  0  0  0  0  0  0  0 15  0  0
    1.4799   -2.7046    1.7973 Cl  0  0  0  0  0  0  0  0  0 16  0  0
    2.0693    0.8442   -1.2461 C   0  0  0  0  0  0  0  0  0 17  0  0
    2.4334    1.9997   -1.9318 C   0  0  0  0  0  0  0  0  0 18  0  0
    3.0972    4.3335   -3.2515 O   0  0  0  0  0  0  0  0  0 19  0  0
  2 19  1  0
 18  3  4  0
 17 18  4  0
  6 17  4  0
  9 16  1  0
 14 15  1  0
 14  8  4  0
 13 14  4  0
 11 13  4  0
 11 12  1  0
 10 11  4  0
  9 10  4  0
  8  9  4  0
  7  8  1  0
  6  7  1  0
  5  6  4  0
  4  5  4  0
  3  4  4  0
  2  3  1  0
  1  2  1  0
M  END
> <Name>
Chlornitrofen

> <CAS RN>
001836-77-7

> <Log Koc>
3.9

> <VP-0>
11.3894

> <nAromBond>
12

> <MAXDP>
3.59862

> <nHBAcc>
0

> <Splitting>
1

$$$$
Dimethyl 2,3,5,6-Tetrachloroterephthalate
  SciTegic01221512053D

 18 18  0  0  0  0            999 V2000
    5.0171   -0.3137    0.8035 O   0  0  0  0  0  0  0  0  0  1  0  0
    4.0846   -1.1115    0.6633 C   0  0  0  0  0  0  0  0  0  2  0  0
    2.7027   -0.6173    0.3725 C   0  0  0  0  0  0  0  0  0  3  0  0
    1.6414   -1.5078    0.2121 C   0  0  0  0  0  0  0  0  0  4  0  0
    1.8677   -3.2189    0.3405 Cl  0  0  0  0  0  0  0  0  0  5  0  0
    0.3609   -1.0396   -0.0580 C   0  0  0  0  0  0  0  0  0  6  0  0
   -0.9051   -2.2049   -0.2442 Cl  0  0  0  0  0  0  0  0  0  7  0  0
    0.1160    0.3286   -0.1730 C   0  0  0  0  0  0  0  0  0  8  0  0
    1.1771    1.2182   -0.0126 C   0  0  0  0  0  0  0  0  0  9  0  0
    2.4573    0.7500    0.2574 C   0  0  0  0  0  0  0  0  0 10  0  0
    3.7285    1.9105    0.4448 Cl  0  0  0  0  0  0  0  0  0 11  0  0
    0.9438    2.9289   -0.1424 Cl  0  0  0  0  0  0  0  0  0 12  0  0
   -1.2588    0.8426   -0.4635 C   0  0  0  0  0  0  0  0  0 13  0  0
   -1.4642    2.0564   -0.5632 O   0  0  0  0  0  0  0  0  0 14  0  0
   -2.3308   -0.0285   -0.6269 O   0  0  0  0  0  0  0  0  0 15  0  0
   -3.5239    0.7145   -0.8937 C   0  0  0  0  0  0  0  0  0 16  0  0
    4.3501   -2.4716    0.7819 O   0  0  0  0  0  0  0  0  0 17  0  0
    5.7390   -2.6728    1.0596 C   0  0  0  0  0  0  0  0  0 18  0  0
 17 18  1  0
  2 17  1  0
 15 16  1  0
 13 15  1  0
 13 14  2  0
  8 13  1  0
  9 12  1  0
 10 11  1  0
 10  3  4  0
  9 10  4  0
  8  9  4  0
  6  8  4  0
  6  7  1  0
  4  6  4  0
  4  5  1  0
  3  4  4  0
  2  3  1  0
  1  2  2  0
M  END
> <Name>
Dimethyl 2,3,5,6-Tetrachloroterephthalate

> <CAS RN>
001861-32-1

> <Log Koc>
3.67

> <VP-0>
12.1686

> <nAromBond>
6

> <MAXDP>
4.86053

> <nHBAcc>
4

> <Splitting>
2

$$$$
Benfluralin
  SciTegic01221512053D

 23 23  0  0  0  0            999 V2000
   -0.3351   -0.5399    3.5064 O   0  0  0  0  0  0  0  0  0  1  0  0
   -0.6016    0.2762    2.4988 N   0  0  0  0  0  0  0  0  0  2  0  0
   -1.6205    1.1062    2.6032 O   0  0  0  0  0  0  0  0  0  3  0  0
    0.2256    0.2337    1.3489 C   0  0  0  0  0  0  0  0  0  4  0  0
    0.0168    1.0468    0.2267 C   0  0  0  0  0  0  0  0  0  5  0  0
   -1.0619    1.9809    0.1995 N   0  0  0  0  0  0  0  0  0  6  0  0
   -0.8029    3.3490    0.6422 C   0  0  0  0  0  0  0  0  0  7  0  0
   -2.0601    4.2343    0.4910 C   0  0  0  0  0  0  0  0  0  8  0  0
   -1.7414    5.6728    0.9446 C   0  0  0  0  0  0  0  0  0  9  0  0
   -1.3131    5.6714    2.4249 C   0  0  0  0  0  0  0  0  0 10  0  0
   -2.4149    1.6068   -0.2808 C   0  0  0  0  0  0  0  0  0 11  0  0
   -2.5149    0.1384   -0.7642 C   0  0  0  0  0  0  0  0  0 12  0  0
    0.8930    0.9446   -0.8625 C   0  0  0  0  0  0  0  0  0 13  0  0
    1.9468    0.0400   -0.8241 C   0  0  0  0  0  0  0  0  0 14  0  0
    2.1442   -0.7658    0.2861 C   0  0  0  0  0  0  0  0  0 15  0  0
    1.2844   -0.6661    1.3687 C   0  0  0  0  0  0  0  0  0 16  0  0
    3.2817   -1.7376    0.3163 C   0  0  0  0  0  0  0  0  0 17  0  0
    2.7631   -3.0106    0.2065 F   0  0  0  0  0  0  0  0  0 18  0  0
    3.9106   -1.6689    1.5417 F   0  0  0  0  0  0  0  0  0 19  0  0
    4.1563   -1.4994   -0.7237 F   0  0  0  0  0  0  0  0  0 20  0  0
    0.7641    1.7267   -2.0385 N   0  0  0  0  0  0  0  0  0 21  0  0
    1.6503    1.5682   -3.0084 O   0  0  0  0  0  0  0  0  0 22  0  0
   -0.2142    2.5937   -2.2067 O   0  0  0  0  0  0  0  0  0 23  0  0
 21 23  1  0
 21 22  1  0
 13 21  1  0
 17 20  1  0
 17 19  1  0
 17 18  1  0
 15 17  1  0
 16  4  4  0
 15 16  4  0
 14 15  4  0
 13 14  4  0
  5 13  4  0
 11 12  1  0
  6 11  1  0
  9 10  1  0
  8  9  1  0
  7  8  1  0
  6  7  1  0
  5  6  1  0
  4  5  4  0
  2  4  1  0
  2  3  1  0
  1  2  1  0
M  END
> <Name>
Benfluralin

> <CAS RN>
001861-40-1

> <Log Koc>
4.03

> <VP-0>
12.2949

> <nAromBond>
6

> <MAXDP>
4.83324

> <nHBAcc>
1

> <Splitting>
2

$$$$
Chlorothalonil
  SciTegic01221512053D

 14 14  0  0  0  0            999 V2000
   -1.7901    1.3617    1.1452 C   0  0  0  0  0  0  0  0  0  1  0  0
   -2.8432    1.4956    1.5893 N   0  0  0  0  0  0  0  0  0  2  0  0
   -0.4900    1.1965    0.5970 C   0  0  0  0  0  0  0  0  0  3  0  0
    0.2222    2.3052    0.1556 C   0  0  0  0  0  0  0  0  0  4  0  0
    1.4962    2.1459   -0.3769 C   0  0  0  0  0  0  0  0  0  5  0  0
    2.0577    0.8773   -0.4676 C   0  0  0  0  0  0  0  0  0  6  0  0
    1.3440   -0.2314   -0.0275 C   0  0  0  0  0  0  0  0  0  7  0  0
    0.0700   -0.0721    0.5044 C   0  0  0  0  0  0  0  0  0  8  0  0
   -0.8158   -1.4500    1.0513 Cl  0  0  0  0  0  0  0  0  0  9  0  0
    1.9165   -1.5294   -0.1190 C   0  0  0  0  0  0  0  0  0 10  0  0
    2.3799   -2.5802   -0.1931 N   0  0  0  0  0  0  0  0  0 11  0  0
    3.6420    0.6790   -1.1259 Cl  0  0  0  0  0  0  0  0  0 12  0  0
    2.3814    3.5244   -0.9239 Cl  0  0  0  0  0  0  0  0  0 13  0  0
   -0.4766    3.8802    0.2707 Cl  0  0  0  0  0  0  0  0  0 14  0  0
  4 14  1  0
  5 13  1  0
  6 12  1  0
 10 11  3  0
  7 10  1  0
  8  9  1  0
  8  3  4  0
  7  8  4  0
  6  7  4  0
  5  6  4  0
  4  5  4  0
  3  4  4  0
  1  3  1  0
  1  2  3  0
M  END
> <Name>
Chlorothalonil

> <CAS RN>
001897-45-6

> <Log Koc>
3.2

> <VP-0>
9.43

> <nAromBond>
6

> <MAXDP>
3.05903

> <nHBAcc>
2

> <Splitting>
2

$$$$
Atrazine
  SciTegic01221512053D

 14 14  0  0  0  0            999 V2000
   -1.0391    0.8162   -0.1476 N   0  0  0  0  0  0  0  0  0  1  0  0
   -0.2828    1.8999   -0.0306 C   0  0  0  0  0  0  0  0  0  2  0  0
    1.0386    1.7736    0.0090 N   0  0  0  0  0  0  0  0  0  3  0  0
    1.6005    0.5746   -0.0671 C   0  0  0  0  0  0  0  0  0  4  0  0
    0.8396   -0.5053   -0.1852 N   0  0  0  0  0  0  0  0  0  5  0  0
   -0.4802   -0.3841   -0.2249 C   0  0  0  0  0  0  0  0  0  6  0  0
   -1.4716   -1.7905   -0.3777 Cl  0  0  0  0  0  0  0  0  0  7  0  0
    2.9956    0.4575   -0.0261 N   0  0  0  0  0  0  0  0  0  8  0  0
    3.6273   -0.8346   -0.0704 C   0  0  0  0  0  0  0  0  0  9  0  0
    3.4726   -1.5449    1.2911 C   0  0  0  0  0  0  0  0  0 10  0  0
   -0.9104    3.1694    0.0490 N   0  0  0  0  0  0  0  0  0 11  0  0
   -0.1803    4.4207    0.1756 C   0  0  0  0  0  0  0  0  0 12  0  0
    0.7447    4.6463   -1.0411 C   0  0  0  0  0  0  0  0  0 13  0  0
    0.6521    4.4457    1.4769 C   0  0  0  0  0  0  0  0  0 14  0  0
 12 14  1  0
 12 13  1  0
 11 12  1  0
  2 11  1  0
  9 10  1  0
  8  9  1  0
  4  8  1  0
  6  7  1  0
  6  1  4  0
  5  6  4  0
  4  5  4  0
  3  4  4  0
  2  3  4  0
  1  2  4  0
M  END
> <Name>
Atrazine

> <CAS RN>
001912-24-9

> <Log Koc>
2.21

> <VP-0>
9.25999

> <nAromBond>
6

> <MAXDP>
1.25561

> <nHBAcc>
5

> <Splitting>
2

$$$$
Ipazine
  SciTegic01221512053D

 16 16  0  0  0  0            999 V2000
   -0.7712    0.8378    0.4597 N   0  0  0  0  0  0  0  0  0  1  0  0
    0.0368    1.8686    0.2409 C   0  0  0  0  0  0  0  0  0  2  0  0
    1.3218    1.6387   -0.0020 N   0  0  0  0  0  0  0  0  0  3  0  0
    1.7967    0.4003   -0.0161 C   0  0  0  0  0  0  0  0  0  4  0  0
    0.9838   -0.6224    0.2106 N   0  0  0  0  0  0  0  0  0  5  0  0
   -0.3015   -0.4024    0.4474 C   0  0  0  0  0  0  0  0  0  6  0  0
   -1.3657   -1.7313    0.7384 Cl  0  0  0  0  0  0  0  0  0  7  0  0
    3.1564    0.1808   -0.2683 N   0  0  0  0  0  0  0  0  0  8  0  0
    3.6872   -1.1551   -0.3205 C   0  0  0  0  0  0  0  0  0  9  0  0
    3.3014   -1.8231   -1.6569 C   0  0  0  0  0  0  0  0  0 10  0  0
   -0.4733    3.2126    0.2389 N   0  0  0  0  0  0  0  0  0 11  0  0
    0.4127    4.3369   -0.0866 C   0  0  0  0  0  0  0  0  0 12  0  0
    1.5888    4.4482    0.9137 C   0  0  0  0  0  0  0  0  0 13  0  0
   -0.3556    5.6783   -0.1291 C   0  0  0  0  0  0  0  0  0 14  0  0
   -1.8969    3.4722    0.4467 C   0  0  0  0  0  0  0  0  0 15  0  0
   -2.4119    2.8856    1.7872 C   0  0  0  0  0  0  0  0  0 16  0  0
 15 16  1  0
 11 15  1  0
 12 14  1  0
 12 13  1  0
 11 12  1  0
  2 11  1  0
  9 10  1  0
  8  9  1  0
  4  8  1  0
  6  7  1  0
  6  1  4  0
  5  6  4  0
  4  5  4  0
  3  4  4  0
  2  3  4  0
  1  2  4  0
M  END
> <Name>
Ipazine

> <CAS RN>
001912-25-0

> <Log Koc>
3.07

> <VP-0>
10.9143

> <nAromBond>
6

> <MAXDP>
1.44492

> <nHBAcc>
5

> <Splitting>
2

$$$$
Trietazine
  SciTegic01221512053D

 15 15  0  0  0  0            999 V2000
   -0.7547    0.7931    0.5353 N   0  0  0  0  0  0  0  0  0  1  0  0
    0.0029    1.8533    0.2839 C   0  0  0  0  0  0  0  0  0  2  0  0
    1.2829    1.6804   -0.0227 N   0  0  0  0  0  0  0  0  0  3  0  0
    1.8042    0.4614   -0.0705 C   0  0  0  0  0  0  0  0  0  4  0  0
    1.0427   -0.5936    0.1861 N   0  0  0  0  0  0  0  0  0  5  0  0
   -0.2376   -0.4272    0.4871 C   0  0  0  0  0  0  0  0  0  6  0  0
   -1.2325   -1.8002    0.8163 Cl  0  0  0  0  0  0  0  0  0  7  0  0
    3.1593    0.2970   -0.3854 N   0  0  0  0  0  0  0  0  0  8  0  0
    3.7464   -1.0155   -0.4480 C   0  0  0  0  0  0  0  0  0  9  0  0
    3.3210   -1.7247   -1.7503 C   0  0  0  0  0  0  0  0  0 10  0  0
   -0.5916    3.1445    0.3406 N   0  0  0  0  0  0  0  0  0 11  0  0
    0.1659    4.3778    0.0917 C   0  0  0  0  0  0  0  0  0 12  0  0
    1.5120    4.4378    0.8578 C   0  0  0  0  0  0  0  0  0 13  0  0
   -2.0168    3.2195    0.6004 C   0  0  0  0  0  0  0  0  0 14  0  0
   -2.5107    4.6830    0.6616 C   0  0  0  0  0  0  0  0  0 15  0  0
 14 15  1  0
 11 14  1  0
 12 13  1  0
 11 12  1  0
  2 11  1  0
  9 10  1  0
  8  9  1  0
  4  8  1  0
  6  7  1  0
  6  1  4  0
  5  6  4  0
  4  5  4  0
  3  4  4  0
  2  3  4  0
  1  2  4  0
M  END
> <Name>
Trietazine

> <CAS RN>
001912-26-1

> <Log Koc>
2.77

> <VP-0>
10.0441

> <nAromBond>
6

> <MAXDP>
1.3945

> <nHBAcc>
5

> <Splitting>
2

$$$$
Dicamba
  SciTegic01221512053D

 13 13  0  0  0  0            999 V2000
    0.8747    0.1681   -0.0275 C   0  0  0  0  0  0  0  0  0  1  0  0
    1.6344    1.3505   -0.0827 C   0  0  0  0  0  0  0  0  0  2  0  0
    3.0207    1.3361   -0.0607 C   0  0  0  0  0  0  0  0  0  3  0  0
    3.7022    0.1399    0.0174 C   0  0  0  0  0  0  0  0  0  4  0  0
    2.9798   -1.0376    0.0730 C   0  0  0  0  0  0  0  0  0  5  0  0
    1.5871   -1.0636    0.0532 C   0  0  0  0  0  0  0  0  0  6  0  0
    1.1395   -2.4674    0.1260 O   0  0  0  0  0  0  0  0  0  7  0  0
   -0.2047   -2.8967    0.1303 C   0  0  0  0  0  0  0  0  0  8  0  0
    3.8360   -2.5347    0.1709 Cl  0  0  0  0  0  0  0  0  0  9  0  0
    0.9039    2.9217   -0.1829 Cl  0  0  0  0  0  0  0  0  0 10  0  0
   -0.6723    0.3878   -0.0637 C   0  0  0  0  0  0  0  0  0 11  0  0
   -1.1282    1.5304   -0.1344 O   0  0  0  0  0  0  0  0  0 12  0  0
   -1.6072   -0.6070   -0.0233 O   0  0  0  0  0  0  0  0  0 13  0  0
 11 13  1  0
 11 12  2  0
  1 11  1  0
  2 10  1  0
  5  9  1  0
  7  8  1  0
  6  7  1  0
  6  1  4  0
  5  6  4  0
  4  5  4  0
  3  4  4  0
  2  3  4  0
  1  2  4  0
M  END
> <Name>
Dicamba

> <CAS RN>
001918-00-9

> <Log Koc>
1.5

> <VP-0>
8.1862

> <nAromBond>
6

> <MAXDP>
3.91805

> <nHBAcc>
2

> <Splitting>
2

$$$$
Picloram
  SciTegic01221512053D

 13 13  0  0  0  0            999 V2000
    1.4284    1.1870   -0.0003 C   0  0  0  0  0  0  0  0  0  1  0  0
    2.8162    1.1768   -0.0004 C   0  0  0  0  0  0  0  0  0  2  0  0
    3.4807   -0.0404   -0.0007 C   0  0  0  0  0  0  0  0  0  3  0  0
    2.7410   -1.2160   -0.0010 C   0  0  0  0  0  0  0  0  0  4  0  0
    1.4125   -1.1746   -0.0009 N   0  0  0  0  0  0  0  0  0  5  0  0
    0.7414   -0.0261   -0.0006 C   0  0  0  0  0  0  0  0  0  6  0  0
   -0.7299   -0.0736   -0.0006 C   0  0  0  0  0  0  0  0  0  7  0  0
   -1.4017    0.9630   -0.0003 O   0  0  0  0  0  0  0  0  0  8  0  0
   -1.3730   -1.3065   -0.0009 O   0  0  0  0  0  0  0  0  0  9  0  0
    3.5530   -2.7405   -0.0013 Cl  0  0  0  0  0  0  0  0  0 10  0  0
    5.2072   -0.0938   -0.0008 Cl  0  0  0  0  0  0  0  0  0 11  0  0
    3.5325    2.3742   -0.0001 N   0  0  0  0  0  0  0  0  0 12  0  0
    0.5930    2.7027    0.0000 Cl  0  0  0  0  0  0  0  0  0 13  0  0
  1 13  1  0
  2 12  1  0
  3 11  1  0
  4 10  1  0
  7  9  1  0
  7  8  2  0
  6  7  1  0
  6  1  4  0
  5  6  4  0
  4  5  4  0
  3  4  4  0
  2  3  4  0
  1  2  4  0
M  END
> <Name>
Picloram

> <CAS RN>
001918-02-1

> <Log Koc>
1.27

> <VP-0>
8.28171

> <nAromBond>
6

> <MAXDP>
3.77715

> <nHBAcc>
4

> <Splitting>
2

$$$$
Chlorthiamid
  SciTegic01221512053D

 11 11  0  0  0  0            999 V2000
    3.7869   -0.0108    0.0001 C   0  0  0  0  0  0  0  0  0  1  0  0
    3.0842   -1.2059   -0.0004 C   0  0  0  0  0  0  0  0  0  2  0  0
    1.6943   -1.2071   -0.0006 C   0  0  0  0  0  0  0  0  0  3  0  0
    0.9815   -0.0026   -0.0004 C   0  0  0  0  0  0  0  0  0  4  0  0
    1.6996    1.2005    0.0000 C   0  0  0  0  0  0  0  0  0  5  0  0
    3.0899    1.1879    0.0003 C   0  0  0  0  0  0  0  0  0  6  0  0
    0.9262    2.7496    0.0003 Cl  0  0  0  0  0  0  0  0  0  7  0  0
   -0.5374   -0.0239   -0.0007 C   0  0  0  0  0  0  0  0  0  8  0  0
   -1.3894    1.2884   -0.0005 S   0  0  0  0  0  0  0  0  0  9  0  0
   -1.2306   -1.2316   -0.0011 N   0  0  0  0  0  0  0  0  0 10  0  0
    0.8953   -2.7435   -0.0012 Cl  0  0  0  0  0  0  0  0  0 11  0  0
  3 11  1  0
  8 10  1  0
  8  9  2  0
  4  8  1  0
  5  7  1  0
  6  1  4  0
  5  6  4  0
  4  5  4  0
  3  4  4  0
  2  3  4  0
  1  2  4  0
M  END
> <Name>
Chlorthiamid

> <CAS RN>
001918-13-4

> <Log Koc>
2.26

> <VP-0>
7.80193

> <nAromBond>
6

> <MAXDP>
1.86257

> <nHBAcc>
1

> <Splitting>
2

$$$$
Propachlor
  SciTegic01221512053D

 14 14  0  0  0  0            999 V2000
    1.7175   -2.6792    2.5247 C   0  0  0  0  0  0  0  0  0  1  0  0
    3.0196   -2.3500    2.8768 C   0  0  0  0  0  0  0  0  0  2  0  0
    3.5684   -1.1566    2.4264 C   0  0  0  0  0  0  0  0  0  3  0  0
    2.8156   -0.3016    1.6296 C   0  0  0  0  0  0  0  0  0  4  0  0
    1.5078   -0.6160    1.2659 C   0  0  0  0  0  0  0  0  0  5  0  0
    0.9734   -1.8174    1.7271 C   0  0  0  0  0  0  0  0  0  6  0  0
    0.7893    0.3547    0.4188 N   0  0  0  0  0  0  0  0  0  7  0  0
    1.5559    1.5592    0.0809 C   0  0  0  0  0  0  0  0  0  8  0  0
    0.8590    2.8300    0.6252 C   0  0  0  0  0  0  0  0  0  9  0  0
    1.7296    1.6986   -1.4516 C   0  0  0  0  0  0  0  0  0 10  0  0
   -0.6077    0.2238   -0.1087 C   0  0  0  0  0  0  0  0  0 11  0  0
   -1.0750    1.1306   -0.8088 O   0  0  0  0  0  0  0  0  0 12  0  0
   -1.5268   -0.9557    0.1333 C   0  0  0  0  0  0  0  0  0 13  0  0
   -3.0621   -0.6807   -0.6946 Cl  0  0  0  0  0  0  0  0  0 14  0  0
 13 14  1  0
 11 13  1  0
 11 12  2  0
  7 11  1  0
  8 10  1  0
  8  9  1  0
  7  8  1  0
  5  7  1  0
  6  1  4  0
  5  6  4  0
  4  5  4  0
  3  4  4  0
  2  3  4  0
  1  2  4  0
M  END
> <Name>
Propachlor

> <CAS RN>
001918-16-7

> <Log Koc>
2.42

> <VP-0>
9.16056

> <nAromBond>
6

> <MAXDP>
4.72071

> <nHBAcc>
2

> <Splitting>
2

$$$$
Methyl 3,4-dichlorophenylcarbamate
  SciTegic01221512053D

 13 13  0  0  0  0            999 V2000
    2.4720    3.5194   -0.0003 C   0  0  0  0  0  0  0  0  0  1  0  0
    3.2657    2.3787   -0.0007 C   0  0  0  0  0  0  0  0  0  2  0  0
    2.6747    1.1204   -0.0009 C   0  0  0  0  0  0  0  0  0  3  0  0
    1.2897    0.9937   -0.0007 C   0  0  0  0  0  0  0  0  0  4  0  0
    0.5000    2.1398   -0.0002 C   0  0  0  0  0  0  0  0  0  5  0  0
    1.0876    3.3997   -0.0001 C   0  0  0  0  0  0  0  0  0  6  0  0
    0.7256   -0.3110   -0.0009 N   0  0  0  0  0  0  0  0  0  7  0  0
   -0.6668   -0.5908   -0.0007 C   0  0  0  0  0  0  0  0  0  8  0  0
   -1.5147    0.3094   -0.0003 O   0  0  0  0  0  0  0  0  0  9  0  0
   -1.0863   -1.9193   -0.0009 O   0  0  0  0  0  0  0  0  0 10  0  0
   -2.5159   -1.9761   -0.0006 C   0  0  0  0  0  0  0  0  0 11  0  0
    4.9870    2.5252   -0.0010 Cl  0  0  0  0  0  0  0  0  0 12  0  0
    3.2060    5.0833   -0.0001 Cl  0  0  0  0  0  0  0  0  0 13  0  0
  1 13  1  0
  2 12  1  0
 10 11  1  0
  8 10  1  0
  8  9  2  0
  7  8  1  0
  4  7  1  0
  6  1  4  0
  5  6  4  0
  4  5  4  0
  3  4  4  0
  2  3  4  0
  1  2  4  0
M  END
> <Name>
Methyl 3,4-dichlorophenylcarbamate

> <CAS RN>
001918-18-9

> <Log Koc>
2.74

> <VP-0>
8.31633

> <nAromBond>
6

> <MAXDP>
3.86768

> <nHBAcc>
3

> <Splitting>
2

$$$$
Vernolate
  SciTegic01221512053D

 13 12  0  0  0  0            999 V2000
    2.0006    2.5200    1.3473 C   0  0  0  0  0  0  0  0  0  1  0  0
    2.2589    2.1555   -0.1283 C   0  0  0  0  0  0  0  0  0  2  0  0
    2.7827    0.7080   -0.2154 C   0  0  0  0  0  0  0  0  0  3  0  0
    1.5509   -0.4082    0.4944 S   0  0  0  0  0  0  0  0  0  4  0  0
    0.0576   -0.3138   -0.4490 C   0  0  0  0  0  0  0  0  0  5  0  0
    0.0743    0.1495   -1.5958 O   0  0  0  0  0  0  0  0  0  6  0  0
   -1.1470   -0.7346    0.1140 N   0  0  0  0  0  0  0  0  0  7  0  0
   -2.3747   -0.6068   -0.6680 C   0  0  0  0  0  0  0  0  0  8  0  0
   -3.4034    0.3474    0.0090 C   0  0  0  0  0  0  0  0  0  9  0  0
   -2.8423    1.7864    0.0868 C   0  0  0  0  0  0  0  0  0 10  0  0
   -1.1388   -1.2595    1.4834 C   0  0  0  0  0  0  0  0  0 11  0  0
   -2.0546   -2.5050    1.6797 C   0  0  0  0  0  0  0  0  0 12  0  0
   -1.5096   -3.7159    0.8845 C   0  0  0  0  0  0  0  0  0 13  0  0
 12 13  1  0
 11 12  1  0
  7 11  1  0
  9 10  1  0
  8  9  1  0
  7  8  1  0
  5  7  1  0
  5  6  2  0
  4  5  1  0
  3  4  1  0
  2  3  1  0
  1  2  1  0
M  END
> <Name>
Vernolate

> <CAS RN>
001929-77-7

> <Log Koc>
2.38

> <VP-0>
9.82285

> <nAromBond>
0

> <MAXDP>
4.70257

> <nHBAcc>
2

> <Splitting>
2

$$$$
Nitrapyrin
  SciTegic01221512053D

 11 11  0  0  0  0            999 V2000
   -0.5171    0.9672    0.0002 C   0  0  0  0  0  0  0  0  0  1  0  0
    0.1649    2.1784    0.0005 C   0  0  0  0  0  0  0  0  0  2  0  0
    1.5528    2.1748    0.0012 C   0  0  0  0  0  0  0  0  0  3  0  0
    2.2167    0.9558    0.0016 C   0  0  0  0  0  0  0  0  0  4  0  0
    1.4768   -0.2213    0.0012 C   0  0  0  0  0  0  0  0  0  5  0  0
    0.1481   -0.1836    0.0006 N   0  0  0  0  0  0  0  0  0  6  0  0
    2.2903   -1.7452    0.0017 Cl  0  0  0  0  0  0  0  0  0  7  0  0
   -2.0145    0.9573   -0.0005 C   0  0  0  0  0  0  0  0  0  8  0  0
   -2.6564    2.6031   -0.0010 Cl  0  0  0  0  0  0  0  0  0  9  0  0
   -2.5757    0.0605    1.4136 Cl  0  0  0  0  0  0  0  0  0 10  0  0
   -2.5743    0.0603   -1.4151 Cl  0  0  0  0  0  0  0  0  0 11  0  0
  8 11  1  0
  8 10  1  0
  8  9  1  0
  1  8  1  0
  5  7  1  0
  6  1  4  0
  5  6  4  0
  4  5  4  0
  3  4  4  0
  2  3  4  0
  1  2  4  0
M  END
> <Name>
Nitrapyrin

> <CAS RN>
001929-82-4

> <Log Koc>
2.62

> <VP-0>
8.21484

> <nAromBond>
6

> <MAXDP>
1.63983

> <nHBAcc>
1

> <Splitting>
2

$$$$
Methyl-N-phenylcarbamate
  SciTegic01221512053D

 11 11  0  0  0  0            999 V2000
    2.8930    1.2048   -0.0013 C   0  0  0  0  0  0  0  0  0  1  0  0
    1.5056    1.1010   -0.0005 C   0  0  0  0  0  0  0  0  0  2  0  0
    0.7450    2.2677    0.0005 C   0  0  0  0  0  0  0  0  0  3  0  0
    1.3583    3.5153    0.0006 C   0  0  0  0  0  0  0  0  0  4  0  0
    2.7445    3.6079   -0.0002 C   0  0  0  0  0  0  0  0  0  5  0  0
    3.5120    2.4497   -0.0012 C   0  0  0  0  0  0  0  0  0  6  0  0
    0.9363   -0.2168   -0.0007 O   0  0  0  0  0  0  0  0  0  7  0  0
   -0.4881   -0.3671    0.0002 C   0  0  0  0  0  0  0  0  0  8  0  0
   -1.2738    0.5871    0.0010 O   0  0  0  0  0  0  0  0  0  9  0  0
   -1.0162   -1.6586    0.0000 N   0  0  0  0  0  0  0  0  0 10  0  0
   -2.4376   -1.8516    0.0008 C   0  0  0  0  0  0  0  0  0 11  0  0
 10 11  1  0
  8 10  1  0
  8  9  2  0
  7  8  1  0
  2  7  1  0
  6  1  4  0
  5  6  4  0
  4  5  4  0
  3  4  4  0
  2  3  4  0
  1  2  4  0
M  END
> <Name>
Methyl-N-phenylcarbamate

> <CAS RN>
001943-79-9

> <Log Koc>
1.73

> <VP-0>
6.20325

> <nAromBond>
6

> <MAXDP>
3.64787

> <nHBAcc>
2

> <Splitting>
2

$$$$
Chlorbufam
  SciTegic01221512053D

 16 16  0  0  0  0            999 V2000
    0.4025    3.3002    4.9640 C   0  0  0  0  0  0  0  0  0  1  0  0
   -0.4374    4.2752    5.4869 C   0  0  0  0  0  0  0  0  0  2  0  0
   -1.7137    4.4433    4.9627 C   0  0  0  0  0  0  0  0  0  3  0  0
   -2.1494    3.6398    3.9146 C   0  0  0  0  0  0  0  0  0  4  0  0
   -1.3142    2.6596    3.3901 C   0  0  0  0  0  0  0  0  0  5  0  0
   -0.0370    2.4975    3.9189 C   0  0  0  0  0  0  0  0  0  6  0  0
   -1.7718    1.8724    2.3017 N   0  0  0  0  0  0  0  0  0  7  0  0
   -1.0956    0.7256    1.8171 C   0  0  0  0  0  0  0  0  0  8  0  0
   -0.0910    0.2825    2.3878 O   0  0  0  0  0  0  0  0  0  9  0  0
   -1.4895    0.1870    0.5839 O   0  0  0  0  0  0  0  0  0 10  0  0
   -0.6738   -0.9385    0.2087 C   0  0  1  0  0  0  0  0  0 11  0  0
    0.3868   -0.6648    0.3015 H   0  0  0  0  0  0  0  0  0 12  0  0
   -0.9865   -2.1729    1.0948 C   0  0  0  0  0  0  0  0  0 13  0  0
   -0.9464   -1.2740   -1.1840 C   0  0  0  0  0  0  0  0  0 14  0  0
   -1.1717   -1.5513   -2.3352 C   0  0  0  0  0  0  0  0  0 15  0  0
   -2.7571    5.6553    5.6135 Cl  0  0  0  0  0  0  0  0  0 16  0  0
  3 16  1  0
 14 15  3  0
 11 14  1  0
 11 13  1  0
 11 12  1  0
 10 11  1  0
  8 10  1  0
  8  9  2  0
  7  8  1  0
  5  7  1  0
  6  1  4  0
  5  6  4  0
  4  5  4  0
  3  4  4  0
  2  3  4  0
  1  2  4  0
M  END
> <Name>
Chlorbufam

> <CAS RN>
001967-16-4

> <Log Koc>
2.21

> <VP-0>
8.91449

> <nAromBond>
6

> <MAXDP>
4.27753

> <nHBAcc>
3

> <Splitting>
2

$$$$
4-Bromophenylurea
  SciTegic01221512053D

 11 11  0  0  0  0            999 V2000
    2.4596    3.4368   -0.0004 C   0  0  0  0  0  0  0  0  0  1  0  0
    3.2736    2.3104    0.0001 C   0  0  0  0  0  0  0  0  0  2  0  0
    2.7047    1.0418    0.0003 C   0  0  0  0  0  0  0  0  0  3  0  0
    1.3221    0.8905    0.0000 C   0  0  0  0  0  0  0  0  0  4  0  0
    0.5120    2.0224   -0.0006 C   0  0  0  0  0  0  0  0  0  5  0  0
    1.0774    3.2923   -0.0008 C   0  0  0  0  0  0  0  0  0  6  0  0
    0.7810   -0.4243    0.0002 N   0  0  0  0  0  0  0  0  0  7  0  0
   -0.6066   -0.7287   -0.0001 C   0  0  0  0  0  0  0  0  0  8  0  0
   -1.4712    0.1550   -0.0006 O   0  0  0  0  0  0  0  0  0  9  0  0
   -1.0058   -2.0662    0.0002 N   0  0  0  0  0  0  0  0  0 10  0  0
    3.2354    5.1721   -0.0007 Br  0  0  0  0  0  0  0  0  0 11  0  0
  1 11  1  0
  8 10  1  0
  8  9  2  0
  7  8  1  0
  4  7  1  0
  6  1  4  0
  5  6  4  0
  4  5  4  0
  3  4  4  0
  2  3  4  0
  1  2  4  0
M  END
> <Name>
4-Bromophenylurea

> <CAS RN>
001967-25-5

> <Log Koc>
2.09

> <VP-0>
7.25896

> <nAromBond>
6

> <MAXDP>
3.37936

> <nHBAcc>
3

> <Splitting>
2

$$$$
3-Chlorophenylurea
  SciTegic01221512053D

 11 11  0  0  0  0            999 V2000
    2.6632    1.1483    0.0014 C   0  0  0  0  0  0  0  0  0  1  0  0
    1.2806    0.9973    0.0005 C   0  0  0  0  0  0  0  0  0  2  0  0
    0.4712    2.1295   -0.0012 C   0  0  0  0  0  0  0  0  0  3  0  0
    1.0370    3.3994   -0.0021 C   0  0  0  0  0  0  0  0  0  4  0  0
    2.4192    3.5439   -0.0013 C   0  0  0  0  0  0  0  0  0  5  0  0
    3.2323    2.4167    0.0005 C   0  0  0  0  0  0  0  0  0  6  0  0
    4.9512    2.5918    0.0015 Cl  0  0  0  0  0  0  0  0  0  7  0  0
    0.7391   -0.3172    0.0015 N   0  0  0  0  0  0  0  0  0  8  0  0
   -0.6486   -0.6211    0.0009 C   0  0  0  0  0  0  0  0  0  9  0  0
   -1.5129    0.2630   -0.0007 O   0  0  0  0  0  0  0  0  0 10  0  0
   -1.0483   -1.9585    0.0020 N   0  0  0  0  0  0  0  0  0 11  0  0
  9 11  1  0
  9 10  2  0
  8  9  1  0
  2  8  1  0
  6  7  1  0
  6  1  4  0
  5  6  4  0
  4  5  4  0
  3  4  4  0
  2  3  4  0
  1  2  4  0
M  END
> <Name>
3-Chlorophenylurea

> <CAS RN>
001967-27-7

> <Log Koc>
2.01

> <VP-0>
6.42889

> <nAromBond>
6

> <MAXDP>
3.40447

> <nHBAcc>
3

> <Splitting>
2

$$$$
Chloroxuron
  SciTegic01221512053D

 20 21  0  0  0  0            999 V2000
    1.5425    0.3422    0.4221 C   0  0  0  0  0  0  0  0  0  1  0  0
    0.5782    0.2325   -0.5685 C   0  0  0  0  0  0  0  0  0  2  0  0
    0.2055    1.3672   -1.2822 C   0  0  0  0  0  0  0  0  0  3  0  0
    0.7853    2.5978   -0.9957 C   0  0  0  0  0  0  0  0  0  4  0  0
    1.7352    2.7241    0.0146 C   0  0  0  0  0  0  0  0  0  5  0  0
    2.1073    1.5776    0.7116 C   0  0  0  0  0  0  0  0  0  6  0  0
    2.2450    4.0679    0.2725 O   0  0  0  0  0  0  0  0  0  7  0  0
    3.1450    4.4118    1.3729 C   0  0  0  0  0  0  0  0  0  8  0  0
    3.6121    3.5214    2.3381 C   0  0  0  0  0  0  0  0  0  9  0  0
    4.4374    3.9450    3.3727 C   0  0  0  0  0  0  0  0  0 10  0  0
    4.8077    5.2797    3.4578 C   0  0  0  0  0  0  0  0  0 11  0  0
    4.3534    6.1811    2.5033 C   0  0  0  0  0  0  0  0  0 12  0  0
    3.5279    5.7469    1.4721 C   0  0  0  0  0  0  0  0  0 13  0  0
    5.8240    5.8151    4.7479 Cl  0  0  0  0  0  0  0  0  0 14  0  0
   -0.0099   -1.0301   -0.8009 N   0  0  0  0  0  0  0  0  0 15  0  0
   -1.2854   -1.2014   -1.3845 C   0  0  0  0  0  0  0  0  0 16  0  0
   -1.9845   -0.2350   -1.7102 O   0  0  0  0  0  0  0  0  0 17  0  0
   -1.8022   -2.4879   -1.5167 N   0  0  0  0  0  0  0  0  0 18  0  0
   -3.1340   -2.6769   -2.0138 C   0  0  0  0  0  0  0  0  0 19  0  0
   -1.0074   -3.6215   -1.1417 C   0  0  0  0  0  0  0  0  0 20  0  0
 18 20  1  0
 18 19  1  0
 16 18  1  0
 16 17  2  0
 15 16  1  0
  2 15  1  0
 11 14  1  0
 13  8  4  0
 12 13  4  0
 11 12  4  0
 10 11  4  0
  9 10  4  0
  8  9  4  0
  7  8  1  0
  5  7  1  0
  6  1  4  0
  5  6  4  0
  4  5  4  0
  3  4  4  0
  2  3  4  0
  1  2  4  0
M  END
> <Name>
Chloroxuron

> <CAS RN>
001982-47-4

> <Log Koc>
3.53

> <VP-0>
12.0164

> <nAromBond>
12

> <MAXDP>
4.50751

> <nHBAcc>
3

> <Splitting>
2

$$$$
Siduron
  SciTegic01221512053D

 19 20  0  0  0  0            999 V2000
    1.2563    0.1535   -0.4880 C   0  0  0  0  0  0  0  0  0  1  0  0
    2.5081   -0.1876    0.3598 C   0  0  0  0  0  0  0  0  0  2  0  0
    2.0797   -0.9332    1.6459 C   0  0  0  0  0  0  0  0  0  3  0  0
    1.1201   -0.0471    2.4793 C   0  0  2  0  0  0  0  0  0  4  0  0
    0.8096   -0.5917    3.3808 H   0  0  0  0  0  0  0  0  0  5  0  0
   -0.1334    0.3000    1.6208 C   0  0  1  0  0  0  0  0  0  6  0  0
   -0.8052    0.9291    2.2200 H   0  0  0  0  0  0  0  0  0  7  0  0
    0.3091    1.0565    0.3453 C   0  0  0  0  0  0  0  0  0  8  0  0
   -0.8412   -0.8956    1.2161 N   0  0  0  0  0  0  0  0  0  9  0  0
   -1.4484   -1.7719    2.1406 C   0  0  0  0  0  0  0  0  0 10  0  0
   -1.3564   -1.5434    3.3520 O   0  0  0  0  0  0  0  0  0 11  0  0
   -2.1181   -2.9535    1.7203 N   0  0  0  0  0  0  0  0  0 12  0  0
   -2.3613   -3.3160    0.3651 C   0  0  0  0  0  0  0  0  0 13  0  0
   -2.1243   -2.4374   -0.6884 C   0  0  0  0  0  0  0  0  0 14  0  0
   -2.3906   -2.8180   -1.9982 C   0  0  0  0  0  0  0  0  0 15  0  0
   -2.8981   -4.0844   -2.2633 C   0  0  0  0  0  0  0  0  0 16  0  0
   -3.1385   -4.9657   -1.2160 C   0  0  0  0  0  0  0  0  0 17  0  0
   -2.8729   -4.5801    0.0935 C   0  0  0  0  0  0  0  0  0 18  0  0
    1.8414    1.2563    2.9107 C   0  0  0  0  0  0  0  0  0 19  0  0
  4 19  1  0
 18 13  4  0
 17 18  4  0
 16 17  4  0
 15 16  4  0
 14 15  4  0
 13 14  4  0
 12 13  1  0
 10 12  1  0
 10 11  2  0
  9 10  1  0
  6  9  1  0
  8  1  1  0
  6  8  1  0
  6  7  1  0
  4  6  1  0
  4  5  1  0
  3  4  1  0
  2  3  1  0
  1  2  1  0
M  END
> <Name>
Siduron

> <CAS RN>
001982-49-6

> <Log Koc>
2.47

> <VP-0>
10.2781

> <nAromBond>
6

> <MAXDP>
4.80401

> <nHBAcc>
3

> <Splitting>
2

$$$$
Butylate
  SciTegic01221512053D

 14 13  0  0  0  0            999 V2000
    2.5358    2.2511    1.1102 C   0  0  0  0  0  0  0  0  0  1  0  0
    2.9528    1.1463    0.1198 C   0  0  0  0  0  0  0  0  0  2  0  0
    1.8353   -0.2705    0.2741 S   0  0  0  0  0  0  0  0  0  3  0  0
    0.1808    0.2091   -0.1515 C   0  0  0  0  0  0  0  0  0  4  0  0
   -0.0118    1.3581   -0.5534 O   0  0  0  0  0  0  0  0  0  5  0  0
   -0.8755   -0.7688   -0.0379 N   0  0  0  0  0  0  0  0  0  6  0  0
   -2.3274   -0.5660   -0.4209 C   0  0  0  0  0  0  0  0  0  7  0  0
   -2.9661    0.8619   -0.6152 C   0  0  0  0  0  0  0  0  0  8  0  0
   -2.5050    1.6251   -1.8820 C   0  0  0  0  0  0  0  0  0  9  0  0
   -2.8829    1.7260    0.6646 C   0  0  0  0  0  0  0  0  0 10  0  0
   -0.4601   -2.1023    0.4281 C   0  0  0  0  0  0  0  0  0 11  0  0
   -0.8177   -2.4618    1.9355 C   0  0  0  0  0  0  0  0  0 12  0  0
   -2.3296   -2.6255    2.2287 C   0  0  0  0  0  0  0  0  0 13  0  0
   -0.1917   -1.4628    2.9322 C   0  0  0  0  0  0  0  0  0 14  0  0
 12 14  1  0
 12 13  1  0
 11 12  1  0
  6 11  1  0
  8 10  1  0
  8  9  1  0
  7  8  1  0
  6  7  1  0
  4  6  1  0
  4  5  2  0
  3  4  1  0
  2  3  1  0
  1  2  1  0
M  END
> <Name>
Butylate

> <CAS RN>
002008-41-5

> <Log Koc>
2.9

> <VP-0>
10.8562

> <nAromBond>
0

> <MAXDP>
4.83479

> <nHBAcc>
2

> <Splitting>
2

$$$$
2,6-Dichlorobenzamide
  SciTegic01221512053D

 11 11  0  0  0  0            999 V2000
    3.0675    1.2062   -0.0009 C   0  0  0  0  0  0  0  0  0  1  0  0
    3.7645    0.0062   -0.0010 C   0  0  0  0  0  0  0  0  0  2  0  0
    3.0652   -1.1927   -0.0008 C   0  0  0  0  0  0  0  0  0  3  0  0
    1.6750   -1.1975   -0.0005 C   0  0  0  0  0  0  0  0  0  4  0  0
    0.9681    0.0080   -0.0004 C   0  0  0  0  0  0  0  0  0  5  0  0
    1.6774    1.2112   -0.0006 C   0  0  0  0  0  0  0  0  0  6  0  0
    0.8615    2.7388   -0.0005 Cl  0  0  0  0  0  0  0  0  0  7  0  0
   -0.5298    0.0213   -0.0001 C   0  0  0  0  0  0  0  0  0  8  0  0
   -1.1464    1.0910   -0.0001 O   0  0  0  0  0  0  0  0  0  9  0  0
   -1.2627   -1.1638    0.0001 N   0  0  0  0  0  0  0  0  0 10  0  0
    0.8651   -2.7276   -0.0003 Cl  0  0  0  0  0  0  0  0  0 11  0  0
  4 11  1  0
  8 10  1  0
  8  9  2  0
  5  8  1  0
  6  7  1  0
  6  1  4  0
  5  6  4  0
  4  5  4  0
  3  4  4  0
  2  3  4  0
  1  2  4  0
M  END
> <Name>
2,6-Dichlorobenzamide

> <CAS RN>
002008-58-4

> <Log Koc>
0.53

> <VP-0>
6.98544

> <nAromBond>
6

> <MAXDP>
3.91716

> <nHBAcc>
2

> <Splitting>
2

$$$$
Methiocarb
  SciTegic01221512053D

 15 15  0  0  0  0            999 V2000
    1.1152    3.1779   -0.1557 C   0  0  0  0  0  0  0  0  0  1  0  0
    2.4990    3.2795   -0.2383 C   0  0  0  0  0  0  0  0  0  2  0  0
    3.2737    2.1246   -0.2491 C   0  0  0  0  0  0  0  0  0  3  0  0
    2.6634    0.8778   -0.1748 C   0  0  0  0  0  0  0  0  0  4  0  0
    1.2797    0.7663   -0.0897 C   0  0  0  0  0  0  0  0  0  5  0  0
    0.5123    1.9278   -0.0816 C   0  0  0  0  0  0  0  0  0  6  0  0
    0.7214   -0.5536   -0.0163 O   0  0  0  0  0  0  0  0  0  7  0  0
   -0.6994   -0.7118    0.0703 C   0  0  0  0  0  0  0  0  0  8  0  0
   -1.4909    0.2375    0.0856 O   0  0  0  0  0  0  0  0  0  9  0  0
   -1.2167   -2.0059    0.1400 N   0  0  0  0  0  0  0  0  0 10  0  0
   -2.6342   -2.2075    0.2266 C   0  0  0  0  0  0  0  0  0 11  0  0
    4.7701    2.2137   -0.3454 C   0  0  0  0  0  0  0  0  0 12  0  0
    3.2664    4.8789   -0.3338 S   0  0  0  0  0  0  0  0  0 13  0  0
    3.7844    5.4245    1.3187 C   0  0  0  0  0  0  0  0  0 14  0  0
    0.2669    4.4163   -0.1475 C   0  0  0  0  0  0  0  0  0 15  0  0
  1 15  1  0
 13 14  1  0
  2 13  1  0
  3 12  1  0
 10 11  1  0
  8 10  1  0
  8  9  2  0
  7  8  1  0
  5  7  1  0
  6  1  4  0
  5  6  4  0
  4  5  4  0
  3  4  4  0
  2  3  4  0
  1  2  4  0
M  END
> <Name>
Methiocarb

> <CAS RN>
002032-65-7

> <Log Koc>
2.32

> <VP-0>
10.1959

> <nAromBond>
6

> <MAXDP>
4.03825

> <nHBAcc>
2

> <Splitting>
2

$$$$
4,4'-Dichlorobiphenyl
  SciTegic01221512053D

 14 15  0  0  0  0            999 V2000
    0.0277    1.5135    2.5866 C   0  0  0  0  0  0  0  0  0  1  0  0
    0.0611    2.0327    1.2973 C   0  0  0  0  0  0  0  0  0  2  0  0
   -0.5206    3.2667    1.0291 C   0  0  0  0  0  0  0  0  0  3  0  0
   -1.1359    3.9816    2.0503 C   0  0  0  0  0  0  0  0  0  4  0  0
   -1.1692    3.4623    3.3396 C   0  0  0  0  0  0  0  0  0  5  0  0
   -0.5875    2.2283    3.6079 C   0  0  0  0  0  0  0  0  0  6  0  0
   -1.9339    4.3509    4.6089 Cl  0  0  0  0  0  0  0  0  0  7  0  0
    0.7077    1.2813    0.2239 C   0  0  0  0  0  0  0  0  0  8  0  0
    0.7411    1.8004   -1.0654 C   0  0  0  0  0  0  0  0  0  9  0  0
    1.3563    1.0856   -2.0867 C   0  0  0  0  0  0  0  0  0 10  0  0
    1.9380   -0.1484   -1.8184 C   0  0  0  0  0  0  0  0  0 11  0  0
    1.9046   -0.6677   -0.5291 C   0  0  0  0  0  0  0  0  0 12  0  0
    1.2894    0.0473    0.4921 C   0  0  0  0  0  0  0  0  0 13  0  0
    2.7026   -1.0369   -3.0877 Cl  0  0  0  0  0  0  0  0  0 14  0  0
 11 14  1  0
 13  8  4  0
 12 13  4  0
 11 12  4  0
 10 11  4  0
  9 10  4  0
  8  9  4  0
  2  8  1  0
  5  7  1  0
  6  1  4  0
  5  6  4  0
  4  5  4  0
  3  4  4  0
  2  3  4  0
  1  2  4  0
M  END
> <Name>
4,4'-Dichlorobiphenyl

> <CAS RN>
002050-68-2

> <Log Koc>
4.3

> <VP-0>
8.88659

> <nAromBond>
13

> <MAXDP>
0.230933

> <nHBAcc>
0

> <Splitting>
2

$$$$
2-Chlorobiphenyl
  SciTegic01221512053D

 13 14  0  0  0  0            999 V2000
    0.1408    1.3324    2.6221 C   0  0  0  0  0  0  0  0  0  1  0  0
   -0.0967    1.9196    1.3831 C   0  0  0  0  0  0  0  0  0  2  0  0
   -0.8161    3.1091    1.3301 C   0  0  0  0  0  0  0  0  0  3  0  0
   -1.2911    3.7038    2.4934 C   0  0  0  0  0  0  0  0  0  4  0  0
   -1.0492    3.1102    3.7260 C   0  0  0  0  0  0  0  0  0  5  0  0
   -0.3316    1.9221    3.7890 C   0  0  0  0  0  0  0  0  0  6  0  0
    0.4416    1.2304    0.1627 C   0  0  0  0  0  0  0  0  0  7  0  0
    0.2864    1.6946   -1.1512 C   0  0  0  0  0  0  0  0  0  8  0  0
    0.8317    0.9671   -2.2046 C   0  0  0  0  0  0  0  0  0  9  0  0
    1.5277   -0.2123   -1.9746 C   0  0  0  0  0  0  0  0  0 10  0  0
    1.6830   -0.6743   -0.6758 C   0  0  0  0  0  0  0  0  0 11  0  0
    1.1414    0.0468    0.3804 C   0  0  0  0  0  0  0  0  0 12  0  0
   -0.5628    3.1539   -1.5607 Cl  0  0  0  0  0  0  0  0  0 13  0  0
  8 13  1  0
 12  7  4  0
 11 12  4  0
 10 11  4  0
  9 10  4  0
  8  9  4  0
  7  8  4  0
  2  7  1  0
  6  1  4  0
  5  6  4  0
  4  5  4  0
  3  4  4  0
  2  3  4  0
  1  2  4  0
M  END
> <Name>
2-Chlorobiphenyl

> <CAS RN>
002051-60-7

> <Log Koc>
3.52

> <VP-0>
7.83005

> <nAromBond>
13

> <MAXDP>
0.213906

> <nHBAcc>
0

> <Splitting>
2

$$$$
3-Chlorobiphenyl
  SciTegic01221512053D

 13 14  0  0  0  0            999 V2000
   -0.5467    1.0561    2.5829 C   0  0  0  0  0  0  0  0  0  1  0  0
   -0.2008    1.8542    1.4982 C   0  0  0  0  0  0  0  0  0  2  0  0
   -0.5409    3.2023    1.4903 C   0  0  0  0  0  0  0  0  0  3  0  0
   -1.2269    3.7524    2.5671 C   0  0  0  0  0  0  0  0  0  4  0  0
   -1.5728    2.9542    3.6518 C   0  0  0  0  0  0  0  0  0  5  0  0
   -1.2327    1.6061    3.6597 C   0  0  0  0  0  0  0  0  0  6  0  0
    0.5201    1.2764    0.3664 C   0  0  0  0  0  0  0  0  0  7  0  0
    0.8658    2.0748   -0.7179 C   0  0  0  0  0  0  0  0  0  8  0  0
    1.5517    1.5251   -1.7948 C   0  0  0  0  0  0  0  0  0  9  0  0
    1.8922    0.1771   -1.7875 C   0  0  0  0  0  0  0  0  0 10  0  0
    1.5465   -0.6214   -0.7031 C   0  0  0  0  0  0  0  0  0 11  0  0
    0.8605   -0.0717    0.3739 C   0  0  0  0  0  0  0  0  0 12  0  0
    1.9812    2.5174   -3.1422 Cl  0  0  0  0  0  0  0  0  0 13  0  0
  9 13  1  0
 12  7  4  0
 11 12  4  0
 10 11  4  0
  9 10  4  0
  8  9  4  0
  7  8  4  0
  2  7  1  0
  6  1  4  0
  5  6  4  0
  4  5  4  0
  3  4  4  0
  2  3  4  0
  1  2  4  0
M  END
> <Name>
3-Chlorobiphenyl

> <CAS RN>
002051-61-8

> <Log Koc>
4.42

> <VP-0>
7.83005

> <nAromBond>
13

> <MAXDP>
0.276406

> <nHBAcc>
0

> <Splitting>
2

$$$$
2,6-dinitro-N-n-propyl-trifluoro-p-toluidine
  SciTegic01221512053D

 20 20  0  0  0  0            999 V2000
   -1.0903    1.1600   -0.2731 C   0  0  0  0  0  0  0  0  0  1  0  0
   -0.2900    2.2849   -0.1480 C   0  0  0  0  0  0  0  0  0  2  0  0
    1.0886    2.1484   -0.1453 C   0  0  0  0  0  0  0  0  0  3  0  0
    1.6649    0.8898   -0.2553 C   0  0  0  0  0  0  0  0  0  4  0  0
    0.8665   -0.2522   -0.3664 C   0  0  0  0  0  0  0  0  0  5  0  0
   -0.5307   -0.1076   -0.3874 C   0  0  0  0  0  0  0  0  0  6  0  0
   -1.4545   -1.1772   -0.5471 N   0  0  0  0  0  0  0  0  0  7  0  0
   -2.7483   -0.9119   -0.4543 O   0  0  0  0  0  0  0  0  0  8  0  0
   -1.0885   -2.3846   -0.9193 O   0  0  0  0  0  0  0  0  0  9  0  0
    1.5358   -1.5183   -0.4534 N   0  0  0  0  0  0  0  0  0 10  0  0
    1.3333   -2.6337    0.4865 C   0  0  0  0  0  0  0  0  0 11  0  0
    1.1953   -2.1728    1.9648 C   0  0  0  0  0  0  0  0  0 12  0  0
    2.5223   -1.5707    2.4773 C   0  0  0  0  0  0  0  0  0 13  0  0
    3.0737    0.8087   -0.2435 N   0  0  0  0  0  0  0  0  0 14  0  0
    3.7031   -0.3478   -0.3770 O   0  0  0  0  0  0  0  0  0 15  0  0
    3.7821    1.9195   -0.1159 O   0  0  0  0  0  0  0  0  0 16  0  0
   -0.9127    3.6400   -0.0268 C   0  0  0  0  0  0  0  0  0 17  0  0
    0.0534    4.6238    0.0164 F   0  0  0  0  0  0  0  0  0 18  0  0
   -1.6868    3.6671    1.1142 F   0  0  0  0  0  0  0  0  0 19  0  0
   -1.7734    3.8320   -1.0871 F   0  0  0  0  0  0  0  0  0 20  0  0
 17 20  1  0
 17 19  1  0
 17 18  1  0
  2 17  1  0
 14 16  1  0
 14 15  1  0
  4 14  1  0
 12 13  1  0
 11 12  1  0
 10 11  1  0
  5 10  1  0
  7  9  1  0
  7  8  1  0
  6  7  1  0
  6  1  4  0
  5  6  4  0
  4  5  4  0
  3  4  4  0
  2  3  4  0
  1  2  4  0
M  END
> <Name>
2,6-dinitro-N-n-propyl-trifluoro-p-toluidine

> <CAS RN>
002077-99-8

> <Log Koc>
3.61

> <VP-0>
9.93352

> <nAromBond>
6

> <MAXDP>
4.59282

> <nHBAcc>
1

> <Splitting>
2

$$$$
EPN
  SciTegic01221512053D

 21 22  0  0  0  0            999 V2000
    6.4452   -4.5772    3.9981 O   0  0  0  0  0  0  0  0  0  1  0  0
    6.5490   -3.2791    3.7552 N   0  0  0  0  0  0  0  0  0  2  0  0
    5.4867   -2.5984    3.1636 C   0  0  0  0  0  0  0  0  0  3  0  0
    4.3319   -3.2751    2.8120 C   0  0  0  0  0  0  0  0  0  4  0  0
    3.2705   -2.5863    2.2295 C   0  0  0  0  0  0  0  0  0  5  0  0
    3.3581   -1.2177    2.0000 C   0  0  0  0  0  0  0  0  0  6  0  0
    2.2968   -0.4539    1.4211 O   0  0  0  0  0  0  0  0  0  7  0  0
    0.9693   -1.2212    1.0277 P   0  0  1  0  0  0  0  0  0  8  0  0
    1.2762   -2.4528   -0.1202 S   0  0  0  0  0  0  0  0  0  9  0  0
    0.1960   -1.7975    2.3339 C   0  0  0  0  0  0  0  0  0 10  0  0
    0.1231   -1.0151    3.4808 C   0  0  0  0  0  0  0  0  0 11  0  0
   -0.5443   -1.4868    4.6039 C   0  0  0  0  0  0  0  0  0 12  0  0
   -1.1413   -2.7418    4.5771 C   0  0  0  0  0  0  0  0  0 13  0  0
   -1.0709   -3.5230    3.4286 C   0  0  0  0  0  0  0  0  0 14  0  0
   -0.4028   -3.0513    2.3043 C   0  0  0  0  0  0  0  0  0 15  0  0
   -0.0431   -0.2036    0.4011 O   0  0  0  0  0  0  0  0  0 16  0  0
    0.5962    0.8815   -0.2774 C   0  0  0  0  0  0  0  0  0 17  0  0
    0.8467    2.0329    0.7361 C   0  0  0  0  0  0  0  0  0 18  0  0
    4.5265   -0.5455    2.3517 C   0  0  0  0  0  0  0  0  0 19  0  0
    5.5872   -1.2272    2.9295 C   0  0  0  0  0  0  0  0  0 20  0  0
    7.6528   -2.6285    4.0878 O   0  0  0  0  0  0  0  0  0 21  0  0
  2 21  1  0
 20  3  4  0
 19 20  4  0
  6 19  4  0
 17 18  1  0
 16 17  1  0
  8 16  1  0
 15 10  4  0
 14 15  4  0
 13 14  4  0
 12 13  4  0
 11 12  4  0
 10 11  4  0
  8 10  1  0
  8  9  2  0
  7  8  1  0
  6  7  1  0
  5  6  4  0
  4  5  4  0
  3  4  4  0
  2  3  1  0
  1  2  1  0
M  END
> <Name>
EPN

> <CAS RN>
002104-64-5

> <Log Koc>
3.12

> <VP-0>
12.9015

> <nAromBond>
12

> <MAXDP>
3.68483

> <nHBAcc>
1

> <Splitting>
1

$$$$
Ethyl 1-naphthaleneacetate
  SciTegic01221512053D

 16 17  0  0  0  0            999 V2000
   -1.1733    1.7172    1.4446 C   0  0  0  0  0  0  0  0  0  1  0  0
   -1.5108    2.9045    0.8044 C   0  0  0  0  0  0  0  0  0  2  0  0
   -0.8610    3.2721   -0.3685 C   0  0  0  0  0  0  0  0  0  3  0  0
    0.1282    2.4528   -0.9009 C   0  0  0  0  0  0  0  0  0  4  0  0
    0.4686    1.2677   -0.2588 C   0  0  0  0  0  0  0  0  0  5  0  0
   -0.1817    0.8992    0.9125 C   0  0  0  0  0  0  0  0  0  6  0  0
    0.1901   -0.3879    1.5891 C   0  0  0  0  0  0  0  0  0  7  0  0
   -0.8999   -1.3983    1.3803 C   0  0  0  0  0  0  0  0  0  8  0  0
   -1.9234   -1.0776    0.7629 O   0  0  0  0  0  0  0  0  0  9  0  0
   -0.7294   -2.7042    1.8666 O   0  0  0  0  0  0  0  0  0 10  0  0
   -1.8338   -3.5583    1.5148 C   0  0  0  0  0  0  0  0  0 11  0  0
   -1.7855   -3.9165    0.0055 C   0  0  0  0  0  0  0  0  0 12  0  0
    1.4561    0.4465   -0.7931 C   0  0  0  0  0  0  0  0  0 13  0  0
    2.1025    0.8094   -1.9683 C   0  0  0  0  0  0  0  0  0 14  0  0
    1.7615    1.9945   -2.6101 C   0  0  0  0  0  0  0  0  0 15  0  0
    0.7749    2.8162   -2.0763 C   0  0  0  0  0  0  0  0  0 16  0  0
 16  4  4  0
 15 16  4  0
 14 15  4  0
 13 14  4  0
  5 13  4  0
 11 12  1  0
 10 11  1  0
  8 10  1  0
  8  9  2  0
  7  8  1  0
  6  7  1  0
  6  1  4  0
  5  6  4  0
  4  5  4  0
  3  4  4  0
  2  3  4  0
  1  2  4  0
M  END
> <Name>
Ethyl 1-naphthaleneacetate

> <CAS RN>
002122-70-5

> <Log Koc>
2.48

> <VP-0>
9.27216

> <nAromBond>
11

> <MAXDP>
4.43392

> <nHBAcc>
2

> <Splitting>
2

$$$$
2,3,5,6-Tetrachloroterephthalic acid
  SciTegic01221512053D

 16 16  0  0  0  0            999 V2000
    0.5960    0.0025   -0.0003 C   0  0  0  0  0  0  0  0  0  1  0  0
    1.3080    1.2011   -0.0004 C   0  0  0  0  0  0  0  0  0  2  0  0
    2.6977    1.1993   -0.0003 C   0  0  0  0  0  0  0  0  0  3  0  0
    3.4037   -0.0033   -0.0001 C   0  0  0  0  0  0  0  0  0  4  0  0
    2.6917   -1.2019    0.0000 C   0  0  0  0  0  0  0  0  0  5  0  0
    1.3020   -1.2001   -0.0001 C   0  0  0  0  0  0  0  0  0  6  0  0
    0.4886   -2.7278    0.0000 Cl  0  0  0  0  0  0  0  0  0  7  0  0
    3.5057   -2.7300    0.0003 Cl  0  0  0  0  0  0  0  0  0  8  0  0
    4.9003   -0.0167    0.0001 C   0  0  0  0  0  0  0  0  0  9  0  0
    5.5174   -1.0861    0.0003 O   0  0  0  0  0  0  0  0  0 10  0  0
    5.6291    1.1651    0.0000 O   0  0  0  0  0  0  0  0  0 11  0  0
    3.5111    2.7270   -0.0004 Cl  0  0  0  0  0  0  0  0  0 12  0  0
    0.4940    2.7292   -0.0006 Cl  0  0  0  0  0  0  0  0  0 13  0  0
   -0.9006    0.0159   -0.0005 C   0  0  0  0  0  0  0  0  0 14  0  0
   -1.5177    1.0853   -0.0006 O   0  0  0  0  0  0  0  0  0 15  0  0
   -1.6294   -1.1659   -0.0004 O   0  0  0  0  0  0  0  0  0 16  0  0
 14 16  1  0
 14 15  2  0
  1 14  1  0
  2 13  1  0
  3 12  1  0
  9 11  1  0
  9 10  2  0
  4  9  1  0
  5  8  1  0
  6  7  1  0
  6  1  4  0
  5  6  4  0
  4  5  4  0
  3  4  4  0
  2  3  4  0
  1  2  4  0
M  END
> <Name>
2,3,5,6-Tetrachloroterephthalic acid

> <CAS RN>
002136-79-0

> <Log Koc>
3.51

> <VP-0>
10.2465

> <nAromBond>
6

> <MAXDP>
4.16946

> <nHBAcc>
4

> <Splitting>
2

$$$$
3,4-Dichloroacetanilide
  SciTegic01221512053D

 12 12  0  0  0  0            999 V2000
    1.1930    0.8976   -0.0002 C   0  0  0  0  0  0  0  0  0  1  0  0
    0.3864    2.0324   -0.0002 C   0  0  0  0  0  0  0  0  0  2  0  0
    0.9543    3.3012    0.0001 C   0  0  0  0  0  0  0  0  0  3  0  0
    2.3367    3.4425    0.0004 C   0  0  0  0  0  0  0  0  0  4  0  0
    3.1476    2.3141    0.0005 C   0  0  0  0  0  0  0  0  0  5  0  0
    2.5759    1.0469    0.0002 C   0  0  0  0  0  0  0  0  0  6  0  0
    4.8665    2.4868    0.0009 Cl  0  0  0  0  0  0  0  0  0  7  0  0
    3.0465    5.0175    0.0008 Cl  0  0  0  0  0  0  0  0  0  8  0  0
    0.6534   -0.4222   -0.0005 N   0  0  0  0  0  0  0  0  0  9  0  0
   -0.6551   -0.7281   -0.0008 C   0  0  0  0  0  0  0  0  0 10  0  0
   -1.5365    0.1388   -0.0009 O   0  0  0  0  0  0  0  0  0 11  0  0
   -1.0602   -2.1729   -0.0011 C   0  0  0  0  0  0  0  0  0 12  0  0
 10 12  1  0
 10 11  2  0
  9 10  1  0
  1  9  1  0
  4  8  1  0
  5  7  1  0
  6  1  4  0
  5  6  4  0
  4  5  4  0
  3  4  4  0
  2  3  4  0
  1  2  4  0
M  END
> <Name>
3,4-Dichloroacetanilide

> <CAS RN>
002150-93-8

> <Log Koc>
2.34

> <VP-0>
7.90809

> <nAromBond>
6

> <MAXDP>
3.72185

> <nHBAcc>
2

> <Splitting>
1

$$$$
Hydroxyatrazine
  SciTegic01221512053D

 14 14  0  0  0  0            999 V2000
   -0.5850    1.1774   -0.0719 C   0  0  0  0  0  0  0  0  0  1  0  0
    0.1773    2.2557   -0.1964 N   0  0  0  0  0  0  0  0  0  2  0  0
    1.4969    2.1324   -0.2362 C   0  0  0  0  0  0  0  0  0  3  0  0
    2.0542    0.9318   -0.1526 N   0  0  0  0  0  0  0  0  0  4  0  0
    1.2965   -0.1502   -0.0291 C   0  0  0  0  0  0  0  0  0  5  0  0
   -0.0247   -0.0219    0.0105 N   0  0  0  0  0  0  0  0  0  6  0  0
    1.9224   -1.4201    0.0571 N   0  0  0  0  0  0  0  0  0  7  0  0
    1.1907   -2.6697    0.1911 C   0  0  0  0  0  0  0  0  0  8  0  0
    0.2648   -2.9008   -1.0238 C   0  0  0  0  0  0  0  0  0  9  0  0
    0.3590   -2.6863    1.4929 C   0  0  0  0  0  0  0  0  0 10  0  0
    2.2964    3.2626   -0.3659 O   0  0  0  0  0  0  0  0  0 11  0  0
   -1.9799    1.2967   -0.0307 N   0  0  0  0  0  0  0  0  0 12  0  0
   -2.6096    2.5893   -0.0819 C   0  0  0  0  0  0  0  0  0 13  0  0
   -2.4576    3.3045    1.2772 C   0  0  0  0  0  0  0  0  0 14  0  0
 13 14  1  0
 12 13  1  0
  1 12  1  0
  3 11  1  0
  8 10  1  0
  8  9  1  0
  7  8  1  0
  5  7  1  0
  6  1  4  0
  5  6  4  0
  4  5  4  0
  3  4  4  0
  2  3  4  0
  1  2  4  0
M  END
> <Name>
Hydroxyatrazine

> <CAS RN>
002163-68-0

> <Log Koc>
2.95

> <VP-0>
8.57331

> <nAromBond>
6

> <MAXDP>
3.19119

> <nHBAcc>
5

> <Splitting>
2

$$$$
Fluometuron
  SciTegic01221512053D

 16 16  0  0  0  0            999 V2000
    2.4978    1.2538    0.1111 C   0  0  0  0  0  0  0  0  0  1  0  0
    1.1129    1.1523    0.0400 C   0  0  0  0  0  0  0  0  0  2  0  0
    0.3532    2.3040   -0.1430 C   0  0  0  0  0  0  0  0  0  3  0  0
    0.9709    3.5445   -0.2537 C   0  0  0  0  0  0  0  0  0  4  0  0
    2.3553    3.6398   -0.1823 C   0  0  0  0  0  0  0  0  0  5  0  0
    3.1180    2.4928    0.0002 C   0  0  0  0  0  0  0  0  0  6  0  0
    4.6099    2.5921    0.0763 C   0  0  0  0  0  0  0  0  0  7  0  0
    5.0787    3.0538   -1.1357 F   0  0  0  0  0  0  0  0  0  8  0  0
    5.1701    1.3672    0.3742 F   0  0  0  0  0  0  0  0  0  9  0  0
    4.9502    3.5430    1.0154 F   0  0  0  0  0  0  0  0  0 10  0  0
    0.5180   -0.1326    0.1573 N   0  0  0  0  0  0  0  0  0 11  0  0
   -0.8766   -0.3883    0.0810 C   0  0  0  0  0  0  0  0  0 12  0  0
   -1.6998    0.5156   -0.1022 O   0  0  0  0  0  0  0  0  0 13  0  0
   -1.3309   -1.7001    0.2152 N   0  0  0  0  0  0  0  0  0 14  0  0
   -2.7349   -1.9840    0.1392 C   0  0  0  0  0  0  0  0  0 15  0  0
   -0.3937   -2.7648    0.4294 C   0  0  0  0  0  0  0  0  0 16  0  0
 14 16  1  0
 14 15  1  0
 12 14  1  0
 12 13  2  0
 11 12  1  0
  2 11  1  0
  7 10  1  0
  7  9  1  0
  7  8  1  0
  6  7  1  0
  6  1  4  0
  5  6  4  0
  4  5  4  0
  3  4  4  0
  2  3  4  0
  1  2  4  0
M  END
> <Name>
Fluometuron

> <CAS RN>
002164-17-2

> <Log Koc>
2

> <VP-0>
8.79876

> <nAromBond>
6

> <MAXDP>
4.34076

> <nHBAcc>
3

> <Splitting>
2

$$$$
Molinate
  SciTegic01221512053D

 12 12  0  0  0  0            999 V2000
   -0.3192    1.1841    0.6680 O   0  0  0  0  0  0  0  0  0  1  0  0
    0.7111    0.7932    0.1130 C   0  0  0  0  0  0  0  0  0  2  0  0
    1.5110   -0.1638    0.7308 N   0  0  0  0  0  0  0  0  0  3  0  0
    2.7146   -0.5653    0.0384 C   0  0  0  0  0  0  0  0  0  4  0  0
    3.9088   -1.0017    0.9121 C   0  0  0  0  0  0  0  0  0  5  0  0
    3.7549   -2.4056    1.5069 C   0  0  0  0  0  0  0  0  0  6  0  0
    2.7616   -2.4937    2.6673 C   0  0  0  0  0  0  0  0  0  7  0  0
    1.3139   -2.1485    2.3000 C   0  0  0  0  0  0  0  0  0  8  0  0
    1.0794   -0.6496    2.0227 C   0  0  0  0  0  0  0  0  0  9  0  0
    1.2033    1.4605   -1.4590 S   0  0  0  0  0  0  0  0  0 10  0  0
    0.5766    3.1518   -1.6643 C   0  0  0  0  0  0  0  0  0 11  0  0
   -0.9614    3.1746   -1.6171 C   0  0  0  0  0  0  0  0  0 12  0  0
 11 12  1  0
 10 11  1  0
  2 10  1  0
  9  3  1  0
  8  9  1  0
  7  8  1  0
  6  7  1  0
  5  6  1  0
  4  5  1  0
  3  4  1  0
  2  3  1  0
  1  2  2  0
M  END
> <Name>
Molinate

> <CAS RN>
002212-67-1

> <Log Koc>
1.94

> <VP-0>
8.52995

> <nAromBond>
0

> <MAXDP>
4.57146

> <nHBAcc>
2

> <Splitting>
2

$$$$
Octachloronaphthalene
  SciTegic01221512053D

 18 19  0  0  0  0            999 V2000
    1.6306    2.6583   -0.4523 Cl  0  0  0  0  0  0  0  0  0  1  0  0
    1.3697    0.9769   -0.1341 C   0  0  0  0  0  0  0  0  0  2  0  0
    2.3920    0.0159   -0.1441 C   0  0  0  0  0  0  0  0  0  3  0  0
    3.7223    0.3668   -0.4195 C   0  0  0  0  0  0  0  0  0  4  0  0
    4.2356    1.9827   -0.7683 Cl  0  0  0  0  0  0  0  0  0  5  0  0
    4.7156   -0.5994   -0.4239 C   0  0  0  0  0  0  0  0  0  6  0  0
    4.4057   -1.9192   -0.1568 C   0  0  0  0  0  0  0  0  0  7  0  0
    3.0988   -2.2889    0.1178 C   0  0  0  0  0  0  0  0  0  8  0  0
    2.0765   -1.3279    0.1278 C   0  0  0  0  0  0  0  0  0  9  0  0
    0.7462   -1.6788    0.4032 C   0  0  0  0  0  0  0  0  0 10  0  0
   -0.2471   -0.7126    0.4076 C   0  0  0  0  0  0  0  0  0 11  0  0
   -1.8799   -1.1603    0.7484 Cl  0  0  0  0  0  0  0  0  0 12  0  0
    0.0628    0.6073    0.1405 C   0  0  0  0  0  0  0  0  0 13  0  0
   -1.1844    1.8019    0.1491 Cl  0  0  0  0  0  0  0  0  0 14  0  0
    0.2329   -3.2946    0.7520 Cl  0  0  0  0  0  0  0  0  0 15  0  0
    2.8379   -3.9702    0.4360 Cl  0  0  0  0  0  0  0  0  0 16  0  0
    5.6528   -3.1138   -0.1654 Cl  0  0  0  0  0  0  0  0  0 17  0  0
    6.3484   -0.1516   -0.7647 Cl  0  0  0  0  0  0  0  0  0 18  0  0
  6 18  1  0
  7 17  1  0
  8 16  1  0
 10 15  1  0
 13 14  1  0
 13  2  4  0
 11 13  4  0
 11 12  1  0
 10 11  4  0
  9 10  4  0
  9  3  4  0
  8  9  4  0
  7  8  4  0
  6  7  4  0
  4  6  4  0
  4  5  1  0
  3  4  4  0
  2  3  4  0
  1  2  1  0
M  END
> <Name>
Octachloronaphthalene

> <CAS RN>
002234-13-1

> <Log Koc>
5.89

> <VP-0>
14.0711

> <nAromBond>
11

> <MAXDP>
0.208862

> <nHBAcc>
0

> <Splitting>
2

$$$$
Diallate 
  SciTegic01221512053D

 15 14  0  0  0  0            999 V2000
    1.7360   -4.0788    1.3328 C   0  0  0  0  0  0  0  0  0  1  0  0
    2.6498   -2.8320    1.2440 C   0  0  0  0  0  0  0  0  0  2  0  0
    2.4052   -1.9313    2.4811 C   0  0  0  0  0  0  0  0  0  3  0  0
    2.4252   -2.0928   -0.0073 N   0  0  0  0  0  0  0  0  0  4  0  0
    3.5509   -1.9493   -0.9488 C   0  0  0  0  0  0  0  0  0  5  0  0
    4.8506   -2.6044   -0.4209 C   0  0  0  0  0  0  0  0  0  6  0  0
    3.8264   -0.4679   -1.3057 C   0  0  0  0  0  0  0  0  0  7  0  0
    1.1323   -1.5237   -0.3489 C   0  0  0  0  0  0  0  0  0  8  0  0
    0.9864   -0.9320   -1.4246 O   0  0  0  0  0  0  0  0  0  9  0  0
   -0.2883   -1.6340    0.7287 S   0  0  0  0  0  0  0  0  0 10  0  0
   -1.6194   -0.5870    0.0910 C   0  0  0  0  0  0  0  0  0 11  0  0
   -1.2253    0.8644    0.1760 C   0  0  0  0  0  0  0  0  0 12  0  0
   -2.0333    1.7998   -0.3166 C   0  0  0  0  0  0  0  0  0 13  0  0
   -1.5852    3.4654   -0.2113 Cl  0  0  0  0  0  0  0  0  0 14  0  0
    0.2637    1.3273    0.9253 Cl  0  0  0  0  0  0  0  0  0 15  0  0
 12 15  1  0
 13 14  1  0
 12 13  2  0
 11 12  1  0
 10 11  1  0
  8 10  1  0
  8  9  2  0
  4  8  1  0
  5  7  1  0
  5  6  1  0
  4  5  1  0
  2  4  1  0
  2  3  1  0
  1  2  1  0
M  END
> <Name>
Diallate 

> <CAS RN>
002303-16-4

> <Log Koc>
3.28

> <VP-0>
11.7872

> <nAromBond>
0

> <MAXDP>
5.07141

> <nHBAcc>
2

> <Splitting>
2

$$$$
Triallate
  SciTegic01221512053D

 16 15  0  0  0  0            999 V2000
    3.4428    3.3355    0.6177 C   0  0  0  0  0  0  0  0  0  1  0  0
    2.4885    3.9166   -0.4555 C   0  0  0  0  0  0  0  0  0  2  0  0
    2.8042    5.4211   -0.6325 C   0  0  0  0  0  0  0  0  0  3  0  0
    1.0874    3.6885   -0.0859 N   0  0  0  0  0  0  0  0  0  4  0  0
    0.2186    4.8462    0.1736 C   0  0  0  0  0  0  0  0  0  5  0  0
   -0.3364    4.7984    1.6195 C   0  0  0  0  0  0  0  0  0  6  0  0
   -0.9812    4.8551   -0.8056 C   0  0  0  0  0  0  0  0  0  7  0  0
    0.5707    2.3455    0.0251 C   0  0  0  0  0  0  0  0  0  8  0  0
   -0.5943    2.1379    0.3572 O   0  0  0  0  0  0  0  0  0  9  0  0
    1.5908    0.9449   -0.4112 S   0  0  0  0  0  0  0  0  0 10  0  0
    1.2013   -0.4488    0.6779 C   0  0  0  0  0  0  0  0  0 11  0  0
   -0.2049   -0.9385    0.4774 C   0  0  0  0  0  0  0  0  0 12  0  0
   -0.7271   -1.7908    1.3548 C   0  0  0  0  0  0  0  0  0 13  0  0
    0.2130   -2.3147    2.7082 Cl  0  0  0  0  0  0  0  0  0 14  0  0
   -2.3427   -2.3657    1.1497 Cl  0  0  0  0  0  0  0  0  0 15  0  0
   -1.1431   -0.4086   -0.8762 Cl  0  0  0  0  0  0  0  0  0 16  0  0
 12 16  1  0
 13 15  1  0
 13 14  1  0
 12 13  2  0
 11 12  1  0
 10 11  1  0
  8 10  1  0
  8  9  2  0
  4  8  1  0
  5  7  1  0
  5  6  1  0
  4  5  1  0
  2  4  1  0
  2  3  1  0
  1  2  1  0
M  END
> <Name>
Triallate

> <CAS RN>
002303-17-5

> <Log Koc>
3.35

> <VP-0>
12.8437

> <nAromBond>
0

> <MAXDP>
5.19607

> <nHBAcc>
2

> <Splitting>
2

$$$$
Pentanochlor
  SciTegic01221512053D

 17 17  0  0  0  0            999 V2000
   -6.0557    4.0875    1.4797 C   0  0  0  0  0  0  0  0  0  1  0  0
   -6.4416    2.8367    1.0131 C   0  0  0  0  0  0  0  0  0  2  0  0
   -5.4807    1.8705    0.7378 C   0  0  0  0  0  0  0  0  0  3  0  0
   -4.1307    2.1458    0.9261 C   0  0  0  0  0  0  0  0  0  4  0  0
   -3.7506    3.4009    1.3934 C   0  0  0  0  0  0  0  0  0  5  0  0
   -4.7084    4.3696    1.6700 C   0  0  0  0  0  0  0  0  0  6  0  0
   -3.1839    1.1249    0.6289 N   0  0  0  0  0  0  0  0  0  7  0  0
   -1.8510    1.2405    0.7498 C   0  0  0  0  0  0  0  0  0  8  0  0
   -1.3098    2.2785    1.1464 O   0  0  0  0  0  0  0  0  0  9  0  0
   -0.9875    0.0630    0.3922 C   0  0  1  0  0  0  0  0  0 10  0  0
    0.0768    0.3332    0.4444 H   0  0  0  0  0  0  0  0  0 11  0  0
   -1.2916   -1.0336    1.4278 C   0  0  0  0  0  0  0  0  0 12  0  0
   -1.3360   -0.5757   -1.0045 C   0  0  0  0  0  0  0  0  0 13  0  0
   -1.0346    0.3240   -2.2618 C   0  0  0  0  0  0  0  0  0 14  0  0
   -2.0238    1.4973   -2.4729 C   0  0  0  0  0  0  0  0  0 15  0  0
   -8.1157    2.4823    0.7748 Cl  0  0  0  0  0  0  0  0  0 16  0  0
   -7.0918    5.1315    1.7773 C   0  0  0  0  0  0  0  0  0 17  0  0
  1 17  1  0
  2 16  1  0
 14 15  1  0
 13 14  1  0
 10 13  1  0
 10 12  1  0
 10 11  1  0
  8 10  1  0
  8  9  2  0
  7  8  1  0
  4  7  1  0
  6  1  4  0
  5  6  4  0
  4  5  4  0
  3  4  4  0
  2  3  4  0
  1  2  4  0
M  END
> <Name>
Pentanochlor

> <CAS RN>
002307-68-8

> <Log Koc>
2.76

> <VP-0>
10.7658

> <nAromBond>
6

> <MAXDP>
4.80084

> <nHBAcc>
2

> <Splitting>
2

$$$$
Phosalone
  SciTegic01221512053D

 21 22  0  0  0  0            999 V2000
    5.0104    3.2463    1.1138 C   0  0  0  0  0  0  0  0  0  1  0  0
    3.8963    3.1071    0.0544 C   0  0  0  0  0  0  0  0  0  2  0  0
    2.7126    2.4236    0.5557 O   0  0  0  0  0  0  0  0  0  3  0  0
    1.9436    3.2504    1.6480 P   0  0  0  0  0  0  0  0  0  4  0  0
    1.8018    4.8626    1.0987 S   0  0  0  0  0  0  0  0  0  5  0  0
    2.6557    3.2416    3.0482 O   0  0  0  0  0  0  0  0  0  6  0  0
    2.4252    2.0068    3.7852 C   0  0  0  0  0  0  0  0  0  7  0  0
    3.0610    0.7715    3.1133 C   0  0  0  0  0  0  0  0  0  8  0  0
    0.1699    2.5197    1.8819 S   0  0  0  0  0  0  0  0  0  9  0  0
   -0.7909    2.6838    0.3547 C   0  0  0  0  0  0  0  0  0 10  0  0
   -1.2063    1.3928   -0.1248 N   0  0  0  0  0  0  0  0  0 11  0  0
   -2.4594    0.9506   -0.2055 C   0  0  0  0  0  0  0  0  0 12  0  0
   -3.4529    1.6026    0.1330 O   0  0  0  0  0  0  0  0  0 13  0  0
   -2.5005   -0.2595   -0.6861 O   0  0  0  0  0  0  0  0  0 14  0  0
   -1.2758   -0.6058   -0.9219 C   0  0  0  0  0  0  0  0  0 15  0  0
   -0.4393    0.4223   -0.5743 C   0  0  0  0  0  0  0  0  0 16  0  0
    0.9360    0.3435   -0.7197 C   0  0  0  0  0  0  0  0  0 17  0  0
    1.4429   -0.8452   -1.2422 C   0  0  0  0  0  0  0  0  0 18  0  0
    0.5944   -1.8996   -1.5988 C   0  0  0  0  0  0  0  0  0 19  0  0
   -0.7886   -1.7935   -1.4419 C   0  0  0  0  0  0  0  0  0 20  0  0
    1.2687   -3.3530   -2.2453 Cl  0  0  0  0  0  0  0  0  0 21  0  0
 19 21  1  0
 20 15  4  0
 19 20  4  0
 18 19  4  0
 17 18  4  0
 16 17  4  0
 16 11  4  0
 15 16  4  0
 14 15  4  0
 12 14  4  0
 12 13  2  0
 11 12  4  0
 10 11  1  0
  9 10  1  0
  4  9  1  0
  7  8  1  0
  6  7  1  0
  4  6  1  0
  4  5  2  0
  3  4  1  0
  2  3  1  0
  1  2  1  0
M  END
> <Name>
Phosalone

> <CAS RN>
002310-17-0

> <Log Koc>
2.98

> <VP-0>
14.8586

> <nAromBond>
6

> <MAXDP>
5.08508

> <nHBAcc>
4

> <Splitting>
2

$$$$
Propargite
  SciTegic01221512053D

 26 27  0  0  0  0            999 V2000
   -1.0591    3.0371   -0.0376 C   0  0  0  0  0  0  0  0  0  1  0  0
   -0.1067    2.0545   -1.0214 C   0  0  0  0  0  0  0  0  0  2  0  0
   -0.5357    0.0329   -0.7702 C   0  0  2  0  0  0  0  0  0  3  0  0
   -1.2638   -0.2646   -1.5347 H   0  0  0  0  0  0  0  0  0  4  0  0
   -1.0252   -0.3380    1.3528 C   0  0  2  0  0  0  0  0  0  5  0  0
   -1.4793   -1.3296    1.5349 H   0  0  0  0  0  0  0  0  0  6  0  0
   -1.9467    1.0288    1.8940 C   0  0  0  0  0  0  0  0  0  7  0  0
   -1.1888    2.5099    1.5671 C   0  0  0  0  0  0  0  0  0  8  0  0
    0.2602   -0.3054    2.1669 O   0  0  0  0  0  0  0  0  0  9  0  0
    0.2573   -0.1078    3.5345 C   0  0  0  0  0  0  0  0  0 10  0  0
    1.4393    0.4680    3.9688 C   0  0  0  0  0  0  0  0  0 11  0  0
    1.4655    1.1166    5.1859 C   0  0  0  0  0  0  0  0  0 12  0  0
    0.3100    1.1595    5.9500 C   0  0  0  0  0  0  0  0  0 13  0  0
   -0.8368    0.4729    5.5799 C   0  0  0  0  0  0  0  0  0 14  0  0
   -0.8623   -0.1747    4.3603 C   0  0  0  0  0  0  0  0  0 15  0  0
    0.2420    2.1142    7.0557 C   0  0  0  0  0  0  0  0  0 16  0  0
    1.5828    2.2717    7.7726 C   0  0  0  0  0  0  0  0  0 17  0  0
   -0.9524    1.8560    7.9813 C   0  0  0  0  0  0  0  0  0 18  0  0
   -0.0230    3.4590    6.3183 C   0  0  0  0  0  0  0  0  0 19  0  0
    0.5011   -0.7746   -1.1728 O   0  0  0  0  0  0  0  0  0 20  0  0
    0.1407    0.1770   -0.2260 S   0  0  0  0  0  0  0  0  0 21  0  0
    1.3239    0.8049    0.6089 O   0  0  0  0  0  0  0  0  0 22  0  0
   -2.3265    0.8346   -0.5945 O   0  0  0  0  0  0  0  0  0 23  0  0
   -3.6473   -0.0726   -0.8204 C   0  0  0  0  0  0  0  0  0 24  0  0
   -3.6458   -0.5893   -2.1738 C   0  0  0  0  0  0  0  0  0 25  0  0
   -3.6463   -1.0193   -3.2984 C   0  0  0  0  0  0  0  0  0 26  0  0
 25 26  3  0
 24 25  1  0
 23 24  1  0
 21 23  1  0
 21 22  2  0
 20 21  1  0
  3 20  1  0
 16 19  1  0
 16 18  1  0
 16 17  1  0
 13 16  1  0
 15 10  4  0
 14 15  4  0
 13 14  4  0
 12 13  4  0
 11 12  4  0
 10 11  4  0
  9 10  1  0
  5  9  1  0
  8  1  1  0
  7  8  1  0
  5  7  1  0
  5  6  1  0
  3  5  1  0
  3  4  1  0
  2  3  1  0
  1  2  1  0
M  END
> <Name>
Propargite

> <CAS RN>
002312-35-8

> <Log Koc>
3.6

> <VP-0>
15.0771

> <nAromBond>
6

> <MAXDP>
4.93626

> <nHBAcc>
3

> <Splitting>
1

$$$$
3,4-Dichlorophenylurea
  SciTegic01221512053D

 12 12  0  0  0  0            999 V2000
    2.3346    3.4396   -0.0002 C   0  0  0  0  0  0  0  0  0  1  0  0
    3.1582    2.3204    0.0001 C   0  0  0  0  0  0  0  0  0  2  0  0
    2.6008    1.0468   -0.0001 C   0  0  0  0  0  0  0  0  0  3  0  0
    1.2197    0.8834   -0.0005 C   0  0  0  0  0  0  0  0  0  4  0  0
    0.3998    2.0082   -0.0008 C   0  0  0  0  0  0  0  0  0  5  0  0
    0.9538    3.2831   -0.0006 C   0  0  0  0  0  0  0  0  0  6  0  0
    0.6902   -0.4360   -0.0007 N   0  0  0  0  0  0  0  0  0  7  0  0
   -0.6947   -0.7525   -0.0011 C   0  0  0  0  0  0  0  0  0  8  0  0
   -1.5670    0.1235   -0.0014 O   0  0  0  0  0  0  0  0  0  9  0  0
   -1.0821   -2.0935   -0.0012 N   0  0  0  0  0  0  0  0  0 10  0  0
    4.8750    2.5124    0.0007 Cl  0  0  0  0  0  0  0  0  0 11  0  0
    3.0268    5.0224    0.0001 Cl  0  0  0  0  0  0  0  0  0 12  0  0
  1 12  1  0
  2 11  1  0
  8 10  1  0
  8  9  2  0
  7  8  1  0
  4  7  1  0
  6  1  4  0
  5  6  4  0
  4  5  4  0
  3  4  4  0
  2  3  4  0
  1  2  4  0
M  END
> <Name>
3,4-Dichlorophenylurea

> <CAS RN>
002327-02-8

> <Log Koc>
2.53

> <VP-0>
7.48544

> <nAromBond>
6

> <MAXDP>
3.49962

> <nHBAcc>
3

> <Splitting>
2

$$$$
Mirex
  SciTegic01221512053D

 22 26  0  0  0  0            999 V2000
   -2.2182   -2.5863   -2.5624 Cl  0  0  0  0  0  0  0  0  0  1  0  0
   -1.5080   -1.0668   -2.0137 C   0  0  1  0  0  0  0  0  0  2  0  0
   -0.0907   -1.4917   -1.5535 C   0  0  2  0  0  0  0  0  0  3  0  0
   -0.0326   -0.3806   -0.4976 C   0  0  1  0  0  0  0  0  0  4  0  0
    0.3106    0.7969   -1.4506 C   0  0  1  0  0  0  0  0  0  5  0  0
    1.1047    2.2677   -0.8852 Cl  0  0  0  0  0  0  0  0  0  6  0  0
    0.4655    0.1670   -2.8617 C   0  0  2  0  0  0  0  0  0  7  0  0
    1.2756    1.2413   -4.0058 Cl  0  0  0  0  0  0  0  0  0  8  0  0
   -1.0878    0.0916   -2.9804 C   0  0  1  0  0  0  0  0  0  9  0  0
   -2.1096    0.1569   -4.4172 Cl  0  0  0  0  0  0  0  0  0 10  0  0
   -1.0961    1.2026   -1.9216 C   0  0  1  0  0  0  0  0  0 11  0  0
   -2.1332    0.9133   -0.7774 C   0  0  0  0  0  0  0  0  0 12  0  0
   -3.8076    0.9585   -1.3334 Cl  0  0  0  0  0  0  0  0  0 13  0  0
   -1.9221    1.9348    0.6464 Cl  0  0  0  0  0  0  0  0  0 14  0  0
   -1.5853   -0.4723   -0.5774 C   0  0  1  0  0  0  0  0  0 15  0  0
   -2.3198   -1.5800    0.5875 Cl  0  0  0  0  0  0  0  0  0 16  0  0
   -1.0786    2.8283   -2.6110 Cl  0  0  0  0  0  0  0  0  0 17  0  0
    0.9545   -1.2323   -2.6652 C   0  0  0  0  0  0  0  0  0 18  0  0
    2.6141   -1.3346   -2.0737 Cl  0  0  0  0  0  0  0  0  0 19  0  0
    0.7442   -2.2377   -4.1007 Cl  0  0  0  0  0  0  0  0  0 20  0  0
    1.0609   -0.5338    0.8788 Cl  0  0  0  0  0  0  0  0  0 21  0  0
   -0.1236   -3.1196   -0.8668 Cl  0  0  0  0  0  0  0  0  0 22  0  0
  3 22  1  0
  4 21  1  0
 18 20  1  0
 18 19  1  0
 18  3  1  0
  7 18  1  0
 11 17  1  0
 15 16  1  0
 15  4  1  0
 15  2  1  0
 12 15  1  0
 12 14  1  0
 12 13  1  0
 11 12  1  0
 11  5  1  0
  9 11  1  0
  9 10  1  0
  9  2  1  0
  7  9  1  0
  7  8  1  0
  5  7  1  0
  5  6  1  0
  4  5  1  0
  3  4  1  0
  2  3  1  0
  1  2  1  0
M  END
> <Name>
Mirex

> <CAS RN>
002385-85-5

> <Log Koc>
6

> <VP-0>
18.6067

> <nAromBond>
0

> <MAXDP>
0.0895396

> <nHBAcc>
0

> <Splitting>
2

$$$$
Xylicarb
  SciTegic01221512053D

 13 13  0  0  0  0            999 V2000
    1.3222    0.9943   -0.0011 C   0  0  0  0  0  0  0  0  0  1  0  0
    0.5337    2.1421    0.0020 C   0  0  0  0  0  0  0  0  0  2  0  0
    1.1169    3.4038    0.0004 C   0  0  0  0  0  0  0  0  0  3  0  0
    2.5004    3.5304   -0.0042 C   0  0  0  0  0  0  0  0  0  4  0  0
    3.2968    2.3904   -0.0073 C   0  0  0  0  0  0  0  0  0  5  0  0
    2.7065    1.1317   -0.0057 C   0  0  0  0  0  0  0  0  0  6  0  0
    4.7954    2.5109   -0.0123 C   0  0  0  0  0  0  0  0  0  7  0  0
    3.1267    4.8973   -0.0058 C   0  0  0  0  0  0  0  0  0  8  0  0
    0.7852   -0.3367    0.0003 O   0  0  0  0  0  0  0  0  0  9  0  0
   -0.6351   -0.5216    0.0050 C   0  0  0  0  0  0  0  0  0 10  0  0
   -1.4438    0.4131    0.0080 O   0  0  0  0  0  0  0  0  0 11  0  0
   -1.1316   -1.8257    0.0062 N   0  0  0  0  0  0  0  0  0 12  0  0
   -2.5479   -2.0532    0.0109 C   0  0  0  0  0  0  0  0  0 13  0  0
 12 13  1  0
 10 12  1  0
 10 11  2  0
  9 10  1  0
  1  9  1  0
  4  8  1  0
  5  7  1  0
  6  1  4  0
  5  6  4  0
  4  5  4  0
  3  4  4  0
  2  3  4  0
  1  2  4  0
M  END
> <Name>
Xylicarb

> <CAS RN>
002425-10-7

> <Log Koc>
1.71

> <VP-0>
8.04855

> <nAromBond>
6

> <MAXDP>
3.8441

> <nHBAcc>
2

> <Splitting>
2

$$$$
Benzaloxime-N-methylcarbamate
  SciTegic01221512053D

 13 13  0  0  0  0            999 V2000
    2.3231    5.7056    0.0531 C   0  0  0  0  0  0  0  0  0  1  0  0
    3.1433    4.5831    0.0806 C   0  0  0  0  0  0  0  0  0  2  0  0
    2.5817    3.3114    0.0629 C   0  0  0  0  0  0  0  0  0  3  0  0
    1.2001    3.1630    0.0177 C   0  0  0  0  0  0  0  0  0  4  0  0
    0.3796    4.2849   -0.0099 C   0  0  0  0  0  0  0  0  0  5  0  0
    0.9413    5.5566    0.0079 C   0  0  0  0  0  0  0  0  0  6  0  0
    0.6119    1.8282   -0.0010 C   0  0  0  0  0  0  0  0  0  7  0  0
    1.3648    0.8032    0.0249 N   0  0  0  0  0  0  0  0  0  8  0  0
    0.9396   -0.5001    0.0111 O   0  0  0  0  0  0  0  0  0  9  0  0
   -0.4685   -0.7864   -0.0373 C   0  0  0  0  0  0  0  0  0 10  0  0
   -1.3441    0.0872   -0.0684 O   0  0  0  0  0  0  0  0  0 11  0  0
   -0.8694   -2.1232   -0.0504 N   0  0  0  0  0  0  0  0  0 12  0  0
   -2.2648   -2.4525   -0.0989 C   0  0  0  0  0  0  0  0  0 13  0  0
 12 13  1  0
 10 12  1  0
 10 11  2  0
  9 10  1  0
  8  9  1  0
  7  8  2  0
  4  7  1  0
  6  1  4  0
  5  6  4  0
  4  5  4  0
  3  4  4  0
  2  3  4  0
  1  2  4  0
M  END
> <Name>
Benzaloxime-N-methylcarbamate

> <CAS RN>
002426-12-2

> <Log Koc>
1.8

> <VP-0>
7.22781

> <nAromBond>
6

> <MAXDP>
3.55493

> <nHBAcc>
2

> <Splitting>
2

$$$$
Oxythioquinox
  SciTegic01221512053D

 15 17  0  0  0  0            999 V2000
    1.9475    4.3898    0.2889 C   0  0  0  0  0  0  0  0  0  1  0  0
    3.2477    3.8992    0.3241 C   0  0  0  0  0  0  0  0  0  2  0  0
    3.4741    2.5277    0.3175 C   0  0  0  0  0  0  0  0  0  3  0  0
    2.4019    1.6438    0.2755 C   0  0  0  0  0  0  0  0  0  4  0  0
    1.0942    2.1374    0.2401 C   0  0  0  0  0  0  0  0  0  5  0  0
    0.8724    3.5097    0.2469 C   0  0  0  0  0  0  0  0  0  6  0  0
    0.0556    1.3065    0.1997 N   0  0  0  0  0  0  0  0  0  7  0  0
    0.2961    0.0049    0.1942 C   0  0  0  0  0  0  0  0  0  8  0  0
    1.5938   -0.4850    0.2294 C   0  0  0  0  0  0  0  0  0  9  0  0
    2.6334    0.3334    0.2696 N   0  0  0  0  0  0  0  0  0 10  0  0
    1.6457   -2.1189    0.2147 S   0  0  0  0  0  0  0  0  0 11  0  0
    0.0744   -2.5497    0.1619 C   0  0  0  0  0  0  0  0  0 12  0  0
   -0.3615   -3.7061    0.1369 O   0  0  0  0  0  0  0  0  0 13  0  0
   -0.8211   -1.1876    0.1478 S   0  0  0  0  0  0  0  0  0 14  0  0
    1.7043    5.8704    0.2961 C   0  0  0  0  0  0  0  0  0 15  0  0
  1 15  1  0
 14  8  4  0
 12 14  4  0
 12 13  2  0
 11 12  4  0
  9 11  4  0
 10  4  4  0
  9 10  4  0
  8  9  4  0
  7  8  4  0
  5  7  4  0
  6  1  4  0
  5  6  4  0
  4  5  4  0
  3  4  4  0
  2  3  4  0
  1  2  4  0
M  END
> <Name>
Oxythioquinox

> <CAS RN>
002439-01-2

> <Log Koc>
3.36

> <VP-0>
9.48422

> <nAromBond>
11

> <MAXDP>
4.45509

> <nHBAcc>
3

> <Splitting>
2

$$$$
Tetrachloroguaiacol
  SciTegic01221512053D

 13 13  0  0  0  0            999 V2000
   -0.2995    2.0173    1.7574 O   0  0  0  0  0  0  0  0  0  1  0  0
    0.4857    1.2695    0.8769 C   0  0  0  0  0  0  0  0  0  2  0  0
    1.7824    1.7266    0.6635 C   0  0  0  0  0  0  0  0  0  3  0  0
    2.6416    1.0535   -0.1936 C   0  0  0  0  0  0  0  0  0  4  0  0
    2.2045   -0.0887   -0.8462 C   0  0  0  0  0  0  0  0  0  5  0  0
    3.2654   -0.9344   -1.9151 Cl  0  0  0  0  0  0  0  0  0  6  0  0
    0.9120   -0.5515   -0.6386 C   0  0  0  0  0  0  0  0  0  7  0  0
    0.0374    0.1118    0.2177 C   0  0  0  0  0  0  0  0  0  8  0  0
   -1.2780   -0.4867    0.3354 O   0  0  0  0  0  0  0  0  0  9  0  0
   -2.2386    0.1354    1.1980 C   0  0  0  0  0  0  0  0  0 10  0  0
    0.3791   -1.9757   -1.4574 Cl  0  0  0  0  0  0  0  0  0 11  0  0
    4.2479    1.6362   -0.4459 Cl  0  0  0  0  0  0  0  0  0 12  0  0
    2.3294    3.1495    1.4753 Cl  0  0  0  0  0  0  0  0  0 13  0  0
  3 13  1  0
  4 12  1  0
  7 11  1  0
  9 10  1  0
  8  9  1  0
  8  2  4  0
  7  8  4  0
  5  7  4  0
  5  6  1  0
  4  5  4  0
  3  4  4  0
  2  3  4  0
  1  2  1  0
M  END
> <Name>
Tetrachloroguaiacol

> <CAS RN>
002539-17-5

> <Log Koc>
2.85

> <VP-0>
9.39104

> <nAromBond>
6

> <MAXDP>
3.87007

> <nHBAcc>
0

> <Splitting>
2

$$$$
Etridiazole
  SciTegic01221512053D

 12 12  0  0  0  0            999 V2000
   -0.5515    4.1248    0.3850 C   0  0  0  0  0  0  0  0  0  1  0  0
   -1.0230    3.1433    1.4852 C   0  0  0  0  0  0  0  0  0  2  0  0
   -1.4705    1.9029    0.9050 O   0  0  0  0  0  0  0  0  0  3  0  0
   -0.4012    1.1384    0.4097 C   0  0  0  0  0  0  0  0  0  4  0  0
    0.8897    1.4491    0.4624 N   0  0  0  0  0  0  0  0  0  5  0  0
    1.6435    0.4924   -0.1001 C   0  0  0  0  0  0  0  0  0  6  0  0
    0.9784   -0.5592   -0.5891 N   0  0  0  0  0  0  0  0  0  7  0  0
   -0.5381   -0.2989   -0.3224 S   0  0  0  0  0  0  0  0  0  8  0  0
    3.1346    0.5977   -0.1736 C   0  0  0  0  0  0  0  0  0  9  0  0
    3.8597   -1.0093   -0.2825 Cl  0  0  0  0  0  0  0  0  0 10  0  0
    3.7448    1.5170    1.2056 Cl  0  0  0  0  0  0  0  0  0 11  0  0
    3.5445    1.4925   -1.6402 Cl  0  0  0  0  0  0  0  0  0 12  0  0
  9 12  1  0
  9 11  1  0
  9 10  1  0
  6  9  1  0
  8  4  4  0
  7  8  4  0
  6  7  4  0
  5  6  4  0
  4  5  4  0
  3  4  1  0
  2  3  1  0
  1  2  1  0
M  END
> <Name>
Etridiazole

> <CAS RN>
002593-15-9

> <Log Koc>
3

> <VP-0>
9.13621

> <nAromBond>
5

> <MAXDP>
1.91279

> <nHBAcc>
2

> <Splitting>
2

$$$$
6-Aminochrysene
  SciTegic01221512053D

 19 22  0  0  0  0            999 V2000
   -0.8729    5.3656    0.9706 C   0  0  0  0  0  0  0  0  0  1  0  0
   -1.1599    4.5835    2.0837 C   0  0  0  0  0  0  0  0  0  2  0  0
   -0.8649    3.2251    2.0739 C   0  0  0  0  0  0  0  0  0  3  0  0
   -0.2827    2.6481    0.9509 C   0  0  0  0  0  0  0  0  0  4  0  0
    0.0041    3.4309   -0.1622 C   0  0  0  0  0  0  0  0  0  5  0  0
   -0.2908    4.7892   -0.1526 C   0  0  0  0  0  0  0  0  0  6  0  0
    0.5860    2.8560   -1.2856 C   0  0  0  0  0  0  0  0  0  7  0  0
    0.8816    1.4981   -1.2973 C   0  0  0  0  0  0  0  0  0  8  0  0
    0.5953    0.7148   -0.1851 C   0  0  0  0  0  0  0  0  0  9  0  0
    0.0129    1.2898    0.9394 C   0  0  0  0  0  0  0  0  0 10  0  0
   -0.2734    0.5062    2.0516 C   0  0  0  0  0  0  0  0  0 11  0  0
    0.0221   -0.8518    2.0403 C   0  0  0  0  0  0  0  0  0 12  0  0
    0.6041   -1.4265    0.9165 C   0  0  0  0  0  0  0  0  0 13  0  0
    0.8909   -0.6435   -0.1965 C   0  0  0  0  0  0  0  0  0 14  0  0
    1.4731   -1.2199   -1.3199 C   0  0  0  0  0  0  0  0  0 15  0  0
    1.7683   -2.5783   -1.3303 C   0  0  0  0  0  0  0  0  0 16  0  0
    1.4815   -3.3607   -0.2175 C   0  0  0  0  0  0  0  0  0 17  0  0
    0.8994   -2.7848    0.9060 C   0  0  0  0  0  0  0  0  0 18  0  0
    0.8730    3.6426   -2.4012 N   0  0  0  0  0  0  0  0  0 19  0  0
  7 19  1  0
 18 13  4  0
 17 18  4  0
 16 17  4  0
 15 16  4  0
 14 15  4  0
 14  9  4  0
 13 14  4  0
 12 13  4  0
 11 12  4  0
 10 11  4  0
 10  4  4  0
  9 10  4  0
  8  9  4  0
  7  8  4  0
  5  7  4  0
  6  1  4  0
  5  6  4  0
  4  5  4  0
  3  4  4  0
  2  3  4  0
  1  2  4  0
M  END
> <Name>
6-Aminochrysene

> <CAS RN>
002642-98-0

> <Log Koc>
5.21

> <VP-0>
10.4282

> <nAromBond>
21

> <MAXDP>
2.21333

> <nHBAcc>
1

> <Splitting>
2

$$$$
4,5,6-Trichloroguaiacol
  SciTegic01221512053D

 12 12  0  0  0  0            999 V2000
   -0.6007    1.7824   -1.4855 O   0  0  0  0  0  0  0  0  0  1  0  0
    0.2684    1.1751   -0.5763 C   0  0  0  0  0  0  0  0  0  2  0  0
    1.5788    1.6437   -0.5650 C   0  0  0  0  0  0  0  0  0  3  0  0
    2.0397    2.9111   -1.6440 Cl  0  0  0  0  0  0  0  0  0  4  0  0
    2.5201    1.1060    0.3018 C   0  0  0  0  0  0  0  0  0  5  0  0
    2.1528    0.0886    1.1689 C   0  0  0  0  0  0  0  0  0  6  0  0
    3.3153   -0.5886    2.2524 Cl  0  0  0  0  0  0  0  0  0  7  0  0
    0.8470   -0.3832    1.1625 C   0  0  0  0  0  0  0  0  0  8  0  0
   -0.1107    0.1437    0.3004 C   0  0  0  0  0  0  0  0  0  9  0  0
   -1.4297   -0.4490    0.4079 O   0  0  0  0  0  0  0  0  0 10  0  0
   -2.4715    0.0396   -0.4468 C   0  0  0  0  0  0  0  0  0 11  0  0
    4.1414    1.7017    0.3001 Cl  0  0  0  0  0  0  0  0  0 12  0  0
  5 12  1  0
 10 11  1  0
  9 10  1  0
  9  2  4  0
  8  9  4  0
  6  8  4  0
  6  7  1  0
  5  6  4  0
  3  5  4  0
  3  4  1  0
  2  3  4  0
  1  2  1  0
M  END
> <Name>
4,5,6-Trichloroguaiacol

> <CAS RN>
002668-24-8

> <Log Koc>
2.9

> <VP-0>
8.33449

> <nAromBond>
6

> <MAXDP>
3.66307

> <nHBAcc>
0

> <Splitting>
2

$$$$
1,4-Dichloro-2,5-dimethoxybenzene
  SciTegic01221512053D

 12 12  0  0  0  0            999 V2000
   -0.9143    0.9198    0.0003 C   0  0  0  0  0  0  0  0  0  1  0  0
   -0.1622    2.1055   -0.0006 C   0  0  0  0  0  0  0  0  0  2  0  0
    1.2253    2.0209   -0.0013 C   0  0  0  0  0  0  0  0  0  3  0  0
    1.9141    0.8135   -0.0011 C   0  0  0  0  0  0  0  0  0  4  0  0
    1.1621   -0.3722   -0.0002 C   0  0  0  0  0  0  0  0  0  5  0  0
   -0.2254   -0.2876    0.0004 C   0  0  0  0  0  0  0  0  0  6  0  0
    1.8173   -1.9908    0.0001 Cl  0  0  0  0  0  0  0  0  0  7  0  0
    3.3610    0.9458   -0.0019 O   0  0  0  0  0  0  0  0  0  8  0  0
    4.1734   -0.2274   -0.0019 C   0  0  0  0  0  0  0  0  0  9  0  0
   -0.8175    3.7240   -0.0010 Cl  0  0  0  0  0  0  0  0  0 10  0  0
   -2.3611    0.7874    0.0011 O   0  0  0  0  0  0  0  0  0 11  0  0
   -3.1736    1.9606    0.0010 C   0  0  0  0  0  0  0  0  0 12  0  0
 11 12  1  0
  1 11  1  0
  2 10  1  0
  8  9  1  0
  4  8  1  0
  5  7  1  0
  6  1  4  0
  5  6  4  0
  4  5  4  0
  3  4  4  0
  2  3  4  0
  1  2  4  0
M  END
> <Name>
1,4-Dichloro-2,5-dimethoxybenzene

> <CAS RN>
002675-77-6

> <Log Koc>
3.11

> <VP-0>
8.23898

> <nAromBond>
6

> <MAXDP>
1.7368

> <nHBAcc>
0

> <Splitting>
2

$$$$
Trimethacarb
  SciTegic01221512053D

 14 14  0  0  0  0            999 V2000
    1.3342    0.9080    0.0008 C   0  0  0  0  0  0  0  0  0  1  0  0
    0.5376    2.0498   -0.0017 C   0  0  0  0  0  0  0  0  0  2  0  0
    1.1099    3.3164    0.0002 C   0  0  0  0  0  0  0  0  0  3  0  0
    2.4936    3.4538    0.0048 C   0  0  0  0  0  0  0  0  0  4  0  0
    3.2975    2.3190    0.0073 C   0  0  0  0  0  0  0  0  0  5  0  0
    2.7172    1.0557    0.0054 C   0  0  0  0  0  0  0  0  0  6  0  0
    4.7951    2.4503    0.0123 C   0  0  0  0  0  0  0  0  0  7  0  0
    3.1185    4.8247    0.0069 C   0  0  0  0  0  0  0  0  0  8  0  0
    0.2262    4.5321   -0.0026 C   0  0  0  0  0  0  0  0  0  9  0  0
    0.8066   -0.4265   -0.0010 O   0  0  0  0  0  0  0  0  0 10  0  0
   -0.6126   -0.6207   -0.0056 C   0  0  0  0  0  0  0  0  0 11  0  0
   -1.4276    0.3087   -0.0082 O   0  0  0  0  0  0  0  0  0 12  0  0
   -1.1004   -1.9280   -0.0073 N   0  0  0  0  0  0  0  0  0 13  0  0
   -2.5151   -2.1649   -0.0119 C   0  0  0  0  0  0  0  0  0 14  0  0
 13 14  1  0
 11 13  1  0
 11 12  2  0
 10 11  1  0
  1 10  1  0
  3  9  1  0
  4  8  1  0
  5  7  1  0
  6  1  4  0
  5  6  4  0
  4  5  4  0
  3  4  4  0
  2  3  4  0
  1  2  4  0
M  END
> <Name>
Trimethacarb

> <CAS RN>
002686-99-9

> <Log Koc>
2.6

> <VP-0>
8.9712

> <nAromBond>
6

> <MAXDP>
3.9554

> <nHBAcc>
2

> <Splitting>
2

$$$$
Chlorpyrifos
  SciTegic01221512053D

 18 18  0  0  0  0            999 V2000
    1.1649    3.4832   -0.5619 S   0  0  0  0  0  0  0  0  0  1  0  0
    0.0603    2.9226    0.6182 P   0  0  0  0  0  0  0  0  0  2  0  0
   -0.4867    1.5387    0.1388 O   0  0  0  0  0  0  0  0  0  3  0  0
    0.5508    0.6074   -0.0462 C   0  0  0  0  0  0  0  0  0  4  0  0
    1.8117    0.9464    0.2050 N   0  0  0  0  0  0  0  0  0  5  0  0
    2.8129    0.0874    0.0442 C   0  0  0  0  0  0  0  0  0  6  0  0
    4.4314    0.5844    0.3852 Cl  0  0  0  0  0  0  0  0  0  7  0  0
    2.5667   -1.2076   -0.3960 C   0  0  0  0  0  0  0  0  0  8  0  0
    3.8719   -2.3201   -0.6033 Cl  0  0  0  0  0  0  0  0  0  9  0  0
    1.2630   -1.5985   -0.6668 C   0  0  0  0  0  0  0  0  0 10  0  0
    0.2435   -0.6742   -0.4873 C   0  0  0  0  0  0  0  0  0 11  0  0
   -1.3961   -1.1118   -0.8081 Cl  0  0  0  0  0  0  0  0  0 12  0  0
   -1.1373    3.9394    0.6782 O   0  0  0  0  0  0  0  0  0 13  0  0
   -0.7137    5.3344    0.6074 C   0  0  0  0  0  0  0  0  0 14  0  0
    0.0732    5.8058    1.8490 C   0  0  0  0  0  0  0  0  0 15  0  0
    0.7931    2.8000    2.0215 O   0  0  0  0  0  0  0  0  0 16  0  0
   -0.0983    2.4935    3.1498 C   0  0  0  0  0  0  0  0  0 17  0  0
   -0.6709    1.0625    3.1229 C   0  0  0  0  0  0  0  0  0 18  0  0
 17 18  1  0
 16 17  1  0
  2 16  1  0
 14 15  1  0
 13 14  1  0
  2 13  1  0
 11 12  1  0
 11  4  4  0
 10 11  4  0
  8 10  4  0
  8  9  1  0
  6  8  4  0
  6  7  1  0
  5  6  4  0
  4  5  4  0
  3  4  1  0
  2  3  1  0
  1  2  2  0
M  END
> <Name>
Chlorpyrifos

> <CAS RN>
002921-88-2

> <Log Koc>
3.92

> <VP-0>
13.6316

> <nAromBond>
6

> <MAXDP>
2.69184

> <nHBAcc>
3

> <Splitting>
1

$$$$
Captafol
  SciTegic01221512053D

 20 21  0  0  0  0            999 V2000
   -0.9383    0.5911    0.0884 C   0  0  0  0  0  0  0  0  0  1  0  0
   -1.4790    1.6987    0.0102 O   0  0  0  0  0  0  0  0  0  2  0  0
   -0.3519   -0.1674   -1.0526 C   0  0  2  0  0  0  0  0  0  3  0  0
   -1.1860   -0.7458   -1.4743 H   0  0  0  0  0  0  0  0  0  4  0  0
    0.4973   -1.1121   -0.3553 C   0  0  1  0  0  0  0  0  0  5  0  0
    1.3794   -0.5497   -0.0172 H   0  0  0  0  0  0  0  0  0  6  0  0
   -0.3025   -1.3610    0.8748 C   0  0  0  0  0  0  0  0  0  7  0  0
   -0.1855   -2.3337    1.6277 O   0  0  0  0  0  0  0  0  0  8  0  0
   -1.0044   -0.2464    1.1385 N   0  0  0  0  0  0  0  0  0  9  0  0
   -1.8620    0.0436    2.5875 S   0  0  0  0  0  0  0  0  0 10  0  0
   -1.1709    1.4287    3.5527 C   0  0  0  0  0  0  0  0  0 11  0  0
    0.2888    1.1426    3.9757 C   0  0  0  0  0  0  0  0  0 12  0  0
    1.3383    0.9739    2.5674 Cl  0  0  0  0  0  0  0  0  0 13  0  0
    0.3421   -0.3381    4.9364 Cl  0  0  0  0  0  0  0  0  0 14  0  0
   -2.1490    1.6328    5.0093 Cl  0  0  0  0  0  0  0  0  0 15  0  0
   -1.2265    2.9192    2.6065 Cl  0  0  0  0  0  0  0  0  0 16  0  0
    0.8967   -2.2692   -1.2650 C   0  0  0  0  0  0  0  0  0 17  0  0
    1.4145   -1.7182   -2.5945 C   0  0  0  0  0  0  0  0  0 18  0  0
    1.1794   -0.4550   -3.0012 C   0  0  0  0  0  0  0  0  0 19  0  0
    0.4208    0.5618   -2.1467 C   0  0  0  0  0  0  0  0  0 20  0  0
 20  3  1  0
 19 20  1  0
 18 19  2  0
 17 18  1  0
  5 17  1  0
 11 16  1  0
 11 15  1  0
 12 14  1  0
 12 13  1  0
 11 12  1  0
 10 11  1  0
  9 10  1  0
  9  1  1  0
  7  9  1  0
  7  8  2  0
  5  7  1  0
  5  6  1  0
  3  5  1  0
  3  4  1  0
  1  3  1  0
  1  2  2  0
M  END
> <Name>
Captafol

> <CAS RN>
002939-80-2

> <Log Koc>
3.32

> <VP-0>
12.825

> <nAromBond>
0

> <MAXDP>
5.43797

> <nHBAcc>
3

> <Splitting>
2

$$$$
Clopidol
  SciTegic01221512053D

 11 11  0  0  0  0            999 V2000
   -0.8978    0.7675   -0.0002 C   0  0  0  0  0  0  0  0  0  1  0  0
   -0.2315    1.9875    0.0000 C   0  0  0  0  0  0  0  0  0  2  0  0
    1.1558    2.0023    0.0002 C   0  0  0  0  0  0  0  0  0  3  0  0
    1.8372    0.7938    0.0002 C   0  0  0  0  0  0  0  0  0  4  0  0
    1.1143   -0.3937    0.0000 C   0  0  0  0  0  0  0  0  0  5  0  0
   -0.2154   -0.3739   -0.0002 N   0  0  0  0  0  0  0  0  0  6  0  0
    1.8395   -1.7071    0.0000 C   0  0  0  0  0  0  0  0  0  7  0  0
    3.5645    0.7658    0.0004 Cl  0  0  0  0  0  0  0  0  0  8  0  0
    1.8507    3.2064    0.0004 O   0  0  0  0  0  0  0  0  0  9  0  0
   -1.1200    3.4690    0.0000 Cl  0  0  0  0  0  0  0  0  0 10  0  0
   -2.3979    0.7381   -0.0004 C   0  0  0  0  0  0  0  0  0 11  0  0
  1 11  1  0
  2 10  1  0
  3  9  1  0
  4  8  1  0
  5  7  1  0
  6  1  4  0
  5  6  4  0
  4  5  4  0
  3  4  4  0
  2  3  4  0
  1  2  4  0
M  END
> <Name>
Clopidol

> <CAS RN>
002971-90-6

> <Log Koc>
2.76

> <VP-0>
7.66221

> <nAromBond>
6

> <MAXDP>
3.60975

> <nHBAcc>
1

> <Splitting>
2

$$$$
3-Bromophenylurea
  SciTegic01221512053D

 11 11  0  0  0  0            999 V2000
    2.3991    3.5446    0.0007 C   0  0  0  0  0  0  0  0  0  1  0  0
    3.2152    2.4197   -0.0002 C   0  0  0  0  0  0  0  0  0  2  0  0
    2.6495    1.1497   -0.0004 C   0  0  0  0  0  0  0  0  0  3  0  0
    1.2674    0.9950    0.0001 C   0  0  0  0  0  0  0  0  0  4  0  0
    0.4549    2.1251    0.0010 C   0  0  0  0  0  0  0  0  0  5  0  0
    1.0173    3.3964    0.0013 C   0  0  0  0  0  0  0  0  0  6  0  0
    0.7294   -0.3210   -0.0002 N   0  0  0  0  0  0  0  0  0  7  0  0
   -0.6574   -0.6286    0.0003 C   0  0  0  0  0  0  0  0  0  8  0  0
   -1.5241    0.2531    0.0011 O   0  0  0  0  0  0  0  0  0  9  0  0
   -1.0535   -1.9671   -0.0001 N   0  0  0  0  0  0  0  0  0 10  0  0
    5.1057    2.6174   -0.0009 Br  0  0  0  0  0  0  0  0  0 11  0  0
  2 11  1  0
  8 10  1  0
  8  9  2  0
  7  8  1  0
  4  7  1  0
  6  1  4  0
  5  6  4  0
  4  5  4  0
  3  4  4  0
  2  3  4  0
  1  2  4  0
M  END
> <Name>
3-Bromophenylurea

> <CAS RN>
002989-98-2

> <Log Koc>
2.09

> <VP-0>
7.25896

> <nAromBond>
6

> <MAXDP>
3.4102

> <nHBAcc>
3

> <Splitting>
2

$$$$
Metobromuron
  SciTegic01221512053D

 14 14  0  0  0  0            999 V2000
    1.4686    3.5913   -0.1714 C   0  0  0  0  0  0  0  0  0  1  0  0
    2.8533    3.6037   -0.0545 C   0  0  0  0  0  0  0  0  0  2  0  0
    3.5411    2.4142    0.1535 C   0  0  0  0  0  0  0  0  0  3  0  0
    2.8437    1.2149    0.2443 C   0  0  0  0  0  0  0  0  0  4  0  0
    1.4579    1.1952    0.1281 C   0  0  0  0  0  0  0  0  0  5  0  0
    0.7749    2.3902   -0.0802 C   0  0  0  0  0  0  0  0  0  6  0  0
    0.7858   -0.0560    0.2276 N   0  0  0  0  0  0  0  0  0  7  0  0
   -0.6205   -0.2415    0.1222 C   0  0  0  0  0  0  0  0  0  8  0  0
   -1.3616    0.7293   -0.0726 O   0  0  0  0  0  0  0  0  0  9  0  0
   -1.1128   -1.5991    0.2528 N   0  0  0  0  0  0  0  0  0 10  0  0
   -2.4313   -2.0119    0.1836 O   0  0  0  0  0  0  0  0  0 11  0  0
   -3.4426   -1.0169   -0.0406 C   0  0  0  0  0  0  0  0  0 12  0  0
   -0.1308   -2.6204    0.4772 C   0  0  0  0  0  0  0  0  0 13  0  0
    3.8048    5.2446   -0.1790 Br  0  0  0  0  0  0  0  0  0 14  0  0
  2 14  1  0
 10 13  1  0
 11 12  1  0
 10 11  1  0
  8 10  1  0
  8  9  2  0
  7  8  1  0
  5  7  1  0
  6  1  4  0
  5  6  4  0
  4  5  4  0
  3  4  4  0
  2  3  4  0
  1  2  4  0
M  END
> <Name>
Metobromuron

> <CAS RN>
003060-89-7

> <Log Koc>
2.1

> <VP-0>
9.53707

> <nAromBond>
6

> <MAXDP>
4.33283

> <nHBAcc>
2

> <Splitting>
2

$$$$
Fensulfothion sulfide
  SciTegic01221512053D

 17 17  0  0  0  0            999 V2000
    2.6732    3.8675   -0.8814 C   0  0  0  0  0  0  0  0  0  1  0  0
    3.2607    2.7243   -1.4100 C   0  0  0  0  0  0  0  0  0  2  0  0
    2.6987    1.4768   -1.1643 C   0  0  0  0  0  0  0  0  0  3  0  0
    1.5484    1.3626   -0.3907 C   0  0  0  0  0  0  0  0  0  4  0  0
    0.9660    2.5119    0.1365 C   0  0  0  0  0  0  0  0  0  5  0  0
    1.5238    3.7610   -0.1082 C   0  0  0  0  0  0  0  0  0  6  0  0
    1.0149    0.0589   -0.1506 O   0  0  0  0  0  0  0  0  0  7  0  0
   -0.2947    0.0019    0.7345 P   0  0  0  0  0  0  0  0  0  8  0  0
   -1.5242    0.8786   -0.0752 S   0  0  0  0  0  0  0  0  0  9  0  0
   -0.0680    0.6222    2.1824 O   0  0  0  0  0  0  0  0  0 10  0  0
    0.8207   -0.1521    3.0598 C   0  0  0  0  0  0  0  0  0 11  0  0
    2.2948   -0.1521    2.6101 C   0  0  0  0  0  0  0  0  0 12  0  0
   -0.7100   -1.5266    0.8715 O   0  0  0  0  0  0  0  0  0 13  0  0
   -1.9348   -1.7739    1.6333 C   0  0  0  0  0  0  0  0  0 14  0  0
   -3.2154   -1.5532    0.7991 C   0  0  0  0  0  0  0  0  0 15  0  0
    3.3910    5.4567   -1.1872 S   0  0  0  0  0  0  0  0  0 16  0  0
    4.9363    5.2536   -2.1063 C   0  0  0  0  0  0  0  0  0 17  0  0
 16 17  1  0
  1 16  1  0
 14 15  1  0
 13 14  1  0
  8 13  1  0
 11 12  1  0
 10 11  1  0
  8 10  1  0
  8  9  2  0
  7  8  1  0
  4  7  1  0
  6  1  4  0
  5  6  4  0
  4  5  4  0
  3  4  4  0
  2  3  4  0
  1  2  4  0
M  END
> <Name>
Fensulfothion sulfide

> <CAS RN>
003070-15-3

> <Log Koc>
3.18

> <VP-0>
12.7395

> <nAromBond>
6

> <MAXDP>
2.57425

> <nHBAcc>
2

> <Splitting>
2

$$$$
Tetrapropyl dithiopyrophosphate
  SciTegic01221512053D

 21 20  0  0  0  0            999 V2000
    2.9758    4.9812   -0.8029 C   0  0  0  0  0  0  0  0  0  1  0  0
    3.4689    4.1700   -2.0250 C   0  0  0  0  0  0  0  0  0  2  0  0
    3.9603    2.7467   -1.6194 C   0  0  0  0  0  0  0  0  0  3  0  0
    2.9559    1.6460   -1.5150 O   0  0  0  0  0  0  0  0  0  4  0  0
    1.7570    1.7723   -0.4801 P   0  0  0  0  0  0  0  0  0  5  0  0
    0.6523    2.9203   -1.1080 S   0  0  0  0  0  0  0  0  0  6  0  0
    2.2561    2.2374    0.9544 O   0  0  0  0  0  0  0  0  0  7  0  0
    2.9711    1.2794    1.8305 C   0  0  0  0  0  0  0  0  0  8  0  0
    4.3575    0.7322    1.3587 C   0  0  0  0  0  0  0  0  0  9  0  0
    4.2323   -0.4022    0.3164 C   0  0  0  0  0  0  0  0  0 10  0  0
    0.9886    0.3801   -0.4394 O   0  0  0  0  0  0  0  0  0 11  0  0
   -0.2161    0.2642    0.5935 P   0  0  0  0  0  0  0  0  0 12  0  0
   -0.8368    1.8205    0.9381 S   0  0  0  0  0  0  0  0  0 13  0  0
    0.2922   -0.4057    1.9099 O   0  0  0  0  0  0  0  0  0 14  0  0
    0.8648   -1.7018    1.6362 C   0  0  0  0  0  0  0  0  0 15  0  0
    1.3426   -2.3372    2.9526 C   0  0  0  0  0  0  0  0  0 16  0  0
    1.9600   -3.7159    2.6601 C   0  0  0  0  0  0  0  0  0 17  0  0
   -1.3257   -0.6444   -0.0934 O   0  0  0  0  0  0  0  0  0 18  0  0
   -2.4610   -1.1718    0.7123 C   0  0  0  0  0  0  0  0  0 19  0  0
   -3.4249   -0.1434    1.3790 C   0  0  0  0  0  0  0  0  0 20  0  0
   -2.8987    0.3392    2.7507 C   0  0  0  0  0  0  0  0  0 21  0  0
 20 21  1  0
 19 20  1  0
 18 19  1  0
 12 18  1  0
 16 17  1  0
 15 16  1  0
 14 15  1  0
 12 14  1  0
 12 13  2  0
 11 12  1  0
  5 11  1  0
  9 10  1  0
  8  9  1  0
  7  8  1  0
  5  7  1  0
  5  6  2  0
  4  5  1  0
  3  4  1  0
  2  3  1  0
  1  2  1  0
M  END
> <Name>
Tetrapropyl dithiopyrophosphate

> <CAS RN>
003244-90-4

> <Log Koc>
3.84

> <VP-0>
16.8309

> <nAromBond>
0

> <MAXDP>
3.07051

> <nHBAcc>
5

> <Splitting>
2

$$$$
Asulam
  SciTegic01221512053D

 15 15  0  0  0  0            999 V2000
    4.9481    1.1709   -0.3046 C   0  0  0  0  0  0  0  0  0  1  0  0
    5.1026   -0.2101   -0.3506 C   0  0  0  0  0  0  0  0  0  2  0  0
    4.0056   -1.0401   -0.1482 C   0  0  0  0  0  0  0  0  0  3  0  0
    2.7538   -0.4889    0.1004 C   0  0  0  0  0  0  0  0  0  4  0  0
    2.5994    0.8921    0.1462 C   0  0  0  0  0  0  0  0  0  5  0  0
    3.6962    1.7219   -0.0562 C   0  0  0  0  0  0  0  0  0  6  0  0
    1.0084    1.5974    0.4634 S   0  0  0  0  0  0  0  0  0  7  0  0
    1.1499    2.6995    1.4957 O   0  0  0  0  0  0  0  0  0  8  0  0
    0.4831    2.2142   -0.8189 O   0  0  0  0  0  0  0  0  0  9  0  0
   -0.0690    0.3950    1.0146 N   0  0  0  0  0  0  0  0  0 10  0  0
   -0.9231   -0.2523    0.1182 C   0  0  0  0  0  0  0  0  0 11  0  0
   -0.8996    0.0425   -1.0822 O   0  0  0  0  0  0  0  0  0 12  0  0
   -1.8006   -1.2303    0.5804 O   0  0  0  0  0  0  0  0  0 13  0  0
   -2.5679   -1.7463   -0.5109 C   0  0  0  0  0  0  0  0  0 14  0  0
    6.3596   -0.7634   -0.5999 N   0  0  0  0  0  0  0  0  0 15  0  0
  2 15  1  0
 13 14  1  0
 11 13  1  0
 11 12  2  0
 10 11  1  0
  7 10  1  0
  7  9  2  0
  7  8  2  0
  5  7  1  0
  6  1  4  0
  5  6  4  0
  4  5  4  0
  3  4  4  0
  2  3  4  0
  1  2  4  0
M  END
> <Name>
Asulam

> <CAS RN>
003337-71-1

> <Log Koc>
2.04

> <VP-0>
8.13173

> <nAromBond>
6

> <MAXDP>
4.60817

> <nHBAcc>
6

> <Splitting>
2

$$$$
Temephos
  SciTegic01221512053D

 27 28  0  0  0  0            999 V2000
    2.5130   -1.0561   -0.1098 C   0  0  0  0  0  0  0  0  0  1  0  0
    1.2272   -0.5883    0.1402 C   0  0  0  0  0  0  0  0  0  2  0  0
    1.0334    0.7602    0.4203 C   0  0  0  0  0  0  0  0  0  3  0  0
    2.1117    1.6313    0.4422 C   0  0  0  0  0  0  0  0  0  4  0  0
    3.3953    1.1644    0.1842 C   0  0  0  0  0  0  0  0  0  5  0  0
    3.5976   -0.1834   -0.0873 C   0  0  0  0  0  0  0  0  0  6  0  0
    4.7556    2.3042    0.1993 S   0  0  0  0  0  0  0  0  0  7  0  0
    4.1328    3.8964   -0.2743 C   0  0  0  0  0  0  0  0  0  8  0  0
    3.3570    4.0176   -1.4222 C   0  0  0  0  0  0  0  0  0  9  0  0
    2.8391    5.2519   -1.7888 C   0  0  0  0  0  0  0  0  0 10  0  0
    3.0914    6.3759   -1.0112 C   0  0  0  0  0  0  0  0  0 11  0  0
    3.8756    6.2533    0.1328 C   0  0  0  0  0  0  0  0  0 12  0  0
    4.3978    5.0178    0.5018 C   0  0  0  0  0  0  0  0  0 13  0  0
    2.5180    7.6114   -1.4144 O   0  0  0  0  0  0  0  0  0 14  0  0
    2.8196    8.8426   -0.4848 P   0  0  0  0  0  0  0  0  0 15  0  0
    4.4978    9.1756   -0.4587 S   0  0  0  0  0  0  0  0  0 16  0  0
    2.2904    8.5884    0.9714 O   0  0  0  0  0  0  0  0  0 17  0  0
    0.8705    8.3158    0.9697 C   0  0  0  0  0  0  0  0  0 18  0  0
    2.0998   10.0854   -1.0867 O   0  0  0  0  0  0  0  0  0 19  0  0
    2.4479   11.2695   -0.3508 C   0  0  0  0  0  0  0  0  0 20  0  0
    0.1345   -1.4963    0.0983 O   0  0  0  0  0  0  0  0  0 21  0  0
   -1.2742   -0.8426    0.3927 P   0  0  0  0  0  0  0  0  0 22  0  0
   -2.4739   -2.0531    0.2737 S   0  0  0  0  0  0  0  0  0 23  0  0
   -1.6078    0.2741   -0.6475 O   0  0  0  0  0  0  0  0  0 24  0  0
   -1.6900   -0.2858   -1.9663 C   0  0  0  0  0  0  0  0  0 25  0  0
   -1.3190   -0.2547    1.8356 O   0  0  0  0  0  0  0  0  0 26  0  0
   -1.1356   -1.3043    2.7964 C   0  0  0  0  0  0  0  0  0 27  0  0
 26 27  1  0
 22 26  1  0
 24 25  1  0
 22 24  1  0
 22 23  2  0
 21 22  1  0
  2 21  1  0
 19 20  1  0
 15 19  1  0
 17 18  1  0
 15 17  1  0
 15 16  2  0
 14 15  1  0
 11 14  1  0
 13  8  4  0
 12 13  4  0
 11 12  4  0
 10 11  4  0
  9 10  4  0
  8  9  4  0
  7  8  1  0
  5  7  1  0
  6  1  4  0
  5  6  4  0
  4  5  4  0
  3  4  4  0
  2  3  4  0
  1  2  4  0
M  END
> <Name>
Temephos

> <CAS RN>
003383-96-8

> <Log Koc>
5

> <VP-0>
19.4258

> <nAromBond>
12

> <MAXDP>
2.55129

> <nHBAcc>
4

> <Splitting>
2

$$$$
Pipron
  SciTegic01221512053D

 22 23  0  0  0  0            999 V2000
    0.6022   -0.7978   -2.4714 C   0  0  0  0  0  0  0  0  0  1  0  0
    2.0241   -0.9185   -2.8013 C   0  0  0  0  0  0  0  0  0  2  0  0
    2.3664   -1.4427   -1.5385 C   0  0  0  0  0  0  0  0  0  3  0  0
    1.5076   -0.5988   -0.7062 N   0  0  0  0  0  0  0  0  0  4  0  0
    1.7628    1.5885   -1.5384 C   0  0  0  0  0  0  0  0  0  5  0  0
   -0.0578    2.0581   -2.4412 C   0  0  0  0  0  0  0  0  0  6  0  0
   -1.8407    1.1640   -1.8616 C   0  0  0  0  0  0  0  0  0  7  0  0
   -1.9878   -0.7722   -1.2194 C   0  0  0  0  0  0  0  0  0  8  0  0
   -0.5534   -1.5724   -0.0288 C   0  0  2  0  0  0  0  0  0  9  0  0
   -0.7838   -1.1168    0.9358 H   0  0  0  0  0  0  0  0  0 10  0  0
   -0.5615   -3.1050    0.1722 C   0  0  0  0  0  0  0  0  0 11  0  0
   -0.0300    0.6962   -0.3263 O   0  0  0  0  0  0  0  0  0 12  0  0
    0.5677    0.9614    1.1702 C   0  0  0  0  0  0  0  0  0 13  0  0
    1.5846    0.3809    1.5698 O   0  0  0  0  0  0  0  0  0 14  0  0
   -0.1038    1.9093    2.0521 C   0  0  0  0  0  0  0  0  0 15  0  0
    0.4040    2.1545    3.3220 C   0  0  0  0  0  0  0  0  0 16  0  0
   -0.2323    3.0630    4.1605 C   0  0  0  0  0  0  0  0  0 17  0  0
   -1.3756    3.7251    3.7282 C   0  0  0  0  0  0  0  0  0 18  0  0
   -1.8838    3.4788    2.4577 C   0  0  0  0  0  0  0  0  0 19  0  0
   -1.2475    2.5711    1.6194 C   0  0  0  0  0  0  0  0  0 20  0  0
   -2.1643    4.8549    4.7704 Cl  0  0  0  0  0  0  0  0  0 21  0  0
    0.3985    3.3706    5.7389 Cl  0  0  0  0  0  0  0  0  0 22  0  0
 17 22  1  0
 18 21  1  0
 20 15  4  0
 19 20  4  0
 18 19  4  0
 17 18  4  0
 16 17  4  0
 15 16  4  0
 13 15  1  0
 13 14  2  0
 12 13  1  0
  1 12  1  0
  9 11  1  0
  9  4  1  0
  9 10  1  0
  8  9  1  0
  7  8  1  0
  6  7  1  0
  5  6  1  0
  4  5  1  0
  3  4  1  0
  2  3  1  0
  1  2  1  0
M  END
> <Name>
Pipron

> <CAS RN>
003478-94-2

> <Log Koc>
3.7

> <VP-0>
13.7907

> <nAromBond>
6

> <MAXDP>
5.01933

> <nHBAcc>
3

> <Splitting>
2

$$$$
2,3,5,6-Tetrachloroaniline
  SciTegic01221512053D

 11 11  0  0  0  0            999 V2000
   -2.0414    1.0207    0.6197 N   0  0  0  0  0  0  0  0  0  1  0  0
   -0.6812    0.9703    0.3130 C   0  0  0  0  0  0  0  0  0  2  0  0
    0.0299    2.1476    0.1110 C   0  0  0  0  0  0  0  0  0  3  0  0
    1.3852    2.0974   -0.1945 C   0  0  0  0  0  0  0  0  0  4  0  0
    2.0298    0.8700   -0.2981 C   0  0  0  0  0  0  0  0  0  5  0  0
    1.3183   -0.3073   -0.0960 C   0  0  0  0  0  0  0  0  0  6  0  0
   -0.0369   -0.2571    0.2095 C   0  0  0  0  0  0  0  0  0  7  0  0
   -0.9204   -1.7199    0.4605 Cl  0  0  0  0  0  0  0  0  0  8  0  0
    2.1179   -1.8332   -0.2244 Cl  0  0  0  0  0  0  0  0  0  9  0  0
    2.2678    3.5610   -0.4453 Cl  0  0  0  0  0  0  0  0  0 10  0  0
   -0.7705    3.6728    0.2396 Cl  0  0  0  0  0  0  0  0  0 11  0  0
  3 11  1  0
  4 10  1  0
  6  9  1  0
  7  8  1  0
  7  2  4  0
  6  7  4  0
  5  6  4  0
  4  5  4  0
  3  4  4  0
  2  3  4  0
  1  2  1  0
M  END
> <Name>
2,3,5,6-Tetrachloroaniline

> <CAS RN>
003481-20-7

> <Log Koc>
3.94

> <VP-0>
8.19027

> <nAromBond>
6

> <MAXDP>
2.01765

> <nHBAcc>
1

> <Splitting>
1

$$$$
3-(3,4-Dichlorophenyl)-1-methylurea
  SciTegic01221512053D

 13 13  0  0  0  0            999 V2000
    2.7935    1.0250    0.0017 C   0  0  0  0  0  0  0  0  0  1  0  0
    1.4068    0.9168    0.0008 C   0  0  0  0  0  0  0  0  0  2  0  0
    0.6325    2.0732    0.0003 C   0  0  0  0  0  0  0  0  0  3  0  0
    1.2374    3.3246    0.0007 C   0  0  0  0  0  0  0  0  0  4  0  0
    2.6233    3.4262    0.0016 C   0  0  0  0  0  0  0  0  0  5  0  0
    3.4018    2.2751    0.0021 C   0  0  0  0  0  0  0  0  0  6  0  0
    3.3762    4.9811    0.0021 Cl  0  0  0  0  0  0  0  0  0  7  0  0
    0.2670    4.7536    0.0001 Cl  0  0  0  0  0  0  0  0  0  8  0  0
    0.8249   -0.3799    0.0004 N   0  0  0  0  0  0  0  0  0  9  0  0
   -0.5712   -0.6399   -0.0005 C   0  0  0  0  0  0  0  0  0 10  0  0
   -1.4074    0.2707   -0.0010 O   0  0  0  0  0  0  0  0  0 11  0  0
   -1.0123   -1.9636   -0.0008 N   0  0  0  0  0  0  0  0  0 12  0  0
   -2.4178   -2.2505   -0.0017 C   0  0  0  0  0  0  0  0  0 13  0  0
 12 13  1  0
 10 12  1  0
 10 11  2  0
  9 10  1  0
  2  9  1  0
  4  8  1  0
  5  7  1  0
  6  1  4  0
  5  6  4  0
  4  5  4  0
  3  4  4  0
  2  3  4  0
  1  2  4  0
M  END
> <Name>
3-(3,4-Dichlorophenyl)-1-methylurea

> <CAS RN>
003567-62-2

> <Log Koc>
2.46

> <VP-0>
8.40809

> <nAromBond>
6

> <MAXDP>
3.97879

> <nHBAcc>
3

> <Splitting>
2

$$$$
4-Biphenylmethanol
  SciTegic01221512053D

 14 15  0  0  0  0            999 V2000
   -1.7670    4.1675    1.5662 C   0  0  0  0  0  0  0  0  0  1  0  0
   -1.7008    3.9878    2.9433 C   0  0  0  0  0  0  0  0  0  2  0  0
   -0.8924    2.9900    3.4763 C   0  0  0  0  0  0  0  0  0  3  0  0
   -0.1502    2.1719    2.6322 C   0  0  0  0  0  0  0  0  0  4  0  0
   -0.2164    2.3516    1.2551 C   0  0  0  0  0  0  0  0  0  5  0  0
   -1.0247    3.3494    0.7220 C   0  0  0  0  0  0  0  0  0  6  0  0
    0.5637    1.4918    0.3679 C   0  0  0  0  0  0  0  0  0  7  0  0
    0.4975    1.6716   -1.0092 C   0  0  0  0  0  0  0  0  0  8  0  0
    1.2396    0.8536   -1.8534 C   0  0  0  0  0  0  0  0  0  9  0  0
    2.0478   -0.1439   -1.3200 C   0  0  0  0  0  0  0  0  0 10  0  0
    2.1142   -0.3239    0.0570 C   0  0  0  0  0  0  0  0  0 11  0  0
    1.3721    0.4941    0.9010 C   0  0  0  0  0  0  0  0  0 12  0  0
    2.8487   -1.0268   -2.2301 C   0  0  0  0  0  0  0  0  0 13  0  0
    3.5917   -1.9652   -1.4486 O   0  0  0  0  0  0  0  0  0 14  0  0
 13 14  1  0
 10 13  1  0
 12  7  4  0
 11 12  4  0
 10 11  4  0
  9 10  4  0
  8  9  4  0
  7  8  4  0
  5  7  1  0
  6  1  4  0
  5  6  4  0
  4  5  4  0
  3  4  4  0
  2  3  4  0
  1  2  4  0
M  END
> <Name>
4-Biphenylmethanol

> <CAS RN>
003597-91-9

> <Log Koc>
2.59

> <VP-0>
7.85047

> <nAromBond>
13

> <MAXDP>
2.89905

> <nHBAcc>
1

> <Splitting>
2

$$$$
TEDP
  SciTegic01221512053D

 17 16  0  0  0  0            999 V2000
    0.4497    0.1332   -2.9534 C   0  0  0  0  0  0  0  0  0  1  0  0
    1.6385    1.0773   -2.6656 C   0  0  0  0  0  0  0  0  0  2  0  0
    1.6685    1.5500   -1.2876 O   0  0  0  0  0  0  0  0  0  3  0  0
    2.0149    0.4134   -0.2697 P   0  0  0  0  0  0  0  0  0  4  0  0
    3.3841   -0.3890   -0.9105 S   0  0  0  0  0  0  0  0  0  5  0  0
    0.8290   -0.6254   -0.0984 O   0  0  0  0  0  0  0  0  0  6  0  0
   -0.4845   -0.2098    0.7475 P   0  0  0  0  0  0  0  0  0  7  0  0
   -1.4272   -1.6372    0.7538 S   0  0  0  0  0  0  0  0  0  8  0  0
   -1.4050    0.9368    0.1031 O   0  0  0  0  0  0  0  0  0  9  0  0
   -0.8346    2.2758   -0.0419 C   0  0  0  0  0  0  0  0  0 10  0  0
   -0.4758    2.9644    1.2902 C   0  0  0  0  0  0  0  0  0 11  0  0
   -0.1086    0.0911    2.2432 O   0  0  0  0  0  0  0  0  0 12  0  0
   -1.1688   -0.2791    3.1855 C   0  0  0  0  0  0  0  0  0 13  0  0
   -2.4631    0.5550    3.0357 C   0  0  0  0  0  0  0  0  0 14  0  0
    2.4150    1.0451    1.1074 O   0  0  0  0  0  0  0  0  0 15  0  0
    3.3144    0.1939    1.8782 C   0  0  0  0  0  0  0  0  0 16  0  0
    2.6933   -1.1580    2.2940 C   0  0  0  0  0  0  0  0  0 17  0  0
 16 17  1  0
 15 16  1  0
  4 15  1  0
 13 14  1  0
 12 13  1  0
  7 12  1  0
 10 11  1  0
  9 10  1  0
  7  9  1  0
  7  8  2  0
  6  7  1  0
  4  6  1  0
  4  5  2  0
  3  4  1  0
  2  3  1  0
  1  2  1  0
M  END
> <Name>
TEDP

> <CAS RN>
003689-24-5

> <Log Koc>
2.66

> <VP-0>
14.0024

> <nAromBond>
0

> <MAXDP>
2.82385

> <nHBAcc>
5

> <Splitting>
2

$$$$
Fenobucarb
  SciTegic01221512053D

 16 16  0  0  0  0            999 V2000
    2.7880    4.0318   -0.3031 N   0  0  0  0  0  0  0  0  0  1  0  0
    2.8293    2.6347   -0.3874 C   0  0  0  0  0  0  0  0  0  2  0  0
    3.9288    2.0963   -0.5570 O   0  0  0  0  0  0  0  0  0  3  0  0
    1.6740    1.7881   -0.2925 O   0  0  0  0  0  0  0  0  0  4  0  0
    0.3703    2.3578   -0.0957 C   0  0  0  0  0  0  0  0  0  5  0  0
    0.1396    3.7261    0.0183 C   0  0  0  0  0  0  0  0  0  6  0  0
   -1.1459    4.2193    0.2062 C   0  0  0  0  0  0  0  0  0  7  0  0
   -2.2204    3.3426    0.2804 C   0  0  0  0  0  0  0  0  0  8  0  0
   -2.0013    1.9759    0.1673 C   0  0  0  0  0  0  0  0  0  9  0  0
   -0.7117    1.4852   -0.0170 C   0  0  0  0  0  0  0  0  0 10  0  0
   -0.4886   -0.0048   -0.1435 C   0  0  1  0  0  0  0  0  0 11  0  0
    0.5791   -0.2347   -0.2555 H   0  0  0  0  0  0  0  0  0 12  0  0
   -1.0791   -0.7422    1.0837 C   0  0  0  0  0  0  0  0  0 13  0  0
   -0.3481   -0.3185    2.3778 C   0  0  0  0  0  0  0  0  0 14  0  0
   -1.2753   -0.5087   -1.3666 C   0  0  0  0  0  0  0  0  0 15  0  0
    3.9994    4.7935   -0.4139 C   0  0  0  0  0  0  0  0  0 16  0  0
  1 16  1  0
 11 15  1  0
 13 14  1  0
 11 13  1  0
 11 12  1  0
 10 11  1  0
 10  5  4  0
  9 10  4  0
  8  9  4  0
  7  8  4  0
  6  7  4  0
  5  6  4  0
  4  5  1  0
  2  4  1  0
  2  3  2  0
  1  2  1  0
M  END
> <Name>
Fenobucarb

> <CAS RN>
003766-81-2

> <Log Koc>
1.71

> <VP-0>
9.41035

> <nAromBond>
6

> <MAXDP>
4.11103

> <nHBAcc>
2

> <Splitting>
2

$$$$
Metizolin
  SciTegic01221512053D

 15 16  0  0  0  0            999 V2000
    1.5127    2.2324    2.2864 C   0  0  0  0  0  0  0  0  0  1  0  0
    2.2676    2.9455    2.9563 O   0  0  0  0  0  0  0  0  0  2  0  0
    0.7778    2.8151    1.1106 C   0  0  0  0  0  0  0  0  0  3  0  0
   -0.0400    1.8024    0.4989 N   0  0  0  0  0  0  0  0  0  4  0  0
   -1.2935    1.5997    0.9171 C   0  0  0  0  0  0  0  0  0  5  0  0
   -1.8473    2.2298    1.8246 O   0  0  0  0  0  0  0  0  0  6  0  0
   -1.9821    0.4051    0.0606 S   0  0  0  0  0  0  0  0  0  7  0  0
   -0.6923    0.1138   -0.8723 C   0  0  0  0  0  0  0  0  0  8  0  0
    0.3289    0.9820   -0.5090 C   0  0  0  0  0  0  0  0  0  9  0  0
    1.5492    0.9075   -1.1914 C   0  0  0  0  0  0  0  0  0 10  0  0
    1.6825   -0.0391   -2.2067 C   0  0  0  0  0  0  0  0  0 11  0  0
    0.6403   -0.8993   -2.5505 C   0  0  0  0  0  0  0  0  0 12  0  0
   -0.5746   -0.8310   -1.8783 C   0  0  0  0  0  0  0  0  0 13  0  0
    2.9189    1.9252   -0.8538 Cl  0  0  0  0  0  0  0  0  0 14  0  0
    1.3606    0.8868    2.6085 O   0  0  0  0  0  0  0  0  0 15  0  0
  1 15  1  0
 10 14  1  0
 13  8  4  0
 12 13  4  0
 11 12  4  0
 10 11  4  0
  9 10  4  0
  9  4  4  0
  8  9  4  0
  7  8  4  0
  5  7  4  0
  5  6  2  0
  4  5  4  0
  3  4  1  0
  1  3  1  0
  1  2  2  0
M  END
> <Name>
Metizolin

> <CAS RN>
003813-05-6

> <Log Koc>
1.52

> <VP-0>
9.00872

> <nAromBond>
6

> <MAXDP>
4.69435

> <nHBAcc>
4

> <Splitting>
2

$$$$
Methyl-N-(3-chlorophenyl)carbamate
  SciTegic01221512053D

 12 12  0  0  0  0            999 V2000
    2.5664    3.6110    0.0009 C   0  0  0  0  0  0  0  0  0  1  0  0
    3.3540    2.4664    0.0019 C   0  0  0  0  0  0  0  0  0  2  0  0
    2.7570    1.2108    0.0014 C   0  0  0  0  0  0  0  0  0  3  0  0
    1.3717    1.0827   -0.0001 C   0  0  0  0  0  0  0  0  0  4  0  0
    0.5909    2.2359   -0.0011 C   0  0  0  0  0  0  0  0  0  5  0  0
    1.1821    3.4941   -0.0006 C   0  0  0  0  0  0  0  0  0  6  0  0
    0.8257   -0.2448   -0.0005 O   0  0  0  0  0  0  0  0  0  7  0  0
   -0.5959   -0.4200   -0.0020 C   0  0  0  0  0  0  0  0  0  8  0  0
   -1.3982    0.5203   -0.0030 O   0  0  0  0  0  0  0  0  0  9  0  0
   -1.1013   -1.7206   -0.0024 N   0  0  0  0  0  0  0  0  0 10  0  0
   -2.5191   -1.9385   -0.0039 C   0  0  0  0  0  0  0  0  0 11  0  0
    5.0763    2.6034    0.0037 Cl  0  0  0  0  0  0  0  0  0 12  0  0
  2 12  1  0
 10 11  1  0
  8 10  1  0
  8  9  2  0
  7  8  1  0
  4  7  1  0
  6  1  4  0
  5  6  4  0
  4  5  4  0
  3  4  4  0
  2  3  4  0
  1  2  4  0
M  END
> <Name>
Methyl-N-(3-chlorophenyl)carbamate

> <CAS RN>
004090-00-0

> <Log Koc>
2.15

> <VP-0>
7.25979

> <nAromBond>
6

> <MAXDP>
3.77253

> <nHBAcc>
2

> <Splitting>
2

$$$$
Dipropetryn
  SciTegic01221512053D

 17 17  0  0  0  0            999 V2000
   -0.8204    0.9395   -0.1265 N   0  0  0  0  0  0  0  0  0  1  0  0
   -0.1092    2.0577   -0.0780 C   0  0  0  0  0  0  0  0  0  2  0  0
    1.2109    1.9879    0.0462 N   0  0  0  0  0  0  0  0  0  3  0  0
    1.8211    0.8125    0.1215 C   0  0  0  0  0  0  0  0  0  4  0  0
    1.1010   -0.3015    0.0722 N   0  0  0  0  0  0  0  0  0  5  0  0
   -0.2176   -0.2391   -0.0508 C   0  0  0  0  0  0  0  0  0  6  0  0
   -1.1677   -1.7347   -0.1178 S   0  0  0  0  0  0  0  0  0  7  0  0
   -2.9377   -1.3500   -0.1799 C   0  0  0  0  0  0  0  0  0  8  0  0
   -3.3637   -0.6290    1.1142 C   0  0  0  0  0  0  0  0  0  9  0  0
    3.2327    0.7796    0.2528 N   0  0  0  0  0  0  0  0  0 10  0  0
    4.0032   -0.4505    0.3426 C   0  0  0  0  0  0  0  0  0 11  0  0
    3.8243   -1.3088   -0.9296 C   0  0  0  0  0  0  0  0  0 12  0  0
    3.5939   -1.2692    1.5872 C   0  0  0  0  0  0  0  0  0 13  0  0
   -0.7828    3.3030   -0.1606 N   0  0  0  0  0  0  0  0  0 14  0  0
   -0.1042    4.5884   -0.1168 C   0  0  0  0  0  0  0  0  0 15  0  0
    0.8845    4.7321   -1.2952 C   0  0  0  0  0  0  0  0  0 16  0  0
    0.6469    4.7713    1.2209 C   0  0  0  0  0  0  0  0  0 17  0  0
 15 17  1  0
 15 16  1  0
 14 15  1  0
  2 14  1  0
 11 13  1  0
 11 12  1  0
 10 11  1  0
  4 10  1  0
  8  9  1  0
  7  8  1  0
  6  7  1  0
  6  1  4  0
  5  6  4  0
  4  5  4  0
  3  4  4  0
  2  3  4  0
  1  2  4  0
M  END
> <Name>
Dipropetryn

> <CAS RN>
004147-51-7

> <Log Koc>
3.07

> <VP-0>
11.9282

> <nAromBond>
6

> <MAXDP>
1.4919

> <nHBAcc>
5

> <Splitting>
2

$$$$
6-Chloropicolinic acid
  SciTegic01221512053D

 10 10  0  0  0  0            999 V2000
    1.5445   -1.0414    0.0000 N   0  0  0  0  0  0  0  0  0  1  0  0
    0.8714    0.1048   -0.0002 C   0  0  0  0  0  0  0  0  0  2  0  0
    1.5451    1.3207   -0.0005 C   0  0  0  0  0  0  0  0  0  3  0  0
    2.9331    1.3267   -0.0006 C   0  0  0  0  0  0  0  0  0  4  0  0
    3.6053    0.1122   -0.0005 C   0  0  0  0  0  0  0  0  0  5  0  0
    2.8736   -1.0699   -0.0002 C   0  0  0  0  0  0  0  0  0  6  0  0
    3.6978   -2.5882    0.0001 Cl  0  0  0  0  0  0  0  0  0  7  0  0
   -0.5881    0.0863   -0.0001 C   0  0  0  0  0  0  0  0  0  8  0  0
   -1.2192    1.1490   -0.0002 O   0  0  0  0  0  0  0  0  0  9  0  0
   -1.2672   -1.1274    0.0002 O   0  0  0  0  0  0  0  0  0 10  0  0
  8 10  1  0
  8  9  2  0
  2  8  1  0
  6  7  1  0
  6  1  4  0
  5  6  4  0
  4  5  4  0
  3  4  4  0
  2  3  4  0
  1  2  4  0
M  END
> <Name>
6-Chloropicolinic acid

> <CAS RN>
004684-94-0

> <Log Koc>
1.16

> <VP-0>
5.66862

> <nAromBond>
6

> <MAXDP>
3.30882

> <nHBAcc>
3

> <Splitting>
2

$$$$
Nitralin
  SciTegic01221512053D

 23 23  0  0  0  0            999 V2000
    1.1676   -1.1204   -0.3522 C   0  0  0  0  0  0  0  0  0  1  0  0
    0.4260    0.0485   -0.3113 C   0  0  0  0  0  0  0  0  0  2  0  0
    1.0472    1.2397    0.0259 C   0  0  0  0  0  0  0  0  0  3  0  0
    2.4052    1.2772    0.3194 C   0  0  0  0  0  0  0  0  0  4  0  0
    3.1663    0.0974    0.2689 C   0  0  0  0  0  0  0  0  0  5  0  0
    2.5268   -1.1047   -0.0647 C   0  0  0  0  0  0  0  0  0  6  0  0
    3.2029   -2.3444   -0.1419 N   0  0  0  0  0  0  0  0  0  7  0  0
    4.4947   -2.4528    0.0663 O   0  0  0  0  0  0  0  0  0  8  0  0
    2.5131   -3.4283   -0.4590 O   0  0  0  0  0  0  0  0  0  9  0  0
    4.5762    0.1028    0.5658 N   0  0  0  0  0  0  0  0  0 10  0  0
    4.9701   -0.1755    1.9648 C   0  0  0  0  0  0  0  0  0 11  0  0
    6.5108   -0.2738    2.2074 C   0  0  0  0  0  0  0  0  0 12  0  0
    7.1079   -1.5972    1.6526 C   0  0  0  0  0  0  0  0  0 13  0  0
    5.5709    0.7192   -0.3703 C   0  0  0  0  0  0  0  0  0 14  0  0
    5.1510    0.7513   -1.8714 C   0  0  0  0  0  0  0  0  0 15  0  0
    5.1855   -0.6621   -2.4961 C   0  0  0  0  0  0  0  0  0 16  0  0
    2.9261    2.5530    0.6773 N   0  0  0  0  0  0  0  0  0 17  0  0
    4.1527    2.7265    1.1195 O   0  0  0  0  0  0  0  0  0 18  0  0
    2.1152    3.5987    0.6381 O   0  0  0  0  0  0  0  0  0 19  0  0
   -1.3033    0.0197   -0.6787 S   0  0  0  0  0  0  0  0  0 20  0  0
   -1.6202    1.1085   -1.6860 O   0  0  0  0  0  0  0  0  0 21  0  0
   -2.0795    0.3124    0.5912 O   0  0  0  0  0  0  0  0  0 22  0  0
   -1.7750   -1.6031   -1.3254 C   0  0  0  0  0  0  0  0  0 23  0  0
 20 23  1  0
 20 22  2  0
 20 21  2  0
  2 20  1  0
 17 19  1  0
 17 18  1  0
  4 17  1  0
 15 16  1  0
 14 15  1  0
 10 14  1  0
 12 13  1  0
 11 12  1  0
 10 11  1  0
  5 10  1  0
  7  9  1  0
  7  8  1  0
  6  7  1  0
  6  1  4  0
  5  6  4  0
  4  5  4  0
  3  4  4  0
  2  3  4  0
  1  2  4  0
M  END
> <Name>
Nitralin

> <CAS RN>
004726-14-1

> <Log Koc>
2.92

> <VP-0>
13.0895

> <nAromBond>
6

> <MAXDP>
4.80444

> <nHBAcc>
3

> <Splitting>
2

$$$$
1-Naphthalenemethanol
  SciTegic01221512053D

 12 13  0  0  0  0            999 V2000
   -2.5896    1.5868   -0.4059 C   0  0  0  0  0  0  0  0  0  1  0  0
   -1.8417    0.6043    0.2315 C   0  0  0  0  0  0  0  0  0  2  0  0
   -0.4508    0.6035    0.1694 C   0  0  0  0  0  0  0  0  0  3  0  0
    0.1827    1.6165   -0.5509 C   0  0  0  0  0  0  0  0  0  4  0  0
   -0.5620    2.6016   -1.1902 C   0  0  0  0  0  0  0  0  0  5  0  0
   -1.9487    2.5901   -1.1199 C   0  0  0  0  0  0  0  0  0  6  0  0
    1.5680    1.6591   -0.6423 C   0  0  0  0  0  0  0  0  0  7  0  0
    2.3334    0.6883   -0.0137 C   0  0  0  0  0  0  0  0  0  8  0  0
    1.7077   -0.3217    0.7042 C   0  0  0  0  0  0  0  0  0  9  0  0
    0.3213   -0.3790    0.8057 C   0  0  0  0  0  0  0  0  0 10  0  0
   -0.2530   -1.5515    1.6321 C   0  0  0  0  0  0  0  0  0 11  0  0
   -1.6779   -1.6136    1.7360 O   0  0  0  0  0  0  0  0  0 12  0  0
 11 12  1  0
 10 11  1  0
 10  3  4  0
  9 10  4  0
  8  9  4  0
  7  8  4  0
  4  7  4  0
  6  1  4  0
  5  6  4  0
  4  5  4  0
  3  4  4  0
  2  3  4  0
  1  2  4  0
M  END
> <Name>
1-Naphthalenemethanol

> <CAS RN>
004780-79-4

> <Log Koc>
2.25

> <VP-0>
6.69577

> <nAromBond>
11

> <MAXDP>
3.03561

> <nHBAcc>
1

> <Splitting>
2

$$$$
Carboxin
  SciTegic01221512053D

 16 17  0  0  0  0            999 V2000
    5.7829   -2.0416   -0.5219 C   0  0  0  0  0  0  0  0  0  1  0  0
    5.0002   -2.5804    0.4921 C   0  0  0  0  0  0  0  0  0  2  0  0
    3.7631   -2.0194    0.7887 C   0  0  0  0  0  0  0  0  0  3  0  0
    3.2981   -0.9191    0.0763 C   0  0  0  0  0  0  0  0  0  4  0  0
    4.0875   -0.3842   -0.9384 C   0  0  0  0  0  0  0  0  0  5  0  0
    5.3252   -0.9418   -1.2375 C   0  0  0  0  0  0  0  0  0  6  0  0
    2.0217   -0.3807    0.4204 N   0  0  0  0  0  0  0  0  0  7  0  0
    1.4120    0.6521   -0.1906 C   0  0  0  0  0  0  0  0  0  8  0  0
    1.9492    1.2261   -1.1440 O   0  0  0  0  0  0  0  0  0  9  0  0
    0.0628    1.1631    0.2370 C   0  0  0  0  0  0  0  0  0 10  0  0
   -0.6885    0.6649    1.2471 C   0  0  0  0  0  0  0  0  0 11  0  0
   -1.9304    1.2320    1.5867 O   0  0  0  0  0  0  0  0  0 12  0  0
   -2.3646    2.5467    1.2256 C   0  0  0  0  0  0  0  0  0 13  0  0
   -2.1970    2.8615   -0.2621 C   0  0  0  0  0  0  0  0  0 14  0  0
   -0.5820    2.4473   -0.6519 S   0  0  0  0  0  0  0  0  0 15  0  0
   -0.2490   -0.5125    2.0803 C   0  0  0  0  0  0  0  0  0 16  0  0
 11 16  1  0
 15 10  1  0
 14 15  1  0
 13 14  1  0
 12 13  1  0
 11 12  1  0
 10 11  2  0
  8 10  1  0
  8  9  2  0
  7  8  1  0
  4  7  1  0
  6  1  4  0
  5  6  4  0
  4  5  4  0
  3  4  4  0
  2  3  4  0
  1  2  4  0
M  END
> <Name>
Carboxin

> <CAS RN>
005234-68-4

> <Log Koc>
2.41

> <VP-0>
9.84221

> <nAromBond>
6

> <MAXDP>
4.98218

> <nHBAcc>
3

> <Splitting>
2

$$$$
Oxycarboxin
  SciTegic01221512053D

 18 19  0  0  0  0            999 V2000
    4.3666    3.8949    1.1179 O   0  0  0  0  0  0  0  0  0  1  0  0
    2.8878    4.2323    1.1766 S   0  0  0  0  0  0  0  0  0  2  0  0
    2.4352    4.5512    2.5881 O   0  0  0  0  0  0  0  0  0  3  0  0
    1.8620    3.0394    0.5121 C   0  0  0  0  0  0  0  0  0  4  0  0
    1.9837    2.9566   -0.8173 C   0  0  0  0  0  0  0  0  0  5  0  0
    3.3210    3.0200   -1.5938 C   0  0  0  0  0  0  0  0  0  6  0  0
    1.0247    3.7884   -1.3557 O   0  0  0  0  0  0  0  0  0  7  0  0
    1.0407    5.2361   -0.8147 C   0  0  0  0  0  0  0  0  0  8  0  0
    2.4434    5.6132   -0.0125 C   0  0  0  0  0  0  0  0  0  9  0  0
    0.4728    2.9075    1.1692 C   0  0  0  0  0  0  0  0  0 10  0  0
    0.1603    3.7194    2.0463 O   0  0  0  0  0  0  0  0  0 11  0  0
   -0.4333    1.9581    0.8429 N   0  0  0  0  0  0  0  0  0 12  0  0
   -0.1824    0.8637   -0.0152 C   0  0  0  0  0  0  0  0  0 13  0  0
   -0.8017    0.7733   -1.2606 C   0  0  0  0  0  0  0  0  0 14  0  0
   -0.5428   -0.3181   -2.0802 C   0  0  0  0  0  0  0  0  0 15  0  0
    0.3211   -1.3249   -1.6575 C   0  0  0  0  0  0  0  0  0 16  0  0
    0.9295   -1.2402   -0.4125 C   0  0  0  0  0  0  0  0  0 17  0  0
    0.6764   -0.1434    0.4052 C   0  0  0  0  0  0  0  0  0 18  0  0
 18 13  4  0
 17 18  4  0
 16 17  4  0
 15 16  4  0
 14 15  4  0
 13 14  4  0
 12 13  1  0
 10 12  1  0
 10 11  2  0
  4 10  1  0
  9  2  1  0
  8  9  1  0
  7  8  1  0
  5  7  1  0
  5  6  1  0
  4  5  2  0
  2  4  1  0
  2  3  2  0
  1  2  2  0
M  END
> <Name>
Oxycarboxin

> <CAS RN>
005259-88-1

> <Log Koc>
1.7

> <VP-0>
10.0459

> <nAromBond>
6

> <MAXDP>
5.00243

> <nHBAcc>
5

> <Splitting>
2

$$$$
3-Chloro-4-methoxyaniline
  SciTegic01221512053D

 10 10  0  0  0  0            999 V2000
   -1.0502    0.8138    0.0000 C   0  0  0  0  0  0  0  0  0  1  0  0
   -0.3482    2.0136   -0.0004 C   0  0  0  0  0  0  0  0  0  2  0  0
    1.0420    2.0057   -0.0009 C   0  0  0  0  0  0  0  0  0  3  0  0
    1.7339    0.7997   -0.0010 C   0  0  0  0  0  0  0  0  0  4  0  0
    1.0288   -0.4005   -0.0007 C   0  0  0  0  0  0  0  0  0  5  0  0
   -0.3616   -0.3937   -0.0002 C   0  0  0  0  0  0  0  0  0  6  0  0
    3.1390    0.8127   -0.0015 O   0  0  0  0  0  0  0  0  0  7  0  0
    3.6743   -0.5190   -0.0016 C   0  0  0  0  0  0  0  0  0  8  0  0
    1.9131    3.4973   -0.0013 Cl  0  0  0  0  0  0  0  0  0  9  0  0
   -2.4458    0.8217    0.0005 N   0  0  0  0  0  0  0  0  0 10  0  0
  1 10  1  0
  3  9  1  0
  7  8  1  0
  4  7  1  0
  6  1  4  0
  5  6  4  0
  4  5  4  0
  3  4  4  0
  2  3  4  0
  1  2  4  0
M  END
> <Name>
3-Chloro-4-methoxyaniline

> <CAS RN>
005345-54-0

> <Log Koc>
1.93

> <VP-0>
6.35154

> <nAromBond>
6

> <MAXDP>
1.58529

> <nHBAcc>
1

> <Splitting>
2

$$$$
Propyl-N-phenylcarbamate
  SciTegic01221512053D

 13 13  0  0  0  0            999 V2000
    3.4216    3.6359    0.4979 C   0  0  0  0  0  0  0  0  0  1  0  0
    4.0319    2.5017   -0.0247 C   0  0  0  0  0  0  0  0  0  2  0  0
    3.2958    1.3362   -0.2052 C   0  0  0  0  0  0  0  0  0  3  0  0
    1.9476    1.2955    0.1353 C   0  0  0  0  0  0  0  0  0  4  0  0
    1.3420    2.4342    0.6579 C   0  0  0  0  0  0  0  0  0  5  0  0
    2.0750    3.6015    0.8394 C   0  0  0  0  0  0  0  0  0  6  0  0
    1.2303    0.0853   -0.0670 N   0  0  0  0  0  0  0  0  0  7  0  0
   -0.1381   -0.1057    0.2577 C   0  0  0  0  0  0  0  0  0  8  0  0
   -0.8212    0.7924    0.7637 O   0  0  0  0  0  0  0  0  0  9  0  0
   -0.7311   -1.3470   -0.0105 O   0  0  0  0  0  0  0  0  0 10  0  0
   -2.1221   -1.3552    0.3749 C   0  0  0  0  0  0  0  0  0 11  0  0
   -3.0723   -1.3046   -0.8625 C   0  0  0  0  0  0  0  0  0 12  0  0
   -2.9187    0.0023   -1.6733 C   0  0  0  0  0  0  0  0  0 13  0  0
 12 13  1  0
 11 12  1  0
 10 11  1  0
  8 10  1  0
  8  9  2  0
  7  8  1  0
  4  7  1  0
  6  1  4  0
  5  6  4  0
  4  5  4  0
  3  4  4  0
  2  3  4  0
  1  2  4  0
M  END
> <Name>
Propyl-N-phenylcarbamate

> <CAS RN>
005532-90-1

> <Log Koc>
2.06

> <VP-0>
7.61746

> <nAromBond>
6

> <MAXDP>
4.03801

> <nHBAcc>
3

> <Splitting>
2

$$$$
Chlorpyrifos methyl
  SciTegic01221512053D

 16 16  0  0  0  0            999 V2000
    3.4734    5.1280   -1.0346 Cl  0  0  0  0  0  0  0  0  0  1  0  0
    2.6963    3.6388   -0.6310 C   0  0  0  0  0  0  0  0  0  2  0  0
    3.4448    2.5235   -0.2917 C   0  0  0  0  0  0  0  0  0  3  0  0
    5.1696    2.6178   -0.2705 Cl  0  0  0  0  0  0  0  0  0  4  0  0
    2.8396    1.3830    0.0171 N   0  0  0  0  0  0  0  0  0  5  0  0
    1.5161    1.2332    0.0222 C   0  0  0  0  0  0  0  0  0  6  0  0
    0.7085    2.3331   -0.3130 C   0  0  0  0  0  0  0  0  0  7  0  0
    1.3149    3.5396   -0.6402 C   0  0  0  0  0  0  0  0  0  8  0  0
   -1.0197    2.3143   -0.3472 Cl  0  0  0  0  0  0  0  0  0  9  0  0
    1.0713   -0.1012    0.3917 O   0  0  0  0  0  0  0  0  0 10  0  0
   -0.4465   -0.4974    0.4337 P   0  0  0  0  0  0  0  0  0 11  0  0
   -1.1329   -0.3930   -1.1301 S   0  0  0  0  0  0  0  0  0 12  0  0
   -1.2285    0.3761    1.4701 O   0  0  0  0  0  0  0  0  0 13  0  0
   -0.6312    0.2734    2.7796 C   0  0  0  0  0  0  0  0  0 14  0  0
   -0.5339   -1.9902    0.8675 O   0  0  0  0  0  0  0  0  0 15  0  0
   -1.8929   -2.4529    0.7855 C   0  0  0  0  0  0  0  0  0 16  0  0
 15 16  1  0
 11 15  1  0
 13 14  1  0
 11 13  1  0
 11 12  2  0
 10 11  1  0
  6 10  1  0
  7  9  1  0
  8  2  4  0
  7  8  4  0
  6  7  4  0
  5  6  4  0
  3  5  4  0
  3  4  1  0
  2  3  4  0
  1  2  1  0
M  END
> <Name>
Chlorpyrifos methyl

> <CAS RN>
005598-13-0

> <Log Koc>
3.52

> <VP-0>
12.2174

> <nAromBond>
6

> <MAXDP>
2.50934

> <nHBAcc>
3

> <Splitting>
2

$$$$
Terbacil
  SciTegic01221512053D

 15 15  0  0  0  0            999 V2000
    0.8942    1.0036    1.2758 C   0  0  0  0  0  0  0  0  0  1  0  0
    2.0135    0.3256    1.4598 N   0  0  0  0  0  0  0  0  0  2  0  0
    2.6427    0.6129    2.1731 H   0  0  0  0  0  0  0  0  0  3  0  0
    2.3185   -0.7322    0.7132 C   0  0  0  0  0  0  0  0  0  4  0  0
    3.3919   -1.2744    0.9883 O   0  0  0  0  0  0  0  0  0  5  0  0
    1.5055   -1.1700   -0.2692 N   0  0  0  0  0  0  0  0  0  6  0  0
    0.3592   -0.5068   -0.4861 C   0  0  0  0  0  0  0  0  0  7  0  0
   -0.4432   -0.8417   -1.3670 O   0  0  0  0  0  0  0  0  0  8  0  0
    0.0264    0.5970    0.2825 C   0  0  0  0  0  0  0  0  0  9  0  0
   -1.4496    1.4488    0.0014 Cl  0  0  0  0  0  0  0  0  0 10  0  0
    1.8246   -2.3978   -1.1607 C   0  0  0  0  0  0  0  0  0 11  0  0
    0.6921   -3.4455   -1.0167 C   0  0  0  0  0  0  0  0  0 12  0  0
    3.1533   -3.1526   -0.8967 C   0  0  0  0  0  0  0  0  0 13  0  0
    1.8607   -1.9585   -2.6462 C   0  0  0  0  0  0  0  0  0 14  0  0
    0.5732    2.1929    2.1309 C   0  0  0  0  0  0  0  0  0 15  0  0
  1 15  1  0
 11 14  1  0
 11 13  1  0
 11 12  1  0
  6 11  1  0
  9 10  1  0
  9  1  4  0
  7  9  4  0
  7  8  2  0
  6  7  4  0
  4  6  4  0
  4  5  2  0
  2  4  4  0
  2  3  1  0
  1  2  4  0
M  END
> <Name>
Terbacil

> <CAS RN>
005902-51-2

> <Log Koc>
1.69

> <VP-0>
9.3976

> <nAromBond>
0

> <MAXDP>
4.84092

> <nHBAcc>
4

> <Splitting>
2

$$$$
Terbuthylazine
  SciTegic01221512053D

 15 15  0  0  0  0            999 V2000
   -0.9654    0.7267   -0.2340 N   0  0  0  0  0  0  0  0  0  1  0  0
   -0.1864    1.7972   -0.1492 C   0  0  0  0  0  0  0  0  0  2  0  0
    1.1296    1.6421   -0.0603 N   0  0  0  0  0  0  0  0  0  3  0  0
    1.6635    0.4281   -0.0560 C   0  0  0  0  0  0  0  0  0  4  0  0
    0.8798   -0.6385   -0.1425 N   0  0  0  0  0  0  0  0  0  5  0  0
   -0.4346   -0.4887   -0.2307 C   0  0  0  0  0  0  0  0  0  6  0  0
   -1.4556   -1.8776   -0.3417 Cl  0  0  0  0  0  0  0  0  0  7  0  0
    3.0539    0.2810    0.0349 N   0  0  0  0  0  0  0  0  0  8  0  0
    3.6563   -1.0257    0.0722 C   0  0  0  0  0  0  0  0  0  9  0  0
    3.4287   -1.6749    1.4539 C   0  0  0  0  0  0  0  0  0 10  0  0
   -0.7862    3.0832   -0.1570 N   0  0  0  0  0  0  0  0  0 11  0  0
   -0.0356    4.3265   -0.0703 C   0  0  0  0  0  0  0  0  0 12  0  0
    0.9509    4.4480   -1.2535 C   0  0  0  0  0  0  0  0  0 13  0  0
    0.7517    4.3891    1.2574 C   0  0  0  0  0  0  0  0  0 14  0  0
   -1.0222    5.5067   -0.1212 C   0  0  0  0  0  0  0  0  0 15  0  0
 12 15  1  0
 12 14  1  0
 12 13  1  0
 11 12  1  0
  2 11  1  0
  9 10  1  0
  8  9  1  0
  4  8  1  0
  6  7  1  0
  6  1  4  0
  5  6  4  0
  4  5  4  0
  3  4  4  0
  2  3  4  0
  1  2  4  0
M  END
> <Name>
Terbuthylazine

> <CAS RN>
005915-41-3

> <Log Koc>
2.32

> <VP-0>
10.1826

> <nAromBond>
6

> <MAXDP>
1.30082

> <nHBAcc>
5

> <Splitting>
2

$$$$
Bis(2-ethylhexyl) terephthalate
  SciTegic01221512053D

 30 30  0  0  0  0            999 V2000
   -0.3606   -1.4906    7.9614 C   0  0  0  0  0  0  0  0  0  1  0  0
    0.5285   -0.4812    7.6245 C   0  0  0  0  0  0  0  0  0  2  0  0
    0.9516   -0.3368    6.3087 C   0  0  0  0  0  0  0  0  0  3  0  0
    0.4839   -1.2049    5.3340 C   0  0  0  0  0  0  0  0  0  4  0  0
   -0.4007   -2.2210    5.6849 C   0  0  0  0  0  0  0  0  0  5  0  0
   -0.8361   -2.3767    6.9988 C   0  0  0  0  0  0  0  0  0  6  0  0
   -1.7884   -3.4593    7.5034 C   0  0  0  0  0  0  0  0  0  7  0  0
   -2.0429   -3.4126    8.7116 O   0  0  0  0  0  0  0  0  0  8  0  0
   -2.4067   -4.5718    6.7772 O   0  0  0  0  0  0  0  0  0  9  0  0
   -2.2377   -4.7601    5.3539 C   0  0  0  0  0  0  0  0  0 10  0  0
   -3.2220   -3.8561    4.5795 C   0  0  1  0  0  0  0  0  0 11  0  0
   -3.0093   -2.8128    4.8156 H   0  0  0  0  0  0  0  0  0 12  0  0
   -3.0647   -4.0944    3.0583 C   0  0  0  0  0  0  0  0  0 13  0  0
   -1.6314   -3.7577    2.6070 C   0  0  0  0  0  0  0  0  0 14  0  0
   -4.6703   -4.2143    5.0121 C   0  0  0  0  0  0  0  0  0 15  0  0
   -5.8153   -3.3752    4.3270 C   0  0  0  0  0  0  0  0  0 16  0  0
   -6.0247   -1.9119    4.8786 C   0  0  0  0  0  0  0  0  0 17  0  0
   -4.9409   -0.8908    4.4568 C   0  0  0  0  0  0  0  0  0 18  0  0
    1.8953    0.7181    5.9879 C   0  0  0  0  0  0  0  0  0 19  0  0
    2.2521    0.9172    4.8207 O   0  0  0  0  0  0  0  0  0 20  0  0
    2.4222    1.4575    7.0314 O   0  0  0  0  0  0  0  0  0 21  0  0
    3.3432    2.4387    6.5794 C   0  0  0  0  0  0  0  0  0 22  0  0
    4.1697    3.0243    7.7744 C   0  0  1  0  0  0  0  0  0 23  0  0
    4.7326    2.2111    8.2552 H   0  0  0  0  0  0  0  0  0 24  0  0
    5.1692    4.0556    7.2085 C   0  0  0  0  0  0  0  0  0 25  0  0
    4.4132    5.2177    6.5333 C   0  0  0  0  0  0  0  0  0 26  0  0
    3.2860    3.7406    8.8531 C   0  0  0  0  0  0  0  0  0 27  0  0
    2.3117    2.7766    9.5757 C   0  0  0  0  0  0  0  0  0 28  0  0
    1.4765    3.5457   10.6146 C   0  0  0  0  0  0  0  0  0 29  0  0
    0.6409    4.6310    9.9102 C   0  0  0  0  0  0  0  0  0 30  0  0
 29 30  1  0
 28 29  1  0
 27 28  1  0
 23 27  1  0
 25 26  1  0
 23 25  1  0
 23 24  1  0
 22 23  1  0
 21 22  1  0
 19 21  1  0
 19 20  2  0
  3 19  1  0
 17 18  1  0
 16 17  1  0
 15 16  1  0
 11 15  1  0
 13 14  1  0
 11 13  1  0
 11 12  1  0
 10 11  1  0
  9 10  1  0
  7  9  1  0
  7  8  2  0
  6  7  1  0
  6  1  4  0
  5  6  4  0
  4  5  4  0
  3  4  4  0
  2  3  4  0
  1  2  4  0
M  END
> <Name>
Bis(2-ethylhexyl) terephthalate

> <CAS RN>
006422-86-2

> <Log Koc>
4.16

> <VP-0>
18.1682

> <nAromBond>
6

> <MAXDP>
5.23587

> <nHBAcc>
4

> <Splitting>
2

$$$$
3,5,6-trichloro-2-pyridinol
  SciTegic01221512053D

 10 10  0  0  0  0            999 V2000
   -0.8487    0.8766   -0.0006 C   0  0  0  0  0  0  0  0  0  1  0  0
   -0.1695    2.0868   -0.0010 C   0  0  0  0  0  0  0  0  0  2  0  0
    1.2182    2.0673   -0.0007 C   0  0  0  0  0  0  0  0  0  3  0  0
    1.8843    0.8471    0.0002 C   0  0  0  0  0  0  0  0  0  4  0  0
    1.2021   -0.2941    0.0007 N   0  0  0  0  0  0  0  0  0  5  0  0
   -0.1274   -0.3117    0.0003 C   0  0  0  0  0  0  0  0  0  6  0  0
   -0.9652   -1.8224    0.0009 Cl  0  0  0  0  0  0  0  0  0  7  0  0
    3.2745    0.8204    0.0006 O   0  0  0  0  0  0  0  0  0  8  0  0
    2.1108    3.5464   -0.0012 Cl  0  0  0  0  0  0  0  0  0  9  0  0
   -2.5760    0.8463   -0.0010 Cl  0  0  0  0  0  0  0  0  0 10  0  0
  1 10  1  0
  3  9  1  0
  4  8  1  0
  6  7  1  0
  6  1  4  0
  5  6  4  0
  4  5  4  0
  3  4  4  0
  2  3  4  0
  1  2  4  0
M  END
> <Name>
3,5,6-trichloro-2-pyridinol

> <CAS RN>
006515-38-4

> <Log Koc>
2.11

> <VP-0>
6.87346

> <nAromBond>
6

> <MAXDP>
3.19867

> <nHBAcc>
1

> <Splitting>
2

$$$$
Monocrotophos
  SciTegic01221512053D

 14 13  0  0  0  0            999 V2000
    5.7736    2.9677   -0.2010 C   0  0  0  0  0  0  0  0  0  1  0  0
    4.9290    1.8315    0.0631 O   0  0  0  0  0  0  0  0  0  2  0  0
    3.3865    2.1766    0.1959 P   0  0  0  0  0  0  0  0  0  3  0  0
    3.0269    3.0200   -0.8380 O   0  0  0  0  0  0  0  0  0  4  0  0
    3.0012    2.8017    1.6114 O   0  0  0  0  0  0  0  0  0  5  0  0
    3.3909    4.1790    1.7885 C   0  0  0  0  0  0  0  0  0  6  0  0
    2.6439    0.7937    0.0491 O   0  0  0  0  0  0  0  0  0  7  0  0
    1.2168    0.8221    0.0607 C   0  0  0  0  0  0  0  0  0  8  0  0
    0.5893   -0.3592   -0.0597 C   0  0  0  0  0  0  0  0  0  9  0  0
   -0.8891   -0.5841   -0.0762 C   0  0  0  0  0  0  0  0  0 10  0  0
   -1.7057    0.3390    0.0245 O   0  0  0  0  0  0  0  0  0 11  0  0
   -1.3431   -1.8273   -0.2041 N   0  0  0  0  0  0  0  0  0 12  0  0
   -2.7556   -2.0769   -0.2234 C   0  0  0  0  0  0  0  0  0 13  0  0
    0.4476    2.1219    0.1978 C   0  0  0  0  0  0  0  0  0 14  0  0
  8 14  1  0
 12 13  1  0
 10 12  1  0
 10 11  2  0
  9 10  1  0
  8  9  2  0
  7  8  1  0
  3  7  1  0
  5  6  1  0
  3  5  1  0
  3  4  2  0
  2  3  1  0
  1  2  1  0
M  END
> <Name>
Monocrotophos

> <CAS RN>
006923-22-4

> <Log Koc>
0

> <VP-0>
8.78975

> <nAromBond>
0

> <MAXDP>
4.51518

> <nHBAcc>
6

> <Splitting>
2

$$$$
3-Methyl-4-bromoaniline
  SciTegic01221512053D

  9  9  0  0  0  0            999 V2000
   -0.7630    0.9133    0.0004 C   0  0  0  0  0  0  0  0  0  1  0  0
   -0.0708    2.1190    0.0004 C   0  0  0  0  0  0  0  0  0  2  0  0
    1.3195    2.1219   -0.0007 C   0  0  0  0  0  0  0  0  0  3  0  0
    2.0177    0.9195   -0.0017 C   0  0  0  0  0  0  0  0  0  4  0  0
    1.3253   -0.2861   -0.0017 C   0  0  0  0  0  0  0  0  0  5  0  0
   -0.0650   -0.2892   -0.0006 C   0  0  0  0  0  0  0  0  0  6  0  0
   -1.0114   -1.9378   -0.0006 Br  0  0  0  0  0  0  0  0  0  7  0  0
    2.0144    3.3322   -0.0007 N   0  0  0  0  0  0  0  0  0  8  0  0
   -2.2637    0.9103    0.0016 C   0  0  0  0  0  0  0  0  0  9  0  0
  1  9  1  0
  3  8  1  0
  6  7  1  0
  6  1  4  0
  5  6  4  0
  4  5  4  0
  3  4  4  0
  2  3  4  0
  1  2  4  0
M  END
> <Name>
3-Methyl-4-bromoaniline

> <CAS RN>
006933-10-4

> <Log Koc>
2.26

> <VP-0>
6.77336

> <nAromBond>
6

> <MAXDP>
1.55348

> <nHBAcc>
1

> <Splitting>
2

$$$$
2,4,4'-Trichlorobiphenyl
  SciTegic01221512053D

 15 16  0  0  0  0            999 V2000
   -1.1830    5.1957    4.1159 Cl  0  0  0  0  0  0  0  0  0  1  0  0
   -0.6673    4.0671    2.9135 C   0  0  0  0  0  0  0  0  0  2  0  0
    0.1439    2.9957    3.2657 C   0  0  0  0  0  0  0  0  0  3  0  0
    0.5570    2.0895    2.2958 C   0  0  0  0  0  0  0  0  0  4  0  0
    0.1665    2.2420    0.9690 C   0  0  0  0  0  0  0  0  0  5  0  0
   -0.6459    3.3182    0.6267 C   0  0  0  0  0  0  0  0  0  6  0  0
   -1.0626    4.2280    1.5915 C   0  0  0  0  0  0  0  0  0  7  0  0
    0.6483    1.2274   -0.0274 C   0  0  0  0  0  0  0  0  0  8  0  0
    0.3425    1.2434   -1.3958 C   0  0  0  0  0  0  0  0  0  9  0  0
    0.8488    0.2461   -2.2234 C   0  0  0  0  0  0  0  0  0 10  0  0
    1.6525   -0.7649   -1.7138 C   0  0  0  0  0  0  0  0  0 11  0  0
    1.9574   -0.7843   -0.3606 C   0  0  0  0  0  0  0  0  0 12  0  0
    1.4552    0.2082    0.4708 C   0  0  0  0  0  0  0  0  0 13  0  0
    2.2702   -1.9932   -2.7603 Cl  0  0  0  0  0  0  0  0  0 14  0  0
   -0.6511    2.4561   -2.1444 Cl  0  0  0  0  0  0  0  0  0 15  0  0
  9 15  1  0
 11 14  1  0
 13  8  4  0
 12 13  4  0
 11 12  4  0
 10 11  4  0
  9 10  4  0
  8  9  4  0
  5  8  1  0
  7  2  4  0
  6  7  4  0
  5  6  4  0
  4  5  4  0
  3  4  4  0
  2  3  4  0
  1  2  1  0
M  END
> <Name>
2,4,4'-Trichlorobiphenyl

> <CAS RN>
007012-37-5

> <Log Koc>
4.62

> <VP-0>
9.94313

> <nAromBond>
13

> <MAXDP>
0.386968

> <nHBAcc>
0

> <Splitting>
2

$$$$
3-Chloro-4-methoxyacetanilide
  SciTegic01221512053D

 13 13  0  0  0  0            999 V2000
    1.2606    0.7674    0.0001 C   0  0  0  0  0  0  0  0  0  1  0  0
    0.4470    1.8967    0.0003 C   0  0  0  0  0  0  0  0  0  2  0  0
    1.0066    3.1691   -0.0008 C   0  0  0  0  0  0  0  0  0  3  0  0
    2.3875    3.3240   -0.0020 C   0  0  0  0  0  0  0  0  0  4  0  0
    3.2048    2.1980   -0.0022 C   0  0  0  0  0  0  0  0  0  5  0  0
    2.6421    0.9267   -0.0012 C   0  0  0  0  0  0  0  0  0  6  0  0
    2.9364    4.6175   -0.0031 O   0  0  0  0  0  0  0  0  0  7  0  0
    4.3711    4.5766   -0.0043 C   0  0  0  0  0  0  0  0  0  8  0  0
   -0.0159    4.5610   -0.0005 Cl  0  0  0  0  0  0  0  0  0  9  0  0
    0.7296   -0.5557    0.0012 N   0  0  0  0  0  0  0  0  0 10  0  0
   -0.5769   -0.8699    0.0025 C   0  0  0  0  0  0  0  0  0 11  0  0
   -1.4637   -0.0084    0.0029 O   0  0  0  0  0  0  0  0  0 12  0  0
   -0.9730   -2.3172    0.0035 C   0  0  0  0  0  0  0  0  0 13  0  0
 11 13  1  0
 11 12  2  0
 10 11  1  0
  1 10  1  0
  3  9  1  0
  7  8  1  0
  4  7  1  0
  6  1  4  0
  5  6  4  0
  4  5  4  0
  3  4  4  0
  2  3  4  0
  1  2  4  0
M  END
> <Name>
3-Chloro-4-methoxyacetanilide

> <CAS RN>
007073-42-9

> <Log Koc>
1.95

> <VP-0>
8.18244

> <nAromBond>
6

> <MAXDP>
3.74991

> <nHBAcc>
2

> <Splitting>
2

$$$$
Mecoprop
  SciTegic01221512053D

 15 15  0  0  0  0            999 V2000
   -3.1686    1.7911    3.7409 C   0  0  0  0  0  0  0  0  0  1  0  0
   -2.8449    1.1758    2.5399 C   0  0  0  0  0  0  0  0  0  2  0  0
   -1.6065    0.5787    2.3122 C   0  0  0  0  0  0  0  0  0  3  0  0
   -0.6539    0.6244    3.3580 C   0  0  0  0  0  0  0  0  0  4  0  0
   -0.9886    1.2456    4.5584 C   0  0  0  0  0  0  0  0  0  5  0  0
   -2.2326    1.8236    4.7599 C   0  0  0  0  0  0  0  0  0  6  0  0
   -2.6079    2.5831    6.2657 Cl  0  0  0  0  0  0  0  0  0  7  0  0
    0.7582    0.0747    3.3211 C   0  0  0  0  0  0  0  0  0  8  0  0
   -1.5181   -0.0057    0.9464 O   0  0  0  0  0  0  0  0  0  9  0  0
   -0.4183   -0.8037    0.4150 C   0  0  1  0  0  0  0  0  0 10  0  0
    0.5578   -0.3213    0.5487 H   0  0  0  0  0  0  0  0  0 11  0  0
   -0.3655   -2.2123    1.0661 C   0  0  0  0  0  0  0  0  0 12  0  0
   -0.6419   -1.0294   -1.0488 C   0  0  0  0  0  0  0  0  0 13  0  0
   -1.7196   -0.7124   -1.5642 O   0  0  0  0  0  0  0  0  0 14  0  0
    0.3623   -1.5962   -1.8262 O   0  0  0  0  0  0  0  0  0 15  0  0
 13 15  1  0
 13 14  2  0
 10 13  1  0
 10 12  1  0
 10 11  1  0
  9 10  1  0
  3  9  1  0
  4  8  1  0
  6  7  1  0
  6  1  4  0
  5  6  4  0
  4  5  4  0
  3  4  4  0
  2  3  4  0
  1  2  4  0
M  END
> <Name>
Mecoprop

> <CAS RN>
007085-19-0

> <Log Koc>
1.3

> <VP-0>
8.707

> <nAromBond>
6

> <MAXDP>
3.56496

> <nHBAcc>
2

> <Splitting>
1

$$$$
Pyroxychlor
  SciTegic01221512053D

 13 13  0  0  0  0            999 V2000
   -1.0857    0.8275   -0.0002 N   0  0  0  0  0  0  0  0  0  1  0  0
   -0.4259    1.9821   -0.0002 C   0  0  0  0  0  0  0  0  0  2  0  0
    0.9656    1.9932    0.0002 C   0  0  0  0  0  0  0  0  0  3  0  0
    1.6528    0.7880    0.0004 C   0  0  0  0  0  0  0  0  0  4  0  0
    0.9334   -0.3980    0.0003 C   0  0  0  0  0  0  0  0  0  5  0  0
   -0.4553   -0.3433    0.0000 C   0  0  0  0  0  0  0  0  0  6  0  0
   -1.3699   -1.8088   -0.0001 Cl  0  0  0  0  0  0  0  0  0  7  0  0
    3.1490    0.7699    0.0008 C   0  0  0  0  0  0  0  0  0  8  0  0
    3.7599   -0.8876    0.0017 Cl  0  0  0  0  0  0  0  0  0  9  0  0
    3.7255    1.6572    1.4147 Cl  0  0  0  0  0  0  0  0  0 10  0  0
    3.7261    1.6558   -1.4138 Cl  0  0  0  0  0  0  0  0  0 11  0  0
   -1.1519    3.1853   -0.0004 O   0  0  0  0  0  0  0  0  0 12  0  0
   -0.2770    4.3240   -0.0003 C   0  0  0  0  0  0  0  0  0 13  0  0
 12 13  1  0
  2 12  1  0
  8 11  1  0
  8 10  1  0
  8  9  1  0
  4  8  1  0
  6  7  1  0
  6  1  4  0
  5  6  4  0
  4  5  4  0
  3  4  4  0
  2  3  4  0
  1  2  4  0
M  END
> <Name>
Pyroxychlor

> <CAS RN>
007159-34-4

> <Log Koc>
3.48

> <VP-0>
9.54574

> <nAromBond>
6

> <MAXDP>
1.70042

> <nHBAcc>
1

> <Splitting>
2

$$$$
3-(4-Methylphenyl)-1,1-dimethylurea
  SciTegic01221512053D

 13 13  0  0  0  0            999 V2000
    3.6216    4.6857    0.3318 C   0  0  0  0  0  0  0  0  0  1  0  0
    2.8517    3.3988    0.2745 C   0  0  0  0  0  0  0  0  0  2  0  0
    3.5217    2.1832    0.3431 C   0  0  0  0  0  0  0  0  0  3  0  0
    2.8071    0.9919    0.2899 C   0  0  0  0  0  0  0  0  0  4  0  0
    1.4217    1.0070    0.1680 C   0  0  0  0  0  0  0  0  0  5  0  0
    0.7563    2.2275    0.0997 C   0  0  0  0  0  0  0  0  0  6  0  0
    1.4675    3.4207    0.1527 C   0  0  0  0  0  0  0  0  0  7  0  0
    0.7295   -0.2329    0.1172 N   0  0  0  0  0  0  0  0  0  8  0  0
   -0.6783   -0.3689   -0.0077 C   0  0  0  0  0  0  0  0  0  9  0  0
   -1.4275    0.6114   -0.0843 O   0  0  0  0  0  0  0  0  0 10  0  0
   -1.2323   -1.6484   -0.0451 N   0  0  0  0  0  0  0  0  0 11  0  0
   -2.6518   -1.8117   -0.1709 C   0  0  0  0  0  0  0  0  0 12  0  0
   -0.3820   -2.8005    0.0423 C   0  0  0  0  0  0  0  0  0 13  0  0
 11 13  1  0
 11 12  1  0
  9 11  1  0
  9 10  2  0
  8  9  1  0
  5  8  1  0
  7  2  4  0
  6  7  4  0
  5  6  4  0
  4  5  4  0
  3  4  4  0
  2  3  4  0
  1  2  1  0
M  END
> <Name>
3-(4-Methylphenyl)-1,1-dimethylurea

> <CAS RN>
007160-01-2

> <Log Koc>
1.51

> <VP-0>
8.16486

> <nAromBond>
6

> <MAXDP>
4.21197

> <nHBAcc>
3

> <Splitting>
2

$$$$
3-(4-Methoxyphenyl)-1,1-dimethylurea
  SciTegic01221512053D

 14 14  0  0  0  0            999 V2000
    1.2954    1.0908    0.1233 C   0  0  0  0  0  0  0  0  0  1  0  0
    0.5632    2.2387   -0.1638 C   0  0  0  0  0  0  0  0  0  2  0  0
    1.1966    3.4725   -0.2584 C   0  0  0  0  0  0  0  0  0  3  0  0
    2.5698    3.5686   -0.0665 C   0  0  0  0  0  0  0  0  0  4  0  0
    3.3051    2.4227    0.2207 C   0  0  0  0  0  0  0  0  0  5  0  0
    2.6691    1.1899    0.3149 C   0  0  0  0  0  0  0  0  0  6  0  0
    3.1948    4.8235   -0.1659 O   0  0  0  0  0  0  0  0  0  7  0  0
    4.6087    4.7231    0.0621 C   0  0  0  0  0  0  0  0  0  8  0  0
    0.6837   -0.1875    0.2280 N   0  0  0  0  0  0  0  0  0  9  0  0
   -0.7029   -0.4375    0.0523 C   0  0  0  0  0  0  0  0  0 10  0  0
   -1.5035    0.4662   -0.2135 O   0  0  0  0  0  0  0  0  0 11  0  0
   -1.1755   -1.7432    0.1835 N   0  0  0  0  0  0  0  0  0 12  0  0
   -2.5719   -2.0211    0.0101 C   0  0  0  0  0  0  0  0  0 13  0  0
   -0.2645   -2.8076    0.4919 C   0  0  0  0  0  0  0  0  0 14  0  0
 12 14  1  0
 12 13  1  0
 10 12  1  0
 10 11  2  0
  9 10  1  0
  1  9  1  0
  7  8  1  0
  4  7  1  0
  6  1  4  0
  5  6  4  0
  4  5  4  0
  3  4  4  0
  2  3  4  0
  1  2  4  0
M  END
> <Name>
3-(4-Methoxyphenyl)-1,1-dimethylurea

> <CAS RN>
007160-02-3

> <Log Koc>
1.4

> <VP-0>
8.57311

> <nAromBond>
6

> <MAXDP>
4.25026

> <nHBAcc>
3

> <Splitting>
2

$$$$
Chloramben methyl
  SciTegic01221512053D

 13 13  0  0  0  0            999 V2000
    3.6996    0.0885   -0.0005 C   0  0  0  0  0  0  0  0  0  1  0  0
    3.0192   -1.1231   -0.0002 C   0  0  0  0  0  0  0  0  0  2  0  0
    1.6287   -1.1483    0.0000 C   0  0  0  0  0  0  0  0  0  3  0  0
    0.9129    0.0492   -0.0002 C   0  0  0  0  0  0  0  0  0  4  0  0
    1.5985    1.2591   -0.0005 C   0  0  0  0  0  0  0  0  0  5  0  0
    2.9878    1.2813   -0.0007 C   0  0  0  0  0  0  0  0  0  6  0  0
    3.8286    2.7904   -0.0011 Cl  0  0  0  0  0  0  0  0  0  7  0  0
   -0.5619    0.0807    0.0000 C   0  0  0  0  0  0  0  0  0  8  0  0
   -1.1399    1.1736   -0.0002 O   0  0  0  0  0  0  0  0  0  9  0  0
   -1.3128   -1.0908    0.0003 O   0  0  0  0  0  0  0  0  0 10  0  0
   -2.7074   -0.7726    0.0004 C   0  0  0  0  0  0  0  0  0 11  0  0
    0.8273   -2.6820    0.0004 Cl  0  0  0  0  0  0  0  0  0 12  0  0
    3.7343   -2.3212    0.0000 N   0  0  0  0  0  0  0  0  0 13  0  0
  2 13  1  0
  3 12  1  0
 10 11  1  0
  8 10  1  0
  8  9  2  0
  4  8  1  0
  6  7  1  0
  6  1  4  0
  5  6  4  0
  4  5  4  0
  3  4  4  0
  2  3  4  0
  1  2  4  0
M  END
> <Name>
Chloramben methyl

> <CAS RN>
007286-84-2

> <Log Koc>
2.74

> <VP-0>
8.31633

> <nAromBond>
6

> <MAXDP>
4.30527

> <nHBAcc>
3

> <Splitting>
1

$$$$
Prometryn
  SciTegic01221512053D

 16 16  0  0  0  0            999 V2000
   -0.9387    0.8529    0.0573 N   0  0  0  0  0  0  0  0  0  1  0  0
   -0.2363    1.9777    0.0394 C   0  0  0  0  0  0  0  0  0  2  0  0
    1.0898    1.9212    0.0823 N   0  0  0  0  0  0  0  0  0  3  0  0
    1.7150    0.7528    0.1427 C   0  0  0  0  0  0  0  0  0  4  0  0
    1.0042   -0.3681    0.1602 N   0  0  0  0  0  0  0  0  0  5  0  0
   -0.3200   -0.3181    0.1176 C   0  0  0  0  0  0  0  0  0  6  0  0
   -1.2625   -1.8149    0.1413 S   0  0  0  0  0  0  0  0  0  7  0  0
   -3.0254   -1.4134    0.0745 C   0  0  0  0  0  0  0  0  0  8  0  0
    3.1323    0.7345    0.1870 N   0  0  0  0  0  0  0  0  0  9  0  0
    3.9187   -0.4869    0.2549 C   0  0  0  0  0  0  0  0  0 10  0  0
    3.6709   -1.3735   -0.9858 C   0  0  0  0  0  0  0  0  0 11  0  0
    3.5939   -1.2823    1.5389 C   0  0  0  0  0  0  0  0  0 12  0  0
   -0.9251    3.2158   -0.0252 N   0  0  0  0  0  0  0  0  0 13  0  0
   -0.2569    4.5073   -0.0480 C   0  0  0  0  0  0  0  0  0 14  0  0
    0.6558    4.6358   -1.2879 C   0  0  0  0  0  0  0  0  0 15  0  0
    0.5735    4.7223    1.2369 C   0  0  0  0  0  0  0  0  0 16  0  0
 14 16  1  0
 14 15  1  0
 13 14  1  0
  2 13  1  0
 10 12  1  0
 10 11  1  0
  9 10  1  0
  4  9  1  0
  7  8  1  0
  6  7  1  0
  6  1  4  0
  5  6  4  0
  4  5  4  0
  3  4  4  0
  2  3  4  0
  1  2  4  0
M  END
> <Name>
Prometryn

> <CAS RN>
007287-19-6

> <Log Koc>
2.85

> <VP-0>
11.2211

> <nAromBond>
6

> <MAXDP>
1.42065

> <nHBAcc>
5

> <Splitting>
2

$$$$
Crotoxyphos(trans)
  SciTegic01221512053D

 22 22  0  0  0  0            999 V2000
   -7.9420    1.0618    5.3119 C   0  0  0  0  0  0  0  0  0  1  0  0
   -6.9208    0.8928    4.3262 O   0  0  0  0  0  0  0  0  0  2  0  0
   -5.5482    0.7135    5.0237 P   0  0  0  0  0  0  0  0  0  3  0  0
   -5.6471   -0.3982    5.8368 O   0  0  0  0  0  0  0  0  0  4  0  0
   -5.3356    2.0383    5.8725 O   0  0  0  0  0  0  0  0  0  5  0  0
   -4.1964    2.0347    6.7364 C   0  0  0  0  0  0  0  0  0  6  0  0
   -4.4936    0.5200    3.8351 O   0  0  0  0  0  0  0  0  0  7  0  0
   -3.2287   -0.1377    4.0502 C   0  0  0  0  0  0  0  0  0  8  0  0
   -2.4278   -0.2373    2.9765 C   0  0  0  0  0  0  0  0  0  9  0  0
   -1.0617   -0.8859    2.9212 C   0  0  0  0  0  0  0  0  0 10  0  0
   -0.4822   -1.2340    3.9560 O   0  0  0  0  0  0  0  0  0 11  0  0
   -0.3517   -1.0737    1.6878 O   0  0  0  0  0  0  0  0  0 12  0  0
   -1.0413   -0.7164    0.4512 C   0  0  2  0  0  0  0  0  0 13  0  0
   -1.4459    0.3061    0.4655 H   0  0  0  0  0  0  0  0  0 14  0  0
   -2.1981   -1.7132    0.1384 C   0  0  0  0  0  0  0  0  0 15  0  0
   -0.0835   -0.8539   -0.6895 C   0  0  0  0  0  0  0  0  0 16  0  0
   -0.2998   -0.1515   -1.8686 C   0  0  0  0  0  0  0  0  0 17  0  0
    0.5880   -0.2872   -2.9303 C   0  0  0  0  0  0  0  0  0 18  0  0
    1.6903   -1.1261   -2.8117 C   0  0  0  0  0  0  0  0  0 19  0  0
    1.9058   -1.8292   -1.6314 C   0  0  0  0  0  0  0  0  0 20  0  0
    1.0188   -1.6936   -0.5702 C   0  0  0  0  0  0  0  0  0 21  0  0
   -2.8340   -0.7445    5.3815 C   0  0  0  0  0  0  0  0  0 22  0  0
  8 22  1  0
 21 16  4  0
 20 21  4  0
 19 20  4  0
 18 19  4  0
 17 18  4  0
 16 17  4  0
 13 16  1  0
 13 15  1  0
 13 14  1  0
 12 13  1  0
 10 12  1  0
 10 11  2  0
  9 10  1  0
  8  9  2  0
  7  8  1  0
  3  7  1  0
  5  6  1  0
  3  5  1  0
  3  4  2  0
  2  3  1  0
  1  2  1  0
M  END
> <Name>
Crotoxyphos(trans)

> <CAS RN>
007700-17-6

> <Log Koc>
2

> <VP-0>
12.6621

> <nAromBond>
6

> <MAXDP>
4.85013

> <nHBAcc>
6

> <Splitting>
2

$$$$
Mevinphos(cis)
  SciTegic01221512053D

 14 13  0  0  0  0            999 V2000
    1.4004    1.8615    0.3165 O   0  0  0  0  0  0  0  0  0  1  0  0
   -0.1125    2.0153    0.6542 P   0  0  0  0  0  0  0  0  0  2  0  0
   -0.8679    2.0720   -0.4997 O   0  0  0  0  0  0  0  0  0  3  0  0
   -0.2862    3.3598    1.4021 O   0  0  0  0  0  0  0  0  0  4  0  0
    0.1572    4.4299    0.5634 C   0  0  0  0  0  0  0  0  0  5  0  0
   -0.5849    0.8787    1.6049 O   0  0  0  0  0  0  0  0  0  6  0  0
   -1.9353    1.1294    2.0231 C   0  0  0  0  0  0  0  0  0  7  0  0
    1.9712    0.7259   -0.3948 C   0  0  0  0  0  0  0  0  0  8  0  0
    1.3928   -0.3831   -0.9125 C   0  0  0  0  0  0  0  0  0  9  0  0
   -0.0114   -0.8688   -0.9753 C   0  0  0  0  0  0  0  0  0 10  0  0
   -0.9630   -0.2286   -0.5438 O   0  0  0  0  0  0  0  0  0 11  0  0
   -0.2555   -2.1066   -1.5649 O   0  0  0  0  0  0  0  0  0 12  0  0
   -1.6575   -2.3894   -1.5331 C   0  0  0  0  0  0  0  0  0 13  0  0
    3.4571    0.7965   -0.5841 C   0  0  0  0  0  0  0  0  0 14  0  0
  8 14  1  0
 12 13  1  0
 10 12  1  0
 10 11  2  0
  9 10  1  0
  8  9  2  0
  1  8  1  0
  6  7  1  0
  2  6  1  0
  4  5  1  0
  2  4  1  0
  2  3  2  0
  1  2  1  0
M  END
> <Name>
Mevinphos(cis)

> <CAS RN>
007786-34-7

> <Log Koc>
1.97

> <VP-0>
8.698

> <nAromBond>
0

> <MAXDP>
4.49477

> <nHBAcc>
6

> <Splitting>
2

$$$$
Toxaphene
  SciTegic01221512053D

 23 24  0  0  0  0            999 V2000
   -0.0742    3.4012    0.3540 Cl  0  0  0  0  0  0  0  0  0  1  0  0
   -0.7605    2.0866    1.3162 C   0  0  0  0  0  0  0  0  0  2  0  0
   -0.6197    0.7164    0.5933 C   0  0  0  0  0  0  0  0  0  3  0  0
   -1.1741   -0.4535    1.5742 C   0  0  2  0  0  0  0  0  0  4  0  0
   -0.3916   -0.4838    2.3356 H   0  0  0  0  0  0  0  0  0  5  0  0
   -1.2710   -1.6642    0.6521 C   0  0  2  0  0  0  0  0  0  6  0  0
   -2.2769   -1.6934    0.2676 H   0  0  0  0  0  0  0  0  0  7  0  0
   -0.9628   -3.2264    1.4131 Cl  0  0  0  0  0  0  0  0  0  8  0  0
   -0.5917   -1.2014   -0.6015 C   0  0  0  0  0  0  0  0  0  9  0  0
   -0.7994   -1.9031   -1.4201 H   0  0  0  0  0  0  0  0  0 10  0  0
    0.8640   -0.8970   -0.5194 C   0  0  2  0  0  0  0  0  0 11  0  0
    0.9761   -0.5024   -1.5077 H   0  0  0  0  0  0  0  0  0 12  0  0
    2.0947   -2.1400   -0.2869 Cl  0  0  0  0  0  0  0  0  0 13  0  0
    0.9376    0.2788    0.4767 C   0  0  2  0  0  0  0  0  0 14  0  0
    1.1580    0.0282    1.5164 H   0  0  0  0  0  0  0  0  0 15  0  0
    2.1990    1.3579   -0.1292 Cl  0  0  0  0  0  0  0  0  0 16  0  0
   -1.2639    0.3901   -0.7886 C   0  0  0  0  0  0  0  0  0 17  0  0
   -2.8274    0.4750   -0.8261 C   0  0  0  0  0  0  0  0  0 18  0  0
   -3.3676    2.1569   -0.7510 Cl  0  0  0  0  0  0  0  0  0 19  0  0
   -0.8786    1.2774   -2.0869 C   0  0  0  0  0  0  0  0  0 20  0  0
    0.8009    1.5731   -2.5723 Cl  0  0  0  0  0  0  0  0  0 21  0  0
   -2.7601   -0.3174    2.3490 Cl  0  0  0  0  0  0  0  0  0 22  0  0
    0.0604    2.0295    2.8795 Cl  0  0  0  0  0  0  0  0  0 23  0  0
  2 23  1  0
  4 22  1  0
 20 21  1  0
 17 20  1  0
 18 19  1  0
 17 18  1  0
 17  3  1  0
  9 17  1  0
 14 16  1  0
 14  3  1  0
 14 15  1  0
 11 14  1  0
 11 13  1  0
 11 12  1  0
  9 11  1  0
  9 10  1  0
  6  9  1  0
  6  8  1  0
  6  7  1  0
  4  6  1  0
  4  5  1  0
  3  4  1  0
  2  3  1  0
  1  2  1  0
M  END
> <Name>
Toxaphene

> <CAS RN>
008001-35-2

> <Log Koc>
3.14

> <VP-0>
14.9495

> <nAromBond>
0

> <MAXDP>
0.246142

> <nHBAcc>
0

> <Splitting>
2

$$$$
trans-1,3-Dichloropropene
  SciTegic01221512053D

  5  4  0  0  0  0            999 V2000
   -0.7404   -1.2569    0.0008 C   0  0  0  0  0  0  0  0  0  1  0  0
    0.4242   -2.5855   -0.0001 Cl  0  0  0  0  0  0  0  0  0  2  0  0
   -0.0061    0.0523   -0.0001 C   0  0  0  0  0  0  0  0  0  3  0  0
   -0.6862    1.1967    0.0003 C   0  0  0  0  0  0  0  0  0  4  0  0
    0.1594    2.7039   -0.0008 Cl  0  0  0  0  0  0  0  0  0  5  0  0
  4  5  1  0
  3  4  2  0
  1  3  1  0
  1  2  1  0
M  END
> <Name>
trans-1,3-Dichloropropene

> <CAS RN>
010061-02-6

> <Log Koc>
1.41

> <VP-0>
4.12959

> <nAromBond>
0

> <MAXDP>
0.270405

> <nHBAcc>
0

> <Splitting>
2

$$$$
Methamidophos
  SciTegic01221512053D

  7  6  0  0  0  0            999 V2000
    0.7703    0.8063    0.9475 N   0  0  0  0  0  0  0  0  0  1  0  0
   -0.0016    0.0048   -0.1877 P   0  0  1  0  0  0  0  0  0  2  0  0
    0.9126   -0.5665   -1.0499 O   0  0  0  0  0  0  0  0  0  3  0  0
   -0.8624   -1.1101    0.4611 O   0  0  0  0  0  0  0  0  0  4  0  0
   -1.5352   -1.8523   -0.5607 C   0  0  0  0  0  0  0  0  0  5  0  0
   -1.1389    1.2195   -1.1673 S   0  0  0  0  0  0  0  0  0  6  0  0
   -2.3149    2.0011   -0.0328 C   0  0  0  0  0  0  0  0  0  7  0  0
  6  7  1  0
  2  6  1  0
  4  5  1  0
  2  4  1  0
  2  3  2  0
  1  2  1  0
M  END
> <Name>
Methamidophos

> <CAS RN>
010265-92-6

> <Log Koc>
0.7

> <VP-0>
5.28975

> <nAromBond>
0

> <MAXDP>
3.72505

> <nHBAcc>
3

> <Splitting>
2

$$$$
Terbufos sulfoxide
  SciTegic01221512053D

 16 15  0  0  0  0            999 V2000
   -0.1312   -1.6476    3.6588 C   0  0  0  0  0  0  0  0  0  1  0  0
   -0.2071   -1.4164    2.1400 C   0  0  0  0  0  0  0  0  0  2  0  0
   -0.6352   -2.6260    1.4911 O   0  0  0  0  0  0  0  0  0  3  0  0
   -0.7482   -2.4888   -0.0801 P   0  0  0  0  0  0  0  0  0  4  0  0
   -1.2709   -3.9939   -0.6988 S   0  0  0  0  0  0  0  0  0  5  0  0
    0.6201   -2.1353   -0.7628 O   0  0  0  0  0  0  0  0  0  6  0  0
    1.5423   -3.2613   -0.8269 C   0  0  0  0  0  0  0  0  0  7  0  0
    2.0934   -3.6804    0.5517 C   0  0  0  0  0  0  0  0  0  8  0  0
   -2.1004   -1.1708   -0.6019 S   0  0  0  0  0  0  0  0  0  9  0  0
   -1.7029    0.5695   -0.2160 C   0  0  0  0  0  0  0  0  0 10  0  0
   -0.2102    1.1206   -1.0839 S   0  0  0  0  0  0  0  0  0 11  0  0
    0.9874    0.3164   -0.6198 O   0  0  0  0  0  0  0  0  0 12  0  0
    0.0801    2.8639   -0.7071 C   0  0  0  0  0  0  0  0  0 13  0  0
    1.3474    3.3419   -1.4386 C   0  0  0  0  0  0  0  0  0 14  0  0
    0.2685    3.0326    0.8117 C   0  0  0  0  0  0  0  0  0 15  0  0
   -1.1280    3.6980   -1.1717 C   0  0  0  0  0  0  0  0  0 16  0  0
 13 16  1  0
 13 15  1  0
 13 14  1  0
 11 13  1  0
 11 12  2  0
 10 11  1  0
  9 10  1  0
  4  9  1  0
  7  8  1  0
  6  7  1  0
  4  6  1  0
  4  5  2  0
  3  4  1  0
  2  3  1  0
  1  2  1  0
M  END
> <Name>
Terbufos sulfoxide

> <CAS RN>
010548-10-4

> <Log Koc>
2.18

> <VP-0>
13.5043

> <nAromBond>
0

> <MAXDP>
5.22762

> <nHBAcc>
3

> <Splitting>
2

$$$$
Carbendazim (MBC)
  SciTegic01221512053D

 17 18  0  0  0  0            999 V2000
    1.8553    3.9592    2.4510 C   0  0  0  0  0  0  0  0  0  1  0  0
    0.7050    3.2594    1.7799 C   0  0  0  0  0  0  0  0  0  2  0  0
    1.2751    2.3912    0.6230 C   0  0  1  0  0  0  0  0  0  3  0  0
    1.1412    2.8534   -0.3636 H   0  0  0  0  0  0  0  0  0  4  0  0
    2.7511    2.0061    0.8006 C   0  0  1  0  0  0  0  0  0  5  0  0
    3.4839    2.8211    0.6778 H   0  0  0  0  0  0  0  0  0  6  0  0
    2.8490    1.5150    2.2317 C   0  0  0  0  0  0  0  0  0  7  0  0
    2.6955    2.8074    3.1544 C   0  0  0  0  0  0  0  0  0  8  0  0
    2.9254    0.9183   -0.1875 N   0  0  0  0  0  0  0  0  0  9  0  0
    1.5182    0.4335   -0.4148 C   0  0  0  0  0  0  0  0  0 10  0  0
    1.4223   -0.6606   -0.4492 H   0  0  0  0  0  0  0  0  0 11  0  0
    0.7074    1.0480    0.6615 N   0  0  0  0  0  0  0  0  0 12  0  0
    1.0546    0.9959   -1.6506 N   0  0  0  0  0  0  0  0  0 13  0  0
   -0.0937    0.4872   -2.2579 C   0  0  0  0  0  0  0  0  0 14  0  0
   -0.7092   -0.4455   -1.7279 O   0  0  0  0  0  0  0  0  0 15  0  0
   -0.5480    1.0361   -3.4537 O   0  0  0  0  0  0  0  0  0 16  0  0
   -1.7356    0.3600   -3.8752 C   0  0  0  0  0  0  0  0  0 17  0  0
 16 17  1  0
 14 16  1  0
 14 15  2  0
 13 14  1  0
 10 13  1  0
 12  3  1  0
 10 12  1  0
 10 11  1  0
  9 10  1  0
  5  9  1  0
  8  1  1  0
  7  8  1  0
  5  7  1  0
  5  6  1  0
  3  5  1  0
  3  4  1  0
  2  3  1  0
  1  2  1  0
M  END
> <Name>
Carbendazim (MBC)

> <CAS RN>
010605-21-7

> <Log Koc>
2.35

> <VP-0>
8.37697

> <nAromBond>
0

> <MAXDP>
3.96007

> <nHBAcc>
5

> <Splitting>
2

$$$$
Ancymidol
  SciTegic01221512053D

 19 21  0  0  0  0            999 V2000
    2.3315    1.0962    3.1087 C   0  0  0  0  0  0  0  0  0  1  0  0
    2.8780    0.1929    2.3016 N   0  0  0  0  0  0  0  0  0  2  0  0
    2.1435   -0.4493    1.4023 C   0  0  0  0  0  0  0  0  0  3  0  0
    0.7838   -0.1787    1.3081 C   0  0  0  0  0  0  0  0  0  4  0  0
   -0.0749   -0.9014    0.2561 C   0  0  2  0  0  0  0  0  0  5  0  0
   -1.0674    0.0876   -0.3501 C   0  0  0  0  0  0  0  0  0  6  0  0
   -2.4404   -0.1211   -0.2591 C   0  0  0  0  0  0  0  0  0  7  0  0
   -3.3279    0.7839   -0.8295 C   0  0  0  0  0  0  0  0  0  8  0  0
   -2.8493    1.9028   -1.5009 C   0  0  0  0  0  0  0  0  0  9  0  0
   -1.4770    2.1102   -1.6005 C   0  0  0  0  0  0  0  0  0 10  0  0
   -0.5904    1.2045   -1.0293 C   0  0  0  0  0  0  0  0  0 11  0  0
   -3.7610    2.8076   -2.0715 O   0  0  0  0  0  0  0  0  0 12  0  0
   -3.0831    3.8939   -2.7206 C   0  0  0  0  0  0  0  0  0 13  0  0
   -0.8284   -2.1872    0.8168 C   0  0  0  0  0  0  0  0  0 14  0  0
   -0.0777   -3.0472    1.8053 C   0  0  0  0  0  0  0  0  0 15  0  0
   -1.3460   -2.1615    2.2423 C   0  0  0  0  0  0  0  0  0 16  0  0
    0.8383   -1.3265   -0.7566 O   0  0  0  0  0  0  0  0  0 17  0  0
    0.2488    0.7805    2.1626 C   0  0  0  0  0  0  0  0  0 18  0  0
    1.0369    1.3879    3.0402 N   0  0  0  0  0  0  0  0  0 19  0  0
 19  1  4  0
 18 19  4  0
  4 18  4  0
  5 17  1  0
 16 14  1  0
 15 16  1  0
 14 15  1  0
  5 14  1  0
 12 13  1  0
  9 12  1  0
 11  6  4  0
 10 11  4  0
  9 10  4  0
  8  9  4  0
  7  8  4  0
  6  7  4  0
  5  6  1  0
  4  5  1  0
  3  4  4  0
  2  3  4  0
  1  2  4  0
M  END
> <Name>
Ancymidol

> <CAS RN>
012771-68-5

> <Log Koc>
2.08

> <VP-0>
10.7829

> <nAromBond>
12

> <MAXDP>
5.13648

> <nHBAcc>
3

> <Splitting>
2

$$$$
2,2'-Dichlorobiphenyl
  SciTegic01221512053D

 14 15  0  0  0  0            999 V2000
    0.5745    1.6168    2.5438 C   0  0  0  0  0  0  0  0  0  1  0  0
   -0.1489    1.8979    1.3865 C   0  0  0  0  0  0  0  0  0  2  0  0
   -1.2770    2.7283    1.5025 C   0  0  0  0  0  0  0  0  0  3  0  0
   -1.6215    3.2547    2.7443 C   0  0  0  0  0  0  0  0  0  4  0  0
   -0.8738    2.9804    3.8801 C   0  0  0  0  0  0  0  0  0  5  0  0
    0.2294    2.1488    3.7788 C   0  0  0  0  0  0  0  0  0  6  0  0
   -2.3515    3.1123    0.2162 Cl  0  0  0  0  0  0  0  0  0  7  0  0
    0.4033    1.2079    0.1316 C   0  0  0  0  0  0  0  0  0  8  0  0
    0.2510    1.5872   -1.2131 C   0  0  0  0  0  0  0  0  0  9  0  0
    0.8446    0.8261   -2.2163 C   0  0  0  0  0  0  0  0  0 10  0  0
    1.5878   -0.3075   -1.9217 C   0  0  0  0  0  0  0  0  0 11  0  0
    1.7584   -0.6791   -0.5981 C   0  0  0  0  0  0  0  0  0 12  0  0
    1.1731    0.0792    0.4066 C   0  0  0  0  0  0  0  0  0 13  0  0
   -0.5741    2.9971   -1.7495 Cl  0  0  0  0  0  0  0  0  0 14  0  0
  9 14  1  0
 13  8  4  0
 12 13  4  0
 11 12  4  0
 10 11  4  0
  9 10  4  0
  8  9  4  0
  2  8  1  0
  3  7  1  0
  6  1  4  0
  5  6  4  0
  4  5  4  0
  3  4  4  0
  2  3  4  0
  1  2  4  0
M  END
> <Name>
2,2'-Dichlorobiphenyl

> <CAS RN>
013029-08-8

> <Log Koc>
3.92

> <VP-0>
8.88659

> <nAromBond>
13

> <MAXDP>
0.245415

> <nHBAcc>
0

> <Splitting>
2

$$$$
Terbufos
  SciTegic01221512053D

 15 14  0  0  0  0            999 V2000
    1.4651    2.5829    0.1730 S   0  0  0  0  0  0  0  0  0  1  0  0
    1.5778    1.3573   -1.1516 C   0  0  0  0  0  0  0  0  0  2  0  0
    1.2092   -0.2993   -0.5090 S   0  0  0  0  0  0  0  0  0  3  0  0
   -0.5563   -0.3077    0.2914 P   0  0  0  0  0  0  0  0  0  4  0  0
   -1.6215    0.3427   -0.8765 S   0  0  0  0  0  0  0  0  0  5  0  0
   -0.6132    0.5874    1.6027 O   0  0  0  0  0  0  0  0  0  6  0  0
    0.1183    0.0390    2.7540 C   0  0  0  0  0  0  0  0  0  7  0  0
    1.6509    0.0982    2.6138 C   0  0  0  0  0  0  0  0  0  8  0  0
   -0.9801   -1.7945    0.5802 O   0  0  0  0  0  0  0  0  0  9  0  0
   -2.4261   -1.9764    0.6645 C   0  0  0  0  0  0  0  0  0 10  0  0
   -3.0660   -1.2924    1.8915 C   0  0  0  0  0  0  0  0  0 11  0  0
    1.8070    4.2260   -0.4965 C   0  0  0  0  0  0  0  0  0 12  0  0
    3.2232    4.2496   -1.1003 C   0  0  0  0  0  0  0  0  0 13  0  0
    1.7115    5.2687    0.6321 C   0  0  0  0  0  0  0  0  0 14  0  0
    0.7756    4.5568   -1.5910 C   0  0  0  0  0  0  0  0  0 15  0  0
 12 15  1  0
 12 14  1  0
 12 13  1  0
  1 12  1  0
 10 11  1  0
  9 10  1  0
  4  9  1  0
  7  8  1  0
  6  7  1  0
  4  6  1  0
  4  5  2  0
  3  4  1  0
  2  3  1  0
  1  2  1  0
M  END
> <Name>
Terbufos

> <CAS RN>
013071-79-9

> <Log Koc>
2.82

> <VP-0>
13.4537

> <nAromBond>
0

> <MAXDP>
2.60387

> <nHBAcc>
2

> <Splitting>
2

$$$$
3-Trifluoromethylphenylurea
  SciTegic01221512053D

 14 14  0  0  0  0            999 V2000
    2.4231    1.0887    0.0084 C   0  0  0  0  0  0  0  0  0  1  0  0
    1.0431    0.9180    0.0022 C   0  0  0  0  0  0  0  0  0  2  0  0
    0.2176    2.0385   -0.0052 C   0  0  0  0  0  0  0  0  0  3  0  0
    0.7650    3.3164   -0.0065 C   0  0  0  0  0  0  0  0  0  4  0  0
    2.1447    3.4808   -0.0004 C   0  0  0  0  0  0  0  0  0  5  0  0
    2.9731    2.3652    0.0071 C   0  0  0  0  0  0  0  0  0  6  0  0
    4.4601    2.5390    0.0134 C   0  0  0  0  0  0  0  0  0  7  0  0
    4.8427    3.0250   -1.2190 F   0  0  0  0  0  0  0  0  0  8  0  0
    5.0928    1.3383    0.2604 F   0  0  0  0  0  0  0  0  0  9  0  0
    4.8039    3.4990    0.9421 F   0  0  0  0  0  0  0  0  0 10  0  0
    0.5207   -0.4040    0.0037 N   0  0  0  0  0  0  0  0  0 11  0  0
   -0.8625   -0.7279   -0.0022 C   0  0  0  0  0  0  0  0  0 12  0  0
   -1.7394    0.1435   -0.0092 O   0  0  0  0  0  0  0  0  0 13  0  0
   -1.2428   -2.0709   -0.0001 N   0  0  0  0  0  0  0  0  0 14  0  0
 12 14  1  0
 12 13  2  0
 11 12  1  0
  2 11  1  0
  7 10  1  0
  7  9  1  0
  7  8  1  0
  6  7  1  0
  6  1  4  0
  5  6  4  0
  4  5  4  0
  3  4  4  0
  2  3  4  0
  1  2  4  0
M  END
> <Name>
3-Trifluoromethylphenylurea

> <CAS RN>
013114-87-9

> <Log Koc>
1.97

> <VP-0>
6.92889

> <nAromBond>
6

> <MAXDP>
4.16136

> <nHBAcc>
3

> <Splitting>
2

$$$$
3-Phenyl-1-cyclopropylurea
  SciTegic01221512053D

 13 14  0  0  0  0            999 V2000
    1.0645    2.5234   -0.2786 C   0  0  0  0  0  0  0  0  0  1  0  0
    1.8811    3.6454   -0.3557 C   0  0  0  0  0  0  0  0  0  2  0  0
    3.2408    3.5348   -0.0888 C   0  0  0  0  0  0  0  0  0  3  0  0
    3.7800    2.3009    0.2545 C   0  0  0  0  0  0  0  0  0  4  0  0
    2.9600    1.1804    0.3311 C   0  0  0  0  0  0  0  0  0  5  0  0
    1.5994    1.2846    0.0647 C   0  0  0  0  0  0  0  0  0  6  0  0
    0.7947    0.1168    0.1595 N   0  0  0  0  0  0  0  0  0  7  0  0
   -0.5985    0.0716   -0.1091 C   0  0  0  0  0  0  0  0  0  8  0  0
   -1.2296    1.0717   -0.4694 O   0  0  0  0  0  0  0  0  0  9  0  0
   -1.2826   -1.1283    0.0710 N   0  0  0  0  0  0  0  0  0 10  0  0
   -2.6947   -1.1856   -0.1655 C   0  0  0  0  0  0  0  0  0 11  0  0
   -3.1129   -2.6531   -0.3859 C   0  0  0  0  0  0  0  0  0 12  0  0
   -3.3676   -1.9813    0.9703 C   0  0  0  0  0  0  0  0  0 13  0  0
 13 11  1  0
 12 13  1  0
 11 12  1  0
 10 11  1  0
  8 10  1  0
  8  9  2  0
  7  8  1  0
  6  7  1  0
  6  1  4  0
  5  6  4  0
  4  5  4  0
  3  4  4  0
  2  3  4  0
  1  2  4  0
M  END
> <Name>
3-Phenyl-1-cyclopropylurea

> <CAS RN>
013140-86-8

> <Log Koc>
1.73

> <VP-0>
7.28656

> <nAromBond>
6

> <MAXDP>
4.24065

> <nHBAcc>
3

> <Splitting>
2

$$$$
3-Phenyl-1-cyclopentylurea
  SciTegic01221512053D

 15 16  0  0  0  0            999 V2000
    3.2187    1.5757   -0.3051 C   0  0  0  0  0  0  0  0  0  1  0  0
    1.8516    1.4795   -0.0693 C   0  0  0  0  0  0  0  0  0  2  0  0
    1.1154    2.6394    0.1557 C   0  0  0  0  0  0  0  0  0  3  0  0
    1.7387    3.8818    0.1453 C   0  0  0  0  0  0  0  0  0  4  0  0
    3.1055    3.9714   -0.0907 C   0  0  0  0  0  0  0  0  0  5  0  0
    3.8455    2.8169   -0.3160 C   0  0  0  0  0  0  0  0  0  6  0  0
    1.2499    0.1916   -0.0676 N   0  0  0  0  0  0  0  0  0  7  0  0
   -0.1271   -0.0587    0.1714 C   0  0  0  0  0  0  0  0  0  8  0  0
   -0.9237    0.8575    0.4069 O   0  0  0  0  0  0  0  0  0  9  0  0
   -0.5859   -1.3833    0.1371 N   0  0  0  0  0  0  0  0  0 10  0  0
   -1.9739   -1.6963    0.3567 C   0  0  0  0  0  0  0  0  0 11  0  0
   -2.2553   -3.1809    0.2258 C   0  0  0  0  0  0  0  0  0 12  0  0
   -3.8003   -3.1899    0.3137 C   0  0  0  0  0  0  0  0  0 13  0  0
   -4.2252   -1.8243   -0.3323 C   0  0  0  0  0  0  0  0  0 14  0  0
   -2.8848   -1.1758   -0.7454 C   0  0  0  0  0  0  0  0  0 15  0  0
 15 11  1  0
 14 15  1  0
 13 14  1  0
 12 13  1  0
 11 12  1  0
 10 11  1  0
  8 10  1  0
  8  9  2  0
  7  8  1  0
  2  7  1  0
  6  1  4  0
  5  6  4  0
  4  5  4  0
  3  4  4  0
  2  3  4  0
  1  2  4  0
M  END
> <Name>
3-Phenyl-1-cyclopentylurea

> <CAS RN>
013140-89-1

> <Log Koc>
1.93

> <VP-0>
8.70078

> <nAromBond>
6

> <MAXDP>
4.54621

> <nHBAcc>
3

> <Splitting>
1

$$$$
Phosphamidon
  SciTegic01221512053D

 18 17  0  0  0  0            999 V2000
    1.1130    1.1673   -1.1432 C   0  0  0  0  0  0  0  0  0  1  0  0
    0.8614    2.3994   -0.6194 C   0  0  0  0  0  0  0  0  0  2  0  0
    0.1439    2.8515    0.6302 C   0  0  0  0  0  0  0  0  0  3  0  0
   -0.6699    3.7648    0.4683 O   0  0  0  0  0  0  0  0  0  4  0  0
    0.4328    2.4130    1.9890 N   0  0  0  0  0  0  0  0  0  5  0  0
   -0.2696    3.0084    3.1482 C   0  0  0  0  0  0  0  0  0  6  0  0
   -1.7987    3.1937    2.9547 C   0  0  0  0  0  0  0  0  0  7  0  0
    1.5525    1.5458    2.2639 C   0  0  0  0  0  0  0  0  0  8  0  0
    1.6356    1.1886    3.7713 C   0  0  0  0  0  0  0  0  0  9  0  0
    1.3779    3.7064   -1.6286 Cl  0  0  0  0  0  0  0  0  0 10  0  0
    1.8639    1.2120   -2.4418 C   0  0  0  0  0  0  0  0  0 11  0  0
    0.7402   -0.2029   -0.7503 O   0  0  0  0  0  0  0  0  0 12  0  0
   -0.1059   -0.6596    0.4863 P   0  0  0  0  0  0  0  0  0 13  0  0
   -0.9946    0.3020    0.9139 O   0  0  0  0  0  0  0  0  0 14  0  0
    0.8355   -1.1433    1.6149 O   0  0  0  0  0  0  0  0  0 15  0  0
    1.6911   -2.1789    1.1055 C   0  0  0  0  0  0  0  0  0 16  0  0
   -0.9201   -1.9057    0.0518 O   0  0  0  0  0  0  0  0  0 17  0  0
   -1.8095   -1.5535   -1.0099 C   0  0  0  0  0  0  0  0  0 18  0  0
 17 18  1  0
 13 17  1  0
 15 16  1  0
 13 15  1  0
 13 14  2  0
 12 13  1  0
  1 12  1  0
  1 11  1  0
  2 10  1  0
  8  9  1  0
  5  8  1  0
  6  7  1  0
  5  6  1  0
  3  5  1  0
  3  4  2  0
  2  3  1  0
  1  2  2  0
M  END
> <Name>
Phosphamidon

> <CAS RN>
013171-21-6

> <Log Koc>
0.85

> <VP-0>
12.2077

> <nAromBond>
0

> <MAXDP>
5.0806

> <nHBAcc>
6

> <Splitting>
1

$$$$
Ethoprophos
  SciTegic01221512053D

 13 12  0  0  0  0            999 V2000
   -1.0447    1.8634   -2.5292 C   0  0  0  0  0  0  0  0  0  1  0  0
   -0.1797    0.8298   -3.2657 C   0  0  0  0  0  0  0  0  0  2  0  0
    1.0414    0.3783   -2.4167 C   0  0  0  0  0  0  0  0  0  3  0  0
    0.6270   -0.7109   -0.9982 S   0  0  0  0  0  0  0  0  0  4  0  0
   -0.3759    0.1428    0.4301 P   0  0  0  0  0  0  0  0  0  5  0  0
   -1.6404    0.4538   -0.0237 O   0  0  0  0  0  0  0  0  0  6  0  0
    0.5305    1.7755    0.9671 S   0  0  0  0  0  0  0  0  0  7  0  0
    2.3381    1.6171    1.2649 C   0  0  0  0  0  0  0  0  0  8  0  0
    2.7338    0.6776    2.4365 C   0  0  0  0  0  0  0  0  0  9  0  0
    2.5549   -0.8037    2.0656 C   0  0  0  0  0  0  0  0  0 10  0  0
   -0.4804   -0.8496    1.6443 O   0  0  0  0  0  0  0  0  0 11  0  0
   -1.1671   -0.2772    2.7910 C   0  0  0  0  0  0  0  0  0 12  0  0
   -2.6950   -0.1896    2.5792 C   0  0  0  0  0  0  0  0  0 13  0  0
 12 13  1  0
 11 12  1  0
  5 11  1  0
  9 10  1  0
  8  9  1  0
  7  8  1  0
  5  7  1  0
  5  6  2  0
  4  5  1  0
  3  4  1  0
  2  3  1  0
  1  2  1  0
M  END
> <Name>
Ethoprophos

> <CAS RN>
013194-48-4

> <Log Koc>
1.82

> <VP-0>
10.4727

> <nAromBond>
0

> <MAXDP>
5.42151

> <nHBAcc>
2

> <Splitting>
2

$$$$
Chlorbromuron
  SciTegic01221512053D

 15 15  0  0  0  0            999 V2000
    1.3129    3.5946   -0.1318 C   0  0  0  0  0  0  0  0  0  1  0  0
    2.7011    3.6231   -0.0789 C   0  0  0  0  0  0  0  0  0  2  0  0
    3.4127    2.4385    0.0669 C   0  0  0  0  0  0  0  0  0  3  0  0
    2.7360    1.2277    0.1597 C   0  0  0  0  0  0  0  0  0  4  0  0
    1.3466    1.1918    0.1070 C   0  0  0  0  0  0  0  0  0  5  0  0
    0.6397    2.3819   -0.0392 C   0  0  0  0  0  0  0  0  0  6  0  0
    0.6960   -0.0707    0.2056 N   0  0  0  0  0  0  0  0  0  7  0  0
   -0.7103   -0.2749    0.1416 C   0  0  0  0  0  0  0  0  0  8  0  0
   -1.4706    0.6880   -0.0149 O   0  0  0  0  0  0  0  0  0  9  0  0
   -1.1791   -1.6415    0.2642 N   0  0  0  0  0  0  0  0  0 10  0  0
   -2.4930   -2.0726    0.2262 O   0  0  0  0  0  0  0  0  0 11  0  0
   -3.5244   -1.0893    0.0461 C   0  0  0  0  0  0  0  0  0 12  0  0
   -0.1764   -2.6516    0.4435 C   0  0  0  0  0  0  0  0  0 13  0  0
    5.1388    2.4712    0.1324 Cl  0  0  0  0  0  0  0  0  0 14  0  0
    3.6258    5.2788   -0.2057 Br  0  0  0  0  0  0  0  0  0 15  0  0
  2 15  1  0
  3 14  1  0
 10 13  1  0
 11 12  1  0
 10 11  1  0
  8 10  1  0
  8  9  2  0
  7  8  1  0
  5  7  1  0
  6  1  4  0
  5  6  4  0
  4  5  4  0
  3  4  4  0
  2  3  4  0
  1  2  4  0
M  END
> <Name>
Chlorbromuron

> <CAS RN>
013360-45-7

> <Log Koc>
2.7

> <VP-0>
10.5936

> <nAromBond>
6

> <MAXDP>
4.45748

> <nHBAcc>
2

> <Splitting>
2

$$$$
Desmedipham
  SciTegic01221512053D

 22 23  0  0  0  0            999 V2000
    3.9750    8.5306    0.9550 C   0  0  0  0  0  0  0  0  0  1  0  0
    5.3008    8.5070    0.5389 C   0  0  0  0  0  0  0  0  0  2  0  0
    5.8555    7.3244    0.0643 C   0  0  0  0  0  0  0  0  0  3  0  0
    5.0849    6.1685    0.0062 C   0  0  0  0  0  0  0  0  0  4  0  0
    3.7578    6.1853    0.4220 C   0  0  0  0  0  0  0  0  0  5  0  0
    3.2079    7.3728    0.8963 C   0  0  0  0  0  0  0  0  0  6  0  0
    3.0066    4.9791    0.3455 N   0  0  0  0  0  0  0  0  0  7  0  0
    1.6590    4.8237    0.7842 C   0  0  0  0  0  0  0  0  0  8  0  0
    1.0553    5.7798    1.2826 O   0  0  0  0  0  0  0  0  0  9  0  0
    0.9412    3.5843    0.6899 O   0  0  0  0  0  0  0  0  0 10  0  0
    1.5597    2.4240    0.1130 C   0  0  0  0  0  0  0  0  0 11  0  0
    2.8526    2.4076   -0.4012 C   0  0  0  0  0  0  0  0  0 12  0  0
    3.3810    1.2445   -0.9485 C   0  0  0  0  0  0  0  0  0 13  0  0
    2.6182    0.0839   -0.9852 C   0  0  0  0  0  0  0  0  0 14  0  0
    1.3258    0.0833   -0.4739 C   0  0  0  0  0  0  0  0  0 15  0  0
    0.8081    1.2546    0.0697 C   0  0  0  0  0  0  0  0  0 16  0  0
    0.5713   -1.1212   -0.5237 N   0  0  0  0  0  0  0  0  0 17  0  0
   -0.7343   -1.2802    0.0153 C   0  0  0  0  0  0  0  0  0 18  0  0
   -1.3127   -0.3504    0.5915 O   0  0  0  0  0  0  0  0  0 19  0  0
   -1.3561   -2.5376   -0.0937 O   0  0  0  0  0  0  0  0  0 20  0  0
   -2.6768   -2.5476    0.4864 C   0  0  0  0  0  0  0  0  0 21  0  0
   -3.6807   -1.7772   -0.4078 C   0  0  0  0  0  0  0  0  0 22  0  0
 21 22  1  0
 20 21  1  0
 18 20  1  0
 18 19  2  0
 17 18  1  0
 15 17  1  0
 16 11  4  0
 15 16  4  0
 14 15  4  0
 13 14  4  0
 12 13  4  0
 11 12  4  0
 10 11  1  0
  8 10  1  0
  8  9  2  0
  7  8  1  0
  5  7  1  0
  6  1  4  0
  5  6  4  0
  4  5  4  0
  3  4  4  0
  2  3  4  0
  1  2  4  0
M  END
> <Name>
Desmedipham

> <CAS RN>
013684-56-5

> <Log Koc>
3.24

> <VP-0>
12.0363

> <nAromBond>
12

> <MAXDP>
4.77249

> <nHBAcc>
5

> <Splitting>
2

$$$$
Phenmedipham
  SciTegic01221512053D

 22 23  0  0  0  0            999 V2000
    6.7666    1.0279    1.2443 C   0  0  0  0  0  0  0  0  0  1  0  0
    7.8721    0.1875    1.2999 C   0  0  0  0  0  0  0  0  0  2  0  0
    7.7123   -1.1817    1.1247 C   0  0  0  0  0  0  0  0  0  3  0  0
    6.4455   -1.7050    0.8939 C   0  0  0  0  0  0  0  0  0  4  0  0
    5.3419   -0.8606    0.8373 C   0  0  0  0  0  0  0  0  0  5  0  0
    5.4952    0.5104    1.0139 C   0  0  0  0  0  0  0  0  0  6  0  0
    4.3412    1.3442    0.9396 N   0  0  0  0  0  0  0  0  0  7  0  0
    4.3396    2.7516    1.1745 C   0  0  0  0  0  0  0  0  0  8  0  0
    5.3845    3.3269    1.4972 O   0  0  0  0  0  0  0  0  0  9  0  0
    3.1755    3.5743    1.0220 O   0  0  0  0  0  0  0  0  0 10  0  0
    1.9174    3.0046    0.6352 C   0  0  0  0  0  0  0  0  0 11  0  0
    1.7154    1.6466    0.4020 C   0  0  0  0  0  0  0  0  0 12  0  0
    0.4651    1.1618    0.0298 C   0  0  0  0  0  0  0  0  0 13  0  0
   -0.5955    2.0496   -0.1130 C   0  0  0  0  0  0  0  0  0 14  0  0
   -0.4068    3.4061    0.1152 C   0  0  0  0  0  0  0  0  0 15  0  0
    0.8449    3.8778    0.4889 C   0  0  0  0  0  0  0  0  0 16  0  0
    0.3073   -0.2346   -0.1905 N   0  0  0  0  0  0  0  0  0 17  0  0
   -0.9223   -0.8630   -0.5362 C   0  0  0  0  0  0  0  0  0 18  0  0
   -1.9699   -0.2200   -0.6735 O   0  0  0  0  0  0  0  0  0 19  0  0
   -0.9476   -2.2438   -0.7171 O   0  0  0  0  0  0  0  0  0 20  0  0
   -2.2752   -2.6632   -1.0496 C   0  0  0  0  0  0  0  0  0 21  0  0
    9.2372    0.7602    1.5463 C   0  0  0  0  0  0  0  0  0 22  0  0
  2 22  1  0
 20 21  1  0
 18 20  1  0
 18 19  2  0
 17 18  1  0
 13 17  1  0
 16 11  4  0
 15 16  4  0
 14 15  4  0
 13 14  4  0
 12 13  4  0
 11 12  4  0
 10 11  1  0
  8 10  1  0
  8  9  2  0
  7  8  1  0
  6  7  1  0
  6  1  4  0
  5  6  4  0
  4  5  4  0
  3  4  4  0
  2  3  4  0
  1  2  4  0
M  END
> <Name>
Phenmedipham

> <CAS RN>
013684-63-4

> <Log Koc>
3.38

> <VP-0>
12.2518

> <nAromBond>
12

> <MAXDP>
4.83747

> <nHBAcc>
5

> <Splitting>
1

$$$$
Fensulfothion sulfone
  SciTegic01221512053D

 19 19  0  0  0  0            999 V2000
   -0.0027    0.0685   -0.6707 C   0  0  0  0  0  0  0  0  0  1  0  0
    0.6943    1.0186   -1.4068 C   0  0  0  0  0  0  0  0  0  2  0  0
    2.0841    0.9955   -1.4316 C   0  0  0  0  0  0  0  0  0  3  0  0
    2.7845    0.0245   -0.7242 C   0  0  0  0  0  0  0  0  0  4  0  0
    2.0800   -0.9238    0.0123 C   0  0  0  0  0  0  0  0  0  5  0  0
    0.6908   -0.9039    0.0396 C   0  0  0  0  0  0  0  0  0  6  0  0
    4.2095    0.0432   -0.7694 O   0  0  0  0  0  0  0  0  0  7  0  0
    4.9304   -1.1004    0.0471 P   0  0  0  0  0  0  0  0  0  8  0  0
    4.4856   -2.6236   -0.5950 S   0  0  0  0  0  0  0  0  0  9  0  0
    4.5939   -1.0560    1.5989 O   0  0  0  0  0  0  0  0  0 10  0  0
    5.1592    0.0929    2.3153 C   0  0  0  0  0  0  0  0  0 11  0  0
    4.5212    1.4396    1.9227 C   0  0  0  0  0  0  0  0  0 12  0  0
    6.4683   -0.9561   -0.1581 O   0  0  0  0  0  0  0  0  0 13  0  0
    7.1566   -2.0981    0.3831 C   0  0  0  0  0  0  0  0  0 14  0  0
    8.6721   -1.9260    0.1798 C   0  0  0  0  0  0  0  0  0 15  0  0
   -1.7705    0.0987   -0.6360 S   0  0  0  0  0  0  0  0  0 16  0  0
   -2.2238    1.3096    0.1570 O   0  0  0  0  0  0  0  0  0 17  0  0
   -2.2986    0.2367   -2.0511 O   0  0  0  0  0  0  0  0  0 18  0  0
   -2.4040   -1.4095    0.1374 C   0  0  0  0  0  0  0  0  0 19  0  0
 16 19  1  0
 16 18  2  0
 16 17  2  0
  1 16  1  0
 14 15  1  0
 13 14  1  0
  8 13  1  0
 11 12  1  0
 10 11  1  0
  8 10  1  0
  8  9  2  0
  7  8  1  0
  4  7  1  0
  6  1  4  0
  5  6  4  0
  4  5  4  0
  3  4  4  0
  2  3  4  0
  1  2  4  0
M  END
> <Name>
Fensulfothion sulfone

> <CAS RN>
014255-72-2

> <Log Koc>
2.17

> <VP-0>
12.9432

> <nAromBond>
6

> <MAXDP>
4.51569

> <nHBAcc>
4

> <Splitting>
2

$$$$
Napropamide
  SciTegic01221512053D

 21 22  0  0  0  0            999 V2000
    3.8497    0.7925   -3.4074 C   0  0  0  0  0  0  0  0  0  1  0  0
    4.1539   -0.2144   -2.5086 C   0  0  0  0  0  0  0  0  0  2  0  0
    3.1858   -0.6405   -1.6129 C   0  0  0  0  0  0  0  0  0  3  0  0
    1.9059   -0.0940   -1.5859 C   0  0  0  0  0  0  0  0  0  4  0  0
    1.6019    0.9402   -2.5031 C   0  0  0  0  0  0  0  0  0  5  0  0
    2.5864    1.3659   -3.4016 C   0  0  0  0  0  0  0  0  0  6  0  0
    2.3338    2.3823   -4.3175 C   0  0  0  0  0  0  0  0  0  7  0  0
    1.0960    3.0061   -4.3632 C   0  0  0  0  0  0  0  0  0  8  0  0
    0.1074    2.6043   -3.4791 C   0  0  0  0  0  0  0  0  0  9  0  0
    0.3687    1.5882   -2.5691 C   0  0  0  0  0  0  0  0  0 10  0  0
    1.0495   -0.7238   -0.5411 O   0  0  0  0  0  0  0  0  0 11  0  0
   -0.3725   -0.4546   -0.3617 C   0  0  2  0  0  0  0  0  0 12  0  0
   -0.5547    0.6212   -0.2446 H   0  0  0  0  0  0  0  0  0 13  0  0
   -0.8164   -1.1458    0.9537 C   0  0  0  0  0  0  0  0  0 14  0  0
   -1.2184   -1.0203   -1.5279 C   0  0  0  0  0  0  0  0  0 15  0  0
   -2.0783   -0.2676   -1.9988 O   0  0  0  0  0  0  0  0  0 16  0  0
   -1.0092   -2.3583   -2.1187 N   0  0  0  0  0  0  0  0  0 17  0  0
   -1.8073   -2.8136   -3.2680 C   0  0  0  0  0  0  0  0  0 18  0  0
   -3.3231   -2.5181   -3.1399 C   0  0  0  0  0  0  0  0  0 19  0  0
    0.0234   -3.2686   -1.6087 C   0  0  0  0  0  0  0  0  0 20  0  0
    0.0216   -4.6248   -2.3499 C   0  0  0  0  0  0  0  0  0 21  0  0
 20 21  1  0
 17 20  1  0
 18 19  1  0
 17 18  1  0
 15 17  1  0
 15 16  2  0
 12 15  1  0
 12 14  1  0
 12 13  1  0
 11 12  1  0
  4 11  1  0
 10  5  4  0
  9 10  4  0
  8  9  4  0
  7  8  4  0
  6  7  4  0
  6  1  4  0
  5  6  4  0
  4  5  4  0
  3  4  4  0
  2  3  4  0
  1  2  4  0
M  END
> <Name>
Napropamide

> <CAS RN>
015299-99-7

> <Log Koc>
2.66

> <VP-0>
12.2967

> <nAromBond>
11

> <MAXDP>
5.24667

> <nHBAcc>
2

> <Splitting>
2

$$$$
Chlorotoluron
  SciTegic01221512053D

 14 14  0  0  0  0            999 V2000
    2.6683    1.2216    0.2098 C   0  0  0  0  0  0  0  0  0  1  0  0
    1.2861    1.1330    0.0842 C   0  0  0  0  0  0  0  0  0  2  0  0
    0.5452    2.2911   -0.1324 C   0  0  0  0  0  0  0  0  0  3  0  0
    1.1785    3.5253   -0.2228 C   0  0  0  0  0  0  0  0  0  4  0  0
    2.5600    3.6071   -0.0967 C   0  0  0  0  0  0  0  0  0  5  0  0
    3.3050    2.4542    0.1197 C   0  0  0  0  0  0  0  0  0  6  0  0
    5.0228    2.5524    0.2768 Cl  0  0  0  0  0  0  0  0  0  7  0  0
    3.2460    4.9382   -0.1940 C   0  0  0  0  0  0  0  0  0  8  0  0
    0.6745   -0.1458    0.1825 N   0  0  0  0  0  0  0  0  0  9  0  0
   -0.7196   -0.3871    0.0637 C   0  0  0  0  0  0  0  0  0 10  0  0
   -1.5278    0.5255   -0.1422 O   0  0  0  0  0  0  0  0  0 11  0  0
   -1.1911   -1.6943    0.1825 N   0  0  0  0  0  0  0  0  0 12  0  0
   -2.5952   -1.9636    0.0653 C   0  0  0  0  0  0  0  0  0 13  0  0
   -0.2716   -2.7690    0.4220 C   0  0  0  0  0  0  0  0  0 14  0  0
 12 14  1  0
 12 13  1  0
 10 12  1  0
 10 11  2  0
  9 10  1  0
  2  9  1  0
  5  8  1  0
  6  7  1  0
  6  1  4  0
  5  6  4  0
  4  5  4  0
  3  4  4  0
  2  3  4  0
  1  2  4  0
M  END
> <Name>
Chlorotoluron

> <CAS RN>
015545-48-9

> <Log Koc>
2.02

> <VP-0>
9.22141

> <nAromBond>
6

> <MAXDP>
4.33662

> <nHBAcc>
3

> <Splitting>
1

$$$$
2,2',6,6'-Tetrachlorobiphenyl
  SciTegic01221512053D

 16 17  0  0  0  0            999 V2000
    0.4955    1.4759    2.4119 C   0  0  0  0  0  0  0  0  0  1  0  0
   -0.2230    1.7449    1.2427 C   0  0  0  0  0  0  0  0  0  2  0  0
   -1.3642    2.5490    1.3243 C   0  0  0  0  0  0  0  0  0  3  0  0
   -1.7747    3.0664    2.5474 C   0  0  0  0  0  0  0  0  0  4  0  0
   -1.0540    2.7971    3.7019 C   0  0  0  0  0  0  0  0  0  5  0  0
    0.0812    2.0028    3.6296 C   0  0  0  0  0  0  0  0  0  6  0  0
   -2.3325    2.8930   -0.0734 Cl  0  0  0  0  0  0  0  0  0  7  0  0
    0.2262    1.1760   -0.0868 C   0  0  0  0  0  0  0  0  0  8  0  0
    0.4566    2.0170   -1.1801 C   0  0  0  0  0  0  0  0  0  9  0  0
    0.8720    1.4908   -2.3977 C   0  0  0  0  0  0  0  0  0 10  0  0
    1.0573    0.1239   -2.5460 C   0  0  0  0  0  0  0  0  0 11  0  0
    0.8281   -0.7182   -1.4675 C   0  0  0  0  0  0  0  0  0 12  0  0
    0.4186   -0.2002   -0.2444 C   0  0  0  0  0  0  0  0  0 13  0  0
    0.1128   -1.3122    1.0515 Cl  0  0  0  0  0  0  0  0  0 14  0  0
    0.2815    3.7382   -1.0524 Cl  0  0  0  0  0  0  0  0  0 15  0  0
    1.9448    0.5229    2.3861 Cl  0  0  0  0  0  0  0  0  0 16  0  0
  1 16  1  0
  9 15  1  0
 13 14  1  0
 13  8  4  0
 12 13  4  0
 11 12  4  0
 10 11  4  0
  9 10  4  0
  8  9  4  0
  2  8  1  0
  3  7  1  0
  6  1  4  0
  5  6  4  0
  4  5  4  0
  3  4  4  0
  2  3  4  0
  1  2  4  0
M  END
> <Name>
2,2',6,6'-Tetrachlorobiphenyl

> <CAS RN>
015968-05-5

> <Log Koc>
5.01

> <VP-0>
10.9997

> <nAromBond>
13

> <MAXDP>
0.32393

> <nHBAcc>
0

> <Splitting>
2

$$$$
Alachlor
  SciTegic01221512053D

 18 18  0  0  0  0            999 V2000
    1.0434   -1.7436    3.5931 C   0  0  0  0  0  0  0  0  0  1  0  0
    2.3814   -2.0874    3.4997 C   0  0  0  0  0  0  0  0  0  2  0  0
    3.1191   -1.6370    2.4191 C   0  0  0  0  0  0  0  0  0  3  0  0
    2.5284   -0.8500    1.4374 C   0  0  0  0  0  0  0  0  0  4  0  0
    1.1728   -0.4928    1.5221 C   0  0  0  0  0  0  0  0  0  5  0  0
    0.4268   -0.9521    2.6302 C   0  0  0  0  0  0  0  0  0  6  0  0
   -1.0724   -0.6683    2.9131 C   0  0  0  0  0  0  0  0  0  7  0  0
   -1.5998    0.7232    2.5174 C   0  0  0  0  0  0  0  0  0  8  0  0
    0.5881    0.3273    0.4523 N   0  0  0  0  0  0  0  0  0  9  0  0
    0.8956    1.7948    0.3986 C   0  0  0  0  0  0  0  0  0 10  0  0
    0.6337    2.4153   -0.8813 O   0  0  0  0  0  0  0  0  0 11  0  0
    1.7162    2.1815   -1.8087 C   0  0  0  0  0  0  0  0  0 12  0  0
   -0.2976   -0.2690   -0.5345 C   0  0  0  0  0  0  0  0  0 13  0  0
   -0.8112    0.4364   -1.4090 O   0  0  0  0  0  0  0  0  0 14  0  0
   -0.5529   -1.7567   -0.5710 C   0  0  0  0  0  0  0  0  0 15  0  0
   -1.6588   -2.1263   -1.8970 Cl  0  0  0  0  0  0  0  0  0 16  0  0
    3.4023   -0.4228    0.2696 C   0  0  0  0  0  0  0  0  0 17  0  0
    4.8454   -0.9384    0.4472 C   0  0  0  0  0  0  0  0  0 18  0  0
 17 18  1  0
  4 17  1  0
 15 16  1  0
 13 15  1  0
 13 14  2  0
  9 13  1  0
 11 12  1  0
 10 11  1  0
  9 10  1  0
  5  9  1  0
  7  8  1  0
  6  7  1  0
  6  1  4  0
  5  6  4  0
  4  5  4  0
  3  4  4  0
  2  3  4  0
  1  2  4  0
M  END
> <Name>
Alachlor

> <CAS RN>
015972-60-8

> <Log Koc>
2.28

> <VP-0>
11.9581

> <nAromBond>
6

> <MAXDP>
5.12549

> <nHBAcc>
3

> <Splitting>
2

$$$$
Methomyl
  SciTegic01221512053D

 10  9  0  0  0  0            999 V2000
    1.7155    3.4806    0.2462 C   0  0  0  0  0  0  0  0  0  1  0  0
    0.9321    2.2105    0.0828 C   0  0  0  0  0  0  0  0  0  2  0  0
    1.5724    1.1783   -0.3493 N   0  0  0  0  0  0  0  0  0  3  0  0
    1.1886   -0.1349   -0.5883 O   0  0  0  0  0  0  0  0  0  4  0  0
    0.0427   -0.7235    0.0122 C   0  0  0  0  0  0  0  0  0  5  0  0
   -0.6326   -0.1553    0.8695 O   0  0  0  0  0  0  0  0  0  6  0  0
   -0.2865   -2.0357   -0.3294 N   0  0  0  0  0  0  0  0  0  7  0  0
   -1.3968   -2.6844    0.3063 C   0  0  0  0  0  0  0  0  0  8  0  0
   -0.8198    2.2868    0.4014 S   0  0  0  0  0  0  0  0  0  9  0  0
   -1.2701    3.9533    0.9451 C   0  0  0  0  0  0  0  0  0 10  0  0
  9 10  1  0
  2  9  1  0
  7  8  1  0
  5  7  1  0
  5  6  2  0
  4  5  1  0
  3  4  1  0
  2  3  2  0
  1  2  1  0
M  END
> <Name>
Methomyl

> <CAS RN>
016752-77-5

> <Log Koc>
1.75

> <VP-0>
6.98846

> <nAromBond>
0

> <MAXDP>
3.41543

> <nHBAcc>
2

> <Splitting>
2

$$$$
Benomyl
  SciTegic01221512053D

 21 22  0  0  0  0            999 V2000
    1.8357   -2.2339    0.4479 C   0  0  0  0  0  0  0  0  0  1  0  0
    2.9024   -3.0171    0.8857 C   0  0  0  0  0  0  0  0  0  2  0  0
    4.1755   -2.4667    1.0684 C   0  0  0  0  0  0  0  0  0  3  0  0
    4.4189   -1.1156    0.8183 C   0  0  0  0  0  0  0  0  0  4  0  0
    3.3475   -0.3535    0.3837 C   0  0  0  0  0  0  0  0  0  5  0  0
    2.0987   -0.8928    0.2044 C   0  0  0  0  0  0  0  0  0  6  0  0
    1.3091    0.0804   -0.2104 N   0  0  0  0  0  0  0  0  0  7  0  0
    2.0492    1.1853   -0.2825 C   0  0  0  0  0  0  0  0  0  8  0  0
    3.3105    0.9394    0.0811 N   0  0  0  0  0  0  0  0  0  9  0  0
    1.5542    2.4323   -0.6719 N   0  0  0  0  0  0  0  0  0 10  0  0
    2.3504    3.5753   -0.6041 C   0  0  0  0  0  0  0  0  0 11  0  0
    3.5145    3.5017   -0.1946 O   0  0  0  0  0  0  0  0  0 12  0  0
    1.8186    4.8063   -0.9807 O   0  0  0  0  0  0  0  0  0 13  0  0
    2.8007    5.8311   -0.8109 C   0  0  0  0  0  0  0  0  0 14  0  0
   -0.0584    0.0087   -0.5180 C   0  0  0  0  0  0  0  0  0 15  0  0
   -0.6362    1.0290   -0.9094 O   0  0  0  0  0  0  0  0  0 16  0  0
   -0.7813   -1.1878   -0.2950 N   0  0  0  0  0  0  0  0  0 17  0  0
   -2.2213   -1.2942   -0.4792 C   0  0  0  0  0  0  0  0  0 18  0  0
   -3.0052   -0.1637    0.2525 C   0  0  0  0  0  0  0  0  0 19  0  0
   -2.7266   -0.1861    1.7759 C   0  0  0  0  0  0  0  0  0 20  0  0
   -3.1702   -1.5306    2.3778 C   0  0  0  0  0  0  0  0  0 21  0  0
 20 21  1  0
 19 20  1  0
 18 19  1  0
 17 18  1  0
 15 17  1  0
 15 16  2  0
  7 15  1  0
 13 14  1  0
 11 13  1  0
 11 12  2  0
 10 11  1  0
  8 10  1  0
  9  5  4  0
  8  9  4  0
  7  8  4  0
  6  7  4  0
  6  1  4  0
  5  6  4  0
  4  5  4  0
  3  4  4  0
  2  3  4  0
  1  2  4  0
M  END
> <Name>
Benomyl

> <CAS RN>
017804-35-2

> <Log Koc>
2.71

> <VP-0>
12.0499

> <nAromBond>
10

> <MAXDP>
5.30498

> <nHBAcc>
7

> <Splitting>
1

$$$$
Methyl-N-(3,4-dichlorophenyl)carbamate
  SciTegic01221512053D

 13 13  0  0  0  0            999 V2000
    2.4687    3.5163   -0.0032 C   0  0  0  0  0  0  0  0  0  1  0  0
    3.2676    2.3799   -0.0051 C   0  0  0  0  0  0  0  0  0  2  0  0
    2.6827    1.1188   -0.0037 C   0  0  0  0  0  0  0  0  0  3  0  0
    1.2985    0.9779   -0.0005 C   0  0  0  0  0  0  0  0  0  4  0  0
    0.5066    2.1236    0.0013 C   0  0  0  0  0  0  0  0  0  5  0  0
    1.0855    3.3874    0.0000 C   0  0  0  0  0  0  0  0  0  6  0  0
    0.7651   -0.3547    0.0008 O   0  0  0  0  0  0  0  0  0  7  0  0
   -0.6547   -0.5435    0.0041 C   0  0  0  0  0  0  0  0  0  8  0  0
   -1.4660    0.3891    0.0059 O   0  0  0  0  0  0  0  0  0  9  0  0
   -1.1477   -1.8489    0.0052 N   0  0  0  0  0  0  0  0  0 10  0  0
   -2.5633   -2.0803    0.0085 C   0  0  0  0  0  0  0  0  0 11  0  0
    4.9882    2.5347   -0.0091 Cl  0  0  0  0  0  0  0  0  0 12  0  0
    3.1937    5.0844   -0.0049 Cl  0  0  0  0  0  0  0  0  0 13  0  0
  1 13  1  0
  2 12  1  0
 10 11  1  0
  8 10  1  0
  8  9  2  0
  7  8  1  0
  4  7  1  0
  6  1  4  0
  5  6  4  0
  4  5  4  0
  3  4  4  0
  2  3  4  0
  1  2  4  0
M  END
> <Name>
Methyl-N-(3,4-dichlorophenyl)carbamate

> <CAS RN>
018315-50-9

> <Log Koc>
2.74

> <VP-0>
8.31633

> <nAromBond>
6

> <MAXDP>
3.86768

> <nHBAcc>
2

> <Splitting>
2

$$$$
Methabenzthiazuron
  SciTegic01221512053D

 15 16  0  0  0  0            999 V2000
    1.5506   -2.2067    3.5725 C   0  0  0  0  0  0  0  0  0  1  0  0
    1.8253   -1.4320    2.4550 C   0  0  0  0  0  0  0  0  0  2  0  0
    3.1338   -1.1484    2.1113 C   0  0  0  0  0  0  0  0  0  3  0  0
    4.2200   -1.6064    2.8395 C   0  0  0  0  0  0  0  0  0  4  0  0
    3.9454   -2.3846    3.9621 C   0  0  0  0  0  0  0  0  0  5  0  0
    2.6276   -2.6797    4.3221 C   0  0  0  0  0  0  0  0  0  6  0  0
    3.1091   -0.2359    0.7764 S   0  0  0  0  0  0  0  0  0  7  0  0
    1.4882   -0.2003    0.6365 C   0  0  0  0  0  0  0  0  0  8  0  0
    0.9169   -0.8984    1.6258 N   0  0  0  0  0  0  0  0  0  9  0  0
    0.7978    0.4696   -0.3802 N   0  0  0  0  0  0  0  0  0 10  0  0
    1.5329    1.1837   -1.3828 C   0  0  0  0  0  0  0  0  0 11  0  0
   -0.6025    0.4507   -0.4298 C   0  0  0  0  0  0  0  0  0 12  0  0
   -1.1916    1.0493   -1.3367 O   0  0  0  0  0  0  0  0  0 13  0  0
   -1.3377   -0.2388    0.5360 N   0  0  0  0  0  0  0  0  0 14  0  0
   -2.7701   -0.2507    0.4735 C   0  0  0  0  0  0  0  0  0 15  0  0
 14 15  1  0
 12 14  1  0
 12 13  2  0
 10 12  1  0
 10 11  1  0
  8 10  1  0
  9  2  4  0
  8  9  4  0
  7  8  4  0
  3  7  4  0
  6  1  4  0
  5  6  4  0
  4  5  4  0
  3  4  4  0
  2  3  4  0
  1  2  4  0
M  END
> <Name>
Methabenzthiazuron

> <CAS RN>
018691-97-9

> <Log Koc>
2.8

> <VP-0>
9.33682

> <nAromBond>
10

> <MAXDP>
4.41792

> <nHBAcc>
4

> <Splitting>
1

$$$$
Chlorfenvinphos(trans)
  SciTegic01221512053D

 20 20  0  0  0  0            999 V2000
    0.6659    3.6640    4.9595 C   0  0  0  0  0  0  0  0  0  1  0  0
    0.8742    2.9623    3.7345 O   0  0  0  0  0  0  0  0  0  2  0  0
   -0.2711    1.9345    3.5134 P   0  0  0  0  0  0  0  0  0  3  0  0
   -0.2747    1.0735    4.5922 O   0  0  0  0  0  0  0  0  0  4  0  0
    0.0440    1.1041    2.2078 O   0  0  0  0  0  0  0  0  0  5  0  0
    0.1079    1.8528    0.9947 C   0  0  0  0  0  0  0  0  0  6  0  0
   -0.1352    3.1763    1.0668 C   0  0  0  0  0  0  0  0  0  7  0  0
   -0.0335    4.3723   -0.1656 Cl  0  0  0  0  0  0  0  0  0  8  0  0
    0.5064    1.0133   -0.2185 C   0  0  0  0  0  0  0  0  0  9  0  0
    0.3466    1.3050   -1.5858 C   0  0  0  0  0  0  0  0  0 10  0  0
    0.7893    0.3933   -2.5388 C   0  0  0  0  0  0  0  0  0 11  0  0
    1.3885   -0.8032   -2.1717 C   0  0  0  0  0  0  0  0  0 12  0  0
    1.5354   -1.1060   -0.8285 C   0  0  0  0  0  0  0  0  0 13  0  0
    1.0916   -0.2008    0.1268 C   0  0  0  0  0  0  0  0  0 14  0  0
    1.9363   -1.9106   -3.3794 Cl  0  0  0  0  0  0  0  0  0 15  0  0
   -0.4181    2.7100   -2.2092 Cl  0  0  0  0  0  0  0  0  0 16  0  0
   -1.6594    2.6821    3.4779 O   0  0  0  0  0  0  0  0  0 17  0  0
   -2.7939    1.7868    3.6325 C   0  0  0  0  0  0  0  0  0 18  0  0
   -2.9958    0.8600    2.4177 C   0  0  0  0  0  0  0  0  0 19  0  0
    1.8225    4.6551    5.1771 C   0  0  0  0  0  0  0  0  0 20  0  0
  1 20  1  0
 18 19  1  0
 17 18  1  0
  3 17  1  0
 10 16  1  0
 12 15  1  0
 14  9  4  0
 13 14  4  0
 12 13  4  0
 11 12  4  0
 10 11  4  0
  9 10  4  0
  6  9  1  0
  7  8  1  0
  6  7  2  0
  5  6  1  0
  3  5  1  0
  3  4  2  0
  2  3  1  0
  1  2  1  0
M  END
> <Name>
Chlorfenvinphos(trans)

> <CAS RN>
018708-86-6

> <Log Koc>
2.47

> <VP-0>
13.4294

> <nAromBond>
6

> <MAXDP>
5.58962

> <nHBAcc>
4

> <Splitting>
2

$$$$
Chlorfenvinphos(cis)
  SciTegic01221512053D

 20 20  0  0  0  0            999 V2000
    0.2395    4.6697    3.9510 C   0  0  0  0  0  0  0  0  0  1  0  0
    1.2566    4.5508    2.9266 O   0  0  0  0  0  0  0  0  0  2  0  0
    1.3572    3.1075    2.3185 P   0  0  0  0  0  0  0  0  0  3  0  0
    2.1831    3.2514    1.2274 O   0  0  0  0  0  0  0  0  0  4  0  0
   -0.1466    2.7345    1.9276 O   0  0  0  0  0  0  0  0  0  5  0  0
   -0.6092    1.9357    0.7749 C   0  0  0  0  0  0  0  0  0  6  0  0
   -1.9334    1.8347    0.7365 C   0  0  0  0  0  0  0  0  0  7  0  0
   -2.8873    2.5844    1.9654 Cl  0  0  0  0  0  0  0  0  0  8  0  0
    0.2429    1.2469   -0.3525 C   0  0  0  0  0  0  0  0  0  9  0  0
   -0.3264    0.7172   -1.5229 C   0  0  0  0  0  0  0  0  0 10  0  0
    0.4794    0.1157   -2.4875 C   0  0  0  0  0  0  0  0  0 11  0  0
    1.8511    0.0193   -2.3197 C   0  0  0  0  0  0  0  0  0 12  0  0
    2.4289    0.5347   -1.1714 C   0  0  0  0  0  0  0  0  0 13  0  0
    1.6253    1.1359   -0.2145 C   0  0  0  0  0  0  0  0  0 14  0  0
    2.8289   -0.7316   -3.5301 Cl  0  0  0  0  0  0  0  0  0 15  0  0
   -2.0269    0.7697   -1.8997 Cl  0  0  0  0  0  0  0  0  0 16  0  0
    2.0279    2.1648    3.4178 O   0  0  0  0  0  0  0  0  0 17  0  0
    2.1475    0.7700    3.0948 C   0  0  0  0  0  0  0  0  0 18  0  0
    0.8191    0.0321    3.3545 C   0  0  0  0  0  0  0  0  0 19  0  0
    0.6508    3.9975    5.2756 C   0  0  0  0  0  0  0  0  0 20  0  0
  1 20  1  0
 18 19  1  0
 17 18  1  0
  3 17  1  0
 10 16  1  0
 12 15  1  0
 14  9  4  0
 13 14  4  0
 12 13  4  0
 11 12  4  0
 10 11  4  0
  9 10  4  0
  6  9  1  0
  7  8  1  0
  6  7  2  0
  5  6  1  0
  3  5  1  0
  3  4  2  0
  2  3  1  0
  1  2  1  0
M  END
> <Name>
Chlorfenvinphos(cis)

> <CAS RN>
018708-87-7

> <Log Koc>
2.47

> <VP-0>
13.4294

> <nAromBond>
6

> <MAXDP>
5.58962

> <nHBAcc>
4

> <Splitting>
1

$$$$
Oryzalin
  SciTegic01221512053D

 23 23  0  0  0  0            999 V2000
    1.1613   -1.1107   -0.3657 C   0  0  0  0  0  0  0  0  0  1  0  0
    0.4270    0.0625   -0.3185 C   0  0  0  0  0  0  0  0  0  2  0  0
    1.0546    1.2474    0.0292 C   0  0  0  0  0  0  0  0  0  3  0  0
    2.4120    1.2742    0.3271 C   0  0  0  0  0  0  0  0  0  4  0  0
    3.1657    0.0901    0.2703 C   0  0  0  0  0  0  0  0  0  5  0  0
    2.5197   -1.1056   -0.0740 C   0  0  0  0  0  0  0  0  0  6  0  0
    3.1887   -2.3490   -0.1579 N   0  0  0  0  0  0  0  0  0  7  0  0
    4.4791   -2.4666    0.0537 O   0  0  0  0  0  0  0  0  0  8  0  0
    2.4935   -3.4265   -0.4850 O   0  0  0  0  0  0  0  0  0  9  0  0
    4.5747    0.0845    0.5715 N   0  0  0  0  0  0  0  0  0 10  0  0
    4.9625   -0.2058    1.9698 C   0  0  0  0  0  0  0  0  0 11  0  0
    6.5019   -0.3153    2.2165 C   0  0  0  0  0  0  0  0  0 12  0  0
    7.0925   -1.6385    1.6544 C   0  0  0  0  0  0  0  0  0 13  0  0
    5.5762    0.7012   -0.3572 C   0  0  0  0  0  0  0  0  0 14  0  0
    5.1613    0.7461   -1.8594 C   0  0  0  0  0  0  0  0  0 15  0  0
    5.1894   -0.6632   -2.4936 C   0  0  0  0  0  0  0  0  0 16  0  0
    2.9398    2.5441    0.6957 N   0  0  0  0  0  0  0  0  0 17  0  0
    4.1661    2.7067    1.1427 O   0  0  0  0  0  0  0  0  0 18  0  0
    2.1355    3.5951    0.6617 O   0  0  0  0  0  0  0  0  0 19  0  0
   -1.3010    0.0469   -0.6914 S   0  0  0  0  0  0  0  0  0 20  0  0
   -1.6345    1.2230   -1.5893 O   0  0  0  0  0  0  0  0  0 21  0  0
   -2.0809    0.2005    0.6004 O   0  0  0  0  0  0  0  0  0 22  0  0
   -1.7319   -1.4547   -1.4562 N   0  0  0  0  0  0  0  0  0 23  0  0
 20 23  1  0
 20 22  2  0
 20 21  2  0
  2 20  1  0
 17 19  1  0
 17 18  1  0
  4 17  1  0
 15 16  1  0
 14 15  1  0
 10 14  1  0
 12 13  1  0
 11 12  1  0
 10 11  1  0
  5 10  1  0
  7  9  1  0
  7  8  1  0
  6  7  1  0
  6  1  4  0
  5  6  4  0
  4  5  4  0
  3  4  4  0
  2  3  4  0
  1  2  4  0
M  END
> <Name>
Oryzalin

> <CAS RN>
019044-88-3

> <Log Koc>
3.08

> <VP-0>
12.6669

> <nAromBond>
6

> <MAXDP>
4.58222

> <nHBAcc>
4

> <Splitting>
2

$$$$
Oxadiazon
  SciTegic01221512053D

 22 23  0  0  0  0            999 V2000
   -0.3086    3.0531    0.7219 C   0  0  0  0  0  0  0  0  0  1  0  0
   -0.6529    4.0844    1.5895 C   0  0  0  0  0  0  0  0  0  2  0  0
    0.0385    4.1821    2.8112 C   0  0  0  0  0  0  0  0  0  3  0  0
    1.0313    3.2528    3.1065 C   0  0  0  0  0  0  0  0  0  4  0  0
    1.3641    2.2340    2.2241 C   0  0  0  0  0  0  0  0  0  5  0  0
    0.6867    2.1292    1.0155 C   0  0  0  0  0  0  0  0  0  6  0  0
    1.0172    1.1208    0.0702 N   0  0  0  0  0  0  0  0  0  7  0  0
    2.0694    0.4230    0.0991 N   0  0  0  0  0  0  0  0  0  8  0  0
    2.0156   -0.3608   -0.9706 C   0  0  0  0  0  0  0  0  0  9  0  0
    0.9329   -0.1504   -1.6414 O   0  0  0  0  0  0  0  0  0 10  0  0
    0.3070    0.7740   -0.9972 C   0  0  0  0  0  0  0  0  0 11  0  0
   -0.7820    1.2487   -1.3410 O   0  0  0  0  0  0  0  0  0 12  0  0
    3.0838   -1.3308   -1.3648 C   0  0  0  0  0  0  0  0  0 13  0  0
    2.4870   -2.7464   -1.4208 C   0  0  0  0  0  0  0  0  0 14  0  0
    4.2679   -1.2680   -0.3833 C   0  0  0  0  0  0  0  0  0 15  0  0
    3.5399   -0.9919   -2.7973 C   0  0  0  0  0  0  0  0  0 16  0  0
    2.6167    1.1194    2.6570 Cl  0  0  0  0  0  0  0  0  0 17  0  0
   -0.2190    5.4154    4.0138 Cl  0  0  0  0  0  0  0  0  0 18  0  0
   -1.6974    4.9635    1.0731 O   0  0  0  0  0  0  0  0  0 19  0  0
   -2.2313    6.0475    1.8543 C   0  0  0  0  0  0  0  0  0 20  0  0
   -3.2261    5.4957    2.9079 C   0  0  0  0  0  0  0  0  0 21  0  0
   -3.0179    6.9794    0.9148 C   0  0  0  0  0  0  0  0  0 22  0  0
 20 22  1  0
 20 21  1  0
 19 20  1  0
  2 19  1  0
  3 18  1  0
  5 17  1  0
 13 16  1  0
 13 15  1  0
 13 14  1  0
  9 13  1  0
 11 12  2  0
 11  7  4  0
 10 11  4  0
  9 10  4  0
  8  9  4  0
  7  8  4  0
  6  7  1  0
  6  1  4  0
  5  6  4  0
  4  5  4  0
  3  4  4  0
  2  3  4  0
  1  2  4  0
M  END
> <Name>
Oxadiazon

> <CAS RN>
019666-30-9

> <Log Koc>
3.51

> <VP-0>
14.619

> <nAromBond>
6

> <MAXDP>
5.17917

> <nHBAcc>
4

> <Splitting>
2

$$$$
Metoxuron
  SciTegic01221512053D

 15 15  0  0  0  0            999 V2000
    2.6905    1.0889    0.2482 C   0  0  0  0  0  0  0  0  0  1  0  0
    1.3086    0.9899    0.1294 C   0  0  0  0  0  0  0  0  0  2  0  0
    0.5562    2.1460   -0.0530 C   0  0  0  0  0  0  0  0  0  3  0  0
    1.1777    3.3877   -0.1163 C   0  0  0  0  0  0  0  0  0  4  0  0
    2.5590    3.4836    0.0022 C   0  0  0  0  0  0  0  0  0  5  0  0
    3.3146    2.3296    0.1849 C   0  0  0  0  0  0  0  0  0  6  0  0
    3.1707    4.7468   -0.0647 O   0  0  0  0  0  0  0  0  0  7  0  0
    4.5954    4.6458    0.0764 C   0  0  0  0  0  0  0  0  0  8  0  0
    0.2319    4.8150   -0.3428 Cl  0  0  0  0  0  0  0  0  0  9  0  0
    0.7093   -0.2964    0.1994 N   0  0  0  0  0  0  0  0  0 10  0  0
   -0.6828   -0.5476    0.0759 C   0  0  0  0  0  0  0  0  0 11  0  0
   -1.4991    0.3618   -0.1105 O   0  0  0  0  0  0  0  0  0 12  0  0
   -1.1425   -1.8612    0.1671 N   0  0  0  0  0  0  0  0  0 13  0  0
   -2.5440   -2.1406    0.0442 C   0  0  0  0  0  0  0  0  0 14  0  0
   -0.2132   -2.9324    0.3842 C   0  0  0  0  0  0  0  0  0 15  0  0
 13 15  1  0
 13 14  1  0
 11 13  1  0
 11 12  2  0
 10 11  1  0
  2 10  1  0
  4  9  1  0
  7  8  1  0
  5  7  1  0
  6  1  4  0
  5  6  4  0
  4  5  4  0
  3  4  4  0
  2  3  4  0
  1  2  4  0
M  END
> <Name>
Metoxuron

> <CAS RN>
019937-59-8

> <Log Koc>
1.72

> <VP-0>
9.62965

> <nAromBond>
6

> <MAXDP>
4.37491

> <nHBAcc>
3

> <Splitting>
2

$$$$
Methazole
  SciTegic01221512053D

 16 17  0  0  0  0            999 V2000
    0.4598    3.4408    0.9858 C   0  0  0  0  0  0  0  0  0  1  0  0
    0.5066    4.0884   -0.0666 O   0  0  0  0  0  0  0  0  0  2  0  0
    0.2349    3.9357    2.1841 N   0  0  0  0  0  0  0  0  0  3  0  0
    0.2702    2.9081    3.0121 C   0  0  0  0  0  0  0  0  0  4  0  0
    0.1027    2.9676    4.2351 O   0  0  0  0  0  0  0  0  0  5  0  0
    0.5086    1.8266    2.3375 O   0  0  0  0  0  0  0  0  0  6  0  0
    0.6218    2.1302    1.1432 N   0  0  0  0  0  0  0  0  0  7  0  0
    0.8849    1.1905    0.1265 C   0  0  0  0  0  0  0  0  0  8  0  0
    1.0040    1.5781   -1.2044 C   0  0  0  0  0  0  0  0  0  9  0  0
    1.2639    0.6317   -2.1888 C   0  0  0  0  0  0  0  0  0 10  0  0
    1.4057   -0.7073   -1.8441 C   0  0  0  0  0  0  0  0  0 11  0  0
    1.2873   -1.0978   -0.5155 C   0  0  0  0  0  0  0  0  0 12  0  0
    1.0274   -0.1499    0.4674 C   0  0  0  0  0  0  0  0  0 13  0  0
    1.4634   -2.7619   -0.0862 Cl  0  0  0  0  0  0  0  0  0 14  0  0
    1.7287   -1.8857   -3.0654 Cl  0  0  0  0  0  0  0  0  0 15  0  0
   -0.0001    5.3088    2.5209 C   0  0  0  0  0  0  0  0  0 16  0  0
  3 16  1  0
 11 15  1  0
 12 14  1  0
 13  8  4  0
 12 13  4  0
 11 12  4  0
 10 11  4  0
  9 10  4  0
  8  9  4  0
  7  8  1  0
  7  1  4  0
  6  7  4  0
  4  6  4  0
  4  5  2  0
  3  4  4  0
  1  3  4  0
  1  2  2  0
M  END
> <Name>
Methazole

> <CAS RN>
020354-26-1

> <Log Koc>
3.45

> <VP-0>
9.61901

> <nAromBond>
6

> <MAXDP>
4.64198

> <nHBAcc>
3

> <Splitting>
2

$$$$
3-(3-Chloro-4-methoxylphenyl)-1-methylurea
  SciTegic01221512053D

 14 14  0  0  0  0            999 V2000
    0.4450    2.0821   -0.0003 C   0  0  0  0  0  0  0  0  0  1  0  0
    1.0528    3.3299   -0.0006 C   0  0  0  0  0  0  0  0  0  2  0  0
    2.4376    3.4720    0.0000 C   0  0  0  0  0  0  0  0  0  3  0  0
    3.2282    2.3065    0.0009 C   0  0  0  0  0  0  0  0  0  4  0  0
    2.6056    1.0614    0.0011 C   0  0  0  0  0  0  0  0  0  5  0  0
    1.2234    0.9340    0.0005 C   0  0  0  0  0  0  0  0  0  6  0  0
    0.6543   -0.3682    0.0008 N   0  0  0  0  0  0  0  0  0  7  0  0
   -0.7392   -0.6407    0.0003 C   0  0  0  0  0  0  0  0  0  8  0  0
   -1.5832    0.2626   -0.0005 O   0  0  0  0  0  0  0  0  0  9  0  0
   -1.1686   -1.9683    0.0006 N   0  0  0  0  0  0  0  0  0 10  0  0
   -2.5714   -2.2676    0.0001 C   0  0  0  0  0  0  0  0  0 11  0  0
    4.9740    2.2674    0.0017 Cl  0  0  0  0  0  0  0  0  0 12  0  0
    2.8955    4.8515   -0.0004 O   0  0  0  0  0  0  0  0  0 13  0  0
    4.2952    5.1288    0.0002 C   0  0  0  0  0  0  0  0  0 14  0  0
 13 14  1  0
  3 13  1  0
  4 12  1  0
 10 11  1  0
  8 10  1  0
  8  9  2  0
  7  8  1  0
  6  7  1  0
  6  1  4  0
  5  6  4  0
  4  5  4  0
  3  4  4  0
  2  3  4  0
  1  2  4  0
M  END
> <Name>
3-(3-Chloro-4-methoxylphenyl)-1-methylurea

> <CAS RN>
020782-57-4

> <Log Koc>
1.84

> <VP-0>
8.68244

> <nAromBond>
6

> <MAXDP>
4.00686

> <nHBAcc>
3

> <Splitting>
2

$$$$
3-(3-Chlorophenyl)-1-methylurea
  SciTegic01221512053D

 12 12  0  0  0  0            999 V2000
    2.6010    3.6158   -0.0004 C   0  0  0  0  0  0  0  0  0  1  0  0
    3.3690    2.4575   -0.0006 C   0  0  0  0  0  0  0  0  0  2  0  0
    2.7504    1.2125   -0.0007 C   0  0  0  0  0  0  0  0  0  3  0  0
    1.3629    1.1161   -0.0005 C   0  0  0  0  0  0  0  0  0  4  0  0
    0.5988    2.2793   -0.0003 C   0  0  0  0  0  0  0  0  0  5  0  0
    1.2142    3.5259   -0.0002 C   0  0  0  0  0  0  0  0  0  6  0  0
    0.7701   -0.1758   -0.0005 N   0  0  0  0  0  0  0  0  0  7  0  0
   -0.6281   -0.4242   -0.0004 C   0  0  0  0  0  0  0  0  0  8  0  0
   -1.4567    0.4933   -0.0002 O   0  0  0  0  0  0  0  0  0  9  0  0
   -1.0801   -1.7442   -0.0004 N   0  0  0  0  0  0  0  0  0 10  0  0
   -2.4879   -2.0194   -0.0003 C   0  0  0  0  0  0  0  0  0 11  0  0
    5.0935    2.5648   -0.0008 Cl  0  0  0  0  0  0  0  0  0 12  0  0
  2 12  1  0
 10 11  1  0
  8 10  1  0
  8  9  2  0
  7  8  1  0
  4  7  1  0
  6  1  4  0
  5  6  4  0
  4  5  4  0
  3  4  4  0
  2  3  4  0
  1  2  4  0
M  END
> <Name>
3-(3-Chlorophenyl)-1-methylurea

> <CAS RN>
020940-42-5

> <Log Koc>
1.93

> <VP-0>
7.35154

> <nAromBond>
6

> <MAXDP>
3.88364

> <nHBAcc>
3

> <Splitting>
2

$$$$
Metribuzin
  SciTegic01221512053D

 14 14  0  0  0  0            999 V2000
    0.5618   -0.4646   -1.4811 N   0  0  0  0  0  0  0  0  0  1  0  0
    1.7987   -0.6936   -1.6185 N   0  0  0  0  0  0  0  0  0  2  0  0
    2.5908   -0.9413   -0.5803 C   0  0  0  0  0  0  0  0  0  3  0  0
    2.0848   -0.9462    0.6513 N   0  0  0  0  0  0  0  0  0  4  0  0
    0.7935   -0.7091    0.8300 C   0  0  0  0  0  0  0  0  0  5  0  0
    0.3308   -0.7146    1.9775 O   0  0  0  0  0  0  0  0  0  6  0  0
   -0.0048   -0.4589   -0.2822 C   0  0  0  0  0  0  0  0  0  7  0  0
   -1.4946   -0.1777   -0.1748 C   0  0  0  0  0  0  0  0  0  8  0  0
   -1.7280    1.0757    0.6959 C   0  0  0  0  0  0  0  0  0  9  0  0
   -2.2056   -1.3560    0.5264 C   0  0  0  0  0  0  0  0  0 10  0  0
   -2.0910    0.0386   -1.5772 C   0  0  0  0  0  0  0  0  0 11  0  0
    2.8468   -1.1768    1.7118 N   0  0  0  0  0  0  0  0  0 12  0  0
    4.3258   -1.2525   -0.8976 S   0  0  0  0  0  0  0  0  0 13  0  0
    5.0364   -2.4989    0.2162 C   0  0  0  0  0  0  0  0  0 14  0  0
 13 14  1  0
  3 13  1  0
  4 12  1  0
  8 11  1  0
  8 10  1  0
  8  9  1  0
  7  8  1  0
  7  1  4  0
  5  7  4  0
  5  6  2  0
  4  5  4  0
  3  4  4  0
  2  3  4  0
  1  2  4  0
M  END
> <Name>
Metribuzin

> <CAS RN>
021087-64-9

> <Log Koc>
1.85

> <VP-0>
9.55198

> <nAromBond>
0

> <MAXDP>
4.76465

> <nHBAcc>
5

> <Splitting>
2

$$$$
Leptophos
  SciTegic01221512053D

 20 21  0  0  0  0            999 V2000
   -1.2238    1.2076    2.2788 Cl  0  0  0  0  0  0  0  0  0  1  0  0
    0.3205    1.8179    2.7278 C   0  0  0  0  0  0  0  0  0  2  0  0
    1.5559    1.2366    2.3845 C   0  0  0  0  0  0  0  0  0  3  0  0
    1.8358    0.0260    1.5886 O   0  0  0  0  0  0  0  0  0  4  0  0
    0.8100   -0.9361    0.8234 P   0  0  1  0  0  0  0  0  0  5  0  0
    1.7701   -2.2954    0.4371 S   0  0  0  0  0  0  0  0  0  6  0  0
   -0.3708   -1.5738    1.7567 C   0  0  0  0  0  0  0  0  0  7  0  0
   -1.5948   -1.9275    1.1977 C   0  0  0  0  0  0  0  0  0  8  0  0
   -2.5905   -2.4818    1.9938 C   0  0  0  0  0  0  0  0  0  9  0  0
   -2.3622   -2.6887    3.3494 C   0  0  0  0  0  0  0  0  0 10  0  0
   -1.1368   -2.3443    3.9081 C   0  0  0  0  0  0  0  0  0 11  0  0
   -0.1415   -1.7901    3.1118 C   0  0  0  0  0  0  0  0  0 12  0  0
    0.3411   -0.4166   -0.6097 O   0  0  0  0  0  0  0  0  0 13  0  0
   -0.3408    0.8356   -0.6484 C   0  0  0  0  0  0  0  0  0 14  0  0
    2.7155    1.8538    2.8481 C   0  0  0  0  0  0  0  0  0 15  0  0
    2.6820    3.0073    3.6194 C   0  0  0  0  0  0  0  0  0 16  0  0
    1.4622    3.5733    3.9483 C   0  0  0  0  0  0  0  0  0 17  0  0
    0.2938    2.9744    3.5021 C   0  0  0  0  0  0  0  0  0 18  0  0
    1.3901    5.1523    5.0035 Br  0  0  0  0  0  0  0  0  0 19  0  0
    4.1519    3.7321    4.1656 Cl  0  0  0  0  0  0  0  0  0 20  0  0
 16 20  1  0
 17 19  1  0
 18  2  4  0
 17 18  4  0
 16 17  4  0
 15 16  4  0
  3 15  4  0
 13 14  1  0
  5 13  1  0
 12  7  4  0
 11 12  4  0
 10 11  4  0
  9 10  4  0
  8  9  4  0
  7  8  4  0
  5  7  1  0
  5  6  2  0
  4  5  1  0
  3  4  1  0
  2  3  4  0
  1  2  1  0
M  END
> <Name>
Leptophos

> <CAS RN>
021609-90-5

> <Log Koc>
4.24

> <VP-0>
15.1561

> <nAromBond>
12

> <MAXDP>
3.08738

> <nHBAcc>
1

> <Splitting>
2

$$$$
Cyanazine
  SciTegic01221512053D

 16 16  0  0  0  0            999 V2000
   -0.9369    0.7045   -0.0535 N   0  0  0  0  0  0  0  0  0  1  0  0
   -0.1249    1.7431    0.1043 C   0  0  0  0  0  0  0  0  0  2  0  0
    1.1816    1.5347    0.1436 N   0  0  0  0  0  0  0  0  0  3  0  0
    1.6878    0.3198    0.0259 C   0  0  0  0  0  0  0  0  0  4  0  0
    0.8741   -0.7145   -0.1419 N   0  0  0  0  0  0  0  0  0  5  0  0
   -0.4387   -0.5204   -0.1782 C   0  0  0  0  0  0  0  0  0  6  0  0
   -1.5006   -1.8658   -0.4048 Cl  0  0  0  0  0  0  0  0  0  7  0  0
    3.0856    0.1739    0.0622 N   0  0  0  0  0  0  0  0  0  8  0  0
    3.7330   -1.0975   -0.1056 C   0  0  0  0  0  0  0  0  0  9  0  0
    3.3637   -2.0574    1.0408 C   0  0  0  0  0  0  0  0  0 10  0  0
   -0.6808    3.0538    0.2072 N   0  0  0  0  0  0  0  0  0 11  0  0
    0.0370    4.3434    0.0182 C   0  0  0  0  0  0  0  0  0 12  0  0
    1.5819    4.2756   -0.0815 C   0  0  0  0  0  0  0  0  0 13  0  0
   -0.3368    5.2984    1.1627 C   0  0  0  0  0  0  0  0  0 14  0  0
   -0.4581    4.9158   -1.2273 C   0  0  0  0  0  0  0  0  0 15  0  0
   -0.8492    5.3674   -2.2105 N   0  0  0  0  0  0  0  0  0 16  0  0
 15 16  3  0
 12 15  1  0
 12 14  1  0
 12 13  1  0
 11 12  1  0
  2 11  1  0
  9 10  1  0
  8  9  1  0
  4  8  1  0
  6  7  1  0
  6  1  4  0
  5  6  4  0
  4  5  4  0
  3  4  4  0
  2  3  4  0
  1  2  4  0
M  END
> <Name>
Cyanazine

> <CAS RN>
021725-46-2

> <Log Koc>
2.28

> <VP-0>
10.1299

> <nAromBond>
6

> <MAXDP>
2.90824

> <nHBAcc>
6

> <Splitting>
2

$$$$
3-(3-Chloro-4-methylphenyl)-1-methylurea
  SciTegic01221512053D

 13 13  0  0  0  0            999 V2000
    2.6787    1.1401   -0.0015 C   0  0  0  0  0  0  0  0  0  1  0  0
    1.2925    1.0277   -0.0007 C   0  0  0  0  0  0  0  0  0  2  0  0
    0.5148    2.1820    0.0000 C   0  0  0  0  0  0  0  0  0  3  0  0
    1.1155    3.4356   -0.0001 C   0  0  0  0  0  0  0  0  0  4  0  0
    2.5011    3.5411   -0.0009 C   0  0  0  0  0  0  0  0  0  5  0  0
    3.2829    2.3921   -0.0016 C   0  0  0  0  0  0  0  0  0  6  0  0
    5.0060    2.5197   -0.0026 Cl  0  0  0  0  0  0  0  0  0  7  0  0
    3.1521    4.8932   -0.0010 C   0  0  0  0  0  0  0  0  0  8  0  0
    0.7148   -0.2708   -0.0006 N   0  0  0  0  0  0  0  0  0  9  0  0
   -0.6804   -0.5356    0.0002 C   0  0  0  0  0  0  0  0  0 10  0  0
   -1.5197    0.3722    0.0009 O   0  0  0  0  0  0  0  0  0 11  0  0
   -1.1171   -1.8608    0.0002 N   0  0  0  0  0  0  0  0  0 12  0  0
   -2.5216   -2.1524    0.0011 C   0  0  0  0  0  0  0  0  0 13  0  0
 12 13  1  0
 10 12  1  0
 10 11  2  0
  9 10  1  0
  2  9  1  0
  5  8  1  0
  6  7  1  0
  6  1  4  0
  5  6  4  0
  4  5  4  0
  3  4  4  0
  2  3  4  0
  1  2  4  0
M  END
> <Name>
3-(3-Chloro-4-methylphenyl)-1-methylurea

> <CAS RN>
022175-22-0

> <Log Koc>
2.1

> <VP-0>
8.27419

> <nAromBond>
6

> <MAXDP>
3.96857

> <nHBAcc>
3

> <Splitting>
2

$$$$
Fenamiphos
  SciTegic01221512053D

 19 19  0  0  0  0            999 V2000
   -3.2352   -1.4995    1.8817 C   0  0  0  0  0  0  0  0  0  1  0  0
   -2.1646   -0.9245    0.9377 C   0  0  0  0  0  0  0  0  0  2  0  0
   -1.1283   -2.0225    0.6286 C   0  0  0  0  0  0  0  0  0  3  0  0
   -1.5542    0.2761    1.5781 N   0  0  0  0  0  0  0  0  0  4  0  0
   -0.4756    1.0251    0.6315 P   0  0  2  0  0  0  0  0  0  5  0  0
   -0.9859    1.1149   -0.6495 O   0  0  0  0  0  0  0  0  0  6  0  0
    0.8967    0.2612    0.5635 O   0  0  0  0  0  0  0  0  0  7  0  0
    1.7192    0.4709    1.7484 C   0  0  0  0  0  0  0  0  0  8  0  0
    1.1203   -0.1513    3.0276 C   0  0  0  0  0  0  0  0  0  9  0  0
   -0.1794    2.4603    1.2002 O   0  0  0  0  0  0  0  0  0 10  0  0
   -1.3128    3.3103    1.2748 C   0  0  0  0  0  0  0  0  0 11  0  0
   -2.5659    2.9063    0.8301 C   0  0  0  0  0  0  0  0  0 12  0  0
   -3.6601    3.7591    0.9291 C   0  0  0  0  0  0  0  0  0 13  0  0
   -3.5050    5.0220    1.4809 C   0  0  0  0  0  0  0  0  0 14  0  0
   -2.2530    5.4356    1.9254 C   0  0  0  0  0  0  0  0  0 15  0  0
   -1.1609    4.5827    1.8193 C   0  0  0  0  0  0  0  0  0 16  0  0
   -4.9018    6.0993    1.6260 S   0  0  0  0  0  0  0  0  0 17  0  0
   -4.4923    7.4714    2.7311 C   0  0  0  0  0  0  0  0  0 18  0  0
   -5.0065    3.3071    0.4471 C   0  0  0  0  0  0  0  0  0 19  0  0
 13 19  1  0
 17 18  1  0
 14 17  1  0
 16 11  4  0
 15 16  4  0
 14 15  4  0
 13 14  4  0
 12 13  4  0
 11 12  4  0
 10 11  1  0
  5 10  1  0
  8  9  1  0
  7  8  1  0
  5  7  1  0
  5  6  2  0
  4  5  1  0
  2  4  1  0
  2  3  1  0
  1  2  1  0
M  END
> <Name>
Fenamiphos

> <CAS RN>
022224-92-6

> <Log Koc>
2.52

> <VP-0>
13.1371

> <nAromBond>
6

> <MAXDP>
5.63999

> <nHBAcc>
3

> <Splitting>
1

$$$$
Bendiocarb
  SciTegic01221512053D

 16 17  0  0  0  0            999 V2000
    2.2871    0.6182    0.2094 C   0  0  0  0  0  0  0  0  0  1  0  0
    3.6605    0.5088    0.4289 C   0  0  0  0  0  0  0  0  0  2  0  0
    4.5130    1.6103    0.3329 C   0  0  0  0  0  0  0  0  0  3  0  0
    4.0133    2.8683    0.0111 C   0  0  0  0  0  0  0  0  0  4  0  0
    2.6492    2.9700   -0.2055 C   0  0  0  0  0  0  0  0  0  5  0  0
    1.8083    1.8887   -0.1119 C   0  0  0  0  0  0  0  0  0  6  0  0
    0.5635    2.2940   -0.3716 O   0  0  0  0  0  0  0  0  0  7  0  0
    0.5739    3.7069   -0.6507 C   0  0  0  0  0  0  0  0  0  8  0  0
    1.9593    4.0654   -0.5224 O   0  0  0  0  0  0  0  0  0  9  0  0
   -0.2909    4.4739    0.3644 C   0  0  0  0  0  0  0  0  0 10  0  0
    0.0599    3.9900   -2.0727 C   0  0  0  0  0  0  0  0  0 11  0  0
    1.5109   -0.5975    0.3391 O   0  0  0  0  0  0  0  0  0 12  0  0
    0.1003   -0.6195    0.1403 C   0  0  0  0  0  0  0  0  0 13  0  0
   -0.5601    0.3767   -0.1527 O   0  0  0  0  0  0  0  0  0 14  0  0
   -0.5679   -1.8355    0.2856 N   0  0  0  0  0  0  0  0  0 15  0  0
   -1.9879   -1.9000    0.0938 C   0  0  0  0  0  0  0  0  0 16  0  0
 15 16  1  0
 13 15  1  0
 13 14  2  0
 12 13  1  0
  1 12  1  0
  8 11  1  0
  8 10  1  0
  9  5  1  0
  8  9  1  0
  7  8  1  0
  6  7  1  0
  6  1  4  0
  5  6  4  0
  4  5  4  0
  3  4  4  0
  2  3  4  0
  1  2  4  0
M  END
> <Name>
Bendiocarb

> <CAS RN>
022781-23-3

> <Log Koc>
2.75

> <VP-0>
9.36504

> <nAromBond>
6

> <MAXDP>
4.11271

> <nHBAcc>
2

> <Splitting>
2

$$$$
Pirimicarb(=Pirimor)
  SciTegic01221512053D

 17 17  0  0  0  0            999 V2000
    0.4873    3.9946    1.3481 C   0  0  0  0  0  0  0  0  0  1  0  0
   -0.9064    3.9346    1.1299 N   0  0  0  0  0  0  0  0  0  2  0  0
   -1.6624    5.1088    1.4573 C   0  0  0  0  0  0  0  0  0  3  0  0
   -1.6528    2.7817    0.6667 C   0  0  0  0  0  0  0  0  0  4  0  0
   -2.8763    2.9517    0.6233 O   0  0  0  0  0  0  0  0  0  5  0  0
   -1.2138    1.4405    0.2432 O   0  0  0  0  0  0  0  0  0  6  0  0
    0.1178    0.9167    0.0244 C   0  0  0  0  0  0  0  0  0  7  0  0
    1.2516    1.6134    0.0592 N   0  0  0  0  0  0  0  0  0  8  0  0
    2.4293    1.0288   -0.1767 C   0  0  0  0  0  0  0  0  0  9  0  0
    2.5089   -0.2687   -0.4496 N   0  0  0  0  0  0  0  0  0 10  0  0
    1.4222   -1.0215   -0.5022 C   0  0  0  0  0  0  0  0  0 11  0  0
    0.1871   -0.4387   -0.2689 C   0  0  0  0  0  0  0  0  0 12  0  0
   -1.0707   -1.2611   -0.3259 C   0  0  0  0  0  0  0  0  0 13  0  0
    1.5337   -2.4869   -0.8157 C   0  0  0  0  0  0  0  0  0 14  0  0
    3.6298    1.7645   -0.1597 N   0  0  0  0  0  0  0  0  0 15  0  0
    4.8713    1.0879   -0.4008 C   0  0  0  0  0  0  0  0  0 16  0  0
    3.6353    3.1769    0.0521 C   0  0  0  0  0  0  0  0  0 17  0  0
 15 17  1  0
 15 16  1  0
  9 15  1  0
 11 14  1  0
 12 13  1  0
 12  7  4  0
 11 12  4  0
 10 11  4  0
  9 10  4  0
  8  9  4  0
  7  8  4  0
  6  7  1  0
  4  6  1  0
  4  5  2  0
  2  4  1  0
  2  3  1  0
  1  2  1  0
M  END
> <Name>
Pirimicarb(=Pirimor)

> <CAS RN>
023103-98-2

> <Log Koc>
2.13

> <VP-0>
11.1053

> <nAromBond>
6

> <MAXDP>
4.48659

> <nHBAcc>
5

> <Splitting>
2

$$$$
Oxamyl
  SciTegic01221512053D

 14 13  0  0  0  0            999 V2000
    3.6701    2.5457    0.3051 C   0  0  0  0  0  0  0  0  0  1  0  0
    2.6853    3.5968    0.2324 N   0  0  0  0  0  0  0  0  0  2  0  0
    3.1352    4.9529    0.3570 C   0  0  0  0  0  0  0  0  0  3  0  0
    1.2755    3.3650    0.0493 C   0  0  0  0  0  0  0  0  0  4  0  0
    0.5528    4.3652    0.0115 O   0  0  0  0  0  0  0  0  0  5  0  0
    0.6368    1.9956   -0.1181 C   0  0  0  0  0  0  0  0  0  6  0  0
    1.3924    0.9533   -0.1910 N   0  0  0  0  0  0  0  0  0  7  0  0
    1.1044   -0.3975   -0.3025 O   0  0  0  0  0  0  0  0  0  8  0  0
   -0.1118   -0.9462    0.1851 C   0  0  0  0  0  0  0  0  0  9  0  0
   -0.9228   -0.2889    0.8399 O   0  0  0  0  0  0  0  0  0 10  0  0
   -0.3576   -2.3056   -0.0098 N   0  0  0  0  0  0  0  0  0 11  0  0
   -1.5411   -2.9047    0.5359 C   0  0  0  0  0  0  0  0  0 12  0  0
   -1.1507    1.9153   -0.3410 S   0  0  0  0  0  0  0  0  0 13  0  0
   -2.0374    3.2017    0.5827 C   0  0  0  0  0  0  0  0  0 14  0  0
 13 14  1  0
  6 13  1  0
 11 12  1  0
  9 11  1  0
  9 10  2  0
  8  9  1  0
  7  8  1  0
  6  7  2  0
  4  6  1  0
  4  5  2  0
  2  4  1  0
  2  3  1  0
  1  2  1  0
M  END
> <Name>
Oxamyl

> <CAS RN>
023135-22-0

> <Log Koc>
1

> <VP-0>
9.34392

> <nAromBond>
0

> <MAXDP>
4.41158

> <nHBAcc>
4

> <Splitting>
1

$$$$
Butachlor
  SciTegic01221512053D

 21 21  0  0  0  0            999 V2000
    1.0587   -1.0944    3.2451 C   0  0  0  0  0  0  0  0  0  1  0  0
    2.3197   -0.7360    3.6902 C   0  0  0  0  0  0  0  0  0  2  0  0
    3.0978    0.1010    2.9079 C   0  0  0  0  0  0  0  0  0  3  0  0
    2.6298    0.5845    1.6912 C   0  0  0  0  0  0  0  0  0  4  0  0
    1.3466    0.2322    1.2308 C   0  0  0  0  0  0  0  0  0  5  0  0
    0.5690   -0.6220    2.0313 C   0  0  0  0  0  0  0  0  0  6  0  0
   -0.8166   -1.0951    1.6134 C   0  0  0  0  0  0  0  0  0  7  0  0
   -1.4537   -1.9598    2.7214 C   0  0  0  0  0  0  0  0  0  8  0  0
    0.8355    0.7437   -0.0826 N   0  0  0  0  0  0  0  0  0  9  0  0
    1.4879    0.3921   -1.3567 C   0  0  0  0  0  0  0  0  0 10  0  0
    2.1181   -0.8885   -1.3192 O   0  0  0  0  0  0  0  0  0 11  0  0
    1.1323   -1.8951   -1.5637 C   0  0  0  0  0  0  0  0  0 12  0  0
    1.7839   -3.2834   -1.5388 C   0  0  0  0  0  0  0  0  0 13  0  0
    0.7160   -4.3498   -1.8508 C   0  0  0  0  0  0  0  0  0 14  0  0
   -0.4085   -4.2884   -0.7992 C   0  0  0  0  0  0  0  0  0 15  0  0
   -0.2823    1.6464   -0.2001 C   0  0  0  0  0  0  0  0  0 16  0  0
   -0.6298    2.0035   -1.3312 O   0  0  0  0  0  0  0  0  0 17  0  0
   -0.9729    2.2705    0.9903 C   0  0  0  0  0  0  0  0  0 18  0  0
   -2.3491    3.2209    0.4197 Cl  0  0  0  0  0  0  0  0  0 19  0  0
    3.5569    1.5140    0.9178 C   0  0  0  0  0  0  0  0  0 20  0  0
    4.9228    1.6366    1.6280 C   0  0  0  0  0  0  0  0  0 21  0  0
 20 21  1  0
  4 20  1  0
 18 19  1  0
 16 18  1  0
 16 17  2  0
  9 16  1  0
 14 15  1  0
 13 14  1  0
 12 13  1  0
 11 12  1  0
 10 11  1  0
  9 10  1  0
  5  9  1  0
  7  8  1  0
  6  7  1  0
  6  1  4  0
  5  6  4  0
  4  5  4  0
  3  4  4  0
  2  3  4  0
  1  2  4  0
M  END
> <Name>
Butachlor

> <CAS RN>
023184-66-9

> <Log Koc>
3.08

> <VP-0>
14.0794

> <nAromBond>
6

> <MAXDP>
5.39929

> <nHBAcc>
3

> <Splitting>
2

$$$$
Thiophanate-methyl
  SciTegic01221512053D

 22 22  0  0  0  0            999 V2000
    5.2468    3.5545    0.0266 C   0  0  0  0  0  0  0  0  0  1  0  0
    4.6705    2.2948    0.1333 C   0  0  0  0  0  0  0  0  0  2  0  0
    3.2884    2.1490    0.1821 C   0  0  0  0  0  0  0  0  0  3  0  0
    2.4702    3.2830    0.1399 C   0  0  0  0  0  0  0  0  0  4  0  0
    3.0555    4.5407    0.0350 C   0  0  0  0  0  0  0  0  0  5  0  0
    4.4365    4.6805   -0.0261 C   0  0  0  0  0  0  0  0  0  6  0  0
    1.0551    3.1195    0.2289 N   0  0  0  0  0  0  0  0  0  7  0  0
    0.0412    4.1137    0.1312 C   0  0  0  0  0  0  0  0  0  8  0  0
    0.3508    5.6250   -0.1467 S   0  0  0  0  0  0  0  0  0  9  0  0
   -1.2922    3.6725    0.2604 N   0  0  0  0  0  0  0  0  0 10  0  0
   -2.4035    4.5221    0.1360 C   0  0  0  0  0  0  0  0  0 11  0  0
   -2.2632    5.7270   -0.1000 O   0  0  0  0  0  0  0  0  0 12  0  0
   -3.6838    3.9892    0.2777 O   0  0  0  0  0  0  0  0  0 13  0  0
   -4.6610    5.0191    0.1104 C   0  0  0  0  0  0  0  0  0 14  0  0
    2.7569    0.8248    0.2990 N   0  0  0  0  0  0  0  0  0 15  0  0
    1.5241    0.4042   -0.2630 C   0  0  0  0  0  0  0  0  0 16  0  0
    0.9505    1.1136   -1.5387 S   0  0  0  0  0  0  0  0  0 17  0  0
    0.8448   -0.6845    0.3138 N   0  0  0  0  0  0  0  0  0 18  0  0
   -0.4506   -1.0613   -0.0944 C   0  0  0  0  0  0  0  0  0 19  0  0
   -1.0444   -0.4396   -0.9827 O   0  0  0  0  0  0  0  0  0 20  0  0
   -1.0817   -2.1325    0.5309 O   0  0  0  0  0  0  0  0  0 21  0  0
   -2.3868   -2.3146   -0.0272 C   0  0  0  0  0  0  0  0  0 22  0  0
 21 22  1  0
 19 21  1  0
 19 20  2  0
 18 19  1  0
 16 18  1  0
 16 17  2  0
 15 16  1  0
  3 15  1  0
 13 14  1  0
 11 13  1  0
 11 12  2  0
 10 11  1  0
  8 10  1  0
  8  9  2  0
  7  8  1  0
  4  7  1  0
  6  1  4  0
  5  6  4  0
  4  5  4  0
  3  4  4  0
  2  3  4  0
  1  2  4  0
M  END
> <Name>
Thiophanate-methyl

> <CAS RN>
023564-05-8

> <Log Koc>
3.25

> <VP-0>
13.3919

> <nAromBond>
6

> <MAXDP>
4.18938

> <nHBAcc>
8

> <Splitting>
2

$$$$
Pronamide
  SciTegic01221512053D

 16 16  0  0  0  0            999 V2000
    3.9740    0.0214    0.0035 C   0  0  0  0  0  0  0  0  0  1  0  0
    3.1676   -1.1102    0.0431 C   0  0  0  0  0  0  0  0  0  2  0  0
    1.7862   -0.9742    0.0636 C   0  0  0  0  0  0  0  0  0  3  0  0
    1.2115    0.2901    0.0426 C   0  0  0  0  0  0  0  0  0  4  0  0
    2.0136    1.4240    0.0010 C   0  0  0  0  0  0  0  0  0  5  0  0
    3.3974    1.2872   -0.0160 C   0  0  0  0  0  0  0  0  0  6  0  0
    4.4023    2.6903   -0.0647 Cl  0  0  0  0  0  0  0  0  0  7  0  0
   -0.2295    0.4010    0.0476 C   0  0  0  0  0  0  0  0  0  8  0  0
   -0.7492    1.5201   -0.0308 O   0  0  0  0  0  0  0  0  0  9  0  0
   -0.9244   -0.7480    0.1115 N   0  0  0  0  0  0  0  0  0 10  0  0
   -2.3754   -0.9417    0.0875 C   0  0  0  0  0  0  0  0  0 11  0  0
   -3.2340    0.3332    0.2642 C   0  0  0  0  0  0  0  0  0 12  0  0
   -2.7431   -1.9487    1.1912 C   0  0  0  0  0  0  0  0  0 13  0  0
   -2.6855   -1.5587   -1.1966 C   0  0  0  0  0  0  0  0  0 14  0  0
   -2.9419   -2.0689   -2.2582 C   0  0  0  0  0  0  0  0  0 15  0  0
    3.8760   -2.6852    0.0605 Cl  0  0  0  0  0  0  0  0  0 16  0  0
  2 16  1  0
 14 15  3  0
 11 14  1  0
 11 13  1  0
 11 12  1  0
 10 11  1  0
  8 10  1  0
  8  9  2  0
  4  8  1  0
  6  7  1  0
  6  1  4  0
  5  6  4  0
  4  5  4  0
  3  4  4  0
  2  3  4  0
  1  2  4  0
M  END
> <Name>
Pronamide

> <CAS RN>
023950-58-5

> <Log Koc>
2.31

> <VP-0>
10.4854

> <nAromBond>
6

> <MAXDP>
4.95332

> <nHBAcc>
2

> <Splitting>
1

$$$$
Piperophos
  SciTegic01221512053D

 22 22  0  0  0  0            999 V2000
   -1.0579    3.6745   -1.5890 C   0  0  0  0  0  0  0  0  0  1  0  0
    0.2971    3.3692   -0.8936 C   0  0  0  0  0  0  0  0  0  2  0  0
    0.3495    1.9169   -0.3712 C   0  0  1  0  0  0  0  0  0  3  0  0
    1.3152    1.7367    0.1188 H   0  0  0  0  0  0  0  0  0  4  0  0
   -0.7749    1.6791    0.6976 C   0  0  0  0  0  0  0  0  0  5  0  0
    0.2095    1.0164   -1.5397 N   0  0  0  0  0  0  0  0  0  6  0  0
   -0.3369    1.5325   -2.7974 C   0  0  0  0  0  0  0  0  0  7  0  0
   -1.4977    2.5194   -2.5337 C   0  0  0  0  0  0  0  0  0  8  0  0
    0.6450   -0.3393   -1.5163 C   0  0  0  0  0  0  0  0  0  9  0  0
    0.5094   -1.0215   -2.5379 O   0  0  0  0  0  0  0  0  0 10  0  0
    1.2832   -0.9682   -0.3006 C   0  0  0  0  0  0  0  0  0 11  0  0
    1.3186   -2.7773   -0.4584 S   0  0  0  0  0  0  0  0  0 12  0  0
   -0.4834   -3.5112   -0.3762 P   0  0  0  0  0  0  0  0  0 13  0  0
   -1.3518   -2.8605   -1.6983 S   0  0  0  0  0  0  0  0  0 14  0  0
   -1.1752   -3.0625    0.9716 O   0  0  0  0  0  0  0  0  0 15  0  0
   -0.3751   -3.1038    2.2173 C   0  0  0  0  0  0  0  0  0 16  0  0
    0.0098   -4.5075    2.7911 C   0  0  0  0  0  0  0  0  0 17  0  0
    1.2089   -5.1530    2.0638 C   0  0  0  0  0  0  0  0  0 18  0  0
   -0.4112   -5.0867   -0.5179 O   0  0  0  0  0  0  0  0  0 19  0  0
   -1.6313   -5.8932   -0.2333 C   0  0  0  0  0  0  0  0  0 20  0  0
   -2.9000   -5.6498   -1.1090 C   0  0  0  0  0  0  0  0  0 21  0  0
   -3.7651   -4.4849   -0.5704 C   0  0  0  0  0  0  0  0  0 22  0  0
 21 22  1  0
 20 21  1  0
 19 20  1  0
 13 19  1  0
 17 18  1  0
 16 17  1  0
 15 16  1  0
 13 15  1  0
 13 14  2  0
 12 13  1  0
 11 12  1  0
  9 11  1  0
  9 10  2  0
  6  9  1  0
  8  1  1  0
  7  8  1  0
  6  7  1  0
  3  6  1  0
  3  5  1  0
  3  4  1  0
  2  3  1  0
  1  2  1  0
M  END
> <Name>
Piperophos

> <CAS RN>
024151-93-7

> <Log Koc>
3.44

> <VP-0>
15.9044

> <nAromBond>
0

> <MAXDP>
5.52792

> <nHBAcc>
4

> <Splitting>
1

$$$$
Bentazon
  SciTegic01221512053D

 16 17  0  0  0  0            999 V2000
   -2.4110    2.1146   -1.2318 C   0  0  0  0  0  0  0  0  0  1  0  0
   -2.8721    0.9699   -0.5961 C   0  0  0  0  0  0  0  0  0  2  0  0
   -1.9743    0.1331    0.0550 C   0  0  0  0  0  0  0  0  0  3  0  0
   -0.6144    0.4255    0.0793 C   0  0  0  0  0  0  0  0  0  4  0  0
   -0.1537    1.5770   -0.5610 C   0  0  0  0  0  0  0  0  0  5  0  0
   -1.0547    2.4135   -1.2117 C   0  0  0  0  0  0  0  0  0  6  0  0
    1.1871    1.9297   -0.5769 N   0  0  0  0  0  0  0  0  0  7  0  0
    2.3538    0.9672    0.1485 S   0  0  0  0  0  0  0  0  0  8  0  0
    3.0981    1.7979    1.1781 O   0  0  0  0  0  0  0  0  0  9  0  0
    3.3210    0.4970   -0.9228 O   0  0  0  0  0  0  0  0  0 10  0  0
    1.5993   -0.3674    0.8963 N   0  0  0  0  0  0  0  0  0 11  0  0
    0.2675   -0.5244    0.8008 C   0  0  0  0  0  0  0  0  0 12  0  0
   -0.2698   -1.5083    1.3231 O   0  0  0  0  0  0  0  0  0 13  0  0
    2.4020   -1.3601    1.6344 C   0  0  0  0  0  0  0  0  0 14  0  0
    1.9842   -1.4368    3.1246 C   0  0  0  0  0  0  0  0  0 15  0  0
    3.9165   -1.0887    1.5490 C   0  0  0  0  0  0  0  0  0 16  0  0
 14 16  1  0
 14 15  1  0
 11 14  1  0
 12 13  2  0
 12  4  1  0
 11 12  1  0
  8 11  1  0
  8 10  2  0
  8  9  2  0
  7  8  1  0
  5  7  1  0
  6  1  4  0
  5  6  4  0
  4  5  4  0
  3  4  4  0
  2  3  4  0
  1  2  4  0
M  END
> <Name>
Bentazon

> <CAS RN>
025057-89-0

> <Log Koc>
1.52

> <VP-0>
9.1707

> <nAromBond>
6

> <MAXDP>
5.01762

> <nHBAcc>
5

> <Splitting>
2

$$$$
3-Chloro-4-methoxyphenylurea
  SciTegic01221512053D

 13 13  0  0  0  0            999 V2000
    1.2886    0.7554    0.0003 C   0  0  0  0  0  0  0  0  0  1  0  0
    0.4634    1.8758    0.0004 C   0  0  0  0  0  0  0  0  0  2  0  0
    1.0109    3.1534   -0.0001 C   0  0  0  0  0  0  0  0  0  3  0  0
    2.3904    3.3215   -0.0008 C   0  0  0  0  0  0  0  0  0  4  0  0
    3.2187    2.2035   -0.0009 C   0  0  0  0  0  0  0  0  0  5  0  0
    2.6685    0.9267   -0.0004 C   0  0  0  0  0  0  0  0  0  6  0  0
    2.9267    4.6203   -0.0013 O   0  0  0  0  0  0  0  0  0  7  0  0
    4.3617    4.5932   -0.0019 C   0  0  0  0  0  0  0  0  0  8  0  0
   -0.0247    4.5356    0.0000 Cl  0  0  0  0  0  0  0  0  0  9  0  0
    0.7658   -0.5665    0.0008 N   0  0  0  0  0  0  0  0  0 10  0  0
   -0.6176   -0.8896    0.0015 C   0  0  0  0  0  0  0  0  0 11  0  0
   -1.4941   -0.0177    0.0016 O   0  0  0  0  0  0  0  0  0 12  0  0
   -0.9987   -2.2324    0.0020 N   0  0  0  0  0  0  0  0  0 13  0  0
 11 13  1  0
 11 12  2  0
 10 11  1  0
  1 10  1  0
  3  9  1  0
  7  8  1  0
  4  7  1  0
  6  1  4  0
  5  6  4  0
  4  5  4  0
  3  4  4  0
  2  3  4  0
  1  2  4  0
M  END
> <Name>
3-Chloro-4-methoxyphenylurea

> <CAS RN>
025277-05-8

> <Log Koc>
2

> <VP-0>
7.75979

> <nAromBond>
6

> <MAXDP>
3.52769

> <nHBAcc>
3

> <Splitting>
1

$$$$
Isofenphos
  SciTegic01221512053D

 22 22  0  0  0  0            999 V2000
    2.1548    0.3550   -1.3578 S   0  0  0  0  0  0  0  0  0  1  0  0
    1.1110    0.6519   -0.0328 P   0  0  2  0  0  0  0  0  0  2  0  0
    1.9376    1.3190    1.1354 O   0  0  0  0  0  0  0  0  0  3  0  0
    2.5439    2.5756    0.8284 C   0  0  0  0  0  0  0  0  0  4  0  0
    3.2933    3.2213    1.8086 C   0  0  0  0  0  0  0  0  0  5  0  0
    3.4616    2.6232    3.1355 C   0  0  0  0  0  0  0  0  0  6  0  0
    2.9280    1.5382    3.3972 O   0  0  0  0  0  0  0  0  0  7  0  0
    4.2081    3.3208    4.1056 O   0  0  0  0  0  0  0  0  0  8  0  0
    4.3090    2.6120    5.3595 C   0  0  0  0  0  0  0  0  0  9  0  0
    5.1942    1.3483    5.2045 C   0  0  0  0  0  0  0  0  0 10  0  0
    4.9704    3.5360    6.3972 C   0  0  0  0  0  0  0  0  0 11  0  0
    3.8901    4.4477    1.5392 C   0  0  0  0  0  0  0  0  0 12  0  0
    3.7426    5.0386    0.2904 C   0  0  0  0  0  0  0  0  0 13  0  0
    2.9940    4.4007   -0.6905 C   0  0  0  0  0  0  0  0  0 14  0  0
    2.3976    3.1752   -0.4194 C   0  0  0  0  0  0  0  0  0 15  0  0
    0.5934   -0.7824    0.4871 N   0  0  0  0  0  0  0  0  0 16  0  0
    0.2413   -1.7288   -0.6221 C   0  0  0  0  0  0  0  0  0 17  0  0
   -0.9276   -1.2348   -1.5012 C   0  0  0  0  0  0  0  0  0 18  0  0
   -0.1399   -3.0907   -0.0160 C   0  0  0  0  0  0  0  0  0 19  0  0
   -0.1126    1.5609   -0.4817 O   0  0  0  0  0  0  0  0  0 20  0  0
   -1.1769    1.6840    0.5267 C   0  0  0  0  0  0  0  0  0 21  0  0
   -0.7714    2.4999    1.7703 C   0  0  0  0  0  0  0  0  0 22  0  0
 21 22  1  0
 20 21  1  0
  2 20  1  0
 17 19  1  0
 17 18  1  0
 16 17  1  0
  2 16  1  0
 15  4  4  0
 14 15  4  0
 13 14  4  0
 12 13  4  0
  5 12  4  0
  9 11  1  0
  9 10  1  0
  8  9  1  0
  6  8  1  0
  6  7  2  0
  5  6  1  0
  4  5  4  0
  3  4  1  0
  2  3  1  0
  1  2  2  0
M  END
> <Name>
Isofenphos

> <CAS RN>
025311-71-1

> <Log Koc>
2.76

> <VP-0>
15.3706

> <nAromBond>
6

> <MAXDP>
5.21882

> <nHBAcc>
4

> <Splitting>
2

$$$$
Iprobenfos
  SciTegic01221512053D

 18 18  0  0  0  0            999 V2000
   -2.5764    2.6667   -1.9743 C   0  0  0  0  0  0  0  0  0  1  0  0
   -2.4774    4.0356   -2.1918 C   0  0  0  0  0  0  0  0  0  2  0  0
   -1.2282    4.6468   -2.2174 C   0  0  0  0  0  0  0  0  0  3  0  0
   -0.0808    3.8890   -2.0227 C   0  0  0  0  0  0  0  0  0  4  0  0
   -0.1792    2.5188   -1.7993 C   0  0  0  0  0  0  0  0  0  5  0  0
   -1.4262    1.9088   -1.7789 C   0  0  0  0  0  0  0  0  0  6  0  0
    1.0737    1.7188   -1.5860 C   0  0  0  0  0  0  0  0  0  7  0  0
    0.7292    0.0585   -0.9170 S   0  0  0  0  0  0  0  0  0  8  0  0
   -0.0004    0.1517    0.8873 P   0  0  0  0  0  0  0  0  0  9  0  0
   -1.2268    0.7789    0.8313 O   0  0  0  0  0  0  0  0  0 10  0  0
    0.9619    1.0327    1.7749 O   0  0  0  0  0  0  0  0  0 11  0  0
    2.3765    0.6987    1.6399 C   0  0  0  0  0  0  0  0  0 12  0  0
    2.7153   -0.7282    2.1151 C   0  0  0  0  0  0  0  0  0 13  0  0
    3.2052    1.7056    2.4558 C   0  0  0  0  0  0  0  0  0 14  0  0
   -0.1700   -1.3320    1.4431 O   0  0  0  0  0  0  0  0  0 15  0  0
   -1.0265   -1.4961    2.6346 C   0  0  0  0  0  0  0  0  0 16  0  0
   -2.5285   -1.2910    2.3330 C   0  0  0  0  0  0  0  0  0 17  0  0
   -0.5913   -0.6303    3.8356 C   0  0  0  0  0  0  0  0  0 18  0  0
 16 18  1  0
 16 17  1  0
 15 16  1  0
  9 15  1  0
 12 14  1  0
 12 13  1  0
 11 12  1  0
  9 11  1  0
  9 10  2  0
  8  9  1  0
  7  8  1  0
  5  7  1  0
  6  1  4  0
  5  6  4  0
  4  5  4  0
  3  4  4  0
  2  3  4  0
  1  2  4  0
M  END
> <Name>
Iprobenfos

> <CAS RN>
026087-47-8

> <Log Koc>
2.4

> <VP-0>
12.3692

> <nAromBond>
6

> <MAXDP>
5.78101

> <nHBAcc>
3

> <Splitting>
2

$$$$
Ethofumesate
  SciTegic01221512053D

 20 21  0  0  0  0            999 V2000
   -0.6253    0.2174    1.2917 C   0  0  0  0  0  0  0  0  0  1  0  0
   -1.7124   -0.2816    1.9908 C   0  0  0  0  0  0  0  0  0  2  0  0
   -1.5111   -1.4368    2.7457 C   0  0  0  0  0  0  0  0  0  3  0  0
   -0.2642   -2.0703    2.7960 C   0  0  0  0  0  0  0  0  0  4  0  0
    0.8200   -1.5495    2.0906 C   0  0  0  0  0  0  0  0  0  5  0  0
    0.6005   -0.4045    1.3422 C   0  0  0  0  0  0  0  0  0  6  0  0
    1.5550    0.3913    0.5749 C   0  0  0  0  0  0  0  0  0  7  0  0
    0.5096    1.0656   -0.4247 C   0  0  1  0  0  0  0  0  0  8  0  0
    0.1495    0.2880   -1.1123 H   0  0  0  0  0  0  0  0  0  9  0  0
   -0.5821    1.3098    0.4615 O   0  0  0  0  0  0  0  0  0 10  0  0
    0.9305    2.2406   -1.1938 O   0  0  0  0  0  0  0  0  0 11  0  0
    1.9189    1.9754   -2.2051 C   0  0  0  0  0  0  0  0  0 12  0  0
    2.2841    3.2887   -2.9186 C   0  0  0  0  0  0  0  0  0 13  0  0
    2.0454    1.4798    1.5530 C   0  0  0  0  0  0  0  0  0 14  0  0
    2.7874   -0.3732    0.0225 C   0  0  0  0  0  0  0  0  0 15  0  0
   -0.0736   -3.2330    3.5646 O   0  0  0  0  0  0  0  0  0 16  0  0
   -1.4912   -3.7376    4.3829 S   0  0  0  0  0  0  0  0  0 17  0  0
   -2.5897   -4.0587    3.3857 O   0  0  0  0  0  0  0  0  0 18  0  0
   -1.9589   -2.6557    5.3397 O   0  0  0  0  0  0  0  0  0 19  0  0
   -1.1126   -5.2297    5.3336 C   0  0  0  0  0  0  0  0  0 20  0  0
 17 20  1  0
 17 19  2  0
 17 18  2  0
 16 17  1  0
  4 16  1  0
  7 15  1  0
  7 14  1  0
 12 13  1  0
 11 12  1  0
  8 11  1  0
 10  1  1  0
  8 10  1  0
  8  9  1  0
  7  8  1  0
  6  7  1  0
  6  1  4  0
  5  6  4  0
  4  5  4  0
  3  4  4  0
  2  3  4  0
  1  2  4  0
M  END
> <Name>
Ethofumesate

> <CAS RN>
026225-79-6

> <Log Koc>
2.05

> <VP-0>
11.6697

> <nAromBond>
6

> <MAXDP>
4.299

> <nHBAcc>
3

> <Splitting>
2

$$$$
Secbumeton
  SciTegic01221512053D

 17 17  0  0  0  0            999 V2000
   -1.1405    3.0268   -0.5065 N   0  0  0  0  0  0  0  0  0  1  0  0
   -0.5316    1.8521   -0.4116 C   0  0  0  0  0  0  0  0  0  2  0  0
    0.7932    1.7897   -0.4237 N   0  0  0  0  0  0  0  0  0  3  0  0
    1.5099    2.9003   -0.5298 C   0  0  0  0  0  0  0  0  0  4  0  0
    0.9000    4.0746   -0.6258 N   0  0  0  0  0  0  0  0  0  5  0  0
   -0.4248    4.1387   -0.6143 C   0  0  0  0  0  0  0  0  0  6  0  0
   -1.0595    5.3763   -0.7153 O   0  0  0  0  0  0  0  0  0  7  0  0
   -2.4797    5.2027   -0.6817 C   0  0  0  0  0  0  0  0  0  8  0  0
    2.9074    2.8266   -0.5414 N   0  0  0  0  0  0  0  0  0  9  0  0
    3.7028    4.0220   -0.6117 C   0  0  0  0  0  0  0  0  0 10  0  0
    3.7455    4.7044    0.7715 C   0  0  0  0  0  0  0  0  0 11  0  0
   -1.2904    0.6829   -0.2953 N   0  0  0  0  0  0  0  0  0 12  0  0
   -0.6474   -0.5999   -0.2054 C   0  0  1  0  0  0  0  0  0 13  0  0
    0.4289   -0.4720   -0.0273 H   0  0  0  0  0  0  0  0  0 14  0  0
   -1.2780   -1.4151    0.9398 C   0  0  0  0  0  0  0  0  0 15  0  0
   -1.0777   -0.6761    2.2765 C   0  0  0  0  0  0  0  0  0 16  0  0
   -0.8630   -1.3610   -1.5254 C   0  0  0  0  0  0  0  0  0 17  0  0
 13 17  1  0
 15 16  1  0
 13 15  1  0
 13 14  1  0
 12 13  1  0
  2 12  1  0
 10 11  1  0
  9 10  1  0
  4  9  1  0
  7  8  1  0
  6  7  1  0
  6  1  4  0
  5  6  4  0
  4  5  4  0
  3  4  4  0
  2  3  4  0
  1  2  4  0
M  END
> <Name>
Secbumeton

> <CAS RN>
026259-45-0

> <Log Koc>
2.78

> <VP-0>
10.2415

> <nAromBond>
6

> <MAXDP>
1.51483

> <nHBAcc>
5

> <Splitting>
2

$$$$
Chlornidine
  SciTegic01221512053D

 20 20  0  0  0  0            999 V2000
   -1.2235    0.6871   -0.8729 C   0  0  0  0  0  0  0  0  0  1  0  0
   -0.4380    1.7031   -0.3448 C   0  0  0  0  0  0  0  0  0  2  0  0
    0.8421    1.4092    0.1617 C   0  0  0  0  0  0  0  0  0  3  0  0
    1.2891    0.0838    0.1320 C   0  0  0  0  0  0  0  0  0  4  0  0
    0.4855   -0.9189   -0.4032 C   0  0  0  0  0  0  0  0  0  5  0  0
   -0.7686   -0.6208   -0.9083 C   0  0  0  0  0  0  0  0  0  6  0  0
   -1.6330   -1.7056   -1.4813 C   0  0  0  0  0  0  0  0  0  7  0  0
    2.5471   -0.3188    0.6263 N   0  0  0  0  0  0  0  0  0  8  0  0
    2.9022   -1.5897    0.5128 O   0  0  0  0  0  0  0  0  0  9  0  0
    3.3607    0.5194    1.2240 O   0  0  0  0  0  0  0  0  0 10  0  0
    1.6691    2.4485    0.7054 N   0  0  0  0  0  0  0  0  0 11  0  0
    2.2899    3.4403   -0.2015 C   0  0  0  0  0  0  0  0  0 12  0  0
    3.2886    2.8162   -1.2060 C   0  0  0  0  0  0  0  0  0 13  0  0
    4.7385    2.2706   -0.3506 Cl  0  0  0  0  0  0  0  0  0 14  0  0
    1.5300    2.7541    2.1397 C   0  0  0  0  0  0  0  0  0 15  0  0
    2.1972    4.0962    2.5661 C   0  0  0  0  0  0  0  0  0 16  0  0
    3.9667    4.0142    2.4701 Cl  0  0  0  0  0  0  0  0  0 17  0  0
   -1.0313    3.0016   -0.3452 N   0  0  0  0  0  0  0  0  0 18  0  0
   -0.4782    4.0491    0.2253 O   0  0  0  0  0  0  0  0  0 19  0  0
   -2.2342    3.1406   -0.8792 O   0  0  0  0  0  0  0  0  0 20  0  0
 18 20  1  0
 18 19  1  0
  2 18  1  0
 16 17  1  0
 15 16  1  0
 11 15  1  0
 13 14  1  0
 12 13  1  0
 11 12  1  0
  3 11  1  0
  8 10  1  0
  8  9  1  0
  4  8  1  0
  6  7  1  0
  6  1  4  0
  5  6  4  0
  4  5  4  0
  3  4  4  0
  2  3  4  0
  1  2  4  0
M  END
> <Name>
Chlornidine

> <CAS RN>
026389-78-6

> <Log Koc>
3.94

> <VP-0>
11.9288

> <nAromBond>
6

> <MAXDP>
4.2385

> <nHBAcc>
1

> <Splitting>
2

$$$$
Profluralin
  SciTegic01221512053D

 24 25  0  0  0  0            999 V2000
   -0.9168    1.6892   -0.4673 C   0  0  0  0  0  0  0  0  0  1  0  0
   -0.0827    2.7702   -0.2942 C   0  0  0  0  0  0  0  0  0  2  0  0
    1.2404    2.5351    0.0027 C   0  0  0  0  0  0  0  0  0  3  0  0
    1.7405    1.2477    0.1554 C   0  0  0  0  0  0  0  0  0  4  0  0
    0.8905    0.1127    0.0288 C   0  0  0  0  0  0  0  0  0  5  0  0
   -0.4621    0.3847   -0.3239 C   0  0  0  0  0  0  0  0  0  6  0  0
   -1.5211   -0.5451   -0.5981 N   0  0  0  0  0  0  0  0  0  7  0  0
   -2.7649   -0.0953   -0.5178 O   0  0  0  0  0  0  0  0  0  8  0  0
   -1.3399   -1.6505   -1.3078 O   0  0  0  0  0  0  0  0  0  9  0  0
    1.3912   -1.3350    0.3173 N   0  0  0  0  0  0  0  0  0 10  0  0
    0.4862   -2.4556    0.4884 C   0  0  0  0  0  0  0  0  0 11  0  0
    0.1745   -2.7244    1.9939 C   0  0  0  0  0  0  0  0  0 12  0  0
   -1.1220   -3.5236    2.1326 C   0  0  0  0  0  0  0  0  0 13  0  0
   -1.0941   -1.9963    2.4461 C   0  0  0  0  0  0  0  0  0 14  0  0
    2.7129   -1.6156    0.8284 C   0  0  0  0  0  0  0  0  0 15  0  0
    3.2601   -2.9814    0.3320 C   0  0  0  0  0  0  0  0  0 16  0  0
    4.6651   -3.2095    0.9192 C   0  0  0  0  0  0  0  0  0 17  0  0
    3.1516    1.2966    0.4238 N   0  0  0  0  0  0  0  0  0 18  0  0
    4.0239    0.4952   -0.1736 O   0  0  0  0  0  0  0  0  0 19  0  0
    3.6402    2.4303    0.9056 O   0  0  0  0  0  0  0  0  0 20  0  0
   -0.5962    4.1666   -0.4504 C   0  0  0  0  0  0  0  0  0 21  0  0
    0.4483    5.0599   -0.5687 F   0  0  0  0  0  0  0  0  0 22  0  0
   -1.3404    4.4765    0.6684 F   0  0  0  0  0  0  0  0  0 23  0  0
   -1.4516    4.2259   -1.5305 F   0  0  0  0  0  0  0  0  0 24  0  0
 21 24  1  0
 21 23  1  0
 21 22  1  0
  2 21  1  0
 18 20  1  0
 18 19  1  0
  4 18  1  0
 16 17  1  0
 15 16  1  0
 10 15  1  0
 14 12  1  0
 13 14  1  0
 12 13  1  0
 11 12  1  0
 10 11  1  0
  5 10  1  0
  7  9  1  0
  7  8  1  0
  6  7  1  0
  6  1  4  0
  5  6  4  0
  4  5  4  0
  3  4  4  0
  2  3  4  0
  1  2  4  0
M  END
> <Name>
Profluralin

> <CAS RN>
026399-36-0

> <Log Koc>
4.01

> <VP-0>
12.5794

> <nAromBond>
6

> <MAXDP>
4.91689

> <nHBAcc>
1

> <Splitting>
2

$$$$
Triforine
  SciTegic01221512053D

 24 24  0  0  0  0            999 V2000
   -3.3250    3.1739    0.9887 N   0  0  0  0  0  0  0  0  0  1  0  0
   -2.5694    2.7322    2.2092 C   0  0  0  0  0  0  0  0  0  2  0  0
   -1.0592    2.4327    1.9228 C   0  0  0  0  0  0  0  0  0  3  0  0
   -0.6107    3.2421    0.8024 N   0  0  0  0  0  0  0  0  0  4  0  0
   -1.2945    2.6906   -0.4224 C   0  0  0  0  0  0  0  0  0  5  0  0
   -2.7920    2.3508   -0.1335 C   0  0  0  0  0  0  0  0  0  6  0  0
    0.8900    3.2448    0.5714 C   0  0  1  0  0  0  0  0  0  7  0  0
    1.2203    2.2167    0.3684 H   0  0  0  0  0  0  0  0  0  8  0  0
    1.2027    4.0706   -0.6063 N   0  0  0  0  0  0  0  0  0  9  0  0
    0.6436    5.3523   -0.8607 C   0  0  0  0  0  0  0  0  0 10  0  0
   -0.1755    5.8551   -0.0844 O   0  0  0  0  0  0  0  0  0 11  0  0
    1.7543    3.8024    1.7957 C   0  0  0  0  0  0  0  0  0 12  0  0
    1.3087    5.4659    2.2020 Cl  0  0  0  0  0  0  0  0  0 13  0  0
    3.4511    3.7728    1.3081 Cl  0  0  0  0  0  0  0  0  0 14  0  0
    1.6242    2.8272    3.2757 Cl  0  0  0  0  0  0  0  0  0 15  0  0
   -3.2847    4.6936    0.6805 C   0  0  1  0  0  0  0  0  0 16  0  0
   -2.2550    5.0171    0.5091 H   0  0  0  0  0  0  0  0  0 17  0  0
   -4.0642    4.9700   -0.5341 N   0  0  0  0  0  0  0  0  0 18  0  0
   -5.3316    4.3977   -0.8148 C   0  0  0  0  0  0  0  0  0 19  0  0
   -5.8559    3.6001   -0.0294 O   0  0  0  0  0  0  0  0  0 20  0  0
   -3.8649    5.6163    1.8431 C   0  0  0  0  0  0  0  0  0 21  0  0
   -2.9332    5.5286    3.3522 Cl  0  0  0  0  0  0  0  0  0 22  0  0
   -5.5483    5.2184    2.2127 Cl  0  0  0  0  0  0  0  0  0 23  0  0
   -3.7856    7.2892    1.2849 Cl  0  0  0  0  0  0  0  0  0 24  0  0
 21 24  1  0
 21 23  1  0
 21 22  1  0
 16 21  1  0
 19 20  2  0
 18 19  1  0
 16 18  1  0
 16 17  1  0
  1 16  1  0
 12 15  1  0
 12 14  1  0
 12 13  1  0
  7 12  1  0
 10 11  2  0
  9 10  1  0
  7  9  1  0
  7  8  1  0
  4  7  1  0
  6  1  1  0
  5  6  1  0
  4  5  1  0
  3  4  1  0
  2  3  1  0
  1  2  1  0
M  END
> <Name>
Triforine

> <CAS RN>
026644-46-2

> <Log Koc>
2.8

> <VP-0>
15.6521

> <nAromBond>
0

> <MAXDP>
3.9675

> <nHBAcc>
6

> <Splitting>
1

$$$$
Norflurazon
  SciTegic01221512053D

 20 21  0  0  0  0            999 V2000
   -1.3455    2.9258    1.4639 N   0  0  0  0  0  0  0  0  0  1  0  0
   -1.3057    1.7661    0.9456 N   0  0  0  0  0  0  0  0  0  2  0  0
   -2.3488    0.9317    1.0473 C   0  0  0  0  0  0  0  0  0  3  0  0
   -2.3417   -0.2016    0.5548 O   0  0  0  0  0  0  0  0  0  4  0  0
   -3.4895    1.3358    1.7270 C   0  0  0  0  0  0  0  0  0  5  0  0
   -3.5162    2.6007    2.2850 C   0  0  0  0  0  0  0  0  0  6  0  0
   -2.3933    3.3969    2.1314 C   0  0  0  0  0  0  0  0  0  7  0  0
   -4.6417    3.0554    2.9799 N   0  0  0  0  0  0  0  0  0  8  0  0
   -4.6567    4.3710    3.5552 C   0  0  0  0  0  0  0  0  0  9  0  0
   -4.8486    0.2801    1.8730 Cl  0  0  0  0  0  0  0  0  0 10  0  0
   -0.0926    1.4270    0.2619 C   0  0  0  0  0  0  0  0  0 11  0  0
    0.9193    2.3799    0.2216 C   0  0  0  0  0  0  0  0  0 12  0  0
    2.1189    2.1104   -0.4262 C   0  0  0  0  0  0  0  0  0 13  0  0
    2.3174    0.8809   -1.0417 C   0  0  0  0  0  0  0  0  0 14  0  0
    1.3120   -0.0771   -1.0063 C   0  0  0  0  0  0  0  0  0 15  0  0
    0.1136    0.1967   -0.3572 C   0  0  0  0  0  0  0  0  0 16  0  0
    3.1978    3.1476   -0.4609 C   0  0  0  0  0  0  0  0  0 17  0  0
    4.4241    2.5615   -0.6962 F   0  0  0  0  0  0  0  0  0 18  0  0
    3.1846    3.8790    0.7085 F   0  0  0  0  0  0  0  0  0 19  0  0
    2.9184    4.0160   -1.4949 F   0  0  0  0  0  0  0  0  0 20  0  0
 17 20  1  0
 17 19  1  0
 17 18  1  0
 13 17  1  0
 16 11  4  0
 15 16  4  0
 14 15  4  0
 13 14  4  0
 12 13  4  0
 11 12  4  0
  2 11  1  0
  5 10  1  0
  8  9  1  0
  6  8  1  0
  7  1  4  0
  6  7  4  0
  5  6  4  0
  3  5  4  0
  3  4  2  0
  2  3  4  0
  1  2  4  0
M  END
> <Name>
Norflurazon

> <CAS RN>
027314-13-2

> <Log Koc>
3.28

> <VP-0>
10.9572

> <nAromBond>
6

> <MAXDP>
5.12998

> <nHBAcc>
4

> <Splitting>
2

$$$$
3-(3-Methoxyphenyl)-1,1-dimethylurea
  SciTegic01221512053D

 14 14  0  0  0  0            999 V2000
    2.3475    3.4757    0.4312 C   0  0  0  0  0  0  0  0  0  1  0  0
    1.1964    4.0011    1.1170 N   0  0  0  0  0  0  0  0  0  2  0  0
    1.3462    5.2748    1.7587 C   0  0  0  0  0  0  0  0  0  3  0  0
   -0.0901    3.3288    1.2674 C   0  0  0  0  0  0  0  0  0  4  0  0
   -0.9160    3.9211    1.9708 O   0  0  0  0  0  0  0  0  0  5  0  0
   -0.4737    1.9843    0.8381 N   0  0  0  0  0  0  0  0  0  6  0  0
    0.1313    1.0977   -0.0991 C   0  0  0  0  0  0  0  0  0  7  0  0
    0.5443    1.5343   -1.3552 C   0  0  0  0  0  0  0  0  0  8  0  0
    1.1008    0.6384   -2.2601 C   0  0  0  0  0  0  0  0  0  9  0  0
    1.2370   -0.7017   -1.9169 C   0  0  0  0  0  0  0  0  0 10  0  0
    0.8128   -1.1479   -0.6712 C   0  0  0  0  0  0  0  0  0 11  0  0
    0.2552   -0.2464    0.2318 C   0  0  0  0  0  0  0  0  0 12  0  0
    0.9531   -2.5062   -0.3402 O   0  0  0  0  0  0  0  0  0 13  0  0
    0.4645   -2.7749    0.9828 C   0  0  0  0  0  0  0  0  0 14  0  0
 13 14  1  0
 11 13  1  0
 12  7  4  0
 11 12  4  0
 10 11  4  0
  9 10  4  0
  8  9  4  0
  7  8  4  0
  6  7  1  0
  4  6  1  0
  4  5  2  0
  2  4  1  0
  2  3  1  0
  1  2  1  0
M  END
> <Name>
3-(3-Methoxyphenyl)-1,1-dimethylurea

> <CAS RN>
028170-54-9

> <Log Koc>
1.72

> <VP-0>
8.57311

> <nAromBond>
6

> <MAXDP>
4.28585

> <nHBAcc>
3

> <Splitting>
2

$$$$
Thiobencarb
  SciTegic01221512053D

 16 16  0  0  0  0            999 V2000
   -0.5707    0.0986   -1.1564 C   0  0  0  0  0  0  0  0  0  1  0  0
   -0.3485    0.9811   -0.1017 C   0  0  0  0  0  0  0  0  0  2  0  0
    0.4604    0.6064    0.9601 C   0  0  0  0  0  0  0  0  0  3  0  0
    0.7081    1.5420    2.1103 C   0  0  0  0  0  0  0  0  0  4  0  0
   -0.0112    3.1738    1.8010 S   0  0  0  0  0  0  0  0  0  5  0  0
    0.8878    4.0345    0.5338 C   0  0  0  0  0  0  0  0  0  6  0  0
    1.7458    3.4298   -0.1200 O   0  0  0  0  0  0  0  0  0  7  0  0
    0.6030    5.4094    0.3445 N   0  0  0  0  0  0  0  0  0  8  0  0
    1.2905    6.2736   -0.6318 C   0  0  0  0  0  0  0  0  0  9  0  0
    2.7868    5.9363   -0.8503 C   0  0  0  0  0  0  0  0  0 10  0  0
   -0.4352    5.9711    1.1652 C   0  0  0  0  0  0  0  0  0 11  0  0
    0.0629    7.2568    1.8496 C   0  0  0  0  0  0  0  0  0 12  0  0
    1.0475   -0.6582    0.9743 C   0  0  0  0  0  0  0  0  0 13  0  0
    0.8267   -1.5375   -0.0748 C   0  0  0  0  0  0  0  0  0 14  0  0
    0.0166   -1.1584   -1.1425 C   0  0  0  0  0  0  0  0  0 15  0  0
   -0.2561   -2.2559   -2.4477 Cl  0  0  0  0  0  0  0  0  0 16  0  0
 15 16  1  0
 15  1  4  0
 14 15  4  0
 13 14  4  0
  3 13  4  0
 11 12  1  0
  8 11  1  0
  9 10  1  0
  8  9  1  0
  6  8  1  0
  6  7  2  0
  5  6  1  0
  4  5  1  0
  3  4  1  0
  2  3  4  0
  1  2  4  0
M  END
> <Name>
Thiobencarb

> <CAS RN>
028249-77-6

> <Log Koc>
3.27

> <VP-0>
11.1448

> <nAromBond>
6

> <MAXDP>
4.87423

> <nHBAcc>
2

> <Splitting>
2

$$$$
Dinitramine
  SciTegic01221512053D

 22 22  0  0  0  0            999 V2000
   -0.9642    1.1616    0.1532 C   0  0  0  0  0  0  0  0  0  1  0  0
   -0.1898    2.2865   -0.0933 C   0  0  0  0  0  0  0  0  0  2  0  0
    1.1905    2.1812   -0.1268 C   0  0  0  0  0  0  0  0  0  3  0  0
    1.8099    0.9573    0.0826 C   0  0  0  0  0  0  0  0  0  4  0  0
    1.0375   -0.1859    0.3276 C   0  0  0  0  0  0  0  0  0  5  0  0
   -0.3614   -0.0787    0.3667 C   0  0  0  0  0  0  0  0  0  6  0  0
   -1.2041   -1.2199    0.6214 N   0  0  0  0  0  0  0  0  0  7  0  0
   -2.5197   -1.0856    0.6497 O   0  0  0  0  0  0  0  0  0  8  0  0
   -0.7042   -2.4194    0.8314 O   0  0  0  0  0  0  0  0  0  9  0  0
    1.6755   -1.4448    0.5534 N   0  0  0  0  0  0  0  0  0 10  0  0
    1.9867   -2.3798   -0.5575 C   0  0  0  0  0  0  0  0  0 11  0  0
    1.5311   -1.8631   -1.9453 C   0  0  0  0  0  0  0  0  0 12  0  0
    2.0513   -1.7959    1.9241 C   0  0  0  0  0  0  0  0  0 13  0  0
    2.7456   -3.1741    1.9793 C   0  0  0  0  0  0  0  0  0 14  0  0
    3.2276    0.9434    0.0309 N   0  0  0  0  0  0  0  0  0 15  0  0
    3.9312   -0.1574    0.2024 O   0  0  0  0  0  0  0  0  0 16  0  0
    3.8663    2.0785   -0.2045 O   0  0  0  0  0  0  0  0  0 17  0  0
   -0.8375    3.6211   -0.3229 C   0  0  0  0  0  0  0  0  0 18  0  0
    0.1157    4.5969   -0.5277 F   0  0  0  0  0  0  0  0  0 19  0  0
   -1.6297    3.9301    0.7639 F   0  0  0  0  0  0  0  0  0 20  0  0
   -1.6803    3.5272   -1.4113 F   0  0  0  0  0  0  0  0  0 21  0  0
   -2.3541    1.2952    0.1839 N   0  0  0  0  0  0  0  0  0 22  0  0
  1 22  1  0
 18 21  1  0
 18 20  1  0
 18 19  1  0
  2 18  1  0
 15 17  1  0
 15 16  1  0
  4 15  1  0
 13 14  1  0
 10 13  1  0
 11 12  1  0
 10 11  1  0
  5 10  1  0
  7  9  1  0
  7  8  1  0
  6  7  1  0
  6  1  4  0
  5  6  4  0
  4  5  4  0
  3  4  4  0
  2  3  4  0
  1  2  4  0
M  END
> <Name>
Dinitramine

> <CAS RN>
029091-05-2

> <Log Koc>
3.63

> <VP-0>
11.3807

> <nAromBond>
6

> <MAXDP>
4.89332

> <nHBAcc>
2

> <Splitting>
2

$$$$
Pirimiphos-methyl
  SciTegic01221512053D

 19 19  0  0  0  0            999 V2000
    0.0038    2.4963    3.5555 C   0  0  0  0  0  0  0  0  0  1  0  0
   -0.0219    3.1953    2.2922 O   0  0  0  0  0  0  0  0  0  2  0  0
   -1.2894    2.8065    1.4581 P   0  0  0  0  0  0  0  0  0  3  0  0
   -1.2790    3.6477   -0.0306 S   0  0  0  0  0  0  0  0  0  4  0  0
   -2.5812    3.1997    2.2323 O   0  0  0  0  0  0  0  0  0  5  0  0
   -2.6606    4.6283    2.3723 C   0  0  0  0  0  0  0  0  0  6  0  0
   -1.3077    1.2693    1.1830 O   0  0  0  0  0  0  0  0  0  7  0  0
   -0.1748    0.8659    0.4631 C   0  0  0  0  0  0  0  0  0  8  0  0
    0.7562    1.7465    0.1199 N   0  0  0  0  0  0  0  0  0  9  0  0
    1.8404    1.3812   -0.5566 C   0  0  0  0  0  0  0  0  0 10  0  0
    2.0146    0.1120   -0.9142 N   0  0  0  0  0  0  0  0  0 11  0  0
    1.1217   -0.8187   -0.6016 C   0  0  0  0  0  0  0  0  0 12  0  0
   -0.0160   -0.4651    0.1082 C   0  0  0  0  0  0  0  0  0 13  0  0
    1.3424   -2.2438   -1.0135 C   0  0  0  0  0  0  0  0  0 14  0  0
    2.7882    2.3798   -0.8937 N   0  0  0  0  0  0  0  0  0 15  0  0
    4.0304    2.0695   -1.6036 C   0  0  0  0  0  0  0  0  0 16  0  0
    4.8277    0.9184   -0.9377 C   0  0  0  0  0  0  0  0  0 17  0  0
    2.4703    3.7557   -0.5626 C   0  0  0  0  0  0  0  0  0 18  0  0
    3.5792    4.7266   -1.0273 C   0  0  0  0  0  0  0  0  0 19  0  0
 18 19  1  0
 15 18  1  0
 16 17  1  0
 15 16  1  0
 10 15  1  0
 12 14  1  0
 13  8  4  0
 12 13  4  0
 11 12  4  0
 10 11  4  0
  9 10  4  0
  8  9  4  0
  7  8  1  0
  3  7  1  0
  5  6  1  0
  3  5  1  0
  3  4  2  0
  2  3  1  0
  1  2  1  0
M  END
> <Name>
Pirimiphos-methyl

> <CAS RN>
029232-93-7

> <Log Koc>
3

> <VP-0>
13.6243

> <nAromBond>
6

> <MAXDP>
2.45148

> <nHBAcc>
5

> <Splitting>
2

$$$$
3-Chloro-4-bromonitrobenzene
  SciTegic01221512053D

 11 11  0  0  0  0            999 V2000
   -0.9922    0.7950   -0.1157 C   0  0  0  0  0  0  0  0  0  1  0  0
   -0.2739    1.9688    0.0815 C   0  0  0  0  0  0  0  0  0  2  0  0
    1.1101    1.9246    0.2047 C   0  0  0  0  0  0  0  0  0  3  0  0
    1.7748    0.7059    0.1304 C   0  0  0  0  0  0  0  0  0  4  0  0
    1.0570   -0.4682   -0.0669 C   0  0  0  0  0  0  0  0  0  5  0  0
   -0.3271   -0.4237   -0.1900 C   0  0  0  0  0  0  0  0  0  6  0  0
    3.1620    0.6613    0.2537 N   0  0  0  0  0  0  0  0  0  7  0  0
    3.7955   -0.4994    0.1830 O   0  0  0  0  0  0  0  0  0  8  0  0
    3.8456    1.7798    0.4416 O   0  0  0  0  0  0  0  0  0  9  0  0
   -1.1018    3.4821    0.1736 Cl  0  0  0  0  0  0  0  0  0 10  0  0
   -2.8843    0.8572   -0.2839 Br  0  0  0  0  0  0  0  0  0 11  0  0
  1 11  1  0
  2 10  1  0
  7  9  1  0
  7  8  1  0
  4  7  1  0
  6  1  4  0
  5  6  4  0
  4  5  4  0
  3  4  4  0
  2  3  4  0
  1  2  4  0
M  END
> <Name>
3-Chloro-4-bromonitrobenzene

> <CAS RN>
029682-39-1

> <Log Koc>
2.6

> <VP-0>
7.44526

> <nAromBond>
6

> <MAXDP>
3.30726

> <nHBAcc>
0

> <Splitting>
2

$$$$
Acephate
  SciTegic01221512053D

 10  9  0  0  0  0            999 V2000
   -1.6704   -0.2579    1.5347 C   0  0  0  0  0  0  0  0  0  1  0  0
   -0.7525    0.6772    0.9605 O   0  0  0  0  0  0  0  0  0  2  0  0
    0.1426   -0.0456   -0.0782 P   0  0  2  0  0  0  0  0  0  3  0  0
   -0.6508   -0.6058   -1.0590 O   0  0  0  0  0  0  0  0  0  4  0  0
    1.1617   -1.4362    0.7914 S   0  0  0  0  0  0  0  0  0  5  0  0
    2.2373   -0.7056    2.0526 C   0  0  0  0  0  0  0  0  0  6  0  0
    1.1170    0.9759   -0.7245 N   0  0  0  0  0  0  0  0  0  7  0  0
    1.9493    0.5761   -1.7698 C   0  0  0  0  0  0  0  0  0  8  0  0
    1.9102   -0.5895   -2.1796 O   0  0  0  0  0  0  0  0  0  9  0  0
    2.8940    1.5601   -2.3944 C   0  0  0  0  0  0  0  0  0 10  0  0
  8 10  1  0
  8  9  2  0
  7  8  1  0
  3  7  1  0
  5  6  1  0
  3  5  1  0
  3  4  2  0
  2  3  1  0
  1  2  1  0
M  END
> <Name>
Acephate

> <CAS RN>
030560-19-1

> <Log Koc>
0.39

> <VP-0>
7.12065

> <nAromBond>
0

> <MAXDP>
4.42505

> <nHBAcc>
4

> <Splitting>
1

$$$$
Fenamiphos Sulfoxide
  SciTegic01221512053D

 20 20  0  0  0  0            999 V2000
    0.7759    1.3015   -0.9728 O   0  0  0  0  0  0  0  0  0  1  0  0
   -0.0991    1.4770    0.0814 P   0  0  2  0  0  0  0  0  0  2  0  0
    0.4981    2.5887    1.0274 O   0  0  0  0  0  0  0  0  0  3  0  0
    0.7905    3.8332    0.3942 C   0  0  0  0  0  0  0  0  0  4  0  0
    0.5517    4.0478   -0.9599 C   0  0  0  0  0  0  0  0  0  5  0  0
    0.8415    5.2739   -1.5464 C   0  0  0  0  0  0  0  0  0  6  0  0
    1.3759    6.3027   -0.7732 C   0  0  0  0  0  0  0  0  0  7  0  0
    1.6192    6.0897    0.5786 C   0  0  0  0  0  0  0  0  0  8  0  0
    1.3265    4.8617    1.1600 C   0  0  0  0  0  0  0  0  0  9  0  0
    1.7672    7.8915   -1.4780 S   0  0  0  0  0  0  0  0  0 10  0  0
    2.5525    8.6994   -0.4626 O   0  0  0  0  0  0  0  0  0 11  0  0
    0.2499    8.8022   -1.8952 C   0  0  0  0  0  0  0  0  0 12  0  0
    0.5810    5.4600   -3.0150 C   0  0  0  0  0  0  0  0  0 13  0  0
   -0.1751    0.1260    0.8991 O   0  0  0  0  0  0  0  0  0 14  0  0
   -0.5059   -1.0400    0.0829 C   0  0  0  0  0  0  0  0  0 15  0  0
    0.7078   -1.5546   -0.7254 C   0  0  0  0  0  0  0  0  0 16  0  0
   -1.5732    1.8905   -0.5178 N   0  0  0  0  0  0  0  0  0 17  0  0
   -2.7002    2.1765    0.4724 C   0  0  0  0  0  0  0  0  0 18  0  0
   -2.4598    3.4070    1.3656 C   0  0  0  0  0  0  0  0  0 19  0  0
   -3.1098    0.9690    1.3346 C   0  0  0  0  0  0  0  0  0 20  0  0
 18 20  1  0
 18 19  1  0
 17 18  1  0
  2 17  1  0
 15 16  1  0
 14 15  1  0
  2 14  1  0
  6 13  1  0
 10 12  1  0
 10 11  2  0
  7 10  1  0
  9  4  4  0
  8  9  4  0
  7  8  4  0
  6  7  4  0
  5  6  4  0
  4  5  4  0
  3  4  1  0
  2  3  1  0
  1  2  2  0
M  END
> <Name>
Fenamiphos Sulfoxide

> <CAS RN>
031972-43-7

> <Log Koc>
1.57

> <VP-0>
13.1878

> <nAromBond>
6

> <MAXDP>
5.64337

> <nHBAcc>
4

> <Splitting>
1

$$$$
Fenamiphos Sulfone
  SciTegic01221512053D

 21 21  0  0  0  0            999 V2000
    0.8537   -0.0543   -1.2398 O   0  0  0  0  0  0  0  0  0  1  0  0
    0.8661    0.7839   -0.1407 P   0  0  2  0  0  0  0  0  0  2  0  0
    2.1445    0.4533    0.7201 O   0  0  0  0  0  0  0  0  0  3  0  0
    3.3825    0.5391    0.0180 C   0  0  0  0  0  0  0  0  0  4  0  0
    3.4464    0.9019   -1.3236 C   0  0  0  0  0  0  0  0  0  5  0  0
    4.6676    0.9830   -1.9821 C   0  0  0  0  0  0  0  0  0  6  0  0
    5.8463    0.6985   -1.2924 C   0  0  0  0  0  0  0  0  0  7  0  0
    5.7833    0.3366    0.0484 C   0  0  0  0  0  0  0  0  0  8  0  0
    4.5591    0.2572    0.7011 C   0  0  0  0  0  0  0  0  0  9  0  0
    7.4503    0.7838   -2.0742 S   0  0  0  0  0  0  0  0  0 10  0  0
    8.4618    0.0517   -1.2133 O   0  0  0  0  0  0  0  0  0 11  0  0
    7.4129    0.1706   -3.4618 O   0  0  0  0  0  0  0  0  0 12  0  0
    7.9615    2.5191   -2.2150 C   0  0  0  0  0  0  0  0  0 13  0  0
    4.6800    1.3800   -3.4321 C   0  0  0  0  0  0  0  0  0 14  0  0
   -0.4034    0.4190    0.7067 O   0  0  0  0  0  0  0  0  0 15  0  0
   -1.5526    0.0709   -0.1260 C   0  0  0  0  0  0  0  0  0 16  0  0
   -2.0622    1.2385   -1.0001 C   0  0  0  0  0  0  0  0  0 17  0  0
    0.8431    2.3515   -0.6380 N   0  0  0  0  0  0  0  0  0 18  0  0
    0.8711    3.4326    0.4402 C   0  0  0  0  0  0  0  0  0 19  0  0
    2.1838    3.4902    1.2423 C   0  0  0  0  0  0  0  0  0 20  0  0
   -0.3307    3.3870    1.4028 C   0  0  0  0  0  0  0  0  0 21  0  0
 19 21  1  0
 19 20  1  0
 18 19  1  0
  2 18  1  0
 16 17  1  0
 15 16  1  0
  2 15  1  0
  6 14  1  0
 10 13  1  0
 10 12  2  0
 10 11  2  0
  7 10  1  0
  9  4  4  0
  8  9  4  0
  7  8  4  0
  6  7  4  0
  5  6  4  0
  4  5  4  0
  3  4  1  0
  2  3  1  0
  1  2  2  0
M  END
> <Name>
Fenamiphos Sulfone

> <CAS RN>
031972-44-8

> <Log Koc>
1.64

> <VP-0>
13.3409

> <nAromBond>
6

> <MAXDP>
5.64506

> <nHBAcc>
5

> <Splitting>
2

$$$$
2,4-DB butoxyethyl ester
  SciTegic01221512053D

 22 22  0  0  0  0            999 V2000
    0.1039   -3.1603   -2.3331 C   0  0  0  0  0  0  0  0  0  1  0  0
   -0.7102   -2.2308   -2.9708 C   0  0  0  0  0  0  0  0  0  2  0  0
   -0.4123   -0.8741   -2.8948 C   0  0  0  0  0  0  0  0  0  3  0  0
    0.6989   -0.4446   -2.1801 C   0  0  0  0  0  0  0  0  0  4  0  0
    1.5104   -1.3792   -1.5406 C   0  0  0  0  0  0  0  0  0  5  0  0
    1.2160   -2.7344   -1.6176 C   0  0  0  0  0  0  0  0  0  6  0  0
    0.9844    0.9298   -2.0879 O   0  0  0  0  0  0  0  0  0  7  0  0
    2.1253    1.1033   -1.2534 C   0  0  0  0  0  0  0  0  0  8  0  0
    2.1538    2.5138   -0.6580 C   0  0  0  0  0  0  0  0  0  9  0  0
    3.0506    2.4547    0.6148 C   0  0  0  0  0  0  0  0  0 10  0  0
    2.5596    1.3005    1.5026 C   0  0  0  0  0  0  0  0  0 11  0  0
    3.1707    0.2249    1.4605 O   0  0  0  0  0  0  0  0  0 12  0  0
    1.3944    1.3733    2.3239 O   0  0  0  0  0  0  0  0  0 13  0  0
    0.7746    2.6770    2.4248 C   0  0  0  0  0  0  0  0  0 14  0  0
   -0.6932    2.5174    2.9025 C   0  0  0  0  0  0  0  0  0 15  0  0
   -1.6254    2.4591    1.7736 O   0  0  0  0  0  0  0  0  0 16  0  0
   -1.2883    1.5174    0.7142 C   0  0  0  0  0  0  0  0  0 17  0  0
   -2.0083    0.1354    0.8058 C   0  0  0  0  0  0  0  0  0 18  0  0
   -1.5443   -0.7207    1.9983 C   0  0  0  0  0  0  0  0  0 19  0  0
   -2.2877   -2.0671    1.9676 C   0  0  0  0  0  0  0  0  0 20  0  0
   -1.4333    0.2793   -3.6747 Cl  0  0  0  0  0  0  0  0  0 21  0  0
   -0.2662   -4.8448   -2.4244 Cl  0  0  0  0  0  0  0  0  0 22  0  0
  1 22  1  0
  3 21  1  0
 19 20  1  0
 18 19  1  0
 17 18  1  0
 16 17  1  0
 15 16  1  0
 14 15  1  0
 13 14  1  0
 11 13  1  0
 11 12  2  0
 10 11  1  0
  9 10  1  0
  8  9  1  0
  7  8  1  0
  4  7  1  0
  6  1  4  0
  5  6  4  0
  4  5  4  0
  3  4  4  0
  2  3  4  0
  1  2  4  0
M  END
> <Name>
2,4-DB butoxyethyl ester

> <CAS RN>
032357-46-3

> <Log Koc>
2.7

> <VP-0>
14.2897

> <nAromBond>
6

> <MAXDP>
4.53499

> <nHBAcc>
3

> <Splitting>
2

$$$$
2,3',4',5-Tetrachlorobiphenyl
  SciTegic01221512053D

 16 17  0  0  0  0            999 V2000
    0.4378    1.3868    2.4530 C   0  0  0  0  0  0  0  0  0  1  0  0
    0.0475    1.9030    1.2211 C   0  0  0  0  0  0  0  0  0  2  0  0
   -0.6993    3.0762    1.1898 C   0  0  0  0  0  0  0  0  0  3  0  0
   -1.0513    3.7246    2.3677 C   0  0  0  0  0  0  0  0  0  4  0  0
   -0.6569    3.2016    3.5927 C   0  0  0  0  0  0  0  0  0  5  0  0
    0.0891    2.0305    3.6348 C   0  0  0  0  0  0  0  0  0  6  0  0
   -1.0931    4.0056    5.0583 Cl  0  0  0  0  0  0  0  0  0  7  0  0
   -1.9790    5.1804    2.3085 Cl  0  0  0  0  0  0  0  0  0  8  0  0
    0.4575    1.1583   -0.0158 C   0  0  0  0  0  0  0  0  0  9  0  0
    0.1435    1.5490   -1.3252 C   0  0  0  0  0  0  0  0  0 10  0  0
    0.5805    0.7750   -2.3959 C   0  0  0  0  0  0  0  0  0 11  0  0
    1.3235   -0.3794   -2.1876 C   0  0  0  0  0  0  0  0  0 12  0  0
    1.6355   -0.7681   -0.8930 C   0  0  0  0  0  0  0  0  0 13  0  0
    1.2029   -0.0008    0.1806 C   0  0  0  0  0  0  0  0  0 14  0  0
    2.5590   -2.2017   -0.6169 Cl  0  0  0  0  0  0  0  0  0 15  0  0
   -0.7782    2.9712   -1.7087 Cl  0  0  0  0  0  0  0  0  0 16  0  0
 10 16  1  0
 13 15  1  0
 14  9  4  0
 13 14  4  0
 12 13  4  0
 11 12  4  0
 10 11  4  0
  9 10  4  0
  2  9  1  0
  4  8  1  0
  5  7  1  0
  6  1  4  0
  5  6  4  0
  4  5  4  0
  3  4  4  0
  2  3  4  0
  1  2  4  0
M  END
> <Name>
2,3',4',5-Tetrachlorobiphenyl

> <CAS RN>
032598-11-1

> <Log Koc>
4.85

> <VP-0>
10.9997

> <nAromBond>
13

> <MAXDP>
0.432853

> <nHBAcc>
0

> <Splitting>
2

$$$$
Fluchloralin
  SciTegic01221512053D

 23 23  0  0  0  0            999 V2000
   -1.0473    1.6305   -0.0512 C   0  0  0  0  0  0  0  0  0  1  0  0
   -0.1051    2.6320   -0.2179 C   0  0  0  0  0  0  0  0  0  2  0  0
    1.2401    2.3048   -0.2643 C   0  0  0  0  0  0  0  0  0  3  0  0
    1.6527    0.9828   -0.1451 C   0  0  0  0  0  0  0  0  0  4  0  0
    0.7048   -0.0369    0.0340 C   0  0  0  0  0  0  0  0  0  5  0  0
   -0.6552    0.3040    0.0757 C   0  0  0  0  0  0  0  0  0  6  0  0
   -1.6907   -0.6440    0.2588 N   0  0  0  0  0  0  0  0  0  7  0  0
   -2.9473   -0.2287    0.2215 O   0  0  0  0  0  0  0  0  0  8  0  0
   -1.4486   -1.9095    0.5181 O   0  0  0  0  0  0  0  0  0  9  0  0
    1.1057   -1.4135    0.1544 N   0  0  0  0  0  0  0  0  0 10  0  0
    1.0311   -2.2629   -1.0427 C   0  0  0  0  0  0  0  0  0 11  0  0
    1.2839   -3.7674   -0.7377 C   0  0  0  0  0  0  0  0  0 12  0  0
   -0.0275   -4.4519    0.2455 Cl  0  0  0  0  0  0  0  0  0 13  0  0
    1.7029   -1.9542    1.4015 C   0  0  0  0  0  0  0  0  0 14  0  0
    1.6203   -0.9855    2.6036 C   0  0  0  0  0  0  0  0  0 15  0  0
    2.3131   -1.6275    3.8179 C   0  0  0  0  0  0  0  0  0 16  0  0
    3.0505    0.7513   -0.2274 N   0  0  0  0  0  0  0  0  0 17  0  0
    3.5674   -0.4593   -0.2627 O   0  0  0  0  0  0  0  0  0 18  0  0
    3.8609    1.7929   -0.3306 O   0  0  0  0  0  0  0  0  0 19  0  0
   -0.5400    4.0579   -0.3495 C   0  0  0  0  0  0  0  0  0 20  0  0
    0.5498    4.9004   -0.4224 F   0  0  0  0  0  0  0  0  0 21  0  0
   -1.3502    4.3786    0.7195 F   0  0  0  0  0  0  0  0  0 22  0  0
   -1.3208    4.1754   -1.4801 F   0  0  0  0  0  0  0  0  0 23  0  0
 20 23  1  0
 20 22  1  0
 20 21  1  0
  2 20  1  0
 17 19  1  0
 17 18  1  0
  4 17  1  0
 15 16  1  0
 14 15  1  0
 10 14  1  0
 12 13  1  0
 11 12  1  0
 10 11  1  0
  5 10  1  0
  7  9  1  0
  7  8  1  0
  6  7  1  0
  6  1  4  0
  5  6  4  0
  4  5  4  0
  3  4  4  0
  2  3  4  0
  1  2  4  0
M  END
> <Name>
Fluchloralin

> <CAS RN>
033245-39-5

> <Log Koc>
3.55

> <VP-0>
12.4288

> <nAromBond>
6

> <MAXDP>
4.85137

> <nHBAcc>
1

> <Splitting>
2

$$$$
Butralin
  SciTegic01221512053D

 22 22  0  0  0  0            999 V2000
   -2.4828    2.2262    2.2349 C   0  0  0  0  0  0  0  0  0  1  0  0
   -3.8468    1.9864    2.3004 C   0  0  0  0  0  0  0  0  0  2  0  0
   -4.4208    1.0808    1.4236 C   0  0  0  0  0  0  0  0  0  3  0  0
   -3.6325    0.4095    0.4978 C   0  0  0  0  0  0  0  0  0  4  0  0
   -2.2550    0.6325    0.4355 C   0  0  0  0  0  0  0  0  0  5  0  0
   -1.6772    1.5680    1.3125 C   0  0  0  0  0  0  0  0  0  6  0  0
   -0.3056    1.9447    1.3334 N   0  0  0  0  0  0  0  0  0  7  0  0
    0.1101    2.7445    2.3030 O   0  0  0  0  0  0  0  0  0  8  0  0
    0.5205    1.6860    0.3474 O   0  0  0  0  0  0  0  0  0  9  0  0
   -1.5247   -0.1394   -0.5316 N   0  0  0  0  0  0  0  0  0 10  0  0
   -0.3326   -0.9453   -0.2353 C   0  0  1  0  0  0  0  0  0 11  0  0
    0.1732   -0.5627    0.6603 H   0  0  0  0  0  0  0  0  0 12  0  0
   -0.6987   -2.4406   -0.0052 C   0  0  0  0  0  0  0  0  0 13  0  0
   -1.6122   -2.6304    1.2246 C   0  0  0  0  0  0  0  0  0 14  0  0
    0.6132   -0.8905   -1.4521 C   0  0  0  0  0  0  0  0  0 15  0  0
   -4.2743   -0.5085   -0.3632 N   0  0  0  0  0  0  0  0  0 16  0  0
   -3.6070   -1.1741   -1.2925 O   0  0  0  0  0  0  0  0  0 17  0  0
   -5.5799   -0.6930   -0.2496 O   0  0  0  0  0  0  0  0  0 18  0  0
   -4.6935    2.7110    3.3124 C   0  0  0  0  0  0  0  0  0 19  0  0
   -6.1767    2.3019    3.2043 C   0  0  0  0  0  0  0  0  0 20  0  0
   -4.5285    4.2273    3.1033 C   0  0  0  0  0  0  0  0  0 21  0  0
   -4.1471    2.4065    4.7198 C   0  0  0  0  0  0  0  0  0 22  0  0
 19 22  1  0
 19 21  1  0
 19 20  1  0
  2 19  1  0
 16 18  1  0
 16 17  1  0
  4 16  1  0
 11 15  1  0
 13 14  1  0
 11 13  1  0
 11 12  1  0
 10 11  1  0
  5 10  1  0
  7  9  1  0
  7  8  1  0
  6  7  1  0
  6  1  4  0
  5  6  4  0
  4  5  4  0
  3  4  4  0
  2  3  4  0
  1  2  4  0
M  END
> <Name>
Butralin

> <CAS RN>
033629-47-9

> <Log Koc>
3.95

> <VP-0>
12.6699

> <nAromBond>
6

> <MAXDP>
4.28853

> <nHBAcc>
1

> <Splitting>
2

$$$$
Isopropalin
  SciTegic01221512053D

 22 22  0  0  0  0            999 V2000
   -0.9890    1.7330   -0.1638 C   0  0  0  0  0  0  0  0  0  1  0  0
   -0.0018    2.6908   -0.2572 C   0  0  0  0  0  0  0  0  0  2  0  0
    1.3204    2.2840   -0.2619 C   0  0  0  0  0  0  0  0  0  3  0  0
    1.6616    0.9467   -0.1655 C   0  0  0  0  0  0  0  0  0  4  0  0
    0.6574   -0.0530   -0.0352 C   0  0  0  0  0  0  0  0  0  5  0  0
   -0.6815    0.3797   -0.0500 C   0  0  0  0  0  0  0  0  0  6  0  0
   -1.8540   -0.4270    0.0793 N   0  0  0  0  0  0  0  0  0  7  0  0
   -1.8441   -1.6693    0.4532 O   0  0  0  0  0  0  0  0  0  8  0  0
   -3.0302    0.1639   -0.0762 O   0  0  0  0  0  0  0  0  0  9  0  0
    1.0211   -1.5014    0.1146 N   0  0  0  0  0  0  0  0  0 10  0  0
    0.4782   -2.5031   -0.8251 C   0  0  0  0  0  0  0  0  0 11  0  0
    0.5759   -3.9907   -0.3008 C   0  0  0  0  0  0  0  0  0 12  0  0
   -0.4079   -4.2962    0.8799 C   0  0  0  0  0  0  0  0  0 13  0  0
    2.0399   -1.9731    1.0989 C   0  0  0  0  0  0  0  0  0 14  0  0
    2.1423   -1.1113    2.3776 C   0  0  0  0  0  0  0  0  0 15  0  0
    3.2786   -1.6642    3.2571 C   0  0  0  0  0  0  0  0  0 16  0  0
    3.0640    0.7044   -0.2448 N   0  0  0  0  0  0  0  0  0 17  0  0
    3.5750   -0.4483   -0.6297 O   0  0  0  0  0  0  0  0  0 18  0  0
    3.8791    1.7454   -0.1489 O   0  0  0  0  0  0  0  0  0 19  0  0
   -0.3614    4.1476   -0.3495 C   0  0  0  0  0  0  0  0  0 20  0  0
    0.7407    5.0562    0.2297 C   0  0  0  0  0  0  0  0  0 21  0  0
   -1.7611    4.4368    0.2306 C   0  0  0  0  0  0  0  0  0 22  0  0
 20 22  1  0
 20 21  1  0
  2 20  1  0
 17 19  1  0
 17 18  1  0
  4 17  1  0
 15 16  1  0
 14 15  1  0
 10 14  1  0
 12 13  1  0
 11 12  1  0
 10 11  1  0
  5 10  1  0
  7  9  1  0
  7  8  1  0
  6  7  1  0
  6  1  4  0
  5  6  4  0
  4  5  4  0
  3  4  4  0
  2  3  4  0
  1  2  4  0
M  END
> <Name>
Isopropalin

> <CAS RN>
033820-53-0

> <Log Koc>
4

> <VP-0>
13.2384

> <nAromBond>
6

> <MAXDP>
4.44065

> <nHBAcc>
1

> <Splitting>
2

$$$$
Tebuthiuron
  SciTegic01221512053D

 15 15  0  0  0  0            999 V2000
    0.9507    2.2843   -0.0463 S   0  0  0  0  0  0  0  0  0  1  0  0
    2.3930    3.0129    0.0240 C   0  0  0  0  0  0  0  0  0  2  0  0
    3.3387    2.0899    0.2095 N   0  0  0  0  0  0  0  0  0  3  0  0
    2.8867    0.8906    0.2841 N   0  0  0  0  0  0  0  0  0  4  0  0
    1.5602    0.7992    0.1617 C   0  0  0  0  0  0  0  0  0  5  0  0
    0.8300   -0.3969    0.2084 N   0  0  0  0  0  0  0  0  0  6  0  0
   -0.5660   -0.3983    0.0698 C   0  0  0  0  0  0  0  0  0  7  0  0
   -1.1835    0.6590   -0.0968 O   0  0  0  0  0  0  0  0  0  8  0  0
   -1.2648   -1.6054    0.1205 N   0  0  0  0  0  0  0  0  0  9  0  0
   -2.6929   -1.6133   -0.0208 C   0  0  0  0  0  0  0  0  0 10  0  0
    1.5229   -1.6378    0.4007 C   0  0  0  0  0  0  0  0  0 11  0  0
    2.6282    4.4862   -0.0992 C   0  0  0  0  0  0  0  0  0 12  0  0
    4.1348    4.7986   -0.1452 C   0  0  0  0  0  0  0  0  0 13  0  0
    1.9741    5.1852    1.1060 C   0  0  0  0  0  0  0  0  0 14  0  0
    1.9052    5.0083   -1.3536 C   0  0  0  0  0  0  0  0  0 15  0  0
 12 15  1  0
 12 14  1  0
 12 13  1  0
  2 12  1  0
  6 11  1  0
  9 10  1  0
  7  9  1  0
  7  8  2  0
  6  7  1  0
  5  6  1  0
  5  1  4  0
  4  5  4  0
  3  4  4  0
  2  3  4  0
  1  2  4  0
M  END
> <Name>
Tebuthiuron

> <CAS RN>
034014-18-1

> <Log Koc>
1.83

> <VP-0>
10.4746

> <nAromBond>
5

> <MAXDP>
4.37228

> <nHBAcc>
5

> <Splitting>
2

$$$$
Isoproturon
  SciTegic01221512053D

 15 15  0  0  0  0            999 V2000
    1.2215    0.9777    0.1739 C   0  0  0  0  0  0  0  0  0  1  0  0
    0.4888    2.0878   -0.2355 C   0  0  0  0  0  0  0  0  0  2  0  0
    1.0936    3.3361   -0.3246 C   0  0  0  0  0  0  0  0  0  3  0  0
    2.4382    3.4824   -0.0036 C   0  0  0  0  0  0  0  0  0  4  0  0
    3.1743    2.3763    0.4052 C   0  0  0  0  0  0  0  0  0  5  0  0
    2.5664    1.1291    0.4934 C   0  0  0  0  0  0  0  0  0  6  0  0
    3.0960    4.8346   -0.1005 C   0  0  0  0  0  0  0  0  0  7  0  0
    4.3275    4.9636    0.8171 C   0  0  0  0  0  0  0  0  0  8  0  0
    2.0919    5.9954    0.0386 C   0  0  0  0  0  0  0  0  0  9  0  0
    0.6387   -0.3141    0.2774 N   0  0  0  0  0  0  0  0  0 10  0  0
   -0.7161   -0.6166   -0.0211 C   0  0  0  0  0  0  0  0  0 11  0  0
   -1.5116    0.2479   -0.4058 O   0  0  0  0  0  0  0  0  0 12  0  0
   -1.1624   -1.9300    0.1244 N   0  0  0  0  0  0  0  0  0 13  0  0
   -2.5265   -2.2607   -0.1712 C   0  0  0  0  0  0  0  0  0 14  0  0
   -0.2569   -2.9496    0.5698 C   0  0  0  0  0  0  0  0  0 15  0  0
 13 15  1  0
 13 14  1  0
 11 13  1  0
 11 12  2  0
 10 11  1  0
  1 10  1  0
  7  9  1  0
  7  8  1  0
  4  7  1  0
  6  1  4  0
  5  6  4  0
  4  5  4  0
  3  4  4  0
  2  3  4  0
  1  2  4  0
M  END
> <Name>
Isoproturon

> <CAS RN>
034123-59-6

> <Log Koc>
2.11

> <VP-0>
9.74221

> <nAromBond>
6

> <MAXDP>
4.34584

> <nHBAcc>
3

> <Splitting>
2

$$$$
Acetochlor
  SciTegic01221512053D

 18 18  0  0  0  0            999 V2000
    1.4359    3.6609   -0.3661 C   0  0  0  0  0  0  0  0  0  1  0  0
    2.7937    3.6813   -0.6346 C   0  0  0  0  0  0  0  0  0  2  0  0
    3.5026    2.4918   -0.6199 C   0  0  0  0  0  0  0  0  0  3  0  0
    2.8765    1.2816   -0.3419 C   0  0  0  0  0  0  0  0  0  4  0  0
    1.4958    1.2509   -0.0610 C   0  0  0  0  0  0  0  0  0  5  0  0
    0.7883    2.4653   -0.0818 C   0  0  0  0  0  0  0  0  0  6  0  0
   -0.6900    2.5577    0.2284 C   0  0  0  0  0  0  0  0  0  7  0  0
    0.7886   -0.0005    0.2697 N   0  0  0  0  0  0  0  0  0  8  0  0
   -0.2192   -0.5212   -0.6335 C   0  0  0  0  0  0  0  0  0  9  0  0
   -0.4866    0.1005   -1.6680 O   0  0  0  0  0  0  0  0  0 10  0  0
   -0.8961   -1.8456   -0.3909 C   0  0  0  0  0  0  0  0  0 11  0  0
   -2.0235   -2.1766   -1.7089 Cl  0  0  0  0  0  0  0  0  0 12  0  0
    1.1470   -0.7432    1.5131 C   0  0  0  0  0  0  0  0  0 13  0  0
    0.0134   -1.1012    2.3373 O   0  0  0  0  0  0  0  0  0 14  0  0
   -0.5513    0.0566    2.9805 C   0  0  0  0  0  0  0  0  0 15  0  0
    0.4923    0.7072    3.9137 C   0  0  0  0  0  0  0  0  0 16  0  0
    3.7953    0.0528   -0.3952 C   0  0  0  0  0  0  0  0  0 17  0  0
    3.2464   -1.0634   -1.3157 C   0  0  0  0  0  0  0  0  0 18  0  0
 17 18  1  0
  4 17  1  0
 15 16  1  0
 14 15  1  0
 13 14  1  0
  8 13  1  0
 11 12  1  0
  9 11  1  0
  9 10  2  0
  8  9  1  0
  5  8  1  0
  6  7  1  0
  6  1  4  0
  5  6  4  0
  4  5  4  0
  3  4  4  0
  2  3  4  0
  1  2  4  0
M  END
> <Name>
Acetochlor

> <CAS RN>
034256-82-1

> <Log Koc>
2.22

> <VP-0>
11.9581

> <nAromBond>
6

> <MAXDP>
5.12549

> <nHBAcc>
3

> <Splitting>
1

$$$$
2,4'-Dichlorobiphenyl
  SciTegic01221512053D

 14 15  0  0  0  0            999 V2000
   -1.6377    4.0644    2.5512 C   0  0  0  0  0  0  0  0  0  1  0  0
   -0.8910    3.0790    3.1834 C   0  0  0  0  0  0  0  0  0  2  0  0
   -0.1456    2.1622    2.4485 C   0  0  0  0  0  0  0  0  0  3  0  0
   -0.1480    2.2337    1.0482 C   0  0  0  0  0  0  0  0  0  4  0  0
   -0.9005    3.2260    0.4260 C   0  0  0  0  0  0  0  0  0  5  0  0
   -1.6422    4.1378    1.1658 C   0  0  0  0  0  0  0  0  0  6  0  0
    0.6112    1.3076    0.1426 C   0  0  0  0  0  0  0  0  0  7  0  0
    0.5071    1.5078   -1.2306 C   0  0  0  0  0  0  0  0  0  8  0  0
    1.1858    0.6838   -2.1211 C   0  0  0  0  0  0  0  0  0  9  0  0
    1.9779   -0.3521   -1.6421 C   0  0  0  0  0  0  0  0  0 10  0  0
    2.0882   -0.5601   -0.2729 C   0  0  0  0  0  0  0  0  0 11  0  0
    1.4069    0.2675    0.6120 C   0  0  0  0  0  0  0  0  0 12  0  0
    2.8231   -1.3785   -2.7456 Cl  0  0  0  0  0  0  0  0  0 13  0  0
    0.7486    0.9752    3.3486 Cl  0  0  0  0  0  0  0  0  0 14  0  0
  3 14  1  0
 10 13  1  0
 12  7  4  0
 11 12  4  0
 10 11  4  0
  9 10  4  0
  8  9  4  0
  7  8  4  0
  4  7  1  0
  6  1  4  0
  5  6  4  0
  4  5  4  0
  3  4  4  0
  2  3  4  0
  1  2  4  0
M  END
> <Name>
2,4'-Dichlorobiphenyl

> <CAS RN>
034883-43-7

> <Log Koc>
4.14

> <VP-0>
8.88659

> <nAromBond>
13

> <MAXDP>
0.245415

> <nHBAcc>
0

> <Splitting>
2

$$$$
2,2',4,4',5,5'-Hexachlorobiphenyl
  SciTegic01221512053D

 18 19  0  0  0  0            999 V2000
    0.7208    2.0375    2.3699 C   0  0  0  0  0  0  0  0  0  1  0  0
   -0.0750    2.1263    1.2288 C   0  0  0  0  0  0  0  0  0  2  0  0
   -1.2624    2.8721    1.3081 C   0  0  0  0  0  0  0  0  0  3  0  0
   -1.5991    3.5118    2.4976 C   0  0  0  0  0  0  0  0  0  4  0  0
   -0.7822    3.4286    3.6155 C   0  0  0  0  0  0  0  0  0  5  0  0
    0.3825    2.6814    3.5520 C   0  0  0  0  0  0  0  0  0  6  0  0
    1.4081    2.5539    4.9361 Cl  0  0  0  0  0  0  0  0  0  7  0  0
   -1.2209    4.2369    5.0778 Cl  0  0  0  0  0  0  0  0  0  8  0  0
   -2.4170    3.0080    0.0379 Cl  0  0  0  0  0  0  0  0  0  9  0  0
    0.4656    1.3470    0.0290 C   0  0  0  0  0  0  0  0  0 10  0  0
    0.2523    1.6096   -1.3352 C   0  0  0  0  0  0  0  0  0 11  0  0
    0.8384    0.7908   -2.2959 C   0  0  0  0  0  0  0  0  0 12  0  0
    1.6344   -0.2862   -1.9353 C   0  0  0  0  0  0  0  0  0 13  0  0
    1.8641   -0.5424   -0.5935 C   0  0  0  0  0  0  0  0  0 14  0  0
    1.2857    0.2740    0.3693 C   0  0  0  0  0  0  0  0  0 15  0  0
    2.8625   -1.8707   -0.1219 Cl  0  0  0  0  0  0  0  0  0 16  0  0
    2.3452   -1.2899   -3.1484 Cl  0  0  0  0  0  0  0  0  0 17  0  0
   -0.6428    2.9483   -1.9439 Cl  0  0  0  0  0  0  0  0  0 18  0  0
 11 18  1  0
 13 17  1  0
 14 16  1  0
 15 10  4  0
 14 15  4  0
 13 14  4  0
 12 13  4  0
 11 12  4  0
 10 11  4  0
  2 10  1  0
  3  9  1  0
  5  8  1  0
  6  7  1  0
  6  1  4  0
  5  6  4  0
  4  5  4  0
  3  4  4  0
  2  3  4  0
  1  2  4  0
M  END
> <Name>
2,2',4,4',5,5'-Hexachlorobiphenyl

> <CAS RN>
035065-27-1

> <Log Koc>
5.87

> <VP-0>
13.1128

> <nAromBond>
13

> <MAXDP>
0.533398

> <nHBAcc>
0

> <Splitting>
2

$$$$
Diflubenzuron
  SciTegic01221512053D

 21 22  0  0  0  0            999 V2000
    4.6444    5.8627    0.5684 C   0  0  0  0  0  0  0  0  0  1  0  0
    5.4600    4.7517    0.3987 C   0  0  0  0  0  0  0  0  0  2  0  0
    4.8933    3.4861    0.3276 C   0  0  0  0  0  0  0  0  0  3  0  0
    3.5171    3.3295    0.4227 C   0  0  0  0  0  0  0  0  0  4  0  0
    2.6916    4.4454    0.5921 C   0  0  0  0  0  0  0  0  0  5  0  0
    3.2646    5.7100    0.6659 C   0  0  0  0  0  0  0  0  0  6  0  0
    2.4989    6.7980    0.8279 F   0  0  0  0  0  0  0  0  0  7  0  0
    1.2156    4.2836    0.6978 C   0  0  0  0  0  0  0  0  0  8  0  0
    0.4966    5.2605    0.9366 O   0  0  0  0  0  0  0  0  0  9  0  0
    0.6679    3.0846    0.5285 N   0  0  0  0  0  0  0  0  0 10  0  0
   -0.7119    2.8497    0.6522 C   0  0  0  0  0  0  0  0  0 11  0  0
   -1.4660    3.7665    0.9972 O   0  0  0  0  0  0  0  0  0 12  0  0
   -1.2232    1.5324    0.5397 N   0  0  0  0  0  0  0  0  0 13  0  0
   -0.4453    0.4560    0.0414 C   0  0  0  0  0  0  0  0  0 14  0  0
    0.5987    0.6839   -0.8495 C   0  0  0  0  0  0  0  0  0 15  0  0
    1.3560   -0.3716   -1.3399 C   0  0  0  0  0  0  0  0  0 16  0  0
    1.0682   -1.6697   -0.9400 C   0  0  0  0  0  0  0  0  0 17  0  0
    0.0199   -1.9070   -0.0574 C   0  0  0  0  0  0  0  0  0 18  0  0
   -0.7383   -0.8467    0.4292 C   0  0  0  0  0  0  0  0  0 19  0  0
    2.0134   -2.9834   -1.5431 Cl  0  0  0  0  0  0  0  0  0 20  0  0
    3.0067    2.0997    0.3591 F   0  0  0  0  0  0  0  0  0 21  0  0
  4 21  1  0
 17 20  1  0
 19 14  4  0
 18 19  4  0
 17 18  4  0
 16 17  4  0
 15 16  4  0
 14 15  4  0
 13 14  1  0
 11 13  1  0
 11 12  2  0
 10 11  1  0
  8 10  1  0
  8  9  2  0
  5  8  1  0
  6  7  1  0
  6  1  4  0
  5  6  4  0
  4  5  4  0
  3  4  4  0
  2  3  4  0
  1  2  4  0
M  END
> <Name>
Diflubenzuron

> <CAS RN>
035367-38-5

> <Log Koc>
3.83

> <VP-0>
11.2478

> <nAromBond>
12

> <MAXDP>
5.39461

> <nHBAcc>
4

> <Splitting>
2

$$$$
Sulprofos
  SciTegic01221512053D

 18 18  0  0  0  0            999 V2000
    4.0824    0.7986   -0.8991 C   0  0  0  0  0  0  0  0  0  1  0  0
    4.0954    1.1238    0.5971 C   0  0  0  0  0  0  0  0  0  2  0  0
    2.6876    1.5056    1.1431 C   0  0  0  0  0  0  0  0  0  3  0  0
    1.4880    0.1094    1.2170 S   0  0  0  0  0  0  0  0  0  4  0  0
    0.5047   -0.3826   -0.4248 P   0  0  1  0  0  0  0  0  0  5  0  0
    1.5715   -0.9182   -1.6454 S   0  0  0  0  0  0  0  0  0  6  0  0
   -0.4333   -1.5982   -0.0898 O   0  0  0  0  0  0  0  0  0  7  0  0
   -1.4771   -1.3225    0.8306 C   0  0  0  0  0  0  0  0  0  8  0  0
   -1.6612   -0.0594    1.3861 C   0  0  0  0  0  0  0  0  0  9  0  0
   -2.7039    0.1746    2.2745 C   0  0  0  0  0  0  0  0  0 10  0  0
   -3.5706   -0.8572    2.6143 C   0  0  0  0  0  0  0  0  0 11  0  0
   -3.3907   -2.1213    2.0660 C   0  0  0  0  0  0  0  0  0 12  0  0
   -2.3471   -2.3509    1.1764 C   0  0  0  0  0  0  0  0  0 13  0  0
   -4.9048   -0.5600    3.7393 S   0  0  0  0  0  0  0  0  0 14  0  0
   -4.9465    1.1963    4.1736 C   0  0  0  0  0  0  0  0  0 15  0  0
   -0.3756    0.7872   -0.9968 O   0  0  0  0  0  0  0  0  0 16  0  0
    0.4140    1.8609   -1.5045 C   0  0  0  0  0  0  0  0  0 17  0  0
   -0.5121    2.9797   -2.0101 C   0  0  0  0  0  0  0  0  0 18  0  0
 17 18  1  0
 16 17  1  0
  5 16  1  0
 14 15  1  0
 11 14  1  0
 13  8  4  0
 12 13  4  0
 11 12  4  0
 10 11  4  0
  9 10  4  0
  8  9  4  0
  7  8  1  0
  5  7  1  0
  5  6  2  0
  4  5  1  0
  3  4  1  0
  2  3  1  0
  1  2  1  0
M  END
> <Name>
Sulprofos

> <CAS RN>
035400-43-2

> <Log Koc>
4.25

> <VP-0>
14.2631

> <nAromBond>
6

> <MAXDP>
2.95279

> <nHBAcc>
1

> <Splitting>
2

$$$$
Imazalil
  SciTegic01221512053D

 20 21  0  0  0  0            999 V2000
    0.0381   -0.9390    2.3342 N   0  0  0  0  0  0  0  0  0  1  0  0
    0.8595   -1.8403    1.8181 C   0  0  0  0  0  0  0  0  0  2  0  0
    1.3377   -2.5705    2.8980 C   0  0  0  0  0  0  0  0  0  3  0  0
    0.7873   -2.0683    3.9986 N   0  0  0  0  0  0  0  0  0  4  0  0
   -0.0086   -1.0619    3.6539 C   0  0  0  0  0  0  0  0  0  5  0  0
   -0.6903    0.0736    1.6055 C   0  0  0  0  0  0  0  0  0  6  0  0
   -0.7408   -0.1072    0.0502 C   0  0  1  0  0  0  0  0  0  7  0  0
    0.2802   -0.1190   -0.3565 H   0  0  0  0  0  0  0  0  0  8  0  0
   -1.5047   -1.3311   -0.5880 C   0  0  0  0  0  0  0  0  0  9  0  0
   -1.4180   -1.4090   -1.9742 C   0  0  0  0  0  0  0  0  0 10  0  0
   -2.0374   -2.4243   -2.6937 C   0  0  0  0  0  0  0  0  0 11  0  0
   -2.7619   -3.3934   -2.0198 C   0  0  0  0  0  0  0  0  0 12  0  0
   -2.8589   -3.3348   -0.6355 C   0  0  0  0  0  0  0  0  0 13  0  0
   -2.2438   -2.3207    0.0906 C   0  0  0  0  0  0  0  0  0 14  0  0
   -2.4603   -2.3764    1.8077 Cl  0  0  0  0  0  0  0  0  0 15  0  0
   -3.5409   -4.6646   -2.8958 Cl  0  0  0  0  0  0  0  0  0 16  0  0
   -1.3234    1.0997   -0.4871 O   0  0  0  0  0  0  0  0  0 17  0  0
   -2.6504    1.3208    0.0195 C   0  0  0  0  0  0  0  0  0 18  0  0
   -3.1204    2.6752   -0.4190 C   0  0  0  0  0  0  0  0  0 19  0  0
   -4.2406    3.1855    0.0867 C   0  0  0  0  0  0  0  0  0 20  0  0
 19 20  2  0
 18 19  1  0
 17 18  1  0
  7 17  1  0
 12 16  1  0
 14 15  1  0
 14  9  4  0
 13 14  4  0
 12 13  4  0
 11 12  4  0
 10 11  4  0
  9 10  4  0
  7  9  1  0
  7  8  1  0
  6  7  1  0
  1  6  1  0
  5  1  4  0
  4  5  4  0
  3  4  4  0
  2  3  4  0
  1  2  4  0
M  END
> <Name>
Imazalil

> <CAS RN>
035554-44-0

> <Log Koc>
3.73

> <VP-0>
11.8106

> <nAromBond>
11

> <MAXDP>
2.44421

> <nHBAcc>
3

> <Splitting>
2

$$$$
2,2',5,5'-Tetrachlorobiphenyl
  SciTegic01221512053D

 16 17  0  0  0  0            999 V2000
    0.7764    1.9101    2.2850 C   0  0  0  0  0  0  0  0  0  1  0  0
   -0.1230    2.0332    1.2273 C   0  0  0  0  0  0  0  0  0  2  0  0
   -1.2767    2.8079    1.4296 C   0  0  0  0  0  0  0  0  0  3  0  0
   -1.4791    3.4401    2.6531 C   0  0  0  0  0  0  0  0  0  4  0  0
   -0.5611    3.3236    3.6868 C   0  0  0  0  0  0  0  0  0  5  0  0
    0.5713    2.5473    3.5009 C   0  0  0  0  0  0  0  0  0  6  0  0
    1.7245    2.3760    4.7759 Cl  0  0  0  0  0  0  0  0  0  7  0  0
   -2.5451    2.9901    0.2795 Cl  0  0  0  0  0  0  0  0  0  8  0  0
    0.2795    1.2553   -0.0267 C   0  0  0  0  0  0  0  0  0  9  0  0
   -0.0599    1.5354   -1.3615 C   0  0  0  0  0  0  0  0  0 10  0  0
    0.4118    0.7135   -2.3808 C   0  0  0  0  0  0  0  0  0 11  0  0
    1.2148   -0.3850   -2.1102 C   0  0  0  0  0  0  0  0  0 12  0  0
    1.5678   -0.6576   -0.7984 C   0  0  0  0  0  0  0  0  0 13  0  0
    1.1047    0.1616    0.2225 C   0  0  0  0  0  0  0  0  0 14  0  0
    2.5764   -2.0121   -0.4349 Cl  0  0  0  0  0  0  0  0  0 15  0  0
   -0.9803    2.8984   -1.8702 Cl  0  0  0  0  0  0  0  0  0 16  0  0
 10 16  1  0
 13 15  1  0
 14  9  4  0
 13 14  4  0
 12 13  4  0
 11 12  4  0
 10 11  4  0
  9 10  4  0
  2  9  1  0
  3  8  1  0
  6  7  1  0
  6  1  4  0
  5  6  4  0
  4  5  4  0
  3  4  4  0
  2  3  4  0
  1  2  4  0
M  END
> <Name>
2,2',5,5'-Tetrachlorobiphenyl

> <CAS RN>
035693-99-3

> <Log Koc>
4.82

> <VP-0>
10.9997

> <nAromBond>
13

> <MAXDP>
0.432853

> <nHBAcc>
0

> <Splitting>
2

$$$$
Hexabromobiphenyl
  SciTegic01221512053D

 18 19  0  0  0  0            999 V2000
   -1.2183    3.8614    1.7016 C   0  0  0  0  0  0  0  0  0  1  0  0
   -0.2565    2.9823    1.2179 C   0  0  0  0  0  0  0  0  0  2  0  0
   -0.6400    1.8285    0.5295 C   0  0  0  0  0  0  0  0  0  3  0  0
   -1.9996    1.5737    0.3332 C   0  0  0  0  0  0  0  0  0  4  0  0
   -2.9551    2.4603    0.8158 C   0  0  0  0  0  0  0  0  0  5  0  0
   -2.5671    3.6034    1.5008 C   0  0  0  0  0  0  0  0  0  6  0  0
   -3.8780    4.8107    2.1615 Br  0  0  0  0  0  0  0  0  0  7  0  0
   -2.5924    0.0371   -0.6322 Br  0  0  0  0  0  0  0  0  0  8  0  0
    0.3941    0.8762    0.0083 C   0  0  0  0  0  0  0  0  0  9  0  0
    1.3014    1.2842   -0.9727 C   0  0  0  0  0  0  0  0  0 10  0  0
    2.2570    0.3975   -1.4550 C   0  0  0  0  0  0  0  0  0 11  0  0
    2.3212   -0.8987   -0.9631 C   0  0  0  0  0  0  0  0  0 12  0  0
    1.4245   -1.3099    0.0131 C   0  0  0  0  0  0  0  0  0 13  0  0
    0.4629   -0.4308    0.4973 C   0  0  0  0  0  0  0  0  0 14  0  0
   -0.7201   -1.0426    1.8652 Br  0  0  0  0  0  0  0  0  0 15  0  0
    3.6320   -2.1060   -1.6240 Br  0  0  0  0  0  0  0  0  0 16  0  0
    1.2389    3.0428   -1.7129 Br  0  0  0  0  0  0  0  0  0 17  0  0
    1.5817    3.3720    1.5555 Br  0  0  0  0  0  0  0  0  0 18  0  0
  2 18  1  0
 10 17  1  0
 12 16  1  0
 14 15  1  0
 14  9  4  0
 13 14  4  0
 12 13  4  0
 11 12  4  0
 10 11  4  0
  9 10  4  0
  3  9  1  0
  4  8  1  0
  6  7  1  0
  6  1  4  0
  5  6  4  0
  4  5  4  0
  3  4  4  0
  2  3  4  0
  1  2  4  0
M  END
> <Name>
Hexabromobiphenyl

> <CAS RN>
036355-01-8

> <Log Koc>
4.87

> <VP-0>
18.0932

> <nAromBond>
13

> <MAXDP>
0.590633

> <nHBAcc>
0

> <Splitting>
2

$$$$
3-(3,5-Dimethylphenyl)-1,1-dimethylurea
  SciTegic01221512053D

 14 14  0  0  0  0            999 V2000
    2.6494    3.5885   -0.0532 C   0  0  0  0  0  0  0  0  0  1  0  0
    3.3941    2.4262    0.1078 C   0  0  0  0  0  0  0  0  0  2  0  0
    2.7542    1.1942    0.1812 C   0  0  0  0  0  0  0  0  0  3  0  0
    1.3683    1.1151    0.0938 C   0  0  0  0  0  0  0  0  0  4  0  0
    0.6275    2.2818   -0.0674 C   0  0  0  0  0  0  0  0  0  5  0  0
    1.2646    3.5152   -0.1407 C   0  0  0  0  0  0  0  0  0  6  0  0
    0.4564    4.7670   -0.3141 C   0  0  0  0  0  0  0  0  0  7  0  0
    0.7532   -0.1628    0.1734 N   0  0  0  0  0  0  0  0  0  8  0  0
   -0.6448   -0.3941    0.0825 C   0  0  0  0  0  0  0  0  0  9  0  0
   -1.4527    0.5273   -0.0807 O   0  0  0  0  0  0  0  0  0 10  0  0
   -1.1206   -1.7016    0.1803 N   0  0  0  0  0  0  0  0  0 11  0  0
   -2.5285   -1.9609    0.0907 C   0  0  0  0  0  0  0  0  0 12  0  0
   -0.2015   -2.7864    0.3709 C   0  0  0  0  0  0  0  0  0 13  0  0
    4.8896    2.5012    0.2025 C   0  0  0  0  0  0  0  0  0 14  0  0
  2 14  1  0
 11 13  1  0
 11 12  1  0
  9 11  1  0
  9 10  2  0
  8  9  1  0
  4  8  1  0
  6  7  1  0
  6  1  4  0
  5  6  4  0
  4  5  4  0
  3  4  4  0
  2  3  4  0
  1  2  4  0
M  END
> <Name>
3-(3,5-Dimethylphenyl)-1,1-dimethylurea

> <CAS RN>
036627-56-2

> <Log Koc>
1.73

> <VP-0>
9.08751

> <nAromBond>
6

> <MAXDP>
4.34964

> <nHBAcc>
3

> <Splitting>
2

$$$$
Iprodione
  SciTegic01221512053D

 21 22  0  0  0  0            999 V2000
    5.1903    3.0882   -0.5929 C   0  0  0  0  0  0  0  0  0  1  0  0
    6.3695    2.4845   -0.1736 C   0  0  0  0  0  0  0  0  0  2  0  0
    6.3284    1.2292    0.4205 C   0  0  0  0  0  0  0  0  0  3  0  0
    5.1107    0.5816    0.5943 C   0  0  0  0  0  0  0  0  0  4  0  0
    3.9259    1.1791    0.1761 C   0  0  0  0  0  0  0  0  0  5  0  0
    3.9752    2.4360   -0.4191 C   0  0  0  0  0  0  0  0  0  6  0  0
    2.6757    0.5094    0.3508 N   0  0  0  0  0  0  0  0  0  7  0  0
    2.4835   -0.7309    0.9639 C   0  0  0  0  0  0  0  0  0  8  0  0
    3.3760   -1.4328    1.4534 O   0  0  0  0  0  0  0  0  0  9  0  0
    1.0159   -1.1305    0.9548 C   0  0  0  0  0  0  0  0  0 10  0  0
    0.4680    0.0341    0.2641 N   0  0  0  0  0  0  0  0  0 11  0  0
    1.4430    0.9685   -0.0627 C   0  0  0  0  0  0  0  0  0 12  0  0
    1.2201    2.0334   -0.6502 O   0  0  0  0  0  0  0  0  0 13  0  0
   -0.8837    0.1847   -0.0397 C   0  0  0  0  0  0  0  0  0 14  0  0
   -1.2687    1.1982   -0.6345 O   0  0  0  0  0  0  0  0  0 15  0  0
   -1.7896   -0.8303    0.3179 N   0  0  0  0  0  0  0  0  0 16  0  0
   -3.2006   -0.7330    0.0228 C   0  0  0  0  0  0  0  0  0 17  0  0
   -3.8299    0.4872    0.7316 C   0  0  0  0  0  0  0  0  0 18  0  0
   -3.9077   -2.0162    0.4945 C   0  0  0  0  0  0  0  0  0 19  0  0
    7.7911    0.4716    0.9411 Cl  0  0  0  0  0  0  0  0  0 20  0  0
    5.2342    4.6495   -1.3309 Cl  0  0  0  0  0  0  0  0  0 21  0  0
  1 21  1  0
  3 20  1  0
 17 19  1  0
 17 18  1  0
 16 17  1  0
 14 16  1  0
 14 15  2  0
 11 14  1  0
 12 13  2  0
 12  7  1  0
 11 12  1  0
 10 11  1  0
  8 10  1  0
  8  9  2  0
  7  8  1  0
  5  7  1  0
  6  1  4  0
  5  6  4  0
  4  5  4  0
  3  4  4  0
  2  3  4  0
  1  2  4  0
M  END
> <Name>
Iprodione

> <CAS RN>
036734-19-7

> <Log Koc>
2.17

> <VP-0>
12.9035

> <nAromBond>
6

> <MAXDP>
5.35881

> <nHBAcc>
6

> <Splitting>
2

$$$$
2,5,2'-Trichlorobiphenyl
  SciTegic01221512053D

 15 16  0  0  0  0            999 V2000
    0.5185    1.6746    2.5551 C   0  0  0  0  0  0  0  0  0  1  0  0
   -0.2108    1.9729    1.4056 C   0  0  0  0  0  0  0  0  0  2  0  0
   -1.3293    2.8131    1.5359 C   0  0  0  0  0  0  0  0  0  3  0  0
   -1.6600    3.3337    2.7838 C   0  0  0  0  0  0  0  0  0  4  0  0
   -0.9065    3.0433    3.9118 C   0  0  0  0  0  0  0  0  0  5  0  0
    0.1875    2.2011    3.7963 C   0  0  0  0  0  0  0  0  0  6  0  0
   -2.4090    3.2142    0.2579 Cl  0  0  0  0  0  0  0  0  0  7  0  0
    0.3210    1.2896    0.1407 C   0  0  0  0  0  0  0  0  0  8  0  0
    0.1738    1.6977   -1.1961 C   0  0  0  0  0  0  0  0  0  9  0  0
    0.7440    0.9411   -2.2159 C   0  0  0  0  0  0  0  0  0 10  0  0
    1.4598   -0.2160   -1.9451 C   0  0  0  0  0  0  0  0  0 11  0  0
    1.6235   -0.6161   -0.6290 C   0  0  0  0  0  0  0  0  0 12  0  0
    1.0613    0.1367    0.3929 C   0  0  0  0  0  0  0  0  0 13  0  0
    2.5203   -2.0462   -0.2615 Cl  0  0  0  0  0  0  0  0  0 14  0  0
   -0.6165    3.1404   -1.6997 Cl  0  0  0  0  0  0  0  0  0 15  0  0
  9 15  1  0
 12 14  1  0
 13  8  4  0
 12 13  4  0
 11 12  4  0
 10 11  4  0
  9 10  4  0
  8  9  4  0
  2  8  1  0
  3  7  1  0
  6  1  4  0
  5  6  4  0
  4  5  4  0
  3  4  4  0
  2  3  4  0
  1  2  4  0
M  END
> <Name>
2,5,2'-Trichlorobiphenyl

> <CAS RN>
037680-65-2

> <Log Koc>
4.23

> <VP-0>
9.94313

> <nAromBond>
13

> <MAXDP>
0.401344

> <nHBAcc>
0

> <Splitting>
2

$$$$
2,4,2'-Trichlorobiphenyl
  SciTegic01221512053D

 15 16  0  0  0  0            999 V2000
   -0.5764    4.4359    2.3068 C   0  0  0  0  0  0  0  0  0  1  0  0
    0.1549    3.3902    2.8488 C   0  0  0  0  0  0  0  0  0  2  0  0
    0.4858    2.2697    2.0920 C   0  0  0  0  0  0  0  0  0  3  0  0
    0.0778    2.1800    0.7477 C   0  0  0  0  0  0  0  0  0  4  0  0
   -0.6553    3.2456    0.2308 C   0  0  0  0  0  0  0  0  0  5  0  0
   -0.9850    4.3627    0.9860 C   0  0  0  0  0  0  0  0  0  6  0  0
    0.4031    0.9598   -0.1774 C   0  0  0  0  0  0  0  0  0  7  0  0
    0.0030    0.8735   -1.5241 C   0  0  0  0  0  0  0  0  0  8  0  0
    0.3326   -0.2481   -2.2799 C   0  0  0  0  0  0  0  0  0  9  0  0
    1.0549   -1.2999   -1.7370 C   0  0  0  0  0  0  0  0  0 10  0  0
    1.4551   -1.2282   -0.4133 C   0  0  0  0  0  0  0  0  0 11  0  0
    1.1274   -0.1105    0.3418 C   0  0  0  0  0  0  0  0  0 12  0  0
   -0.9057    2.0994   -2.3612 Cl  0  0  0  0  0  0  0  0  0 13  0  0
    1.4072    1.0502    2.9243 Cl  0  0  0  0  0  0  0  0  0 14  0  0
   -0.9735    5.8150    3.2689 Cl  0  0  0  0  0  0  0  0  0 15  0  0
  1 15  1  0
  3 14  1  0
  8 13  1  0
 12  7  4  0
 11 12  4  0
 10 11  4  0
  9 10  4  0
  8  9  4  0
  7  8  4  0
  4  7  1  0
  6  1  4  0
  5  6  4  0
  4  5  4  0
  3  4  4  0
  2  3  4  0
  1  2  4  0
M  END
> <Name>
2,4,2'-Trichlorobiphenyl

> <CAS RN>
037680-66-3

> <Log Koc>
4.84

> <VP-0>
9.94313

> <nAromBond>
13

> <MAXDP>
0.401451

> <nHBAcc>
0

> <Splitting>
1

$$$$
2,2',4,5,5'-Pentachlorobiphenyl
  SciTegic01221512053D

 17 18  0  0  0  0            999 V2000
    0.5217    1.9950    2.5408 C   0  0  0  0  0  0  0  0  0  1  0  0
   -0.2239    2.1073    1.3685 C   0  0  0  0  0  0  0  0  0  2  0  0
   -1.4428    2.8023    1.4261 C   0  0  0  0  0  0  0  0  0  3  0  0
   -1.8585    3.3705    2.6270 C   0  0  0  0  0  0  0  0  0  4  0  0
   -1.0915    3.2672    3.7784 C   0  0  0  0  0  0  0  0  0  5  0  0
    0.1041    2.5684    3.7339 C   0  0  0  0  0  0  0  0  0  6  0  0
    1.0723    2.4146    5.1564 Cl  0  0  0  0  0  0  0  0  0  7  0  0
   -2.5434    2.9544    0.1105 Cl  0  0  0  0  0  0  0  0  0  8  0  0
    0.4022    1.4075    0.1614 C   0  0  0  0  0  0  0  0  0  9  0  0
    0.2403    1.7255   -1.1981 C   0  0  0  0  0  0  0  0  0 10  0  0
    0.9028    0.9765   -2.1661 C   0  0  0  0  0  0  0  0  0 11  0  0
    1.7255   -0.0843   -1.8174 C   0  0  0  0  0  0  0  0  0 12  0  0
    1.9043   -0.3943   -0.4792 C   0  0  0  0  0  0  0  0  0 13  0  0
    1.2496    0.3525    0.4910 C   0  0  0  0  0  0  0  0  0 14  0  0
    2.9343   -1.7032   -0.0215 Cl  0  0  0  0  0  0  0  0  0 15  0  0
    2.5316   -1.0011   -3.0397 Cl  0  0  0  0  0  0  0  0  0 16  0  0
   -0.6810    3.0552   -1.7872 Cl  0  0  0  0  0  0  0  0  0 17  0  0
 10 17  1  0
 12 16  1  0
 13 15  1  0
 14  9  4  0
 13 14  4  0
 12 13  4  0
 11 12  4  0
 10 11  4  0
  9 10  4  0
  2  9  1  0
  3  8  1  0
  6  7  1  0
  6  1  4  0
  5  6  4  0
  4  5  4  0
  3  4  4  0
  2  3  4  0
  1  2  4  0
M  END
> <Name>
2,2',4,5,5'-Pentachlorobiphenyl

> <CAS RN>
037680-73-2

> <Log Koc>
4.63

> <VP-0>
12.0562

> <nAromBond>
13

> <MAXDP>
0.510785

> <nHBAcc>
0

> <Splitting>
2

$$$$
2,2',3,4,5'-Pentachlorobiphenyl
  SciTegic01221512053D

 17 18  0  0  0  0            999 V2000
    0.3713    1.7960    2.8080 C   0  0  0  0  0  0  0  0  0  1  0  0
   -0.2149    2.0298    1.5664 C   0  0  0  0  0  0  0  0  0  2  0  0
   -1.4358    2.7242    1.5323 C   0  0  0  0  0  0  0  0  0  3  0  0
   -2.0085    3.1727    2.7188 C   0  0  0  0  0  0  0  0  0  4  0  0
   -1.3979    2.9500    3.9445 C   0  0  0  0  0  0  0  0  0  5  0  0
   -0.2024    2.2508    3.9877 C   0  0  0  0  0  0  0  0  0  6  0  0
    0.5723    1.9500    5.5021 Cl  0  0  0  0  0  0  0  0  0  7  0  0
   -2.3546    3.0118    0.1042 Cl  0  0  0  0  0  0  0  0  0  8  0  0
    0.5646    1.4523    0.3860 C   0  0  0  0  0  0  0  0  0  9  0  0
    0.5890    1.9201   -0.9379 C   0  0  0  0  0  0  0  0  0 10  0  0
    1.3682    1.2682   -1.8891 C   0  0  0  0  0  0  0  0  0 11  0  0
    2.1291    0.1581   -1.5521 C   0  0  0  0  0  0  0  0  0 12  0  0
    2.1263   -0.3013   -0.2450 C   0  0  0  0  0  0  0  0  0 13  0  0
    1.3542    0.3500    0.7071 C   0  0  0  0  0  0  0  0  0 14  0  0
    3.0876   -0.6336   -2.7516 Cl  0  0  0  0  0  0  0  0  0 15  0  0
    1.3969    1.8584   -3.5119 Cl  0  0  0  0  0  0  0  0  0 16  0  0
   -0.2480    3.3182   -1.4945 Cl  0  0  0  0  0  0  0  0  0 17  0  0
 10 17  1  0
 11 16  1  0
 12 15  1  0
 14  9  4  0
 13 14  4  0
 12 13  4  0
 11 12  4  0
 10 11  4  0
  9 10  4  0
  2  9  1  0
  3  8  1  0
  6  7  1  0
  6  1  4  0
  5  6  4  0
  4  5  4  0
  3  4  4  0
  2  3  4  0
  1  2  4  0
M  END
> <Name>
2,2',3,4,5'-Pentachlorobiphenyl

> <CAS RN>
038380-02-8

> <Log Koc>
4.68

> <VP-0>
12.0562

> <nAromBond>
13

> <MAXDP>
0.455466

> <nHBAcc>
0

> <Splitting>
2

$$$$
2,2',3,3',4,4'-Hexachlorobiphenyl
  SciTegic01221512053D

 18 19  0  0  0  0            999 V2000
    0.4127    1.5640    2.7865 C   0  0  0  0  0  0  0  0  0  1  0  0
   -0.0584    1.9734    1.5410 C   0  0  0  0  0  0  0  0  0  2  0  0
   -1.1446    2.8642    1.5067 C   0  0  0  0  0  0  0  0  0  3  0  0
   -1.6986    3.3272    2.6965 C   0  0  0  0  0  0  0  0  0  4  0  0
   -1.1984    2.9224    3.9254 C   0  0  0  0  0  0  0  0  0  5  0  0
   -0.1389    2.0311    3.9716 C   0  0  0  0  0  0  0  0  0  6  0  0
   -1.9045    3.5126    5.3874 Cl  0  0  0  0  0  0  0  0  0  7  0  0
   -3.0387    4.4154    2.6410 Cl  0  0  0  0  0  0  0  0  0  8  0  0
   -1.9175    3.4119    0.0706 Cl  0  0  0  0  0  0  0  0  0  9  0  0
    0.6856    1.3474    0.3583 C   0  0  0  0  0  0  0  0  0 10  0  0
    0.8451    1.8673   -0.9371 C   0  0  0  0  0  0  0  0  0 11  0  0
    1.5663    1.1506   -1.8875 C   0  0  0  0  0  0  0  0  0 12  0  0
    2.1377   -0.0753   -1.5789 C   0  0  0  0  0  0  0  0  0 13  0  0
    2.0016   -0.5897   -0.2999 C   0  0  0  0  0  0  0  0  0 14  0  0
    1.2869    0.1251    0.6513 C   0  0  0  0  0  0  0  0  0 15  0  0
    3.0277   -0.9447   -2.7774 Cl  0  0  0  0  0  0  0  0  0 16  0  0
    1.7621    1.8043   -3.4740 Cl  0  0  0  0  0  0  0  0  0 17  0  0
    0.2535    3.3963   -1.4590 Cl  0  0  0  0  0  0  0  0  0 18  0  0
 11 18  1  0
 12 17  1  0
 13 16  1  0
 15 10  4  0
 14 15  4  0
 13 14  4  0
 12 13  4  0
 11 12  4  0
 10 11  4  0
  2 10  1  0
  3  9  1  0
  4  8  1  0
  5  7  1  0
  6  1  4  0
  5  6  4  0
  4  5  4  0
  3  4  4  0
  2  3  4  0
  1  2  4  0
M  END
> <Name>
2,2',3,3',4,4'-Hexachlorobiphenyl

> <CAS RN>
038380-07-3

> <Log Koc>
5.74

> <VP-0>
13.1128

> <nAromBond>
13

> <MAXDP>
0.424369

> <nHBAcc>
0

> <Splitting>
1

$$$$
Diethatyl-Ethyl
  SciTegic01221512053D

 21 21  0  0  0  0            999 V2000
    5.4792    0.8091    0.9203 C   0  0  0  0  0  0  0  0  0  1  0  0
    4.9219    2.0587    0.7093 C   0  0  0  0  0  0  0  0  0  2  0  0
    3.5629    2.2086    0.4581 C   0  0  0  0  0  0  0  0  0  3  0  0
    2.7207    1.0785    0.4234 C   0  0  0  0  0  0  0  0  0  4  0  0
    3.2984   -0.1835    0.6470 C   0  0  0  0  0  0  0  0  0  5  0  0
    4.6613   -0.3070    0.8882 C   0  0  0  0  0  0  0  0  0  6  0  0
    2.5032   -1.4683    0.6807 C   0  0  0  0  0  0  0  0  0  7  0  0
    1.7089   -1.5516    2.0016 C   0  0  0  0  0  0  0  0  0  8  0  0
    1.2757    1.2108    0.1748 N   0  0  0  0  0  0  0  0  0  9  0  0
    0.4613    1.8768    1.1761 C   0  0  0  0  0  0  0  0  0 10  0  0
    0.9957    2.2438    2.2286 O   0  0  0  0  0  0  0  0  0 11  0  0
   -0.9820    2.2532    0.9383 C   0  0  0  0  0  0  0  0  0 12  0  0
   -1.6095    3.0885    2.3613 Cl  0  0  0  0  0  0  0  0  0 13  0  0
    0.7049    0.7503   -1.1386 C   0  0  0  0  0  0  0  0  0 14  0  0
   -0.4077   -0.2905   -1.0655 C   0  0  0  0  0  0  0  0  0 15  0  0
   -0.9167   -0.6938   -2.1183 O   0  0  0  0  0  0  0  0  0 16  0  0
   -0.8268   -0.8056    0.1743 O   0  0  0  0  0  0  0  0  0 17  0  0
   -1.8964   -1.7638    0.0337 C   0  0  0  0  0  0  0  0  0 18  0  0
   -3.2284   -1.0562   -0.3218 C   0  0  0  0  0  0  0  0  0 19  0  0
    3.1055    3.6575    0.2261 C   0  0  0  0  0  0  0  0  0 20  0  0
    2.3409    3.8560   -1.0997 C   0  0  0  0  0  0  0  0  0 21  0  0
 20 21  1  0
  3 20  1  0
 18 19  1  0
 17 18  1  0
 15 17  1  0
 15 16  2  0
 14 15  1  0
  9 14  1  0
 12 13  1  0
 10 12  1  0
 10 11  2  0
  9 10  1  0
  4  9  1  0
  7  8  1  0
  5  7  1  0
  6  1  4  0
  5  6  4  0
  4  5  4  0
  3  4  4  0
  2  3  4  0
  1  2  4  0
M  END
> <Name>
Diethatyl-Ethyl

> <CAS RN>
038727-55-8

> <Log Koc>
3.11

> <VP-0>
13.5734

> <nAromBond>
6

> <MAXDP>
5.34753

> <nHBAcc>
4

> <Splitting>
1

$$$$
Pendimethalin
  SciTegic01221512053D

 20 20  0  0  0  0            999 V2000
   -1.2380    1.5679   -0.6549 C   0  0  0  0  0  0  0  0  0  1  0  0
   -0.4004    2.6612   -0.5272 C   0  0  0  0  0  0  0  0  0  2  0  0
    0.9612    2.4817   -0.3213 C   0  0  0  0  0  0  0  0  0  3  0  0
    1.4925    1.1846   -0.2296 C   0  0  0  0  0  0  0  0  0  4  0  0
    0.6331    0.0809   -0.3443 C   0  0  0  0  0  0  0  0  0  5  0  0
   -0.7385    0.2776   -0.5719 C   0  0  0  0  0  0  0  0  0  6  0  0
   -1.6969   -0.7601   -0.7608 N   0  0  0  0  0  0  0  0  0  7  0  0
   -2.9746   -0.4258   -0.8537 O   0  0  0  0  0  0  0  0  0  8  0  0
   -1.3604   -2.0083   -1.0085 O   0  0  0  0  0  0  0  0  0  9  0  0
    1.2147   -1.2220   -0.2128 N   0  0  0  0  0  0  0  0  0 10  0  0
    0.7783   -2.2265    0.7699 C   0  0  0  0  0  0  0  0  0 11  0  0
    0.5777   -1.6207    2.1983 C   0  0  0  0  0  0  0  0  0 12  0  0
    1.9030   -1.0640    2.7808 C   0  0  0  0  0  0  0  0  0 13  0  0
    1.7745   -3.4105    0.7892 C   0  0  0  0  0  0  0  0  0 14  0  0
    1.2608   -4.5319    1.7217 C   0  0  0  0  0  0  0  0  0 15  0  0
    2.9322    0.9282   -0.0096 N   0  0  0  0  0  0  0  0  0 16  0  0
    3.3988   -0.3081   -0.0082 O   0  0  0  0  0  0  0  0  0 17  0  0
    3.8228    1.8927    0.1697 O   0  0  0  0  0  0  0  0  0 18  0  0
    1.8003    3.7354   -0.2053 C   0  0  0  0  0  0  0  0  0 19  0  0
   -0.9783    4.0472   -0.6240 C   0  0  0  0  0  0  0  0  0 20  0  0
  2 20  1  0
  3 19  1  0
 16 18  1  0
 16 17  1  0
  4 16  1  0
 14 15  1  0
 11 14  1  0
 12 13  1  0
 11 12  1  0
 10 11  1  0
  5 10  1  0
  7  9  1  0
  7  8  1  0
  6  7  1  0
  6  1  4  0
  5  6  4  0
  4  5  4  0
  3  4  4  0
  2  3  4  0
  1  2  4  0
M  END
> <Name>
Pendimethalin

> <CAS RN>
040487-42-1

> <Log Koc>
2.96

> <VP-0>
11.7996

> <nAromBond>
6

> <MAXDP>
4.27074

> <nHBAcc>
1

> <Splitting>
2

$$$$
Profenofos
  SciTegic01221512053D

 18 18  0  0  0  0            999 V2000
   -0.2821   -2.9627    0.3803 C   0  0  0  0  0  0  0  0  0  1  0  0
   -0.2656   -3.0416    1.9166 C   0  0  0  0  0  0  0  0  0  2  0  0
   -1.2008   -1.9791    2.5535 C   0  0  0  0  0  0  0  0  0  3  0  0
   -0.5672   -0.2550    2.5042 S   0  0  0  0  0  0  0  0  0  4  0  0
   -0.2706    0.4700    0.7192 P   0  0  2  0  0  0  0  0  0  5  0  0
   -1.3475    0.1776   -0.0954 O   0  0  0  0  0  0  0  0  0  6  0  0
    1.0129   -0.1957    0.1008 O   0  0  0  0  0  0  0  0  0  7  0  0
    2.1987   -0.0299    0.9253 C   0  0  0  0  0  0  0  0  0  8  0  0
    2.7793    1.3983    0.8463 C   0  0  0  0  0  0  0  0  0  9  0  0
   -0.0792    2.0294    0.7881 O   0  0  0  0  0  0  0  0  0 10  0  0
   -1.1965    2.7563    1.2688 C   0  0  0  0  0  0  0  0  0 11  0  0
   -2.3835    2.1325    1.6416 C   0  0  0  0  0  0  0  0  0 12  0  0
   -3.4570    2.8825    2.1075 C   0  0  0  0  0  0  0  0  0 13  0  0
   -3.3481    4.2646    2.2023 C   0  0  0  0  0  0  0  0  0 14  0  0
   -2.1657    4.8931    1.8307 C   0  0  0  0  0  0  0  0  0 15  0  0
   -1.0940    4.1397    1.3652 C   0  0  0  0  0  0  0  0  0 16  0  0
    0.3741    4.9241    0.9041 Cl  0  0  0  0  0  0  0  0  0 17  0  0
   -4.8139    5.2935    2.8391 Br  0  0  0  0  0  0  0  0  0 18  0  0
 14 18  1  0
 16 17  1  0
 16 11  4  0
 15 16  4  0
 14 15  4  0
 13 14  4  0
 12 13  4  0
 11 12  4  0
 10 11  1  0
  5 10  1  0
  8  9  1  0
  7  8  1  0
  5  7  1  0
  5  6  2  0
  4  5  1  0
  3  4  1  0
  2  3  1  0
  1  2  1  0
M  END
> <Name>
Profenofos

> <CAS RN>
041198-08-7

> <Log Koc>
3.03

> <VP-0>
13.5719

> <nAromBond>
6

> <MAXDP>
5.78509

> <nHBAcc>
2

> <Splitting>
2

$$$$
Metamitron
  SciTegic01221512053D

 15 16  0  0  0  0            999 V2000
   -1.8030    3.9786    2.5634 C   0  0  0  0  0  0  0  0  0  1  0  0
   -1.4767    2.7128    3.0355 C   0  0  0  0  0  0  0  0  0  2  0  0
   -0.7363    1.8445    2.2415 C   0  0  0  0  0  0  0  0  0  3  0  0
   -0.3178    2.2343    0.9727 C   0  0  0  0  0  0  0  0  0  4  0  0
   -0.6472    3.5021    0.5056 C   0  0  0  0  0  0  0  0  0  5  0  0
   -1.3875    4.3729    1.2971 C   0  0  0  0  0  0  0  0  0  6  0  0
    0.4748    1.3378    0.0920 C   0  0  0  0  0  0  0  0  0  7  0  0
    0.8337    1.7882   -1.1040 N   0  0  0  0  0  0  0  0  0  8  0  0
    1.5094    1.0743   -1.9018 N   0  0  0  0  0  0  0  0  0  9  0  0
    1.8904   -0.1569   -1.5803 C   0  0  0  0  0  0  0  0  0 10  0  0
    1.5662   -0.6700   -0.4011 N   0  0  0  0  0  0  0  0  0 11  0  0
    0.8597    0.0495    0.4582 C   0  0  0  0  0  0  0  0  0 12  0  0
    0.5647   -0.4410    1.5534 O   0  0  0  0  0  0  0  0  0 13  0  0
    1.9484   -1.9021   -0.0813 N   0  0  0  0  0  0  0  0  0 14  0  0
    2.6907   -0.9703   -2.5553 C   0  0  0  0  0  0  0  0  0 15  0  0
 10 15  1  0
 11 14  1  0
 12 13  2  0
 12  7  4  0
 11 12  4  0
 10 11  4  0
  9 10  4  0
  8  9  4  0
  7  8  4  0
  4  7  1  0
  6  1  4  0
  5  6  4  0
  4  5  4  0
  3  4  4  0
  2  3  4  0
  1  2  4  0
M  END
> <Name>
Metamitron

> <CAS RN>
041394-05-2

> <Log Koc>
2.17

> <VP-0>
8.21399

> <nAromBond>
6

> <MAXDP>
4.72547

> <nHBAcc>
5

> <Splitting>
2

$$$$
Tricyclazole
  SciTegic01221512053D

 13 15  0  0  0  0            999 V2000
   -1.7356    2.4332    1.3202 C   0  0  0  0  0  0  0  0  0  1  0  0
   -1.8950    3.7985    1.5600 C   0  0  0  0  0  0  0  0  0  2  0  0
   -0.9210    4.7229    1.1683 C   0  0  0  0  0  0  0  0  0  3  0  0
    0.2419    4.3037    0.5242 C   0  0  0  0  0  0  0  0  0  4  0  0
    0.3934    2.9475    0.2895 C   0  0  0  0  0  0  0  0  0  5  0  0
   -0.5751    2.0281    0.6790 C   0  0  0  0  0  0  0  0  0  6  0  0
   -0.2076    0.7909    0.3476 N   0  0  0  0  0  0  0  0  0  7  0  0
    0.9411    0.7033   -0.2508 C   0  0  0  0  0  0  0  0  0  8  0  0
    1.6287    2.1621   -0.4340 S   0  0  0  0  0  0  0  0  0  9  0  0
    1.2171   -0.5539   -0.5378 N   0  0  0  0  0  0  0  0  0 10  0  0
    0.2110   -1.2202   -0.0997 N   0  0  0  0  0  0  0  0  0 11  0  0
   -0.7127   -0.4204    0.4659 C   0  0  0  0  0  0  0  0  0 12  0  0
    1.2928    5.2863    0.0998 C   0  0  0  0  0  0  0  0  0 13  0  0
  4 13  1  0
 12  7  4  0
 11 12  4  0
 10 11  4  0
  8 10  4  0
  9  5  4  0
  8  9  4  0
  7  8  4  0
  6  7  4  0
  6  1  4  0
  5  6  4  0
  4  5  4  0
  3  4  4  0
  2  3  4  0
  1  2  4  0
M  END
> <Name>
Tricyclazole

> <CAS RN>
041814-78-2

> <Log Koc>
3.09

> <VP-0>
7.87579

> <nAromBond>
14

> <MAXDP>
1.16021

> <nHBAcc>
3

> <Splitting>
2

$$$$
Isazophos
  SciTegic01221512053D

 18 18  0  0  0  0            999 V2000
    1.4346    5.5950    0.8169 C   0  0  0  0  0  0  0  0  0  1  0  0
    1.9688    4.2375    0.3124 C   0  0  0  0  0  0  0  0  0  2  0  0
    1.3985    3.0888    1.0120 O   0  0  0  0  0  0  0  0  0  3  0  0
   -0.1331    2.8916    0.7196 P   0  0  0  0  0  0  0  0  0  4  0  0
   -0.4106    3.1402   -0.9491 S   0  0  0  0  0  0  0  0  0  5  0  0
   -1.0128    3.9052    1.5546 O   0  0  0  0  0  0  0  0  0  6  0  0
   -0.7981    3.8109    3.0012 C   0  0  0  0  0  0  0  0  0  7  0  0
   -1.3804    2.5221    3.6205 C   0  0  0  0  0  0  0  0  0  8  0  0
   -0.5561    1.4306    1.0501 O   0  0  0  0  0  0  0  0  0  9  0  0
    0.3076    0.5052    0.4686 C   0  0  0  0  0  0  0  0  0 10  0  0
    1.3940    0.8039   -0.2342 N   0  0  0  0  0  0  0  0  0 11  0  0
    1.9237   -0.2961   -0.5722 N   0  0  0  0  0  0  0  0  0 12  0  0
    1.1904   -1.3027   -0.1101 C   0  0  0  0  0  0  0  0  0 13  0  0
    0.1602   -0.8093    0.5586 N   0  0  0  0  0  0  0  0  0 14  0  0
    1.4874   -2.9994   -0.3281 Cl  0  0  0  0  0  0  0  0  0 15  0  0
    3.1450   -0.3921   -1.3478 C   0  0  0  0  0  0  0  0  0 16  0  0
    4.1743   -1.3366   -0.6858 C   0  0  0  0  0  0  0  0  0 17  0  0
    3.7614    1.0075   -1.5244 C   0  0  0  0  0  0  0  0  0 18  0  0
 16 18  1  0
 16 17  1  0
 12 16  1  0
 13 15  1  0
 14 10  4  0
 13 14  4  0
 12 13  4  0
 11 12  4  0
 10 11  4  0
  9 10  1  0
  4  9  1  0
  7  8  1  0
  6  7  1  0
  4  6  1  0
  4  5  2  0
  3  4  1  0
  2  3  1  0
  1  2  1  0
M  END
> <Name>
Isazophos

> <CAS RN>
042509-80-8

> <Log Koc>
2.01

> <VP-0>
13.2582

> <nAromBond>
5

> <MAXDP>
2.44587

> <nHBAcc>
5

> <Splitting>
2

$$$$
Bifenox
  SciTegic01221512053D

 22 23  0  0  0  0            999 V2000
    0.0250    0.1914    0.8119 C   0  0  0  0  0  0  0  0  0  1  0  0
    0.5795    1.4339    1.1575 C   0  0  0  0  0  0  0  0  0  2  0  0
    1.8916    1.7024    0.7828 C   0  0  0  0  0  0  0  0  0  3  0  0
    2.6495    0.7760    0.0819 C   0  0  0  0  0  0  0  0  0  4  0  0
    2.1168   -0.4613   -0.2597 C   0  0  0  0  0  0  0  0  0  5  0  0
    0.8073   -0.7294    0.1185 C   0  0  0  0  0  0  0  0  0  6  0  0
    2.8207   -1.5121   -0.9865 O   0  0  0  0  0  0  0  0  0  7  0  0
    4.1451   -1.3623   -1.5810 C   0  0  0  0  0  0  0  0  0  8  0  0
    4.8775   -0.1765   -1.6200 C   0  0  0  0  0  0  0  0  0  9  0  0
    6.1224   -0.1196   -2.2344 C   0  0  0  0  0  0  0  0  0 10  0  0
    6.6553   -1.2585   -2.8224 C   0  0  0  0  0  0  0  0  0 11  0  0
    5.9400   -2.4484   -2.7880 C   0  0  0  0  0  0  0  0  0 12  0  0
    4.6940   -2.4966   -2.1723 C   0  0  0  0  0  0  0  0  0 13  0  0
    3.8155   -3.9834   -2.1401 Cl  0  0  0  0  0  0  0  0  0 14  0  0
    8.1982   -1.1931   -3.5967 Cl  0  0  0  0  0  0  0  0  0 15  0  0
   -0.0737    2.4926    1.8698 N   0  0  0  0  0  0  0  0  0 16  0  0
    0.6185    3.5950    2.1120 O   0  0  0  0  0  0  0  0  0 17  0  0
   -1.3083    2.4354    2.3024 O   0  0  0  0  0  0  0  0  0 18  0  0
   -1.3637   -0.2563    1.1101 C   0  0  0  0  0  0  0  0  0 19  0  0
   -2.1759    0.4444    1.7127 O   0  0  0  0  0  0  0  0  0 20  0  0
   -1.7660   -1.5120    0.6616 O   0  0  0  0  0  0  0  0  0 21  0  0
   -3.1322   -1.7400    1.0208 C   0  0  0  0  0  0  0  0  0 22  0  0
 21 22  1  0
 19 21  1  0
 19 20  2  0
  1 19  1  0
 16 18  1  0
 16 17  1  0
  2 16  1  0
 11 15  1  0
 13 14  1  0
 13  8  4  0
 12 13  4  0
 11 12  4  0
 10 11  4  0
  9 10  4  0
  8  9  4  0
  7  8  1  0
  5  7  1  0
  6  1  4  0
  5  6  4  0
  4  5  4  0
  3  4  4  0
  2  3  4  0
  1  2  4  0
M  END
> <Name>
Bifenox

> <CAS RN>
042576-02-3

> <Log Koc>
3.66

> <VP-0>
12.572

> <nAromBond>
12

> <MAXDP>
4.68622

> <nHBAcc>
2

> <Splitting>
2

$$$$
Oxyfluorofen
  SciTegic01221512053D

 24 25  0  0  0  0            999 V2000
    0.1905    5.8999   -0.4094 C   0  0  0  0  0  0  0  0  0  1  0  0
    1.2760    5.1506    0.0274 C   0  0  0  0  0  0  0  0  0  2  0  0
    1.1838    3.7688    0.1009 C   0  0  0  0  0  0  0  0  0  3  0  0
    0.0067    3.1062   -0.2400 C   0  0  0  0  0  0  0  0  0  4  0  0
   -1.0736    3.8705   -0.6660 C   0  0  0  0  0  0  0  0  0  5  0  0
   -0.9898    5.2600   -0.7690 C   0  0  0  0  0  0  0  0  0  6  0  0
   -2.0873    6.0316   -1.2373 O   0  0  0  0  0  0  0  0  0  7  0  0
   -3.2150    5.2470   -1.6889 C   0  0  0  0  0  0  0  0  0  8  0  0
   -3.0105    4.7988   -3.1709 C   0  0  0  0  0  0  0  0  0  9  0  0
   -0.1860    1.6589   -0.1941 O   0  0  0  0  0  0  0  0  0 10  0  0
    0.9044    0.7015   -0.0401 C   0  0  0  0  0  0  0  0  0 11  0  0
    2.2566    1.0373   -0.0723 C   0  0  0  0  0  0  0  0  0 12  0  0
    3.2444    0.0676    0.0152 C   0  0  0  0  0  0  0  0  0 13  0  0
    2.8878   -1.2664    0.1371 C   0  0  0  0  0  0  0  0  0 14  0  0
    1.5453   -1.6211    0.1827 C   0  0  0  0  0  0  0  0  0 15  0  0
    0.5612   -0.6414    0.0936 C   0  0  0  0  0  0  0  0  0 16  0  0
   -1.1046   -1.0985    0.1378 Cl  0  0  0  0  0  0  0  0  0 17  0  0
    3.9544   -2.3100    0.1930 C   0  0  0  0  0  0  0  0  0 18  0  0
    3.4239   -3.5471    0.4855 F   0  0  0  0  0  0  0  0  0 19  0  0
    4.9158   -1.9325    1.1051 F   0  0  0  0  0  0  0  0  0 20  0  0
    4.5765   -2.3420   -1.0401 F   0  0  0  0  0  0  0  0  0 21  0  0
    0.3251    7.2949   -0.4881 N   0  0  0  0  0  0  0  0  0 22  0  0
    1.4642    7.8598   -0.1187 O   0  0  0  0  0  0  0  0  0 23  0  0
   -0.6660    8.0518   -0.9309 O   0  0  0  0  0  0  0  0  0 24  0  0
 22 24  1  0
 22 23  1  0
  1 22  1  0
 18 21  1  0
 18 20  1  0
 18 19  1  0
 14 18  1  0
 16 17  1  0
 16 11  4  0
 15 16  4  0
 14 15  4  0
 13 14  4  0
 12 13  4  0
 11 12  4  0
 10 11  1  0
  4 10  1  0
  8  9  1  0
  7  8  1  0
  6  7  1  0
  6  1  4  0
  5  6  4  0
  4  5  4  0
  3  4  4  0
  2  3  4  0
  1  2  4  0
M  END
> <Name>
Oxyfluorofen

> <CAS RN>
042874-03-3

> <Log Koc>
4.85

> <VP-0>
12.8708

> <nAromBond>
12

> <MAXDP>
4.68126

> <nHBAcc>
0

> <Splitting>
2

$$$$
Triadimefon
  SciTegic01221512053D

 21 22  0  0  0  0            999 V2000
    5.4197    0.8148   -0.4423 C   0  0  0  0  0  0  0  0  0  1  0  0
    5.1404    1.5823   -1.5666 C   0  0  0  0  0  0  0  0  0  2  0  0
    3.8308    1.7002   -2.0166 C   0  0  0  0  0  0  0  0  0  3  0  0
    2.8042    1.0507   -1.3414 C   0  0  0  0  0  0  0  0  0  4  0  0
    3.0778    0.2784   -0.2151 C   0  0  0  0  0  0  0  0  0  5  0  0
    4.3900    0.1663    0.2305 C   0  0  0  0  0  0  0  0  0  6  0  0
    2.0563   -0.3945    0.5069 O   0  0  0  0  0  0  0  0  0  7  0  0
    0.7167   -0.2446   -0.0377 C   0  0  2  0  0  0  0  0  0  8  0  0
    0.4131    0.8061   -0.1494 H   0  0  0  0  0  0  0  0  0  9  0  0
   -0.3301   -0.9258    0.8425 C   0  0  0  0  0  0  0  0  0 10  0  0
   -1.5071   -0.5637    0.7382 O   0  0  0  0  0  0  0  0  0 11  0  0
    0.0033   -2.0222    1.8551 C   0  0  0  0  0  0  0  0  0 12  0  0
    0.6562   -1.3717    3.0924 C   0  0  0  0  0  0  0  0  0 13  0  0
    1.0035   -3.0588    1.2932 C   0  0  0  0  0  0  0  0  0 14  0  0
   -1.2949   -2.7167    2.3019 C   0  0  0  0  0  0  0  0  0 15  0  0
    0.6064   -0.8712   -1.3342 N   0  0  0  0  0  0  0  0  0 16  0  0
   -0.2297   -0.4792   -2.2846 C   0  0  0  0  0  0  0  0  0 17  0  0
   -0.0404   -1.3001   -3.3078 N   0  0  0  0  0  0  0  0  0 18  0  0
    0.8997   -2.1665   -2.9489 C   0  0  0  0  0  0  0  0  0 19  0  0
    1.2808   -1.8705   -1.7117 N   0  0  0  0  0  0  0  0  0 20  0  0
    6.4188    2.3901   -2.4026 Cl  0  0  0  0  0  0  0  0  0 21  0  0
  2 21  1  0
 20 16  4  0
 19 20  4  0
 18 19  4  0
 17 18  4  0
 16 17  4  0
  8 16  1  0
 12 15  1  0
 12 14  1  0
 12 13  1  0
 10 12  1  0
 10 11  2  0
  8 10  1  0
  8  9  1  0
  7  8  1  0
  5  7  1  0
  6  1  4  0
  5  6  4  0
  4  5  4  0
  3  4  4  0
  2  3  4  0
  1  2  4  0
M  END
> <Name>
Triadimefon

> <CAS RN>
043121-43-3

> <Log Koc>
2.61

> <VP-0>
12.3335

> <nAromBond>
11

> <MAXDP>
5.52893

> <nHBAcc>
4

> <Splitting>
2

$$$$
Metolachlor
  SciTegic01221512053D

 20 20  0  0  0  0            999 V2000
    1.4355    3.3093    1.5391 C   0  0  0  0  0  0  0  0  0  1  0  0
    1.3587    3.1828    2.9183 C   0  0  0  0  0  0  0  0  0  2  0  0
    0.4561    2.2879    3.4743 C   0  0  0  0  0  0  0  0  0  3  0  0
   -0.3682    1.5173    2.6610 C   0  0  0  0  0  0  0  0  0  4  0  0
   -0.2954    1.6394    1.2681 C   0  0  0  0  0  0  0  0  0  5  0  0
    0.6174    2.5460    0.7147 C   0  0  0  0  0  0  0  0  0  6  0  0
    0.7466    2.7354   -0.7761 C   0  0  0  0  0  0  0  0  0  7  0  0
   -1.1508    0.8350    0.4166 N   0  0  0  0  0  0  0  0  0  8  0  0
   -0.6654   -0.5194   -0.0050 C   0  0  1  0  0  0  0  0  0  9  0  0
    0.2783   -0.7262    0.5198 H   0  0  0  0  0  0  0  0  0 10  0  0
   -1.6977   -1.6194    0.3419 C   0  0  0  0  0  0  0  0  0 11  0  0
   -0.3997   -0.5955   -1.5375 C   0  0  0  0  0  0  0  0  0 12  0  0
   -1.5934   -0.3696   -2.2866 O   0  0  0  0  0  0  0  0  0 13  0  0
   -1.3001   -0.4322   -3.6837 C   0  0  0  0  0  0  0  0  0 14  0  0
   -2.4580    1.3391    0.0207 C   0  0  0  0  0  0  0  0  0 15  0  0
   -3.2116    0.6679   -0.6930 O   0  0  0  0  0  0  0  0  0 16  0  0
   -2.9337    2.6972    0.4751 C   0  0  0  0  0  0  0  0  0 17  0  0
   -4.5506    2.9946   -0.1680 Cl  0  0  0  0  0  0  0  0  0 18  0  0
   -1.3422    0.5581    3.3207 C   0  0  0  0  0  0  0  0  0 19  0  0
   -1.2311    0.6399    4.8561 C   0  0  0  0  0  0  0  0  0 20  0  0
 19 20  1  0
  4 19  1  0
 17 18  1  0
 15 17  1  0
 15 16  2  0
  8 15  1  0
 13 14  1  0
 12 13  1  0
  9 12  1  0
  9 11  1  0
  9 10  1  0
  8  9  1  0
  5  8  1  0
  6  7  1  0
  6  1  4  0
  5  6  4  0
  4  5  4  0
  3  4  4  0
  2  3  4  0
  1  2  4  0
M  END
> <Name>
Metolachlor

> <CAS RN>
051218-45-2

> <Log Koc>
2.46

> <VP-0>
12.8283

> <nAromBond>
6

> <MAXDP>
5.36035

> <nHBAcc>
3

> <Splitting>
2

$$$$
Hexazinone
  SciTegic01221512053D

 18 19  0  0  0  0            999 V2000
    0.9354    1.9268   -0.5118 N   0  0  0  0  0  0  0  0  0  1  0  0
    2.2005    2.2637   -0.7293 C   0  0  0  0  0  0  0  0  0  2  0  0
    3.1408    1.3138   -0.5474 N   0  0  0  0  0  0  0  0  0  3  0  0
    2.7837    0.0904   -0.1656 C   0  0  0  0  0  0  0  0  0  4  0  0
    3.6878   -0.7376   -0.0045 O   0  0  0  0  0  0  0  0  0  5  0  0
    1.5042   -0.2250    0.0440 N   0  0  0  0  0  0  0  0  0  6  0  0
    0.5861    0.7093   -0.1315 C   0  0  0  0  0  0  0  0  0  7  0  0
   -0.6063    0.4446    0.0579 O   0  0  0  0  0  0  0  0  0  8  0  0
    1.0290   -1.5595    0.4706 C   0  0  0  0  0  0  0  0  0  9  0  0
    1.0821   -1.7655    2.0220 C   0  0  0  0  0  0  0  0  0 10  0  0
    2.4133   -2.4024    2.3822 C   0  0  0  0  0  0  0  0  0 11  0  0
    2.3580   -3.8872    1.8646 C   0  0  0  0  0  0  0  0  0 12  0  0
    1.5150   -4.0043    0.5384 C   0  0  0  0  0  0  0  0  0 13  0  0
    1.7638   -2.7365   -0.2600 C   0  0  0  0  0  0  0  0  0 14  0  0
    4.5713    1.4867   -0.7288 C   0  0  0  0  0  0  0  0  0 15  0  0
    2.3575    3.6839   -1.1479 N   0  0  0  0  0  0  0  0  0 16  0  0
    3.5927    4.3882   -1.4690 C   0  0  0  0  0  0  0  0  0 17  0  0
    1.1497    4.4529   -1.2486 C   0  0  0  0  0  0  0  0  0 18  0  0
 16 18  1  0
 16 17  1  0
  2 16  1  0
  3 15  1  0
 14  9  1  0
 13 14  1  0
 12 13  1  0
 11 12  1  0
 10 11  1  0
  9 10  1  0
  6  9  1  0
  7  8  2  0
  7  1  4  0
  6  7  4  0
  4  6  4  0
  4  5  2  0
  3  4  4  0
  2  3  4  0
  1  2  4  0
M  END
> <Name>
Hexazinone

> <CAS RN>
051235-04-2

> <Log Koc>
1.73

> <VP-0>
11.2182

> <nAromBond>
0

> <MAXDP>
5.27336

> <nHBAcc>
6

> <Splitting>
1

$$$$
Diclofop-Methyl
  SciTegic01221512053D

 23 24  0  0  0  0            999 V2000
    2.1471    3.0703   -0.6283 C   0  0  0  0  0  0  0  0  0  1  0  0
    0.7584    2.7800   -0.4432 O   0  0  0  0  0  0  0  0  0  2  0  0
    0.6007    1.9569    0.6663 C   0  0  0  0  0  0  0  0  0  3  0  0
    1.5898    1.5930    1.3132 O   0  0  0  0  0  0  0  0  0  4  0  0
   -0.7777    1.4929    1.0815 C   0  0  2  0  0  0  0  0  0  5  0  0
   -1.3010    2.3828    1.4590 H   0  0  0  0  0  0  0  0  0  6  0  0
   -0.7062    0.4652    2.2446 C   0  0  0  0  0  0  0  0  0  7  0  0
   -1.6055    1.0383   -0.0591 O   0  0  0  0  0  0  0  0  0  8  0  0
   -1.1861   -0.0949   -0.8651 C   0  0  0  0  0  0  0  0  0  9  0  0
    0.0075   -0.7876   -0.6821 C   0  0  0  0  0  0  0  0  0 10  0  0
    0.3428   -1.8583   -1.5008 C   0  0  0  0  0  0  0  0  0 11  0  0
   -0.5040   -2.2764   -2.5220 C   0  0  0  0  0  0  0  0  0 12  0  0
   -1.7001   -1.5866   -2.6992 C   0  0  0  0  0  0  0  0  0 13  0  0
   -2.0344   -0.5089   -1.8866 C   0  0  0  0  0  0  0  0  0 14  0  0
   -0.2431   -3.3899   -3.4297 O   0  0  0  0  0  0  0  0  0 15  0  0
    0.9876   -4.1792   -3.4388 C   0  0  0  0  0  0  0  0  0 16  0  0
    2.0964   -3.9513   -2.6271 C   0  0  0  0  0  0  0  0  0 17  0  0
    3.2323   -4.7477   -2.7163 C   0  0  0  0  0  0  0  0  0 18  0  0
    3.2721   -5.7926   -3.6285 C   0  0  0  0  0  0  0  0  0 19  0  0
    2.1738   -6.0347   -4.4441 C   0  0  0  0  0  0  0  0  0 20  0  0
    1.0424   -5.2331   -4.3489 C   0  0  0  0  0  0  0  0  0 21  0  0
   -0.3143   -5.5462   -5.3702 Cl  0  0  0  0  0  0  0  0  0 22  0  0
    4.6814   -6.7843   -3.7492 Cl  0  0  0  0  0  0  0  0  0 23  0  0
 19 23  1  0
 21 22  1  0
 21 16  4  0
 20 21  4  0
 19 20  4  0
 18 19  4  0
 17 18  4  0
 16 17  4  0
 15 16  1  0
 12 15  1  0
 14  9  4  0
 13 14  4  0
 12 13  4  0
 11 12  4  0
 10 11  4  0
  9 10  4  0
  8  9  1  0
  5  8  1  0
  5  7  1  0
  5  6  1  0
  3  5  1  0
  3  4  2  0
  2  3  1  0
  1  2  1  0
M  END
> <Name>
Diclofop-Methyl

> <CAS RN>
051338-27-3

> <Log Koc>
4.2

> <VP-0>
13.5196

> <nAromBond>
12

> <MAXDP>
4.32519

> <nHBAcc>
2

> <Splitting>
2

$$$$
Fenvalerate
  SciTegic01221512053D

 32 34  0  0  0  0            999 V2000
    2.0246   -1.3367   -0.7364 C   0  0  0  0  0  0  0  0  0  1  0  0
    2.6851   -2.5466   -0.5420 C   0  0  0  0  0  0  0  0  0  2  0  0
    2.7632   -3.1082    0.7280 C   0  0  0  0  0  0  0  0  0  3  0  0
    2.2484   -2.4184    1.8233 C   0  0  0  0  0  0  0  0  0  4  0  0
    1.6574   -1.1822    1.6337 C   0  0  0  0  0  0  0  0  0  5  0  0
    1.5060   -0.6524    0.3554 C   0  0  0  0  0  0  0  0  0  6  0  0
    0.6404    0.6074    0.1718 C   0  0  1  0  0  0  0  0  0  7  0  0
    0.9983    1.1936   -0.6858 H   0  0  0  0  0  0  0  0  0  8  0  0
   -0.8389    0.3213   -0.0673 O   0  0  0  0  0  0  0  0  0  9  0  0
   -1.4493   -0.6446    0.8262 C   0  0  0  0  0  0  0  0  0 10  0  0
   -0.7904   -1.3785    1.5291 O   0  0  0  0  0  0  0  0  0 11  0  0
   -2.8802   -0.8262    1.0419 C   0  0  2  0  0  0  0  0  0 12  0  0
   -3.3912    0.1106    0.7775 H   0  0  0  0  0  0  0  0  0 13  0  0
   -2.7945   -1.1693    2.5686 C   0  0  0  0  0  0  0  0  0 14  0  0
   -3.0780   -2.4566    3.0131 C   0  0  0  0  0  0  0  0  0 15  0  0
   -2.7322   -2.8614    4.2939 C   0  0  0  0  0  0  0  0  0 16  0  0
   -2.0625   -1.9902    5.1392 C   0  0  0  0  0  0  0  0  0 17  0  0
   -1.5132   -2.5543    6.6781 Cl  0  0  0  0  0  0  0  0  0 18  0  0
   -1.8016   -0.6889    4.7247 C   0  0  0  0  0  0  0  0  0 19  0  0
   -2.1674   -0.2778    3.4456 C   0  0  0  0  0  0  0  0  0 20  0  0
   -3.3416   -2.0596    0.1834 C   0  0  0  0  0  0  0  0  0 21  0  0
   -3.0124   -1.8490   -1.3004 C   0  0  0  0  0  0  0  0  0 22  0  0
   -4.8620   -2.3340    0.3192 C   0  0  0  0  0  0  0  0  0 23  0  0
    0.6425    1.4006    1.3940 C   0  0  0  0  0  0  0  0  0 24  0  0
    0.6439    2.0250    2.3602 N   0  0  0  0  0  0  0  0  0 25  0  0
    2.1090   -3.0335    3.0889 O   0  0  0  0  0  0  0  0  0 26  0  0
    0.9459   -3.9526    3.0437 C   0  0  0  0  0  0  0  0  0 27  0  0
    0.1312   -4.0413    1.9120 C   0  0  0  0  0  0  0  0  0 28  0  0
   -0.9698   -4.8831    1.8535 C   0  0  0  0  0  0  0  0  0 29  0  0
   -1.2809   -5.6670    2.9539 C   0  0  0  0  0  0  0  0  0 30  0  0
   -0.4878   -5.5891    4.0945 C   0  0  0  0  0  0  0  0  0 31  0  0
    0.6149   -4.7368    4.1443 C   0  0  0  0  0  0  0  0  0 32  0  0
 32 27  4  0
 31 32  4  0
 30 31  4  0
 29 30  4  0
 28 29  4  0
 27 28  4  0
 26 27  1  0
  4 26  1  0
 24 25  3  0
  7 24  1  0
 21 23  1  0
 21 22  1  0
 12 21  1  0
 20 14  4  0
 19 20  4  0
 17 19  4  0
 17 18  1  0
 16 17  4  0
 15 16  4  0
 14 15  4  0
 12 14  1  0
 12 13  1  0
 10 12  1  0
 10 11  2  0
  9 10  1  0
  7  9  1  0
  7  8  1  0
  6  7  1  0
  6  1  4  0
  5  6  4  0
  4  5  4  0
  3  4  4  0
  2  3  4  0
  1  2  4  0
M  END
> <Name>
Fenvalerate

> <CAS RN>
051630-58-1

> <Log Koc>
4.37

> <VP-0>
17.5435

> <nAromBond>
18

> <MAXDP>
5.99428

> <nHBAcc>
3

> <Splitting>
2

$$$$
Thidiazuron
  SciTegic01221512053D

 15 16  0  0  0  0            999 V2000
    2.2049    6.6657    0.9635 N   0  0  0  0  0  0  0  0  0  1  0  0
    3.0646    6.1344    0.1793 N   0  0  0  0  0  0  0  0  0  2  0  0
    2.8251    4.8593   -0.1710 C   0  0  0  0  0  0  0  0  0  3  0  0
    1.6582    4.3988    0.4210 C   0  0  0  0  0  0  0  0  0  4  0  0
    1.0823    5.6277    1.2957 S   0  0  0  0  0  0  0  0  0  5  0  0
    1.1065    3.1188    0.2807 N   0  0  0  0  0  0  0  0  0  6  0  0
   -0.0748    2.7510    0.9441 C   0  0  0  0  0  0  0  0  0  7  0  0
   -0.6451    3.5734    1.6687 O   0  0  0  0  0  0  0  0  0  8  0  0
   -0.6075    1.4346    0.8602 N   0  0  0  0  0  0  0  0  0  9  0  0
   -0.0768    0.3843    0.0598 C   0  0  0  0  0  0  0  0  0 10  0  0
    0.9636    0.5919   -0.8411 C   0  0  0  0  0  0  0  0  0 11  0  0
    1.4527   -0.4593   -1.6079 C   0  0  0  0  0  0  0  0  0 12  0  0
    0.9025   -1.7287   -1.4771 C   0  0  0  0  0  0  0  0  0 13  0  0
   -0.1372   -1.9423   -0.5800 C   0  0  0  0  0  0  0  0  0 14  0  0
   -0.6248   -0.8878    0.1839 C   0  0  0  0  0  0  0  0  0 15  0  0
 15 10  4  0
 14 15  4  0
 13 14  4  0
 12 13  4  0
 11 12  4  0
 10 11  4  0
  9 10  1  0
  7  9  1  0
  7  8  2  0
  6  7  1  0
  4  6  1  0
  5  1  4  0
  4  5  4  0
  3  4  4  0
  2  3  4  0
  1  2  4  0
M  END
> <Name>
Thidiazuron

> <CAS RN>
051707-55-2

> <Log Koc>
2.02

> <VP-0>
8.49152

> <nAromBond>
11

> <MAXDP>
4.45611

> <nHBAcc>
5

> <Splitting>
2

$$$$
Cypermethrin
  SciTegic01221512053D

 31 33  0  0  0  0            999 V2000
    1.6896    4.1132   -2.5477 C   0  0  0  0  0  0  0  0  0  1  0  0
    2.3314    2.9158   -2.8409 C   0  0  0  0  0  0  0  0  0  2  0  0
    1.6997    1.9562   -3.6233 C   0  0  0  0  0  0  0  0  0  3  0  0
    2.3725    0.6884   -3.8225 O   0  0  0  0  0  0  0  0  0  4  0  0
    1.6753   -0.3543   -3.1419 C   0  0  0  0  0  0  0  0  0  5  0  0
    0.6494   -0.0017   -2.2892 C   0  0  0  0  0  0  0  0  0  6  0  0
   -0.0507   -0.9005   -1.5314 C   0  0  0  0  0  0  0  0  0  7  0  0
   -1.1742   -0.2587   -0.7719 C   0  0  2  0  0  0  0  0  0  8  0  0
   -1.0028    0.8300   -0.8164 H   0  0  0  0  0  0  0  0  0  9  0  0
   -1.4657   -0.5854    0.5950 O   0  0  0  0  0  0  0  0  0 10  0  0
   -1.7854   -1.8804    0.8760 C   0  0  0  0  0  0  0  0  0 11  0  0
   -1.7640   -2.7715    0.0661 O   0  0  0  0  0  0  0  0  0 12  0  0
   -2.4893   -2.0575    2.0535 C   0  0  2  0  0  0  0  0  0 13  0  0
   -2.6563   -1.2136    2.7679 H   0  0  0  0  0  0  0  0  0 14  0  0
   -2.5988   -3.0812    3.3947 C   0  0  2  0  0  0  0  0  0 15  0  0
   -3.4108   -2.7396    4.1444 H   0  0  0  0  0  0  0  0  0 16  0  0
   -1.4445   -3.8237    4.0004 C   0  0  0  0  0  0  0  0  0 17  0  0
   -1.7184   -4.6408    5.0342 C   0  0  0  0  0  0  0  0  0 18  0  0
   -3.3637   -4.8356    5.5503 Cl  0  0  0  0  0  0  0  0  0 19  0  0
   -0.4803   -5.5914    5.7705 Cl  0  0  0  0  0  0  0  0  0 20  0  0
   -3.0804   -3.5298    2.1085 C   0  0  0  0  0  0  0  0  0 21  0  0
   -4.5749   -3.6856    2.0311 C   0  0  0  0  0  0  0  0  0 22  0  0
   -2.2434   -4.7630    1.7542 C   0  0  0  0  0  0  0  0  0 23  0  0
   -2.3755   -0.5300   -1.5540 C   0  0  0  0  0  0  0  0  0 24  0  0
   -3.3142   -0.7447   -2.1842 N   0  0  0  0  0  0  0  0  0 25  0  0
    0.2817   -2.2478   -1.6201 C   0  0  0  0  0  0  0  0  0 26  0  0
    1.3266   -2.6341   -2.4614 C   0  0  0  0  0  0  0  0  0 27  0  0
    2.0311   -1.6962   -3.2206 C   0  0  0  0  0  0  0  0  0 28  0  0
    0.4256    2.2273   -4.1413 C   0  0  0  0  0  0  0  0  0 29  0  0
   -0.2093    3.4307   -3.8596 C   0  0  0  0  0  0  0  0  0 30  0  0
    0.4189    4.3688   -3.0501 C   0  0  0  0  0  0  0  0  0 31  0  0
 31  1  4  0
 30 31  4  0
 29 30  4  0
  3 29  4  0
 28  5  4  0
 27 28  4  0
 26 27  4  0
  7 26  4  0
 24 25  3  0
  8 24  1  0
 21 23  1  0
 21 22  1  0
 21 13  1  0
 15 21  1  0
 18 20  1  0
 18 19  1  0
 17 18  2  0
 15 17  1  0
 15 16  1  0
 13 15  1  0
 13 14  1  0
 11 13  1  0
 11 12  2  0
 10 11  1  0
  8 10  1  0
  8  9  1  0
  7  8  1  0
  6  7  4  0
  5  6  4  0
  4  5  1  0
  3  4  1  0
  2  3  4  0
  1  2  4  0
M  END
> <Name>
Cypermethrin

> <CAS RN>
052315-07-8

> <Log Koc>
4.64

> <VP-0>
16.9453

> <nAromBond>
12

> <MAXDP>
5.72429

> <nHBAcc>
3

> <Splitting>
2

$$$$
Permethrin
  SciTegic01221512053D

 28 30  0  0  0  0            999 V2000
   -1.2028    1.9220    3.1569 C   0  0  0  0  0  0  0  0  0  1  0  0
   -2.2558    1.6947    2.2833 C   0  0  0  0  0  0  0  0  0  2  0  0
   -3.4608    2.3925    2.4211 C   0  0  0  0  0  0  0  0  0  3  0  0
   -4.6306    2.2141    1.5814 O   0  0  0  0  0  0  0  0  0  4  0  0
   -4.7240    1.3220    0.4380 C   0  0  0  0  0  0  0  0  0  5  0  0
   -3.6716    0.5588   -0.0900 C   0  0  0  0  0  0  0  0  0  6  0  0
   -3.8808   -0.2798   -1.1730 C   0  0  0  0  0  0  0  0  0  7  0  0
   -2.7642   -1.0933   -1.7697 C   0  0  0  0  0  0  0  0  0  8  0  0
   -1.5505   -0.3382   -1.8366 O   0  0  0  0  0  0  0  0  0  9  0  0
   -0.6059   -0.6566   -0.8593 C   0  0  0  0  0  0  0  0  0 10  0  0
   -0.8362   -1.5323   -0.0163 O   0  0  0  0  0  0  0  0  0 11  0  0
    0.7345    0.0519   -0.9673 C   0  0  1  0  0  0  0  0  0 12  0  0
    0.8591    0.7728   -1.7866 H   0  0  0  0  0  0  0  0  0 13  0  0
    1.6444    0.2607    0.1984 C   0  0  0  0  0  0  0  0  0 14  0  0
    1.2255   -0.1900    1.6039 C   0  0  0  0  0  0  0  0  0 15  0  0
    1.9804   -0.9268   -0.7343 C   0  0  1  0  0  0  0  0  0 16  0  0
    1.4950   -1.8963   -0.5611 H   0  0  0  0  0  0  0  0  0 17  0  0
    2.6526   -0.7311   -2.0810 C   0  0  0  0  0  0  0  0  0 18  0  0
    2.9247   -1.7635   -2.8814 C   0  0  0  0  0  0  0  0  0 19  0  0
    2.4842   -3.3697   -2.4219 Cl  0  0  0  0  0  0  0  0  0 20  0  0
    3.7454   -1.4957   -4.3828 Cl  0  0  0  0  0  0  0  0  0 21  0  0
    2.6941    1.3835    0.0794 C   0  0  0  0  0  0  0  0  0 22  0  0
   -5.1450   -0.3731   -1.7500 C   0  0  0  0  0  0  0  0  0 23  0  0
   -6.1886    0.3848   -1.2463 C   0  0  0  0  0  0  0  0  0 24  0  0
   -5.9695    1.2269   -0.1592 C   0  0  0  0  0  0  0  0  0 25  0  0
   -3.5745    3.3118    3.4522 C   0  0  0  0  0  0  0  0  0 26  0  0
   -2.5201    3.5463    4.3319 C   0  0  0  0  0  0  0  0  0 27  0  0
   -1.3307    2.8489    4.1855 C   0  0  0  0  0  0  0  0  0 28  0  0
 28  1  4  0
 27 28  4  0
 26 27  4  0
  3 26  4  0
 25  5  4  0
 24 25  4  0
 23 24  4  0
  7 23  4  0
 14 22  1  0
 19 21  1  0
 19 20  1  0
 18 19  2  0
 16 18  1  0
 16 12  1  0
 16 17  1  0
 14 16  1  0
 14 15  1  0
 12 14  1  0
 12 13  1  0
 10 12  1  0
 10 11  2  0
  9 10  1  0
  8  9  1  0
  7  8  1  0
  6  7  4  0
  5  6  4  0
  4  5  1  0
  3  4  1  0
  2  3  4  0
  1  2  4  0
M  END
> <Name>
Permethrin

> <CAS RN>
052645-53-1

> <Log Koc>
4

> <VP-0>
16.1278

> <nAromBond>
12

> <MAXDP>
5.5061

> <nHBAcc>
2

> <Splitting>
2

$$$$
2,2',3,4,5,5'-Hexachlorobiphenyl
  SciTegic01221512053D

 18 19  0  0  0  0            999 V2000
    0.3008    1.7700    2.7986 C   0  0  0  0  0  0  0  0  0  1  0  0
   -0.2683    2.0717    1.5644 C   0  0  0  0  0  0  0  0  0  2  0  0
   -1.4515    2.8291    1.5476 C   0  0  0  0  0  0  0  0  0  3  0  0
   -2.0051    3.2714    2.7453 C   0  0  0  0  0  0  0  0  0  4  0  0
   -1.4108    2.9810    3.9649 C   0  0  0  0  0  0  0  0  0  5  0  0
   -0.2532    2.2195    3.9901 C   0  0  0  0  0  0  0  0  0  6  0  0
    0.4990    1.8350    5.4969 Cl  0  0  0  0  0  0  0  0  0  7  0  0
   -2.3465    3.2021    0.1227 Cl  0  0  0  0  0  0  0  0  0  8  0  0
    0.4773    1.4946    0.3657 C   0  0  0  0  0  0  0  0  0  9  0  0
    0.5443    2.0247   -0.9320 C   0  0  0  0  0  0  0  0  0 10  0  0
    1.2817    1.3682   -1.9129 C   0  0  0  0  0  0  0  0  0 11  0  0
    1.9599    0.1915   -1.6290 C   0  0  0  0  0  0  0  0  0 12  0  0
    1.9130   -0.3311   -0.3468 C   0  0  0  0  0  0  0  0  0 13  0  0
    1.1829    0.3232    0.6355 C   0  0  0  0  0  0  0  0  0 14  0  0
    2.7613   -1.7889    0.0266 Cl  0  0  0  0  0  0  0  0  0 15  0  0
    2.8686   -0.6067   -2.8620 Cl  0  0  0  0  0  0  0  0  0 16  0  0
    1.3641    2.0357   -3.5035 Cl  0  0  0  0  0  0  0  0  0 17  0  0
   -0.1888    3.5075   -1.4157 Cl  0  0  0  0  0  0  0  0  0 18  0  0
 10 18  1  0
 11 17  1  0
 12 16  1  0
 13 15  1  0
 14  9  4  0
 13 14  4  0
 12 13  4  0
 11 12  4  0
 10 11  4  0
  9 10  4  0
  2  9  1  0
  3  8  1  0
  6  7  1  0
  6  1  4  0
  5  6  4  0
  4  5  4  0
  3  4  4  0
  2  3  4  0
  1  2  4  0
M  END
> <Name>
2,2',3,4,5,5'-Hexachlorobiphenyl

> <CAS RN>
052712-04-6

> <Log Koc>
5.95

> <VP-0>
13.1128

> <nAromBond>
13

> <MAXDP>
0.557791

> <nHBAcc>
0

> <Splitting>
2

$$$$
2,2',3,4,5,5',6-Heptachlorobiphenyl
  SciTegic01221512053D

 19 20  0  0  0  0            999 V2000
   -1.0891    3.4576    3.6587 C   0  0  0  0  0  0  0  0  0  1  0  0
    0.0908    2.7328    3.7361 C   0  0  0  0  0  0  0  0  0  2  0  0
    0.5734    2.0765    2.6114 C   0  0  0  0  0  0  0  0  0  3  0  0
   -0.0987    2.1319    1.3924 C   0  0  0  0  0  0  0  0  0  4  0  0
   -1.2951    2.8576    1.3262 C   0  0  0  0  0  0  0  0  0  5  0  0
   -1.7793    3.5098    2.4555 C   0  0  0  0  0  0  0  0  0  6  0  0
   -2.2645    2.9296   -0.1104 Cl  0  0  0  0  0  0  0  0  0  7  0  0
    0.4994    1.3898    0.1995 C   0  0  0  0  0  0  0  0  0  8  0  0
    0.5972    1.9842   -1.0665 C   0  0  0  0  0  0  0  0  0  9  0  0
    1.1532    1.2874   -2.1325 C   0  0  0  0  0  0  0  0  0 10  0  0
    1.6201   -0.0059   -1.9605 C   0  0  0  0  0  0  0  0  0 11  0  0
    1.5381   -0.6018   -0.7121 C   0  0  0  0  0  0  0  0  0 12  0  0
    0.9885    0.0870    0.3627 C   0  0  0  0  0  0  0  0  0 13  0  0
    0.9121   -0.7502    1.8827 Cl  0  0  0  0  0  0  0  0  0 14  0  0
    2.1212   -2.2123   -0.4907 Cl  0  0  0  0  0  0  0  0  0 15  0  0
    2.3087   -0.8655   -3.2909 Cl  0  0  0  0  0  0  0  0  0 16  0  0
    1.2729    2.0436   -3.6805 Cl  0  0  0  0  0  0  0  0  0 17  0  0
    0.0970    3.6156   -1.3735 Cl  0  0  0  0  0  0  0  0  0 18  0  0
    0.9599    2.6492    5.2267 Cl  0  0  0  0  0  0  0  0  0 19  0  0
  2 19  1  0
  9 18  1  0
 10 17  1  0
 11 16  1  0
 12 15  1  0
 13 14  1  0
 13  8  4  0
 12 13  4  0
 11 12  4  0
 10 11  4  0
  9 10  4  0
  8  9  4  0
  4  8  1  0
  5  7  1  0
  6  1  4  0
  5  6  4  0
  4  5  4  0
  3  4  4  0
  2  3  4  0
  1  2  4  0
M  END
> <Name>
2,2',3,4,5,5',6-Heptachlorobiphenyl

> <CAS RN>
052712-05-7

> <Log Koc>
5.77

> <VP-0>
14.1693

> <nAromBond>
13

> <MAXDP>
0.533981

> <nHBAcc>
0

> <Splitting>
2

$$$$
Ethalfluralin
  SciTegic01221512053D

 23 23  0  0  0  0            999 V2000
    3.9630    1.8946    1.8307 C   0  0  0  0  0  0  0  0  0  1  0  0
    4.8532    1.0375    1.2038 C   0  0  0  0  0  0  0  0  0  2  0  0
    4.3980    0.1805    0.2157 C   0  0  0  0  0  0  0  0  0  3  0  0
    3.0580    0.1780   -0.1519 C   0  0  0  0  0  0  0  0  0  4  0  0
    2.1513    1.0437    0.4725 C   0  0  0  0  0  0  0  0  0  5  0  0
    2.6187    1.9055    1.4787 C   0  0  0  0  0  0  0  0  0  6  0  0
    1.7911    2.8173    2.1895 N   0  0  0  0  0  0  0  0  0  7  0  0
    2.3484    3.5964    3.1034 O   0  0  0  0  0  0  0  0  0  8  0  0
    0.4939    2.9092    1.9881 O   0  0  0  0  0  0  0  0  0  9  0  0
    0.7671    1.0239    0.0922 N   0  0  0  0  0  0  0  0  0 10  0  0
    0.2166    2.0572   -0.8353 C   0  0  0  0  0  0  0  0  0 11  0  0
    1.3102    2.8642   -1.5771 C   0  0  0  0  0  0  0  0  0 12  0  0
   -0.1403    0.1589    0.8975 C   0  0  0  0  0  0  0  0  0 13  0  0
   -1.3496   -0.5168    0.2094 C   0  0  0  0  0  0  0  0  0 14  0  0
   -1.4761   -0.6320   -1.1141 C   0  0  0  0  0  0  0  0  0 15  0  0
   -2.3651   -1.2006    1.0762 C   0  0  0  0  0  0  0  0  0 16  0  0
    2.6791   -0.7221   -1.1695 N   0  0  0  0  0  0  0  0  0 17  0  0
    1.4525   -0.7740   -1.6304 O   0  0  0  0  0  0  0  0  0 18  0  0
    3.5951   -1.5224   -1.6904 O   0  0  0  0  0  0  0  0  0 19  0  0
    6.2979    1.0361    1.5933 C   0  0  0  0  0  0  0  0  0 20  0  0
    6.9700   -0.0018    0.9814 F   0  0  0  0  0  0  0  0  0 21  0  0
    6.3968    0.9650    2.9669 F   0  0  0  0  0  0  0  0  0 22  0  0
    6.8488    2.2441    1.2210 F   0  0  0  0  0  0  0  0  0 23  0  0
 20 23  1  0
 20 22  1  0
 20 21  1  0
  2 20  1  0
 17 19  1  0
 17 18  1  0
  4 17  1  0
 14 16  1  0
 14 15  2  0
 13 14  1  0
 10 13  1  0
 11 12  1  0
 10 11  1  0
  5 10  1  0
  7  9  1  0
  7  8  1  0
  6  7  1  0
  6  1  4  0
  5  6  4  0
  4  5  4  0
  3  4  4  0
  2  3  4  0
  1  2  4  0
M  END
> <Name>
Ethalfluralin

> <CAS RN>
055283-68-6

> <Log Koc>
3.8

> <VP-0>
12.0878

> <nAromBond>
6

> <MAXDP>
4.8266

> <nHBAcc>
1

> <Splitting>
2

$$$$
Dimethipin
  SciTegic01221512053D

 12 12  0  0  0  0            999 V2000
   -0.3143    1.0016    1.8212 C   0  0  0  0  0  0  0  0  0  1  0  0
    0.2377    2.3533    1.2626 C   0  0  0  0  0  0  0  0  0  2  0  0
    0.8430    2.2026   -0.4454 S   0  0  0  0  0  0  0  0  0  3  0  0
    1.5679    3.4654   -0.8702 O   0  0  0  0  0  0  0  0  0  4  0  0
   -0.3396    1.9716   -1.3652 O   0  0  0  0  0  0  0  0  0  5  0  0
    1.9120    0.7987   -0.5185 C   0  0  0  0  0  0  0  0  0  6  0  0
    1.4422   -0.3516   -0.0432 C   0  0  0  0  0  0  0  0  0  7  0  0
   -0.1990   -0.3489    0.6090 S   0  0  0  0  0  0  0  0  0  8  0  0
   -1.1778   -0.0806   -0.5171 O   0  0  0  0  0  0  0  0  0  9  0  0
   -0.5333   -1.6793    1.2560 O   0  0  0  0  0  0  0  0  0 10  0  0
    2.2682   -1.6074   -0.0565 C   0  0  0  0  0  0  0  0  0 11  0  0
    3.2955    0.9079   -1.0961 C   0  0  0  0  0  0  0  0  0 12  0  0
  6 12  1  0
  7 11  1  0
  8 10  2  0
  8  9  2  0
  8  1  1  0
  7  8  1  0
  6  7  2  0
  3  6  1  0
  3  5  2  0
  3  4  2  0
  2  3  1  0
  1  2  1  0
M  END
> <Name>
Dimethipin

> <CAS RN>
055290-64-7

> <Log Koc>
0.48

> <VP-0>
7.27119

> <nAromBond>
0

> <MAXDP>
4.32931

> <nHBAcc>
4

> <Splitting>
2

$$$$
Triclopyr 
  SciTegic01221512053D

 14 14  0  0  0  0            999 V2000
   -0.4432    3.0531    2.4490 C   0  0  0  0  0  0  0  0  0  1  0  0
    0.4044    3.7235    1.8478 O   0  0  0  0  0  0  0  0  0  2  0  0
   -1.5065    2.2980    1.6822 C   0  0  0  0  0  0  0  0  0  3  0  0
   -1.3223    2.4373    0.2599 O   0  0  0  0  0  0  0  0  0  4  0  0
   -0.2308    1.6844   -0.2062 C   0  0  0  0  0  0  0  0  0  5  0  0
    0.0926    1.7265   -1.5573 C   0  0  0  0  0  0  0  0  0  6  0  0
    1.1674    0.9852   -2.0277 C   0  0  0  0  0  0  0  0  0  7  0  0
    1.8896    0.2186   -1.1242 C   0  0  0  0  0  0  0  0  0  8  0  0
    1.5193    0.2141    0.2152 C   0  0  0  0  0  0  0  0  0  9  0  0
    0.4836    0.9366    0.6309 N   0  0  0  0  0  0  0  0  0 10  0  0
    2.4108   -0.7369    1.3482 Cl  0  0  0  0  0  0  0  0  0 11  0  0
    3.2364   -0.7221   -1.6590 Cl  0  0  0  0  0  0  0  0  0 12  0  0
   -0.8376    2.6963   -2.6425 Cl  0  0  0  0  0  0  0  0  0 13  0  0
   -0.4300    3.0076    3.8389 O   0  0  0  0  0  0  0  0  0 14  0  0
  1 14  1  0
  6 13  1  0
  8 12  1  0
  9 11  1  0
 10  5  4  0
  9 10  4  0
  8  9  4  0
  7  8  4  0
  6  7  4  0
  5  6  4  0
  4  5  1  0
  3  4  1  0
  1  3  1  0
  1  2  2  0
M  END
> <Name>
Triclopyr 

> <CAS RN>
055335-06-3

> <Log Koc>
1.55

> <VP-0>
8.89706

> <nAromBond>
6

> <MAXDP>
3.31467

> <nHBAcc>
3

> <Splitting>
2

$$$$
Isouron
  SciTegic01221512053D

 15 15  0  0  0  0            999 V2000
    0.1615    4.5495   -0.7919 N   0  0  0  0  0  0  0  0  0  1  0  0
    1.0573    4.3020    0.2968 C   0  0  0  0  0  0  0  0  0  2  0  0
    0.1092    5.8915   -1.2963 C   0  0  0  0  0  0  0  0  0  3  0  0
   -0.7379    3.5785   -1.4035 C   0  0  0  0  0  0  0  0  0  4  0  0
   -1.4775    4.0369   -2.2814 O   0  0  0  0  0  0  0  0  0  5  0  0
   -0.9914    2.1749   -1.0464 N   0  0  0  0  0  0  0  0  0  6  0  0
   -0.2996    1.2292   -0.2130 C   0  0  0  0  0  0  0  0  0  7  0  0
    1.0480    1.1728    0.0875 C   0  0  0  0  0  0  0  0  0  8  0  0
    1.1067    0.0387    0.8746 C   0  0  0  0  0  0  0  0  0  9  0  0
    2.3531   -0.5094    1.5021 C   0  0  0  0  0  0  0  0  0 10  0  0
    2.1594   -1.9886    1.8802 C   0  0  0  0  0  0  0  0  0 11  0  0
    2.6352    0.2982    2.7818 C   0  0  0  0  0  0  0  0  0 12  0  0
    3.5539   -0.3046    0.5588 C   0  0  0  0  0  0  0  0  0 13  0  0
   -0.0704   -0.4859    0.9865 O   0  0  0  0  0  0  0  0  0 14  0  0
   -0.8963    0.1853    0.3555 N   0  0  0  0  0  0  0  0  0 15  0  0
 15  7  4  0
 14 15  4  0
  9 14  4  0
 10 13  1  0
 10 12  1  0
 10 11  1  0
  9 10  1  0
  8  9  4  0
  7  8  4  0
  6  7  1  0
  4  6  1  0
  4  5  2  0
  1  4  1  0
  1  3  1  0
  1  2  1  0
M  END
> <Name>
Isouron

> <CAS RN>
055861-78-4

> <Log Koc>
2.47

> <VP-0>
9.78827

> <nAromBond>
5

> <MAXDP>
4.30431

> <nHBAcc>
3

> <Splitting>
2

$$$$
Terbufos sulfone
  SciTegic01221512053D

 17 16  0  0  0  0            999 V2000
    0.7226    2.5845    0.2723 P   0  0  0  0  0  0  0  0  0  1  0  0
    0.8404    4.1987   -0.2758 S   0  0  0  0  0  0  0  0  0  2  0  0
    1.7372    1.4748   -0.9796 S   0  0  0  0  0  0  0  0  0  3  0  0
    1.6416   -0.3246   -0.6897 C   0  0  0  0  0  0  0  0  0  4  0  0
   -0.0585   -0.9341   -0.8459 S   0  0  0  0  0  0  0  0  0  5  0  0
   -0.5906   -0.6085   -2.2282 O   0  0  0  0  0  0  0  0  0  6  0  0
   -0.9431   -0.2955    0.2057 O   0  0  0  0  0  0  0  0  0  7  0  0
   -0.0671   -2.7240   -0.6049 C   0  0  0  0  0  0  0  0  0  8  0  0
   -1.5072   -3.2508   -0.7383 C   0  0  0  0  0  0  0  0  0  9  0  0
    0.4733   -3.0526    0.7988 C   0  0  0  0  0  0  0  0  0 10  0  0
    0.8248   -3.3889   -1.6691 C   0  0  0  0  0  0  0  0  0 11  0  0
   -0.7769    2.1815    0.2528 O   0  0  0  0  0  0  0  0  0 12  0  0
   -1.5557    3.1180    1.0133 C   0  0  0  0  0  0  0  0  0 13  0  0
   -3.0341    2.6937    0.9839 C   0  0  0  0  0  0  0  0  0 14  0  0
    1.3062    2.5374    1.7375 O   0  0  0  0  0  0  0  0  0 15  0  0
    1.2076    1.2417    2.3497 C   0  0  0  0  0  0  0  0  0 16  0  0
    1.7970    1.2984    3.7690 C   0  0  0  0  0  0  0  0  0 17  0  0
 16 17  1  0
 15 16  1  0
  1 15  1  0
 13 14  1  0
 12 13  1  0
  1 12  1  0
  8 11  1  0
  8 10  1  0
  8  9  1  0
  5  8  1  0
  5  7  2  0
  5  6  2  0
  4  5  1  0
  3  4  1  0
  1  3  1  0
  1  2  2  0
M  END
> <Name>
Terbufos sulfone

> <CAS RN>
056070-16-7

> <Log Koc>
2.18

> <VP-0>
13.6574

> <nAromBond>
0

> <MAXDP>
5.25462

> <nHBAcc>
4

> <Splitting>
2

$$$$
Metalaxyl
  SciTegic01221512053D

 21 21  0  0  0  0            999 V2000
    1.6813    3.6874    1.3356 C   0  0  0  0  0  0  0  0  0  1  0  0
    1.4558    3.6690    2.7042 C   0  0  0  0  0  0  0  0  0  2  0  0
    0.4068    2.9184    3.2142 C   0  0  0  0  0  0  0  0  0  3  0  0
   -0.4153    2.1868    2.3651 C   0  0  0  0  0  0  0  0  0  4  0  0
   -0.1946    2.1987    0.9818 C   0  0  0  0  0  0  0  0  0  5  0  0
    0.8666    2.9596    0.4762 C   0  0  0  0  0  0  0  0  0  6  0  0
    1.1632    3.0306   -0.9989 C   0  0  0  0  0  0  0  0  0  7  0  0
   -1.0482    1.4329    0.0893 N   0  0  0  0  0  0  0  0  0  8  0  0
   -0.6494    0.0562   -0.2929 C   0  0  1  0  0  0  0  0  0  9  0  0
    0.3560   -0.1347    0.1086 H   0  0  0  0  0  0  0  0  0 10  0  0
   -1.5974   -1.0211    0.2815 C   0  0  0  0  0  0  0  0  0 11  0  0
   -0.6129   -0.1247   -1.7928 C   0  0  0  0  0  0  0  0  0 12  0  0
   -0.4065    0.8412   -2.5355 O   0  0  0  0  0  0  0  0  0 13  0  0
   -0.8224   -1.3874   -2.3405 O   0  0  0  0  0  0  0  0  0 14  0  0
   -0.7498   -1.3125   -3.7676 C   0  0  0  0  0  0  0  0  0 15  0  0
   -2.2768    1.9979   -0.4193 C   0  0  0  0  0  0  0  0  0 16  0  0
   -3.0003    1.3295   -1.1687 O   0  0  0  0  0  0  0  0  0 17  0  0
   -2.6932    3.4140   -0.0452 C   0  0  0  0  0  0  0  0  0 18  0  0
   -3.8521    3.8419   -0.7813 O   0  0  0  0  0  0  0  0  0 19  0  0
   -3.5153    4.0766   -2.1591 C   0  0  0  0  0  0  0  0  0 20  0  0
   -1.5392    1.3940    2.9865 C   0  0  0  0  0  0  0  0  0 21  0  0
  4 21  1  0
 19 20  1  0
 18 19  1  0
 16 18  1  0
 16 17  2  0
  8 16  1  0
 14 15  1  0
 12 14  1  0
 12 13  2  0
  9 12  1  0
  9 11  1  0
  9 10  1  0
  8  9  1  0
  5  8  1  0
  6  7  1  0
  6  1  4  0
  5  6  4  0
  4  5  4  0
  3  4  4  0
  2  3  4  0
  1  2  4  0
M  END
> <Name>
Metalaxyl

> <CAS RN>
057837-19-1

> <Log Koc>
1.63

> <VP-0>
12.5967

> <nAromBond>
6

> <MAXDP>
5.30311

> <nHBAcc>
5

> <Splitting>
2

$$$$
Tridiphane
  SciTegic01221512053D

 16 17  0  0  0  0            999 V2000
    1.7910   -1.0117    0.3823 C   0  0  0  0  0  0  0  0  0  1  0  0
    1.0117   -0.0052   -0.1796 C   0  0  0  0  0  0  0  0  0  2  0  0
    1.6241    1.0320   -0.8731 C   0  0  0  0  0  0  0  0  0  3  0  0
    3.0085    1.0715   -0.9936 C   0  0  0  0  0  0  0  0  0  4  0  0
    3.7848    0.0680   -0.4262 C   0  0  0  0  0  0  0  0  0  5  0  0
    3.1747   -0.9749    0.2610 C   0  0  0  0  0  0  0  0  0  6  0  0
    4.1360   -2.2269    0.9628 Cl  0  0  0  0  0  0  0  0  0  7  0  0
    3.7634    2.3682   -1.8492 Cl  0  0  0  0  0  0  0  0  0  8  0  0
   -0.4990   -0.0340   -0.0724 C   0  0  2  0  0  0  0  0  0  9  0  0
   -1.1932    0.2447   -1.3727 C   0  0  0  0  0  0  0  0  0 10  0  0
   -1.1257    1.2418   -0.3111 O   0  0  0  0  0  0  0  0  0 11  0  0
   -1.2535   -0.9898    0.9027 C   0  0  0  0  0  0  0  0  0 12  0  0
   -1.2125   -0.5189    2.3985 C   0  0  0  0  0  0  0  0  0 13  0  0
   -1.9703    1.0723    2.5250 Cl  0  0  0  0  0  0  0  0  0 14  0  0
    0.4261   -0.4219    3.0503 Cl  0  0  0  0  0  0  0  0  0 15  0  0
   -2.1324   -1.6666    3.3758 Cl  0  0  0  0  0  0  0  0  0 16  0  0
 13 16  1  0
 13 15  1  0
 13 14  1  0
 12 13  1  0
  9 12  1  0
 11  9  1  0
 10 11  1  0
  9 10  1  0
  2  9  1  0
  4  8  1  0
  6  7  1  0
  6  1  4  0
  5  6  4  0
  4  5  4  0
  3  4  4  0
  2  3  4  0
  1  2  4  0
M  END
> <Name>
Tridiphane

> <CAS RN>
058138-08-2

> <Log Koc>
3.75

> <VP-0>
11.724

> <nAromBond>
6

> <MAXDP>
2.38309

> <nHBAcc>
1

> <Splitting>
2

$$$$
Thiodicarb
  SciTegic01221512053D

 21 20  0  0  0  0            999 V2000
    3.0372    8.0286    1.6944 C   0  0  0  0  0  0  0  0  0  1  0  0
    3.3538    6.6266    0.5942 S   0  0  0  0  0  0  0  0  0  2  0  0
    3.3029    5.1182    1.5224 C   0  0  0  0  0  0  0  0  0  3  0  0
    3.4840    4.0068    0.9345 N   0  0  0  0  0  0  0  0  0  4  0  0
    3.4441    2.8792    1.6238 O   0  0  0  0  0  0  0  0  0  5  0  0
    3.6596    1.8116    0.7646 C   0  0  0  0  0  0  0  0  0  6  0  0
    3.8462    2.0177   -0.4394 O   0  0  0  0  0  0  0  0  0  7  0  0
    3.6502    0.5048    1.2604 N   0  0  0  0  0  0  0  0  0  8  0  0
    3.8984   -0.8259    0.2140 S   0  0  0  0  0  0  0  0  0  9  0  0
    3.0764   -0.6097   -1.2717 N   0  0  0  0  0  0  0  0  0 10  0  0
    3.7532   -0.8885   -2.5051 C   0  0  0  0  0  0  0  0  0 11  0  0
    1.7462   -0.1755   -1.2943 C   0  0  0  0  0  0  0  0  0 12  0  0
    1.1628   -0.0285   -2.3737 O   0  0  0  0  0  0  0  0  0 13  0  0
    1.0826    0.1013   -0.1064 O   0  0  0  0  0  0  0  0  0 14  0  0
   -0.1471    0.5033   -0.3807 N   0  0  0  0  0  0  0  0  0 15  0  0
   -0.9392    0.8228    0.5597 C   0  0  0  0  0  0  0  0  0 16  0  0
   -0.4818    0.7470    1.9878 C   0  0  0  0  0  0  0  0  0 17  0  0
   -2.5847    1.3615    0.1832 S   0  0  0  0  0  0  0  0  0 18  0  0
   -3.4639    1.7483    1.7176 C   0  0  0  0  0  0  0  0  0 19  0  0
    3.4441    0.2786    2.6614 C   0  0  0  0  0  0  0  0  0 20  0  0
    3.0427    5.1525    3.0016 C   0  0  0  0  0  0  0  0  0 21  0  0
  3 21  1  0
  8 20  1  0
 18 19  1  0
 16 18  1  0
 16 17  1  0
 15 16  2  0
 14 15  1  0
 12 14  1  0
 12 13  2  0
 10 12  1  0
 10 11  1  0
  9 10  1  0
  8  9  1  0
  6  8  1  0
  6  7  2  0
  5  6  1  0
  4  5  1  0
  3  4  2  0
  2  3  1  0
  1  2  1  0
M  END
> <Name>
Thiodicarb

> <CAS RN>
059669-26-0

> <Log Koc>
2.49

> <VP-0>
15.0961

> <nAromBond>
0

> <MAXDP>
4.70962

> <nHBAcc>
4

> <Splitting>
2

$$$$
Fluridone
  SciTegic01221512053D

 24 26  0  0  0  0            999 V2000
    1.8614    6.7276    4.0353 C   0  0  0  0  0  0  0  0  0  1  0  0
    1.0235    5.5310    3.7097 C   0  0  0  0  0  0  0  0  0  2  0  0
   -0.0404    5.1815    4.5321 C   0  0  0  0  0  0  0  0  0  3  0  0
   -0.8144    4.0696    4.2235 C   0  0  0  0  0  0  0  0  0  4  0  0
   -0.5232    3.3112    3.0953 C   0  0  0  0  0  0  0  0  0  5  0  0
    0.5414    3.6570    2.2680 C   0  0  0  0  0  0  0  0  0  6  0  0
    1.3118    4.7709    2.5828 C   0  0  0  0  0  0  0  0  0  7  0  0
    0.8914    2.8750    1.0488 C   0  0  0  0  0  0  0  0  0  8  0  0
    1.9752    3.3061    0.2929 C   0  0  0  0  0  0  0  0  0  9  0  0
    2.3486    2.6627   -0.8059 N   0  0  0  0  0  0  0  0  0 10  0  0
    1.6982    1.5831   -1.2213 C   0  0  0  0  0  0  0  0  0 11  0  0
    0.6038    1.0863   -0.5231 C   0  0  0  0  0  0  0  0  0 12  0  0
    0.1884    1.7424    0.6363 C   0  0  0  0  0  0  0  0  0 13  0  0
   -0.7797    1.3302    1.2829 O   0  0  0  0  0  0  0  0  0 14  0  0
   -0.0688   -0.1315   -1.0605 C   0  0  0  0  0  0  0  0  0 15  0  0
    0.4297   -0.7048   -2.2258 C   0  0  0  0  0  0  0  0  0 16  0  0
   -0.1652   -1.8405   -2.7634 C   0  0  0  0  0  0  0  0  0 17  0  0
   -1.2661   -2.4115   -2.1363 C   0  0  0  0  0  0  0  0  0 18  0  0
   -1.7693   -1.8440   -0.9718 C   0  0  0  0  0  0  0  0  0 19  0  0
   -1.1717   -0.7084   -0.4374 C   0  0  0  0  0  0  0  0  0 20  0  0
    3.4722    3.1414   -1.5560 C   0  0  0  0  0  0  0  0  0 21  0  0
    1.6454    7.1361    5.3350 F   0  0  0  0  0  0  0  0  0 22  0  0
    1.5090    7.7436    3.1722 F   0  0  0  0  0  0  0  0  0 23  0  0
    3.1892    6.4403    3.7972 F   0  0  0  0  0  0  0  0  0 24  0  0
  1 24  1  0
  1 23  1  0
  1 22  1  0
 10 21  1  0
 20 15  4  0
 19 20  4  0
 18 19  4  0
 17 18  4  0
 16 17  4  0
 15 16  4  0
 12 15  1  0
 13 14  2  0
 13  8  4  0
 12 13  4  0
 11 12  4  0
 10 11  4  0
  9 10  4  0
  8  9  4  0
  6  8  1  0
  7  2  4  0
  6  7  4  0
  5  6  4  0
  4  5  4  0
  3  4  4  0
  2  3  4  0
  1  2  1  0
M  END
> <Name>
Fluridone

> <CAS RN>
059756-60-4

> <Log Koc>
2.75

> <VP-0>
12.8402

> <nAromBond>
12

> <MAXDP>
5.78844

> <nHBAcc>
2

> <Splitting>
2

$$$$
Fenarimol
  SciTegic01221512053D

 22 24  0  0  0  0            999 V2000
    2.4533    2.5932   -1.6075 C   0  0  0  0  0  0  0  0  0  1  0  0
    1.2535    1.9436   -1.3428 C   0  0  0  0  0  0  0  0  0  2  0  0
    1.2320    0.8059   -0.5421 C   0  0  0  0  0  0  0  0  0  3  0  0
    2.4241    0.3194   -0.0120 C   0  0  0  0  0  0  0  0  0  4  0  0
    3.6251    0.9673   -0.2758 C   0  0  0  0  0  0  0  0  0  5  0  0
    3.6399    2.1053   -1.0734 C   0  0  0  0  0  0  0  0  0  6  0  0
    5.1319    2.9122   -1.4021 Cl  0  0  0  0  0  0  0  0  0  7  0  0
   -0.1026    0.1124   -0.2726 C   0  0  2  0  0  0  0  0  0  8  0  0
   -1.1217    1.1184    0.3018 C   0  0  0  0  0  0  0  0  0  9  0  0
   -0.8643    1.9793    1.3773 C   0  0  0  0  0  0  0  0  0 10  0  0
   -1.8536    2.8541    1.8139 C   0  0  0  0  0  0  0  0  0 11  0  0
   -3.0959    2.8862    1.1939 C   0  0  0  0  0  0  0  0  0 12  0  0
   -3.3544    2.0360    0.1277 C   0  0  0  0  0  0  0  0  0 13  0  0
   -2.3701    1.1600   -0.3117 C   0  0  0  0  0  0  0  0  0 14  0  0
    0.6584    2.0001    2.2115 Cl  0  0  0  0  0  0  0  0  0 15  0  0
    0.0911   -1.1351    0.6016 C   0  0  0  0  0  0  0  0  0 16  0  0
    0.4989   -2.3288    0.0186 C   0  0  0  0  0  0  0  0  0 17  0  0
    0.6494   -3.4098    0.7734 N   0  0  0  0  0  0  0  0  0 18  0  0
    0.4088   -3.3674    2.0795 C   0  0  0  0  0  0  0  0  0 19  0  0
    0.0081   -2.2461    2.6690 N   0  0  0  0  0  0  0  0  0 20  0  0
   -0.1603   -1.1323    1.9678 C   0  0  0  0  0  0  0  0  0 21  0  0
   -0.5913   -0.3115   -1.5456 O   0  0  0  0  0  0  0  0  0 22  0  0
  8 22  1  0
 21 16  4  0
 20 21  4  0
 19 20  4  0
 18 19  4  0
 17 18  4  0
 16 17  4  0
  8 16  1  0
 10 15  1  0
 14  9  4  0
 13 14  4  0
 12 13  4  0
 11 12  4  0
 10 11  4  0
  9 10  4  0
  8  9  1  0
  3  8  1  0
  6  7  1  0
  6  1  4  0
  5  6  4  0
  4  5  4  0
  3  4  4  0
  2  3  4  0
  1  2  4  0
M  END
> <Name>
Fenarimol

> <CAS RN>
060168-88-9

> <Log Koc>
2.95

> <VP-0>
12.9603

> <nAromBond>
18

> <MAXDP>
5.65653

> <nHBAcc>
3

> <Splitting>
2

$$$$
Propiconazole
  SciTegic01221512053D

 23 25  0  0  0  0            999 V2000
    0.9473    2.1875   -0.3854 N   0  0  0  0  0  0  0  0  0  1  0  0
    1.1428    2.2854    0.8590 N   0  0  0  0  0  0  0  0  0  2  0  0
    1.9210    3.3422    1.0630 C   0  0  0  0  0  0  0  0  0  3  0  0
    2.1897    3.8872   -0.1174 N   0  0  0  0  0  0  0  0  0  4  0  0
    1.5718    3.1580   -1.0357 C   0  0  0  0  0  0  0  0  0  5  0  0
    0.1507    1.1703   -1.0287 C   0  0  0  0  0  0  0  0  0  6  0  0
   -0.1204   -0.0467   -0.0958 C   0  0  2  0  0  0  0  0  0  7  0  0
   -0.9962   -0.9128   -0.8782 O   0  0  0  0  0  0  0  0  0  8  0  0
   -2.1037   -1.1304   -0.0046 C   0  0  2  0  0  0  0  0  0  9  0  0
   -3.0036   -1.4338   -0.5571 H   0  0  0  0  0  0  0  0  0 10  0  0
   -2.2194    0.2752    0.6095 C   0  0  0  0  0  0  0  0  0 11  0  0
   -0.8801    0.3565    1.0756 O   0  0  0  0  0  0  0  0  0 12  0  0
   -1.7320   -2.2678    1.0405 C   0  0  0  0  0  0  0  0  0 13  0  0
   -2.8298   -2.6334    2.1028 C   0  0  0  0  0  0  0  0  0 14  0  0
   -2.9511   -1.6217    3.2689 C   0  0  0  0  0  0  0  0  0 15  0  0
    1.1936   -0.7020    0.2919 C   0  0  0  0  0  0  0  0  0 16  0  0
    1.9420   -1.4322   -0.6327 C   0  0  0  0  0  0  0  0  0 17  0  0
    3.1320   -2.0290   -0.2364 C   0  0  0  0  0  0  0  0  0 18  0  0
    3.5793   -1.9027    1.0741 C   0  0  0  0  0  0  0  0  0 19  0  0
    2.8340   -1.1783    1.9947 C   0  0  0  0  0  0  0  0  0 20  0  0
    1.6426   -0.5816    1.6010 C   0  0  0  0  0  0  0  0  0 21  0  0
    5.0584   -2.6503    1.5595 Cl  0  0  0  0  0  0  0  0  0 22  0  0
    1.4087   -1.6207   -2.2704 Cl  0  0  0  0  0  0  0  0  0 23  0  0
 17 23  1  0
 19 22  1  0
 21 16  4  0
 20 21  4  0
 19 20  4  0
 18 19  4  0
 17 18  4  0
 16 17  4  0
  7 16  1  0
 14 15  1  0
 13 14  1  0
  9 13  1  0
 12  7  1  0
 11 12  1  0
  9 11  1  0
  9 10  1  0
  8  9  1  0
  7  8  1  0
  6  7  1  0
  1  6  1  0
  5  1  4  0
  4  5  4  0
  3  4  4  0
  2  3  4  0
  1  2  4  0
M  END
> <Name>
Propiconazole

> <CAS RN>
060207-90-1

> <Log Koc>
3.39

> <VP-0>
13.7184

> <nAromBond>
11

> <MAXDP>
2.89824

> <nHBAcc>
5

> <Splitting>
1

$$$$
Fluorochloridone
  SciTegic01221512053D

 21 22  0  0  0  0            999 V2000
   -1.2864   -1.5487   -0.0206 C   0  0  0  0  0  0  0  0  0  1  0  0
   -1.1849   -2.7116    1.0013 C   0  0  2  0  0  0  0  0  0  2  0  0
   -1.6054   -3.6635    0.6475 H   0  0  0  0  0  0  0  0  0  3  0  0
   -1.9208   -2.1111    2.2161 C   0  0  2  0  0  0  0  0  0  4  0  0
   -2.9683   -1.9476    1.9272 H   0  0  0  0  0  0  0  0  0  5  0  0
   -1.2287   -0.8053    2.2172 C   0  0  0  0  0  0  0  0  0  6  0  0
   -1.0247   -0.1149    3.2225 O   0  0  0  0  0  0  0  0  0  7  0  0
   -0.8930   -0.4728    0.8874 N   0  0  0  0  0  0  0  0  0  8  0  0
   -0.2748    0.7207    0.4605 C   0  0  0  0  0  0  0  0  0  9  0  0
    0.0282    1.7361    1.3618 C   0  0  0  0  0  0  0  0  0 10  0  0
    0.6422    2.9027    0.9208 C   0  0  0  0  0  0  0  0  0 11  0  0
    0.9593    3.0557   -0.4238 C   0  0  0  0  0  0  0  0  0 12  0  0
    0.6588    2.0417   -1.3253 C   0  0  0  0  0  0  0  0  0 13  0  0
    0.0421    0.8775   -0.8837 C   0  0  0  0  0  0  0  0  0 14  0  0
    1.0056    2.1982   -2.7726 C   0  0  0  0  0  0  0  0  0 15  0  0
    0.1487    1.4507   -3.5530 F   0  0  0  0  0  0  0  0  0 16  0  0
    2.2830    1.7105   -2.9542 F   0  0  0  0  0  0  0  0  0 17  0  0
    1.0058    3.5319   -3.1232 F   0  0  0  0  0  0  0  0  0 18  0  0
   -1.8666   -3.0177    3.7330 Cl  0  0  0  0  0  0  0  0  0 19  0  0
    0.3250   -2.9078    1.3221 C   0  0  0  0  0  0  0  0  0 20  0  0
    0.5719   -4.1632    2.5407 Cl  0  0  0  0  0  0  0  0  0 21  0  0
 20 21  1  0
  2 20  1  0
  4 19  1  0
 15 18  1  0
 15 17  1  0
 15 16  1  0
 13 15  1  0
 14  9  4  0
 13 14  4  0
 12 13  4  0
 11 12  4  0
 10 11  4  0
  9 10  4  0
  8  9  1  0
  8  1  1  0
  6  8  1  0
  6  7  2  0
  4  6  1  0
  4  5  1  0
  2  4  1  0
  2  3  1  0
  1  2  1  0
M  END
> <Name>
Fluorochloridone

> <CAS RN>
061213-25-0

> <Log Koc>
2.55

> <VP-0>
11.1355

> <nAromBond>
6

> <MAXDP>
5.13978

> <nHBAcc>
2

> <Splitting>
2

$$$$
Flumetralin
  SciTegic01221512053D

 28 29  0  0  0  0            999 V2000
   -0.6964    5.7850    2.1838 C   0  0  0  0  0  0  0  0  0  1  0  0
    0.5259    5.4807    1.6122 C   0  0  0  0  0  0  0  0  0  2  0  0
    0.8821    4.1632    1.3537 C   0  0  0  0  0  0  0  0  0  3  0  0
    0.0014    3.1139    1.6727 C   0  0  0  0  0  0  0  0  0  4  0  0
   -1.2347    3.4327    2.2656 C   0  0  0  0  0  0  0  0  0  5  0  0
   -1.5677    4.7603    2.5076 C   0  0  0  0  0  0  0  0  0  6  0  0
   -2.2114    2.4880    2.7052 N   0  0  0  0  0  0  0  0  0  7  0  0
   -3.3767    2.9479    3.1341 O   0  0  0  0  0  0  0  0  0  8  0  0
   -1.9519    1.2081    2.8720 O   0  0  0  0  0  0  0  0  0  9  0  0
    0.3833    1.7458    1.3994 N   0  0  0  0  0  0  0  0  0 10  0  0
   -0.4594    0.8472    0.5588 C   0  0  0  0  0  0  0  0  0 11  0  0
    0.0662    0.5374   -0.8476 C   0  0  0  0  0  0  0  0  0 12  0  0
    0.5521    1.5247   -1.7025 C   0  0  0  0  0  0  0  0  0 13  0  0
    1.0149    1.1852   -2.9689 C   0  0  0  0  0  0  0  0  0 14  0  0
    0.9961   -0.1380   -3.3912 C   0  0  0  0  0  0  0  0  0 15  0  0
    0.5038   -1.1237   -2.5458 C   0  0  0  0  0  0  0  0  0 16  0  0
    0.0388   -0.7851   -1.2806 C   0  0  0  0  0  0  0  0  0 17  0  0
   -0.5726   -2.0193   -0.2371 Cl  0  0  0  0  0  0  0  0  0 18  0  0
    0.5647    2.7993   -1.3361 F   0  0  0  0  0  0  0  0  0 19  0  0
    1.4192    1.1538    2.2674 C   0  0  0  0  0  0  0  0  0 20  0  0
    1.4056   -0.3895    2.2574 C   0  0  0  0  0  0  0  0  0 21  0  0
    2.1605    3.9895    0.7380 N   0  0  0  0  0  0  0  0  0 22  0  0
    2.6093    2.8253    0.3161 O   0  0  0  0  0  0  0  0  0 23  0  0
    2.9030    5.0636    0.5229 O   0  0  0  0  0  0  0  0  0 24  0  0
   -1.0676    7.2079    2.4623 C   0  0  0  0  0  0  0  0  0 25  0  0
   -0.1267    8.0725    1.9425 F   0  0  0  0  0  0  0  0  0 26  0  0
   -1.1628    7.3712    3.8288 F   0  0  0  0  0  0  0  0  0 27  0  0
   -2.3228    7.4574    1.9495 F   0  0  0  0  0  0  0  0  0 28  0  0
 25 28  1  0
 25 27  1  0
 25 26  1  0
  1 25  1  0
 22 24  1  0
 22 23  1  0
  3 22  1  0
 20 21  1  0
 10 20  1  0
 13 19  1  0
 17 18  1  0
 17 12  4  0
 16 17  4  0
 15 16  4  0
 14 15  4  0
 13 14  4  0
 12 13  4  0
 11 12  1  0
 10 11  1  0
  4 10  1  0
  7  9  1  0
  7  8  1  0
  5  7  1  0
  6  1  4  0
  5  6  4  0
  4  5  4  0
  3  4  4  0
  2  3  4  0
  1  2  4  0
M  END
> <Name>
Flumetralin

> <CAS RN>
062924-70-3

> <Log Koc>
4

> <VP-0>
14.6246

> <nAromBond>
12

> <MAXDP>
6.18447

> <nHBAcc>
1

> <Splitting>
2

$$$$
Pentyl-N-phenylcarbamate
  SciTegic01221512053D

 15 15  0  0  0  0            999 V2000
    3.7647    3.5739   -0.9398 C   0  0  0  0  0  0  0  0  0  1  0  0
    4.3811    2.3373   -0.7867 C   0  0  0  0  0  0  0  0  0  2  0  0
    3.6140    1.1800   -0.7279 C   0  0  0  0  0  0  0  0  0  3  0  0
    2.2274    1.2498   -0.8231 C   0  0  0  0  0  0  0  0  0  4  0  0
    1.6163    2.4899   -0.9751 C   0  0  0  0  0  0  0  0  0  5  0  0
    2.3807    3.6499   -1.0345 C   0  0  0  0  0  0  0  0  0  6  0  0
    1.4795    0.0454   -0.7443 N   0  0  0  0  0  0  0  0  0  7  0  0
    0.0666   -0.0296   -0.8225 C   0  0  0  0  0  0  0  0  0  8  0  0
   -0.6297    0.9754   -1.0061 O   0  0  0  0  0  0  0  0  0  9  0  0
   -0.5525   -1.2743   -0.6315 O   0  0  0  0  0  0  0  0  0 10  0  0
   -2.0041   -1.2002   -0.6441 C   0  0  0  0  0  0  0  0  0 11  0  0
   -2.6079   -1.0176    0.7992 C   0  0  0  0  0  0  0  0  0 12  0  0
   -2.3066    0.3683    1.4306 C   0  0  0  0  0  0  0  0  0 13  0  0
   -2.8327    0.4287    2.8746 C   0  0  0  0  0  0  0  0  0 14  0  0
   -2.0902   -0.6119    3.7354 C   0  0  0  0  0  0  0  0  0 15  0  0
 14 15  1  0
 13 14  1  0
 12 13  1  0
 11 12  1  0
 10 11  1  0
  8 10  1  0
  8  9  2  0
  7  8  1  0
  4  7  1  0
  6  1  4  0
  5  6  4  0
  4  5  4  0
  3  4  4  0
  2  3  4  0
  1  2  4  0
M  END
> <Name>
Pentyl-N-phenylcarbamate

> <CAS RN>
063075-06-9

> <Log Koc>
2.61

> <VP-0>
9.03168

> <nAromBond>
6

> <MAXDP>
4.24227

> <nHBAcc>
3

> <Splitting>
1

$$$$
Chlorosulfuron
  SciTegic01221512053D

 23 24  0  0  0  0            999 V2000
    5.9993    2.6197    1.8462 C   0  0  0  0  0  0  0  0  0  1  0  0
    5.2612    2.0477    0.8166 C   0  0  0  0  0  0  0  0  0  2  0  0
    4.0266    2.5819    0.4665 C   0  0  0  0  0  0  0  0  0  3  0  0
    3.5293    3.6893    1.1467 C   0  0  0  0  0  0  0  0  0  4  0  0
    4.2672    4.2610    2.1767 C   0  0  0  0  0  0  0  0  0  5  0  0
    5.5025    3.7264    2.5257 C   0  0  0  0  0  0  0  0  0  6  0  0
    1.9525    4.3622    0.7071 S   0  0  0  0  0  0  0  0  0  7  0  0
    1.4812    5.3394    1.7669 O   0  0  0  0  0  0  0  0  0  8  0  0
    2.0707    5.0630   -0.6327 O   0  0  0  0  0  0  0  0  0  9  0  0
    0.8777    3.0614    0.5390 N   0  0  0  0  0  0  0  0  0 10  0  0
   -0.0786    2.7752    1.5084 C   0  0  0  0  0  0  0  0  0 11  0  0
   -0.2005    3.5044    2.4987 O   0  0  0  0  0  0  0  0  0 12  0  0
   -0.7752    1.5628    1.4456 N   0  0  0  0  0  0  0  0  0 13  0  0
   -0.6318    0.7198    0.3334 C   0  0  0  0  0  0  0  0  0 14  0  0
   -0.0877    1.1756   -0.7885 N   0  0  0  0  0  0  0  0  0 15  0  0
    0.0567    0.3765   -1.8349 C   0  0  0  0  0  0  0  0  0 16  0  0
   -0.3370   -0.8886   -1.7592 N   0  0  0  0  0  0  0  0  0 17  0  0
   -0.8783   -1.3472   -0.6383 C   0  0  0  0  0  0  0  0  0 18  0  0
   -1.0288   -0.5426    0.4063 N   0  0  0  0  0  0  0  0  0 19  0  0
   -1.3150   -2.7787   -0.5497 C   0  0  0  0  0  0  0  0  0 20  0  0
    0.6242    0.8704   -3.0093 O   0  0  0  0  0  0  0  0  0 21  0  0
    0.6803   -0.1605   -3.9992 C   0  0  0  0  0  0  0  0  0 22  0  0
    3.1160    1.8629   -0.8147 Cl  0  0  0  0  0  0  0  0  0 23  0  0
  3 23  1  0
 21 22  1  0
 16 21  1  0
 18 20  1  0
 19 14  4  0
 18 19  4  0
 17 18  4  0
 16 17  4  0
 15 16  4  0
 14 15  4  0
 13 14  1  0
 11 13  1  0
 11 12  2  0
 10 11  1  0
  7 10  1  0
  7  9  2  0
  7  8  2  0
  4  7  1  0
  6  1  4  0
  5  6  4  0
  4  5  4  0
  3  4  4  0
  2  3  4  0
  1  2  4  0
M  END
> <Name>
Chlorosulfuron

> <CAS RN>
064902-72-3

> <Log Koc>
1.61

> <VP-0>
13.0299

> <nAromBond>
12

> <MAXDP>
5.3682

> <nHBAcc>
8

> <Splitting>
2

$$$$
Cyromazine
  SciTegic01221512053D

 12 13  0  0  0  0            999 V2000
   -0.6139    1.2739   -0.2117 N   0  0  0  0  0  0  0  0  0  1  0  0
    0.2055    2.3154   -0.2623 C   0  0  0  0  0  0  0  0  0  2  0  0
    1.5093    2.1427   -0.0887 N   0  0  0  0  0  0  0  0  0  3  0  0
    1.9934    0.9281    0.1351 C   0  0  0  0  0  0  0  0  0  4  0  0
    1.1739   -0.1139    0.1862 N   0  0  0  0  0  0  0  0  0  5  0  0
   -0.1293    0.0595    0.0124 C   0  0  0  0  0  0  0  0  0  6  0  0
   -0.9919   -1.0319    0.0714 N   0  0  0  0  0  0  0  0  0  7  0  0
   -2.3977   -0.8390   -0.1272 C   0  0  0  0  0  0  0  0  0  8  0  0
   -3.0497   -2.1916   -0.4764 C   0  0  0  0  0  0  0  0  0  9  0  0
   -3.1755   -1.6260    0.9450 C   0  0  0  0  0  0  0  0  0 10  0  0
    3.3649    0.7466    0.3183 N   0  0  0  0  0  0  0  0  0 11  0  0
   -0.3044    3.5931   -0.4965 N   0  0  0  0  0  0  0  0  0 12  0  0
  2 12  1  0
  4 11  1  0
 10  8  1  0
  9 10  1  0
  8  9  1  0
  7  8  1  0
  6  7  1  0
  6  1  4  0
  5  6  4  0
  4  5  4  0
  3  4  4  0
  2  3  4  0
  1  2  4  0
M  END
> <Name>
Cyromazine

> <CAS RN>
066215-27-8

> <Log Koc>
2.3

> <VP-0>
6.48791

> <nAromBond>
6

> <MAXDP>
1.37334

> <nHBAcc>
6

> <Splitting>
2

$$$$
Esfenvalerate
  SciTegic01221512053D

 32 34  0  0  0  0            999 V2000
   -5.8401   -2.7040   -3.4206 C   0  0  0  0  0  0  0  0  0  1  0  0
   -4.4586   -2.5857   -3.3744 C   0  0  0  0  0  0  0  0  0  2  0  0
   -3.6553   -3.4550   -4.1031 C   0  0  0  0  0  0  0  0  0  3  0  0
   -4.2409   -4.4457   -4.8816 C   0  0  0  0  0  0  0  0  0  4  0  0
   -5.6216   -4.5675   -4.9312 C   0  0  0  0  0  0  0  0  0  5  0  0
   -6.4191   -3.7059   -4.1889 C   0  0  0  0  0  0  0  0  0  6  0  0
   -8.1286   -3.9040   -4.1954 Cl  0  0  0  0  0  0  0  0  0  7  0  0
   -2.1790   -3.3935   -3.8409 C   0  0  1  0  0  0  0  0  0  8  0  0
   -2.1058   -3.9874   -2.9787 H   0  0  0  0  0  0  0  0  0  9  0  0
   -1.1238   -4.0959   -4.7997 C   0  0  0  0  0  0  0  0  0 10  0  0
   -1.0179   -3.4717   -6.1966 C   0  0  0  0  0  0  0  0  0 11  0  0
   -1.2845   -5.6369   -4.8874 C   0  0  0  0  0  0  0  0  0 12  0  0
   -1.7190   -1.9283   -3.4838 C   0  0  0  0  0  0  0  0  0 13  0  0
   -1.8407   -1.0326   -4.3305 O   0  0  0  0  0  0  0  0  0 14  0  0
   -0.9904   -1.6126   -2.2456 O   0  0  0  0  0  0  0  0  0 15  0  0
   -0.9509   -2.7081   -1.2830 C   0  0  2  0  0  0  0  0  0 16  0  0
   -0.7889   -3.6503   -1.7751 H   0  0  0  0  0  0  0  0  0 17  0  0
   -2.1975   -2.8532   -0.5144 C   0  0  0  0  0  0  0  0  0 18  0  0
   -3.1718   -2.9676    0.0878 N   0  0  0  0  0  0  0  0  0 19  0  0
    0.1284   -2.7132   -0.4258 C   0  0  0  0  0  0  0  0  0 20  0  0
    0.9143   -1.5993   -0.1842 C   0  0  0  0  0  0  0  0  0 21  0  0
    2.0259   -1.7533    0.6285 C   0  0  0  0  0  0  0  0  0 22  0  0
    2.3242   -3.0059    1.1489 C   0  0  0  0  0  0  0  0  0 23  0  0
    1.5345   -4.1264    0.8819 C   0  0  0  0  0  0  0  0  0 24  0  0
    0.4217   -3.9615    0.0927 C   0  0  0  0  0  0  0  0  0 25  0  0
    1.7992   -5.4083    1.4279 O   0  0  0  0  0  0  0  0  0 26  0  0
    3.0130   -5.3809    2.0581 C   0  0  0  0  0  0  0  0  0 27  0  0
    4.1978   -5.3172    1.3231 C   0  0  0  0  0  0  0  0  0 28  0  0
    5.4115   -5.2001    1.9830 C   0  0  0  0  0  0  0  0  0 29  0  0
    5.4337   -5.1347    3.3710 C   0  0  0  0  0  0  0  0  0 30  0  0
    4.2528   -5.2146    4.1009 C   0  0  0  0  0  0  0  0  0 31  0  0
    3.0378   -5.3456    3.4447 C   0  0  0  0  0  0  0  0  0 32  0  0
 32 27  4  0
 31 32  4  0
 30 31  4  0
 29 30  4  0
 28 29  4  0
 27 28  4  0
 26 27  1  0
 24 26  1  0
 25 20  4  0
 24 25  4  0
 23 24  4  0
 22 23  4  0
 21 22  4  0
 20 21  4  0
 16 20  1  0
 18 19  3  0
 16 18  1  0
 16 17  1  0
 15 16  1  0
 13 15  1  0
 13 14  2  0
  8 13  1  0
 10 12  1  0
 10 11  1  0
  8 10  1  0
  8  9  1  0
  3  8  1  0
  6  7  1  0
  6  1  4  0
  5  6  4  0
  4  5  4  0
  3  4  4  0
  2  3  4  0
  1  2  4  0
M  END
> <Name>
Esfenvalerate

> <CAS RN>
066230-04-4

> <Log Koc>
3.72

> <VP-0>
17.5435

> <nAromBond>
18

> <MAXDP>
5.99428

> <nHBAcc>
3

> <Splitting>
2

$$$$
Fenoxaprop-Ethyl
  SciTegic01221512053D

 26 28  0  0  0  0            999 V2000
    2.1229   -0.3685   -1.1688 C   0  0  0  0  0  0  0  0  0  1  0  0
    3.4639   -0.5416   -0.8450 C   0  0  0  0  0  0  0  0  0  2  0  0
    4.4613    0.0122   -1.6406 C   0  0  0  0  0  0  0  0  0  3  0  0
    4.1378    0.7518   -2.7732 C   0  0  0  0  0  0  0  0  0  4  0  0
    2.7958    0.9278   -3.0931 C   0  0  0  0  0  0  0  0  0  5  0  0
    1.7984    0.3766   -2.2991 C   0  0  0  0  0  0  0  0  0  6  0  0
    5.2123    1.2973   -3.5521 O   0  0  0  0  0  0  0  0  0  7  0  0
    4.9027    2.0581   -4.7267 C   0  0  0  0  0  0  0  0  0  8  0  0
    5.8385    2.5799   -5.4696 O   0  0  0  0  0  0  0  0  0  9  0  0
    5.2484    3.1920   -6.4368 C   0  0  0  0  0  0  0  0  0 10  0  0
    3.8971    3.0464   -6.2917 C   0  0  0  0  0  0  0  0  0 11  0  0
    3.6836    2.3272   -5.2063 N   0  0  0  0  0  0  0  0  0 12  0  0
    2.9916    3.5960   -7.1829 C   0  0  0  0  0  0  0  0  0 13  0  0
    3.5235    4.3165   -8.2524 C   0  0  0  0  0  0  0  0  0 14  0  0
    4.9061    4.4692   -8.4060 C   0  0  0  0  0  0  0  0  0 15  0  0
    5.7964    3.9042   -7.4925 C   0  0  0  0  0  0  0  0  0 16  0  0
    5.5183    5.3705   -9.7468 Cl  0  0  0  0  0  0  0  0  0 17  0  0
    1.1341   -0.9465   -0.3077 O   0  0  0  0  0  0  0  0  0 18  0  0
   -0.2607   -0.7718   -0.7034 C   0  0  2  0  0  0  0  0  0 19  0  0
   -0.4783    0.2930   -0.8715 H   0  0  0  0  0  0  0  0  0 20  0  0
   -1.0881   -1.3228    0.4712 C   0  0  0  0  0  0  0  0  0 21  0  0
   -0.5943   -1.6107   -1.9231 C   0  0  0  0  0  0  0  0  0 22  0  0
   -0.8108   -1.0531   -3.0063 O   0  0  0  0  0  0  0  0  0 23  0  0
   -0.6395   -3.0116   -1.8072 O   0  0  0  0  0  0  0  0  0 24  0  0
   -0.9939   -3.6507   -3.0510 C   0  0  0  0  0  0  0  0  0 25  0  0
   -2.4946   -3.4359   -3.3767 C   0  0  0  0  0  0  0  0  0 26  0  0
 25 26  1  0
 24 25  1  0
 22 24  1  0
 22 23  2  0
 19 22  1  0
 19 21  1  0
 19 20  1  0
 18 19  1  0
  1 18  1  0
 15 17  1  0
 16 10  4  0
 15 16  4  0
 14 15  4  0
 13 14  4  0
 11 13  4  0
 12  8  4  0
 11 12  4  0
 10 11  4  0
  9 10  4  0
  8  9  4  0
  7  8  1  0
  4  7  1  0
  6  1  4  0
  5  6  4  0
  4  5  4  0
  3  4  4  0
  2  3  4  0
  1  2  4  0
M  END
> <Name>
Fenoxaprop-Ethyl

> <CAS RN>
066441-23-4

> <Log Koc>
3.98

> <VP-0>
14.4483

> <nAromBond>
16

> <MAXDP>
4.575

> <nHBAcc>
3

> <Splitting>
2

$$$$
Tralomethrin
  SciTegic01221512053D

 34 36  0  0  0  0            999 V2000
    5.9708   -4.8306  -10.6646 C   0  0  0  0  0  0  0  0  0  1  0  0
    5.7465   -4.6578   -9.3018 C   0  0  0  0  0  0  0  0  0  2  0  0
    4.8158   -3.7257   -8.8511 C   0  0  0  0  0  0  0  0  0  3  0  0
    4.1037   -2.9706   -9.7799 C   0  0  0  0  0  0  0  0  0  4  0  0
    4.3395   -3.1405  -11.1415 C   0  0  0  0  0  0  0  0  0  5  0  0
    5.2711   -4.0657  -11.5885 C   0  0  0  0  0  0  0  0  0  6  0  0
    3.1164   -2.0407   -9.4261 O   0  0  0  0  0  0  0  0  0  7  0  0
    1.8423   -2.6710   -9.3818 C   0  0  0  0  0  0  0  0  0  8  0  0
    1.7139   -4.0589   -9.3851 C   0  0  0  0  0  0  0  0  0  9  0  0
    0.4636   -4.6615   -9.3934 C   0  0  0  0  0  0  0  0  0 10  0  0
   -0.6775   -3.8730   -9.4445 C   0  0  0  0  0  0  0  0  0 11  0  0
   -0.5585   -2.4885   -9.4430 C   0  0  0  0  0  0  0  0  0 12  0  0
    0.6959   -1.8874   -9.4051 C   0  0  0  0  0  0  0  0  0 13  0  0
   -1.7664   -1.6294   -9.6446 C   0  0  2  0  0  0  0  0  0 14  0  0
   -2.6437   -2.2311   -9.9100 H   0  0  0  0  0  0  0  0  0 15  0  0
   -1.3968   -0.7783  -10.7915 C   0  0  0  0  0  0  0  0  0 16  0  0
   -1.1089   -0.1124  -11.6922 N   0  0  0  0  0  0  0  0  0 17  0  0
   -2.1180   -0.7628   -8.5393 O   0  0  0  0  0  0  0  0  0 18  0  0
   -2.8572   -1.4603   -7.5937 C   0  0  0  0  0  0  0  0  0 19  0  0
   -3.0247   -2.6971   -7.7472 O   0  0  0  0  0  0  0  0  0 20  0  0
   -3.2933   -0.8104   -6.2124 C   0  0  2  0  0  0  0  0  0 21  0  0
   -3.0698   -1.8596   -5.2395 H   0  0  0  0  0  0  0  0  0 22  0  0
   -3.1093    0.6875   -5.8594 C   0  0  0  0  0  0  0  0  0 23  0  0
   -1.6883   -0.0674   -5.6284 C   0  0  2  0  0  0  0  0  0 24  0  0
   -0.9098    0.0266   -6.3142 H   0  0  0  0  0  0  0  0  0 25  0  0
   -1.0700   -1.0336   -4.4133 C   0  0  1  0  0  0  0  0  0 26  0  0
   -1.6033   -0.7937   -3.5439 H   0  0  0  0  0  0  0  0  0 27  0  0
   -0.8277   -2.7002   -4.5214 C   0  0  0  0  0  0  0  0  0 28  0  0
    0.2544   -3.0986   -6.0607 Br  0  0  0  0  0  0  0  0  0 29  0  0
   -2.3897   -4.0029   -4.5366 Br  0  0  0  0  0  0  0  0  0 30  0  0
    0.0595   -3.2172   -2.9262 Br  0  0  0  0  0  0  0  0  0 31  0  0
    0.7990   -0.3825   -4.2056 Br  0  0  0  0  0  0  0  0  0 32  0  0
   -3.7226    1.0044   -4.5350 C   0  0  0  0  0  0  0  0  0 33  0  0
   -3.4379    1.6431   -7.0942 C   0  0  0  0  0  0  0  0  0 34  0  0
 23 34  1  0
 23 33  1  0
 26 32  1  0
 28 31  1  0
 28 30  1  0
 28 29  1  0
 26 28  1  0
 26 27  1  0
 24 26  1  0
 24 21  1  0
 24 25  1  0
 23 24  1  0
 21 23  1  0
 21 22  1  0
 19 21  1  0
 19 20  2  0
 18 19  1  0
 14 18  1  0
 16 17  3  0
 14 16  1  0
 14 15  1  0
 12 14  1  0
 13  8  4  0
 12 13  4  0
 11 12  4  0
 10 11  4  0
  9 10  4  0
  8  9  4  0
  7  8  1  0
  4  7  1  0
  6  1  4  0
  5  6  4  0
  4  5  4  0
  3  4  4  0
  2  3  4  0
  1  2  4  0
M  END
> <Name>
Tralomethrin

> <CAS RN>
066841-25-6

> <Log Koc>
5

> <VP-0>
22.5334

> <nAromBond>
12

> <MAXDP>
6.05999

> <nHBAcc>
3

> <Splitting>
2

$$$$
Prochloraz
  SciTegic01221512053D

 23 24  0  0  0  0            999 V2000
    1.4660    5.5514    2.5273 C   0  0  0  0  0  0  0  0  0  1  0  0
    2.2939    4.2897    2.5672 C   0  0  0  0  0  0  0  0  0  2  0  0
    1.8152    3.0946    3.3738 C   0  0  0  0  0  0  0  0  0  3  0  0
    0.4901    3.1831    4.1712 C   0  0  0  0  0  0  0  0  0  4  0  0
   -0.3139    4.4658    4.1111 C   0  0  0  0  0  0  0  0  0  5  0  0
    0.1703    5.6356    3.2914 C   0  0  0  0  0  0  0  0  0  6  0  0
   -0.7640    7.0879    3.2356 Cl  0  0  0  0  0  0  0  0  0  7  0  0
   -0.2083    1.9085    5.1712 Cl  0  0  0  0  0  0  0  0  0  8  0  0
    2.5719    1.9795    3.2162 O   0  0  0  0  0  0  0  0  0  9  0  0
    1.6751    0.9406    3.1882 C   0  0  0  0  0  0  0  0  0 10  0  0
    1.0235    0.9364    1.7116 C   0  0  0  0  0  0  0  0  0 11  0  0
    0.3560    2.1821    0.9910 N   0  0  0  0  0  0  0  0  0 12  0  0
   -0.0746    3.5382    1.6014 C   0  0  0  0  0  0  0  0  0 13  0  0
    2.0852    5.0963    5.1131 C   0  0  0  0  0  0  0  0  0 14  0  0
    3.6576    5.4141    5.1159 C   0  0  0  0  0  0  0  0  0 15  0  0
    0.0401    2.1332   -0.4365 C   0  0  0  0  0  0  0  0  0 16  0  0
   -0.4951    3.1445   -0.9040 O   0  0  0  0  0  0  0  0  0 17  0  0
    0.3042    1.0614   -1.3875 N   0  0  0  0  0  0  0  0  0 18  0  0
   -0.0169    1.1803   -2.6672 C   0  0  0  0  0  0  0  0  0 19  0  0
    0.3701   -0.0009   -3.2840 C   0  0  0  0  0  0  0  0  0 20  0  0
    0.9057   -0.7761   -2.3494 N   0  0  0  0  0  0  0  0  0 21  0  0
    0.8660   -0.1276   -1.1903 C   0  0  0  0  0  0  0  0  0 22  0  0
    3.7482    4.1783    1.6398 Cl  0  0  0  0  0  0  0  0  0 23  0  0
  2 23  1  0
 22 18  4  0
 21 22  4  0
 20 21  4  0
 19 20  4  0
 18 19  4  0
 16 18  1  0
 16 17  2  0
 12 16  1  0
 14 15  1  0
 13 14  1  0
 12 13  1  0
 11 12  1  0
 10 11  1  0
  9 10  1  0
  3  9  1  0
  4  8  1  0
  6  7  1  0
  6  1  4  0
  5  6  4  0
  4  5  4  0
  3  4  4  0
  2  3  4  0
  1  2  4  0
M  END
> <Name>
Prochloraz

> <CAS RN>
067747-09-5

> <Log Koc>
2.7

> <VP-0>
14.775

> <nAromBond>
11

> <MAXDP>
5.4317

> <nHBAcc>
4

> <Splitting>
2

$$$$
Cyfluthrin
  SciTegic01221512053D

 32 34  0  0  0  0            999 V2000
   -1.9729    4.3675   -2.3862 C   0  0  0  0  0  0  0  0  0  1  0  0
   -1.8205    3.3686   -3.3666 C   0  0  0  0  0  0  0  0  0  2  0  0
   -2.8718    2.8794   -4.1164 C   0  0  0  0  0  0  0  0  0  3  0  0
   -4.1308    3.4115   -3.9034 C   0  0  0  0  0  0  0  0  0  4  0  0
   -4.3009    4.4346   -2.9739 C   0  0  0  0  0  0  0  0  0  5  0  0
   -3.2325    4.9283   -2.2255 C   0  0  0  0  0  0  0  0  0  6  0  0
   -0.7875    4.8300   -1.6070 O   0  0  0  0  0  0  0  0  0  7  0  0
   -0.0215    3.6754   -1.4064 C   0  0  0  0  0  0  0  0  0  8  0  0
   -0.7291    2.5852   -0.9403 C   0  0  0  0  0  0  0  0  0  9  0  0
   -0.1730    1.3526   -0.8021 C   0  0  0  0  0  0  0  0  0 10  0  0
   -1.1833    0.3277   -0.5394 C   0  0  2  0  0  0  0  0  0 11  0  0
   -1.8872    0.4953   -1.3659 H   0  0  0  0  0  0  0  0  0 12  0  0
   -2.0519    0.5871    0.5446 O   0  0  0  0  0  0  0  0  0 13  0  0
   -1.5888    0.6704    1.8353 C   0  0  0  0  0  0  0  0  0 14  0  0
   -0.3994    0.6309    2.1670 O   0  0  0  0  0  0  0  0  0 15  0  0
   -2.6781    0.6435    2.7760 C   0  0  2  0  0  0  0  0  0 16  0  0
   -3.6802    0.3990    2.3578 H   0  0  0  0  0  0  0  0  0 17  0  0
   -2.7773    1.0924    4.2029 C   0  0  0  0  0  0  0  0  0 18  0  0
   -4.2474    1.2855    4.6540 C   0  0  0  0  0  0  0  0  0 19  0  0
   -1.7704    2.1698    4.5619 C   0  0  0  0  0  0  0  0  0 20  0  0
   -2.2978   -0.4229    3.9154 C   0  0  2  0  0  0  0  0  0 21  0  0
   -1.1943   -0.8449    4.3025 H   0  0  0  0  0  0  0  0  0 22  0  0
   -2.8804   -1.5795    3.2032 C   0  0  0  0  0  0  0  0  0 23  0  0
   -3.9997   -2.2524    3.4174 C   0  0  0  0  0  0  0  0  0 24  0  0
   -5.1088   -1.7843    4.5973 Cl  0  0  0  0  0  0  0  0  0 25  0  0
   -4.3033   -3.6869    2.4583 Cl  0  0  0  0  0  0  0  0  0 26  0  0
   -0.7831   -1.0497   -0.6565 C   0  0  0  0  0  0  0  0  0 27  0  0
   -0.4610   -2.1494   -0.7531 N   0  0  0  0  0  0  0  0  0 28  0  0
    1.1707    1.1664   -1.1070 C   0  0  0  0  0  0  0  0  0 29  0  0
    1.9220    2.2768   -1.5151 C   0  0  0  0  0  0  0  0  0 30  0  0
    1.3334    3.5377   -1.6703 C   0  0  0  0  0  0  0  0  0 31  0  0
    2.0371    4.5755   -2.1443 F   0  0  0  0  0  0  0  0  0 32  0  0
 31 32  1  0
 31  8  4  0
 30 31  4  0
 29 30  4  0
 10 29  4  0
 27 28  3  0
 11 27  1  0
 24 26  1  0
 24 25  1  0
 23 24  2  0
 21 23  1  0
 21 16  1  0
 21 22  1  0
 18 21  1  0
 18 20  1  0
 18 19  1  0
 16 18  1  0
 16 17  1  0
 14 16  1  0
 14 15  2  0
 13 14  1  0
 11 13  1  0
 11 12  1  0
 10 11  1  0
  9 10  4  0
  8  9  4  0
  7  8  1  0
  1  7  1  0
  6  1  4  0
  5  6  4  0
  4  5  4  0
  3  4  4  0
  2  3  4  0
  1  2  4  0
M  END
> <Name>
Cyfluthrin

> <CAS RN>
068359-37-5

> <Log Koc>
5

> <VP-0>
17.2459

> <nAromBond>
12

> <MAXDP>
6.18338

> <nHBAcc>
3

> <Splitting>
2

$$$$
Fluazifop-butyl
  SciTegic01221512053D

 28 29  0  0  0  0            999 V2000
    7.2739    1.1591    4.7484 C   0  0  0  0  0  0  0  0  0  1  0  0
    7.6184    1.5326    3.4555 C   0  0  0  0  0  0  0  0  0  2  0  0
    6.7798    1.3258    2.4433 N   0  0  0  0  0  0  0  0  0  3  0  0
    5.5857    0.7573    2.6040 C   0  0  0  0  0  0  0  0  0  4  0  0
    5.2047    0.3607    3.8851 C   0  0  0  0  0  0  0  0  0  5  0  0
    6.0471    0.5568    4.9688 C   0  0  0  0  0  0  0  0  0  6  0  0
    4.7372    0.6522    1.4072 O   0  0  0  0  0  0  0  0  0  7  0  0
    3.3933    0.0644    1.4020 C   0  0  0  0  0  0  0  0  0  8  0  0
    2.8105   -0.5987    2.4780 C   0  0  0  0  0  0  0  0  0  9  0  0
    1.5135   -1.0860    2.4082 C   0  0  0  0  0  0  0  0  0 10  0  0
    0.7555   -0.9088    1.2601 C   0  0  0  0  0  0  0  0  0 11  0  0
    1.3267   -0.2540    0.1718 C   0  0  0  0  0  0  0  0  0 12  0  0
    2.6365    0.2142    0.2418 C   0  0  0  0  0  0  0  0  0 13  0  0
   -0.5926   -1.3637    1.2999 O   0  0  0  0  0  0  0  0  0 14  0  0
   -1.4613   -1.0870    0.1659 C   0  0  2  0  0  0  0  0  0 15  0  0
   -1.4282   -0.0096   -0.0526 H   0  0  0  0  0  0  0  0  0 16  0  0
   -2.9165   -1.3950    0.5590 C   0  0  0  0  0  0  0  0  0 17  0  0
   -1.1909   -1.8463   -1.1128 C   0  0  0  0  0  0  0  0  0 18  0  0
   -0.0866   -2.3457   -1.3565 O   0  0  0  0  0  0  0  0  0 19  0  0
   -2.2491   -1.9781   -2.0095 O   0  0  0  0  0  0  0  0  0 20  0  0
   -1.8798   -2.6922   -3.1813 C   0  0  0  0  0  0  0  0  0 21  0  0
   -3.1188   -2.9193   -4.1073 C   0  0  0  0  0  0  0  0  0 22  0  0
   -3.7722   -1.5926   -4.6186 C   0  0  0  0  0  0  0  0  0 23  0  0
   -4.4815   -0.8010   -3.4919 C   0  0  0  0  0  0  0  0  0 24  0  0
    8.2005    1.4180    5.8971 C   0  0  0  0  0  0  0  0  0 25  0  0
    8.0120    2.7257    6.2989 F   0  0  0  0  0  0  0  0  0 26  0  0
    9.5112    1.2958    5.4917 F   0  0  0  0  0  0  0  0  0 27  0  0
    7.8988    0.5888    6.9579 F   0  0  0  0  0  0  0  0  0 28  0  0
 25 28  1  0
 25 27  1  0
 25 26  1  0
  1 25  1  0
 23 24  1  0
 22 23  1  0
 21 22  1  0
 20 21  1  0
 18 20  1  0
 18 19  2  0
 15 18  1  0
 15 17  1  0
 15 16  1  0
 14 15  1  0
 11 14  1  0
 13  8  4  0
 12 13  4  0
 11 12  4  0
 10 11  4  0
  9 10  4  0
  8  9  4  0
  7  8  1  0
  4  7  1  0
  6  1  4  0
  5  6  4  0
  4  5  4  0
  3  4  4  0
  2  3  4  0
  1  2  4  0
M  END
> <Name>
Fluazifop-butyl

> <CAS RN>
069806-50-4

> <Log Koc>
2.76

> <VP-0>
14.9542

> <nAromBond>
12

> <MAXDP>
4.76813

> <nHBAcc>
3

> <Splitting>
2

$$$$
Flucythrinate
  SciTegic01221512053D

 35 37  0  0  0  0            999 V2000
   -1.1699   -9.3672    1.9655 C   0  0  0  0  0  0  0  0  0  1  0  0
   -0.4903   -8.7237    0.9382 C   0  0  0  0  0  0  0  0  0  2  0  0
   -0.1813   -7.3743    1.0485 C   0  0  0  0  0  0  0  0  0  3  0  0
   -0.5489   -6.6639    2.1875 C   0  0  0  0  0  0  0  0  0  4  0  0
   -1.2318   -7.3142    3.2064 C   0  0  0  0  0  0  0  0  0  5  0  0
   -1.5376   -8.6627    3.1043 C   0  0  0  0  0  0  0  0  0  6  0  0
   -0.3619   -5.2933    2.3771 O   0  0  0  0  0  0  0  0  0  7  0  0
    0.3546   -4.4392    1.5180 C   0  0  0  0  0  0  0  0  0  8  0  0
    1.2119   -4.7848    0.4713 C   0  0  0  0  0  0  0  0  0  9  0  0
    1.8219   -3.7919   -0.2920 C   0  0  0  0  0  0  0  0  0 10  0  0
    1.5458   -2.4528   -0.0368 C   0  0  0  0  0  0  0  0  0 11  0  0
    0.6709   -2.1237    0.9963 C   0  0  0  0  0  0  0  0  0 12  0  0
    0.0989   -3.1090    1.7673 C   0  0  0  0  0  0  0  0  0 13  0  0
    0.2072   -0.7374    1.2338 C   0  0  1  0  0  0  0  0  0 14  0  0
    0.2986   -0.5095    2.3007 H   0  0  0  0  0  0  0  0  0 15  0  0
    0.9570    0.2224    0.4408 C   0  0  0  0  0  0  0  0  0 16  0  0
    1.5485    0.9828   -0.1873 N   0  0  0  0  0  0  0  0  0 17  0  0
   -1.2514   -0.6654    0.9450 O   0  0  0  0  0  0  0  0  0 18  0  0
   -1.6396   -1.1527   -0.3418 C   0  0  0  0  0  0  0  0  0 19  0  0
   -0.8236   -1.6724   -1.1153 O   0  0  0  0  0  0  0  0  0 20  0  0
   -3.0348   -1.0246   -0.8571 C   0  0  2  0  0  0  0  0  0 21  0  0
   -3.5467   -0.2250   -0.3078 H   0  0  0  0  0  0  0  0  0 22  0  0
   -3.8160   -2.4349   -0.6801 C   0  0  0  0  0  0  0  0  0 23  0  0
   -3.9338   -2.7491    0.8139 C   0  0  0  0  0  0  0  0  0 24  0  0
   -3.1140   -3.7038   -1.3137 C   0  0  0  0  0  0  0  0  0 25  0  0
   -2.7368   -0.6363   -2.2879 C   0  0  0  0  0  0  0  0  0 26  0  0
   -1.7980    0.3685   -2.5256 C   0  0  0  0  0  0  0  0  0 27  0  0
   -1.2656    0.5434   -3.7962 C   0  0  0  0  0  0  0  0  0 28  0  0
   -1.6597   -0.3110   -4.8185 C   0  0  0  0  0  0  0  0  0 29  0  0
   -2.6596   -1.2460   -4.5892 C   0  0  0  0  0  0  0  0  0 30  0  0
   -3.2065   -1.4042   -3.3367 C   0  0  0  0  0  0  0  0  0 31  0  0
   -0.9591   -0.2846   -6.0397 O   0  0  0  0  0  0  0  0  0 32  0  0
   -1.1877   -1.4856   -6.8649 C   0  0  0  0  0  0  0  0  0 33  0  0
   -2.4804   -1.6299   -7.3371 F   0  0  0  0  0  0  0  0  0 34  0  0
   -0.7705   -2.6414   -6.1669 F   0  0  0  0  0  0  0  0  0 35  0  0
 33 35  1  0
 33 34  1  0
 32 33  1  0
 29 32  1  0
 31 26  4  0
 30 31  4  0
 29 30  4  0
 28 29  4  0
 27 28  4  0
 26 27  4  0
 21 26  1  0
 23 25  1  0
 23 24  1  0
 21 23  1  0
 21 22  1  0
 19 21  1  0
 19 20  2  0
 18 19  1  0
 14 18  1  0
 16 17  3  0
 14 16  1  0
 14 15  1  0
 12 14  1  0
 13  8  4  0
 12 13  4  0
 11 12  4  0
 10 11  4  0
  9 10  4  0
  8  9  4  0
  7  8  1  0
  4  7  1  0
  6  1  4  0
  5  6  4  0
  4  5  4  0
  3  4  4  0
  2  3  4  0
  1  2  4  0
M  END
> <Name>
Flucythrinate

> <CAS RN>
070124-77-5

> <Log Koc>
5

> <VP-0>
18.1511

> <nAromBond>
18

> <MAXDP>
6.01058

> <nHBAcc>
3

> <Splitting>
2

$$$$
4-Chlorobenzaloxime-N-methylcarbamate
  SciTegic01221512053D

 14 14  0  0  0  0            999 V2000
    0.8303    5.4251   -0.0036 C   0  0  0  0  0  0  0  0  0  1  0  0
    2.2107    5.5900   -0.0269 C   0  0  0  0  0  0  0  0  0  2  0  0
    3.0443    4.4771   -0.0406 C   0  0  0  0  0  0  0  0  0  3  0  0
    2.4972    3.1991   -0.0312 C   0  0  0  0  0  0  0  0  0  4  0  0
    1.1169    3.0348   -0.0079 C   0  0  0  0  0  0  0  0  0  5  0  0
    0.2831    4.1471    0.0059 C   0  0  0  0  0  0  0  0  0  6  0  0
    0.5438    1.6935    0.0024 C   0  0  0  0  0  0  0  0  0  7  0  0
    1.3087    0.6771   -0.0111 N   0  0  0  0  0  0  0  0  0  8  0  0
    0.8982   -0.6310   -0.0027 O   0  0  0  0  0  0  0  0  0  9  0  0
   -0.5072   -0.9332    0.0249 C   0  0  0  0  0  0  0  0  0 10  0  0
   -1.3930   -0.0695    0.0423 O   0  0  0  0  0  0  0  0  0 11  0  0
   -0.8931   -2.2744    0.0331 N   0  0  0  0  0  0  0  0  0 12  0  0
   -2.2852   -2.6194    0.0612 C   0  0  0  0  0  0  0  0  0 13  0  0
    2.8906    7.1783   -0.0386 Cl  0  0  0  0  0  0  0  0  0 14  0  0
  2 14  1  0
 12 13  1  0
 10 12  1  0
 10 11  2  0
  9 10  1  0
  8  9  1  0
  7  8  2  0
  5  7  1  0
  6  1  4  0
  5  6  4  0
  4  5  4  0
  3  4  4  0
  2  3  4  0
  1  2  4  0
M  END
> <Name>
4-Chlorobenzaloxime-N-methylcarbamate

> <CAS RN>
071059-53-5

> <Log Koc>
2

> <VP-0>
8.28435

> <nAromBond>
6

> <MAXDP>
3.61559

> <nHBAcc>
2

> <Splitting>
1

$$$$
Sethoxydim
  SciTegic01221512053D

 24 24  0  0  0  0            999 V2000
    4.7123    6.0765    7.2096 C   0  0  0  0  0  0  0  0  0  1  0  0
    4.7237    5.4067    8.5965 C   0  0  0  0  0  0  0  0  0  2  0  0
    4.1546    5.1763    6.2488 O   0  0  0  0  0  0  0  0  0  3  0  0
    2.9174    4.8779    6.5917 N   0  0  0  0  0  0  0  0  0  4  0  0
    2.1380    4.0939    5.9421 C   0  0  0  0  0  0  0  0  0  5  0  0
    2.5849    3.3335    4.6435 C   0  0  0  0  0  0  0  0  0  6  0  0
    1.6952    2.9253    3.7030 C   0  0  0  0  0  0  0  0  0  7  0  0
    2.1328    2.1955    2.4535 C   0  0  0  0  0  0  0  0  0  8  0  0
    3.5512    2.5902    2.0540 C   0  0  2  0  0  0  0  0  0  9  0  0
    3.5655    3.6757    1.8805 H   0  0  0  0  0  0  0  0  0 10  0  0
    3.9411    1.8787    0.6848 C   0  0  0  0  0  0  0  0  0 11  0  0
    3.9040    0.2856    0.5909 C   0  0  1  0  0  0  0  0  0 12  0  0
    2.8941   -0.0551    0.8566 H   0  0  0  0  0  0  0  0  0 13  0  0
    4.2347   -0.2444   -1.1296 S   0  0  0  0  0  0  0  0  0 14  0  0
    5.9274    0.1469   -1.7050 C   0  0  0  0  0  0  0  0  0 15  0  0
    6.1221    1.6514   -1.9948 C   0  0  0  0  0  0  0  0  0 16  0  0
    4.9406   -0.4520    1.4803 C   0  0  0  0  0  0  0  0  0 17  0  0
    4.5097    2.3105    3.2015 C   0  0  0  0  0  0  0  0  0 18  0  0
    4.0398    3.0044    4.4344 C   0  0  0  0  0  0  0  0  0 19  0  0
    4.8535    3.1757    5.3451 O   0  0  0  0  0  0  0  0  0 20  0  0
    0.3337    3.1745    3.8226 O   0  0  0  0  0  0  0  0  0 21  0  0
    0.7306    3.9880    6.5323 C   0  0  0  0  0  0  0  0  0 22  0  0
    0.3082    2.5136    6.7873 C   0  0  0  0  0  0  0  0  0 23  0  0
    1.2665    1.8639    7.8063 C   0  0  0  0  0  0  0  0  0 24  0  0
 23 24  1  0
 22 23  1  0
  5 22  1  0
  7 21  1  0
 19 20  2  0
 19  6  1  0
 18 19  1  0
  9 18  1  0
 12 17  1  0
 15 16  1  0
 14 15  1  0
 12 14  1  0
 12 13  1  0
 11 12  1  0
  9 11  1  0
  9 10  1  0
  8  9  1  0
  7  8  1  0
  6  7  2  0
  5  6  1  0
  4  5  2  0
  3  4  1  0
  1  3  1  0
  1  2  1  0
M  END
> <Name>
Sethoxydim

> <CAS RN>
074051-80-2

> <Log Koc>
2

> <VP-0>
15.0401

> <nAromBond>
0

> <MAXDP>
5.49703

> <nHBAcc>
2

> <Splitting>
2

$$$$
Sulfometuron-Methyl
  SciTegic01221512053D

 25 26  0  0  0  0            999 V2000
    1.1755   -0.1283    1.9067 S   0  0  0  0  0  0  0  0  0  1  0  0
    0.9864   -1.5650    2.3539 O   0  0  0  0  0  0  0  0  0  2  0  0
    1.5912    0.7167    3.0955 O   0  0  0  0  0  0  0  0  0  3  0  0
   -0.3002    0.4245    1.2752 N   0  0  0  0  0  0  0  0  0  4  0  0
   -1.5011    0.1060    1.9040 C   0  0  0  0  0  0  0  0  0  5  0  0
   -1.4926   -0.5236    2.9675 O   0  0  0  0  0  0  0  0  0  6  0  0
   -2.7111    0.3144    1.2322 N   0  0  0  0  0  0  0  0  0  7  0  0
   -2.7417    0.9975    0.0095 C   0  0  0  0  0  0  0  0  0  8  0  0
   -3.8327    0.9263   -0.7463 N   0  0  0  0  0  0  0  0  0  9  0  0
   -3.8934    1.5465   -1.9179 C   0  0  0  0  0  0  0  0  0 10  0  0
   -2.8054    2.2856   -2.3590 C   0  0  0  0  0  0  0  0  0 11  0  0
   -1.6836    2.3431   -1.5455 C   0  0  0  0  0  0  0  0  0 12  0  0
   -1.6826    1.6953   -0.3884 N   0  0  0  0  0  0  0  0  0 13  0  0
   -0.4796    3.1298   -1.9689 C   0  0  0  0  0  0  0  0  0 14  0  0
   -5.1288    1.4446   -2.7622 C   0  0  0  0  0  0  0  0  0 15  0  0
    2.4454   -0.0766    0.6538 C   0  0  0  0  0  0  0  0  0 16  0  0
    2.2410   -0.5310   -0.6540 C   0  0  0  0  0  0  0  0  0 17  0  0
    3.2774   -0.4480   -1.5772 C   0  0  0  0  0  0  0  0  0 18  0  0
    4.5123    0.0746   -1.2142 C   0  0  0  0  0  0  0  0  0 19  0  0
    4.7165    0.5215    0.0842 C   0  0  0  0  0  0  0  0  0 20  0  0
    3.6837    0.4461    1.0106 C   0  0  0  0  0  0  0  0  0 21  0  0
    0.9620   -1.1057   -1.1175 C   0  0  0  0  0  0  0  0  0 22  0  0
    0.0178   -1.2856   -0.3474 O   0  0  0  0  0  0  0  0  0 23  0  0
    0.8231   -1.4597   -2.4555 O   0  0  0  0  0  0  0  0  0 24  0  0
   -0.4909   -1.9804   -2.6794 C   0  0  0  0  0  0  0  0  0 25  0  0
 24 25  1  0
 22 24  1  0
 22 23  2  0
 17 22  1  0
 21 16  4  0
 20 21  4  0
 19 20  4  0
 18 19  4  0
 17 18  4  0
 16 17  4  0
  1 16  1  0
 10 15  1  0
 12 14  1  0
 13  8  4  0
 12 13  4  0
 11 12  4  0
 10 11  4  0
  9 10  4  0
  8  9  4  0
  7  8  1  0
  5  7  1  0
  5  6  2  0
  4  5  1  0
  1  4  1  0
  1  3  2  0
  1  2  2  0
M  END
> <Name>
Sulfometuron-Methyl

> <CAS RN>
074222-97-2

> <Log Koc>
1.8

> <VP-0>
13.9344

> <nAromBond>
12

> <MAXDP>
5.53549

> <nHBAcc>
9

> <Splitting>
1

$$$$
Metasulfron methyl
  SciTegic01221512053D

 26 27  0  0  0  0            999 V2000
    4.5774    1.8021    0.6900 C   0  0  0  0  0  0  0  0  0  1  0  0
    3.2916    2.3128    0.5704 C   0  0  0  0  0  0  0  0  0  2  0  0
    3.0698    3.6853    0.5380 C   0  0  0  0  0  0  0  0  0  3  0  0
    4.1536    4.5618    0.6265 C   0  0  0  0  0  0  0  0  0  4  0  0
    5.4392    4.0454    0.7450 C   0  0  0  0  0  0  0  0  0  5  0  0
    5.6551    2.6724    0.7772 C   0  0  0  0  0  0  0  0  0  6  0  0
    3.9997    6.0245    0.5997 C   0  0  0  0  0  0  0  0  0  7  0  0
    5.0110    6.7323    0.6685 O   0  0  0  0  0  0  0  0  0  8  0  0
    2.7533    6.6242    0.5027 O   0  0  0  0  0  0  0  0  0  9  0  0
    2.9023    8.0461    0.4979 C   0  0  0  0  0  0  0  0  0 10  0  0
    1.3862    4.2191    0.3777 S   0  0  0  0  0  0  0  0  0 11  0  0
    1.2264    5.1198   -0.8324 O   0  0  0  0  0  0  0  0  0 12  0  0
    0.9471    4.9607    1.6262 O   0  0  0  0  0  0  0  0  0 13  0  0
    0.5081    2.7938    0.1740 N   0  0  0  0  0  0  0  0  0 14  0  0
   -0.6450    2.4863    0.8783 C   0  0  0  0  0  0  0  0  0 15  0  0
   -1.1471    3.2957    1.6661 O   0  0  0  0  0  0  0  0  0 16  0  0
   -1.0858    1.1602    0.8464 N   0  0  0  0  0  0  0  0  0 17  0  0
   -0.4647    0.2648   -0.0440 C   0  0  0  0  0  0  0  0  0 18  0  0
    0.1951    0.7264   -1.0985 N   0  0  0  0  0  0  0  0  0 19  0  0
    0.8020   -0.1079   -1.9292 C   0  0  0  0  0  0  0  0  0 20  0  0
    0.7596   -1.4129   -1.7012 N   0  0  0  0  0  0  0  0  0 21  0  0
    0.1055   -1.8793   -0.6454 C   0  0  0  0  0  0  0  0  0 22  0  0
   -0.5099   -1.0418    0.1813 N   0  0  0  0  0  0  0  0  0 23  0  0
    0.0786   -3.2507   -0.4035 O   0  0  0  0  0  0  0  0  0 24  0  0
   -0.6579   -3.5216    0.7920 C   0  0  0  0  0  0  0  0  0 25  0  0
    1.5410    0.4273   -3.1197 C   0  0  0  0  0  0  0  0  0 26  0  0
 20 26  1  0
 24 25  1  0
 22 24  1  0
 23 18  4  0
 22 23  4  0
 21 22  4  0
 20 21  4  0
 19 20  4  0
 18 19  4  0
 17 18  1  0
 15 17  1  0
 15 16  2  0
 14 15  1  0
 11 14  1  0
 11 13  2  0
 11 12  2  0
  3 11  1  0
  9 10  1  0
  7  9  1  0
  7  8  2  0
  4  7  1  0
  6  1  4  0
  5  6  4  0
  4  5  4  0
  3  4  4  0
  2  3  4  0
  1  2  4  0
M  END
> <Name>
Metasulfron methyl

> <CAS RN>
074223-64-6

> <Log Koc>
1.74

> <VP-0>
14.2125

> <nAromBond>
12

> <MAXDP>
5.55463

> <nHBAcc>
10

> <Splitting>
2

$$$$
Quizalofop-ethyl
  SciTegic01221512053D

 27 29  0  0  0  0            999 V2000
   -4.4157    6.6852   -2.1656 C   0  0  0  0  0  0  0  0  0  1  0  0
   -4.1831    7.9510   -2.6921 C   0  0  0  0  0  0  0  0  0  2  0  0
   -2.9057    8.3069   -3.1116 C   0  0  0  0  0  0  0  0  0  3  0  0
   -1.8622    7.3956   -3.0022 C   0  0  0  0  0  0  0  0  0  4  0  0
   -2.0947    6.1312   -2.4762 C   0  0  0  0  0  0  0  0  0  5  0  0
   -3.3716    5.7743   -2.0578 C   0  0  0  0  0  0  0  0  0  6  0  0
   -1.0962    5.2658   -2.3693 N   0  0  0  0  0  0  0  0  0  7  0  0
    0.1332    5.5881   -2.7570 C   0  0  0  0  0  0  0  0  0  8  0  0
    0.3570    6.8572   -3.2823 C   0  0  0  0  0  0  0  0  0  9  0  0
   -0.6393    7.7273   -3.3955 N   0  0  0  0  0  0  0  0  0 10  0  0
    1.2577    4.6993   -2.6417 O   0  0  0  0  0  0  0  0  0 11  0  0
    1.0730    3.3670   -2.1262 C   0  0  0  0  0  0  0  0  0 12  0  0
    2.2029    2.5726   -1.9634 C   0  0  0  0  0  0  0  0  0 13  0  0
    2.0983    1.2801   -1.4603 C   0  0  0  0  0  0  0  0  0 14  0  0
    0.8581    0.7508   -1.1224 C   0  0  0  0  0  0  0  0  0 15  0  0
   -0.2747    1.5431   -1.2876 C   0  0  0  0  0  0  0  0  0 16  0  0
   -0.1664    2.8365   -1.7821 C   0  0  0  0  0  0  0  0  0 17  0  0
    0.8056   -0.5786   -0.5900 O   0  0  0  0  0  0  0  0  0 18  0  0
   -0.5222   -1.1293   -0.3371 C   0  0  2  0  0  0  0  0  0 19  0  0
   -1.1199   -0.4094    0.2410 H   0  0  0  0  0  0  0  0  0 20  0  0
   -0.3018   -2.4320    0.4516 C   0  0  0  0  0  0  0  0  0 21  0  0
   -1.1864   -1.4924   -1.6534 C   0  0  0  0  0  0  0  0  0 22  0  0
   -1.9858   -0.7097   -2.1814 O   0  0  0  0  0  0  0  0  0 23  0  0
   -0.8595   -2.7191   -2.2649 O   0  0  0  0  0  0  0  0  0 24  0  0
   -1.5758   -2.9307   -3.4984 C   0  0  0  0  0  0  0  0  0 25  0  0
   -3.0688   -3.2431   -3.2278 C   0  0  0  0  0  0  0  0  0 26  0  0
   -5.4820    9.0824   -2.8229 Cl  0  0  0  0  0  0  0  0  0 27  0  0
  2 27  1  0
 25 26  1  0
 24 25  1  0
 22 24  1  0
 22 23  2  0
 19 22  1  0
 19 21  1  0
 19 20  1  0
 18 19  1  0
 15 18  1  0
 17 12  4  0
 16 17  4  0
 15 16  4  0
 14 15  4  0
 13 14  4  0
 12 13  4  0
 11 12  1  0
  8 11  1  0
 10  4  4  0
  9 10  4  0
  8  9  4  0
  7  8  4  0
  5  7  4  0
  6  1  4  0
  5  6  4  0
  4  5  4  0
  3  4  4  0
  2  3  4  0
  1  2  4  0
M  END
> <Name>
Quizalofop-ethyl

> <CAS RN>
076578-14-8

> <Log Koc>
2.74

> <VP-0>
15.0646

> <nAromBond>
17

> <MAXDP>
4.59907

> <nHBAcc>
4

> <Splitting>
2

$$$$
Flutriafol
  SciTegic01221512053D

 22 24  0  0  0  0            999 V2000
   -2.4068    3.1740    0.2868 C   0  0  0  0  0  0  0  0  0  1  0  0
   -2.9689    1.9033    0.3202 C   0  0  0  0  0  0  0  0  0  2  0  0
   -2.1639    0.7836    0.1496 C   0  0  0  0  0  0  0  0  0  3  0  0
   -0.7928    0.9269   -0.0452 C   0  0  0  0  0  0  0  0  0  4  0  0
   -0.2373    2.2016   -0.0905 C   0  0  0  0  0  0  0  0  0  5  0  0
   -1.0408    3.3231    0.0790 C   0  0  0  0  0  0  0  0  0  6  0  0
    0.0867   -0.3063   -0.2569 C   0  0  1  0  0  0  0  0  0  7  0  0
    1.6184    0.0391   -0.2670 C   0  0  0  0  0  0  0  0  0  8  0  0
    2.1717    0.5462    0.9789 N   0  0  0  0  0  0  0  0  0  9  0  0
    1.5154    0.9314    1.9862 N   0  0  0  0  0  0  0  0  0 10  0  0
    2.3812    1.3279    2.9117 C   0  0  0  0  0  0  0  0  0 11  0  0
    3.6038    1.1680    2.4210 N   0  0  0  0  0  0  0  0  0 12  0  0
    3.4721    0.6754    1.1977 C   0  0  0  0  0  0  0  0  0 13  0  0
   -0.2065   -1.5002    0.6830 C   0  0  0  0  0  0  0  0  0 14  0  0
   -0.1031   -2.7678    0.1202 C   0  0  0  0  0  0  0  0  0 15  0  0
   -0.3435   -3.9100    0.8738 C   0  0  0  0  0  0  0  0  0 16  0  0
   -0.6908   -3.7928    2.2122 C   0  0  0  0  0  0  0  0  0 17  0  0
   -0.7944   -2.5326    2.7871 C   0  0  0  0  0  0  0  0  0 18  0  0
   -0.5554   -1.3880    2.0352 C   0  0  0  0  0  0  0  0  0 19  0  0
   -0.6713   -0.2019    2.6445 F   0  0  0  0  0  0  0  0  0 20  0  0
   -0.1942   -0.8024   -1.5664 O   0  0  0  0  0  0  0  0  0 21  0  0
   -3.1825    4.2548    0.4510 F   0  0  0  0  0  0  0  0  0 22  0  0
  1 22  1  0
  7 21  1  0
 19 20  1  0
 19 14  4  0
 18 19  4  0
 17 18  4  0
 16 17  4  0
 15 16  4  0
 14 15  4  0
  7 14  1  0
 13  9  4  0
 12 13  4  0
 11 12  4  0
 10 11  4  0
  9 10  4  0
  8  9  1  0
  7  8  1  0
  4  7  1  0
  6  1  4  0
  5  6  4  0
  4  5  4  0
  3  4  4  0
  2  3  4  0
  1  2  4  0
M  END
> <Name>
Flutriafol

> <CAS RN>
076674-21-0

> <Log Koc>
1.88

> <VP-0>
11.5254

> <nAromBond>
17

> <MAXDP>
6.19913

> <nHBAcc>
4

> <Splitting>
2

$$$$
3-(3,5-Dimethyl-4-bromophenyl)-1,1-dimethylurea
  SciTegic01221512053D

 15 15  0  0  0  0            999 V2000
    1.2911    1.0190    0.1024 C   0  0  0  0  0  0  0  0  0  1  0  0
    0.5368    2.1787   -0.0498 C   0  0  0  0  0  0  0  0  0  2  0  0
    1.1597    3.4195   -0.1133 C   0  0  0  0  0  0  0  0  0  3  0  0
    2.5438    3.5072   -0.0250 C   0  0  0  0  0  0  0  0  0  4  0  0
    3.3018    2.3526    0.1271 C   0  0  0  0  0  0  0  0  0  5  0  0
    2.6757    1.1129    0.1907 C   0  0  0  0  0  0  0  0  0  6  0  0
    4.7965    2.4435    0.2227 C   0  0  0  0  0  0  0  0  0  7  0  0
    3.3982    5.2033   -0.1119 Br  0  0  0  0  0  0  0  0  0  8  0  0
    0.3374    4.6634   -0.2772 C   0  0  0  0  0  0  0  0  0  9  0  0
    0.6902   -0.2663    0.1718 N   0  0  0  0  0  0  0  0  0 10  0  0
   -0.7049   -0.5130    0.0761 C   0  0  0  0  0  0  0  0  0 11  0  0
   -1.5228    0.4003   -0.0832 O   0  0  0  0  0  0  0  0  0 12  0  0
   -1.1659   -1.8263    0.1641 N   0  0  0  0  0  0  0  0  0 13  0  0
   -2.5705   -2.1011    0.0691 C   0  0  0  0  0  0  0  0  0 14  0  0
   -0.2349   -2.9018    0.3501 C   0  0  0  0  0  0  0  0  0 15  0  0
 13 15  1  0
 13 14  1  0
 11 13  1  0
 11 12  2  0
 10 11  1  0
  1 10  1  0
  3  9  1  0
  4  8  1  0
  5  7  1  0
  6  1  4  0
  5  6  4  0
  4  5  4  0
  3  4  4  0
  2  3  4  0
  1  2  4  0
M  END
> <Name>
3-(3,5-Dimethyl-4-bromophenyl)-1,1-dimethylurea

> <CAS RN>
078508-43-7

> <Log Koc>
2.53

> <VP-0>
10.9741

> <nAromBond>
6

> <MAXDP>
4.44918

> <nHBAcc>
3

> <Splitting>
2

$$$$
4-Phenoxylphenylurea
  SciTegic01221512053D

 17 18  0  0  0  0            999 V2000
    6.4442    3.4769    0.8720 C   0  0  0  0  0  0  0  0  0  1  0  0
    5.0995    3.1586    0.7205 C   0  0  0  0  0  0  0  0  0  2  0  0
    4.1106    4.1337    0.8415 C   0  0  0  0  0  0  0  0  0  3  0  0
    4.5049    5.4393    1.1191 C   0  0  0  0  0  0  0  0  0  4  0  0
    5.8474    5.7668    1.2722 C   0  0  0  0  0  0  0  0  0  5  0  0
    6.8214    4.7845    1.1488 C   0  0  0  0  0  0  0  0  0  6  0  0
    2.6767    3.9045    0.7032 O   0  0  0  0  0  0  0  0  0  7  0  0
    2.0623    2.6136    0.4140 C   0  0  0  0  0  0  0  0  0  8  0  0
    2.7493    1.4164    0.2225 C   0  0  0  0  0  0  0  0  0  9  0  0
    2.0701    0.2340   -0.0471 C   0  0  0  0  0  0  0  0  0 10  0  0
    0.6836    0.2243   -0.1301 C   0  0  0  0  0  0  0  0  0 11  0  0
   -0.0109    1.4137    0.0586 C   0  0  0  0  0  0  0  0  0 12  0  0
    0.6739    2.5932    0.3271 C   0  0  0  0  0  0  0  0  0 13  0  0
    0.0222   -1.0037   -0.4047 N   0  0  0  0  0  0  0  0  0 14  0  0
   -1.3867   -1.1617   -0.4902 C   0  0  0  0  0  0  0  0  0 15  0  0
   -2.1632   -0.2140   -0.3243 O   0  0  0  0  0  0  0  0  0 16  0  0
   -1.9104   -2.4257   -0.7667 N   0  0  0  0  0  0  0  0  0 17  0  0
 15 17  1  0
 15 16  2  0
 14 15  1  0
 11 14  1  0
 13  8  4  0
 12 13  4  0
 11 12  4  0
 10 11  4  0
  9 10  4  0
  8  9  4  0
  7  8  1  0
  3  7  1  0
  6  1  4  0
  5  6  4  0
  4  5  4  0
  3  4  4  0
  2  3  4  0
  1  2  4  0
M  END
> <Name>
4-Phenoxylphenylurea

> <CAS RN>
078508-44-8

> <Log Koc>
2.56

> <VP-0>
9.09

> <nAromBond>
12

> <MAXDP>
3.62452

> <nHBAcc>
3

> <Splitting>
2

$$$$
3-Methyl-4-fluorophenylurea
  SciTegic01221512053D

 12 12  0  0  0  0            999 V2000
    1.2486    0.9154    0.0003 C   0  0  0  0  0  0  0  0  0  1  0  0
    0.4328    2.0431    0.0002 C   0  0  0  0  0  0  0  0  0  2  0  0
    0.9916    3.3159    0.0004 C   0  0  0  0  0  0  0  0  0  3  0  0
    2.3730    3.4674    0.0008 C   0  0  0  0  0  0  0  0  0  4  0  0
    3.1926    2.3451    0.0009 C   0  0  0  0  0  0  0  0  0  5  0  0
    2.6303    1.0737    0.0007 C   0  0  0  0  0  0  0  0  0  6  0  0
    4.6848    2.5051    0.0013 C   0  0  0  0  0  0  0  0  0  7  0  0
    2.9138    4.6943    0.0010 F   0  0  0  0  0  0  0  0  0  8  0  0
    0.7144   -0.4020    0.0001 N   0  0  0  0  0  0  0  0  0  9  0  0
   -0.6716   -0.7136   -0.0003 C   0  0  0  0  0  0  0  0  0 10  0  0
   -1.5408    0.1656   -0.0005 O   0  0  0  0  0  0  0  0  0 11  0  0
   -1.0638   -2.0532   -0.0005 N   0  0  0  0  0  0  0  0  0 12  0  0
 10 12  1  0
 10 11  2  0
  9 10  1  0
  1  9  1  0
  4  8  1  0
  5  7  1  0
  6  1  4  0
  5  6  4  0
  4  5  4  0
  3  4  4  0
  2  3  4  0
  1  2  4  0
M  END
> <Name>
3-Methyl-4-fluorophenylurea

> <CAS RN>
078508-45-9

> <Log Koc>
1.75

> <VP-0>
6.59561

> <nAromBond>
6

> <MAXDP>
4.69219

> <nHBAcc>
3

> <Splitting>
2

$$$$
3-Methyl-4-bromophenylurea
  SciTegic01221512053D

 12 12  0  0  0  0            999 V2000
    2.3502    3.4278   -0.0001 C   0  0  0  0  0  0  0  0  0  1  0  0
    3.1720    2.3071   -0.0004 C   0  0  0  0  0  0  0  0  0  2  0  0
    2.6122    1.0345   -0.0004 C   0  0  0  0  0  0  0  0  0  3  0  0
    1.2308    0.8735    0.0001 C   0  0  0  0  0  0  0  0  0  4  0  0
    0.4128    1.9996    0.0005 C   0  0  0  0  0  0  0  0  0  5  0  0
    0.9692    3.2735    0.0004 C   0  0  0  0  0  0  0  0  0  6  0  0
    0.6992   -0.4450    0.0002 N   0  0  0  0  0  0  0  0  0  7  0  0
   -0.6862   -0.7593    0.0006 C   0  0  0  0  0  0  0  0  0  8  0  0
   -1.5571    0.1182    0.0010 O   0  0  0  0  0  0  0  0  0  9  0  0
   -1.0757   -2.0997    0.0007 N   0  0  0  0  0  0  0  0  0 10  0  0
    4.6638    2.4700   -0.0010 C   0  0  0  0  0  0  0  0  0 11  0  0
    3.1135    5.1688   -0.0002 Br  0  0  0  0  0  0  0  0  0 12  0  0
  1 12  1  0
  2 11  1  0
  8 10  1  0
  8  9  2  0
  7  8  1  0
  4  7  1  0
  6  1  4  0
  5  6  4  0
  4  5  4  0
  3  4  4  0
  2  3  4  0
  1  2  4  0
M  END
> <Name>
3-Methyl-4-bromophenylurea

> <CAS RN>
078508-46-0

> <Log Koc>
2.37

> <VP-0>
8.18161

> <nAromBond>
6

> <MAXDP>
3.49066

> <nHBAcc>
3

> <Splitting>
2

$$$$
Hexythiazox
  SciTegic01221512053D

 25 27  0  0  0  0            999 V2000
    4.0275    0.0011    0.5943 C   0  0  0  0  0  0  0  0  0  1  0  0
    3.4529   -1.1255    0.0176 C   0  0  0  0  0  0  0  0  0  2  0  0
    2.0821   -1.1663   -0.2092 C   0  0  0  0  0  0  0  0  0  3  0  0
    1.2857   -0.0820    0.1408 C   0  0  0  0  0  0  0  0  0  4  0  0
    1.8609    1.0465    0.7153 C   0  0  0  0  0  0  0  0  0  5  0  0
    3.2316    1.0870    0.9427 C   0  0  0  0  0  0  0  0  0  6  0  0
   -0.1936   -0.1305   -0.1070 C   0  0  2  0  0  0  0  0  0  7  0  0
   -0.6679    0.8448    0.0704 H   0  0  0  0  0  0  0  0  0  8  0  0
   -0.9123   -1.2631    0.7572 C   0  0  1  0  0  0  0  0  0  9  0  0
   -0.4227   -2.2230    0.5513 H   0  0  0  0  0  0  0  0  0 10  0  0
   -0.9160   -0.9487    2.2732 C   0  0  0  0  0  0  0  0  0 11  0  0
   -2.1174   -1.2073    0.0135 N   0  0  0  0  0  0  0  0  0 12  0  0
   -1.9539   -1.8147   -1.2243 C   0  0  0  0  0  0  0  0  0 13  0  0
   -1.2840   -2.8394   -1.4224 O   0  0  0  0  0  0  0  0  0 14  0  0
   -0.6973   -0.7584   -1.6758 S   0  0  0  0  0  0  0  0  0 15  0  0
   -3.2035   -0.3274    0.2617 C   0  0  0  0  0  0  0  0  0 16  0  0
   -3.2550    0.3608    1.2888 O   0  0  0  0  0  0  0  0  0 17  0  0
   -4.2442   -0.2748   -0.6953 N   0  0  0  0  0  0  0  0  0 18  0  0
   -5.4216    0.5578   -0.5460 C   0  0  0  0  0  0  0  0  0 19  0  0
   -6.2293    0.1002    0.7102 C   0  0  0  0  0  0  0  0  0 20  0  0
   -7.3923    1.0825    1.0208 C   0  0  0  0  0  0  0  0  0 21  0  0
   -7.6382    1.9818   -0.1938 C   0  0  0  0  0  0  0  0  0 22  0  0
   -6.3844    2.8845   -0.4173 C   0  0  0  0  0  0  0  0  0 23  0  0
   -5.0678    2.0462   -0.3974 C   0  0  0  0  0  0  0  0  0 24  0  0
    5.7314    0.0515    0.8776 Cl  0  0  0  0  0  0  0  0  0 25  0  0
  1 25  1  0
 24 19  1  0
 23 24  1  0
 22 23  1  0
 21 22  1  0
 20 21  1  0
 19 20  1  0
 18 19  1  0
 16 18  1  0
 16 17  2  0
 12 16  1  0
 15  7  1  0
 13 15  1  0
 13 14  2  0
 12 13  1  0
  9 12  1  0
  9 11  1  0
  9 10  1  0
  7  9  1  0
  7  8  1  0
  4  7  1  0
  6  1  4  0
  5  6  4  0
  4  5  4  0
  3  4  4  0
  2  3  4  0
  1  2  4  0
M  END
> <Name>
Hexythiazox

> <CAS RN>
078587-05-0

> <Log Koc>
3.79

> <VP-0>
14.6993

> <nAromBond>
6

> <MAXDP>
5.59996

> <nHBAcc>
4

> <Splitting>
2

$$$$
Fenoxycarb
  SciTegic01221512053D

 22 23  0  0  0  0            999 V2000
    1.1023    4.4658    3.1555 C   0  0  0  0  0  0  0  0  0  1  0  0
    1.8422    5.4556    3.1930 O   0  0  0  0  0  0  0  0  0  2  0  0
   -0.1511    4.5083    2.5086 O   0  0  0  0  0  0  0  0  0  3  0  0
   -0.4217    5.7849    1.9036 C   0  0  0  0  0  0  0  0  0  4  0  0
    0.4309    5.9744    0.6242 C   0  0  0  0  0  0  0  0  0  5  0  0
    1.5172    3.2582    3.7236 N   0  0  0  0  0  0  0  0  0  6  0  0
    2.8092    3.0854    4.3550 C   0  0  0  0  0  0  0  0  0  7  0  0
    3.6612    2.0431    3.5304 C   0  0  0  0  0  0  0  0  0  8  0  0
    2.8188    0.9215    3.1807 O   0  0  0  0  0  0  0  0  0  9  0  0
    2.2104    1.1277    1.9122 C   0  0  0  0  0  0  0  0  0 10  0  0
    1.1989    0.2783    1.4837 C   0  0  0  0  0  0  0  0  0 11  0  0
    0.5529    0.5236    0.2770 C   0  0  0  0  0  0  0  0  0 12  0  0
    0.9123    1.6040   -0.5297 C   0  0  0  0  0  0  0  0  0 13  0  0
    0.2779    1.9797   -1.7807 O   0  0  0  0  0  0  0  0  0 14  0  0
   -0.8996    1.3407   -2.3376 C   0  0  0  0  0  0  0  0  0 15  0  0
   -1.6075    0.2972   -1.7430 C   0  0  0  0  0  0  0  0  0 16  0  0
   -2.7445   -0.2303   -2.3430 C   0  0  0  0  0  0  0  0  0 17  0  0
   -3.1935    0.2848   -3.5522 C   0  0  0  0  0  0  0  0  0 18  0  0
   -2.4989    1.3253   -4.1551 C   0  0  0  0  0  0  0  0  0 19  0  0
   -1.3624    1.8468   -3.5478 C   0  0  0  0  0  0  0  0  0 20  0  0
    1.9502    2.4240   -0.1080 C   0  0  0  0  0  0  0  0  0 21  0  0
    2.5888    2.1940    1.1020 C   0  0  0  0  0  0  0  0  0 22  0  0
 22 10  4  0
 21 22  4  0
 13 21  4  0
 20 15  4  0
 19 20  4  0
 18 19  4  0
 17 18  4  0
 16 17  4  0
 15 16  4  0
 14 15  1  0
 13 14  1  0
 12 13  4  0
 11 12  4  0
 10 11  4  0
  9 10  1  0
  8  9  1  0
  7  8  1  0
  6  7  1  0
  1  6  1  0
  4  5  1  0
  3  4  1  0
  1  3  1  0
  1  2  2  0
M  END
> <Name>
Fenoxycarb

> <CAS RN>
079127-80-3

> <Log Koc>
3

> <VP-0>
12.4505

> <nAromBond>
12

> <MAXDP>
4.0672

> <nHBAcc>
3

> <Splitting>
2

$$$$
Thiameturon-methyl
  SciTegic01221512053D

 25 26  0  0  0  0            999 V2000
    3.9774    3.5552   -0.1055 C   0  0  0  0  0  0  0  0  0  1  0  0
    5.1177    4.3665   -0.2041 C   0  0  0  0  0  0  0  0  0  2  0  0
    6.3107    3.6414   -0.2617 C   0  0  0  0  0  0  0  0  0  3  0  0
    5.9115    2.0682   -0.1902 S   0  0  0  0  0  0  0  0  0  4  0  0
    4.2983    2.1949   -0.0869 C   0  0  0  0  0  0  0  0  0  5  0  0
    3.4098    1.0341    0.0056 C   0  0  0  0  0  0  0  0  0  6  0  0
    2.1905    1.1655    0.0969 O   0  0  0  0  0  0  0  0  0  7  0  0
    3.9697   -0.2423   -0.0140 O   0  0  0  0  0  0  0  0  0  8  0  0
    2.9444   -1.2309    0.0747 C   0  0  0  0  0  0  0  0  0  9  0  0
    2.3446    4.2999   -0.0193 S   0  0  0  0  0  0  0  0  0 10  0  0
    2.2020    4.9606    1.3379 O   0  0  0  0  0  0  0  0  0 11  0  0
    2.2813    5.4010   -1.0608 O   0  0  0  0  0  0  0  0  0 12  0  0
    1.0453    3.2133   -0.2410 N   0  0  0  0  0  0  0  0  0 13  0  0
   -0.0264    3.5655   -1.0721 C   0  0  0  0  0  0  0  0  0 14  0  0
   -0.0182    4.6577   -1.6498 O   0  0  0  0  0  0  0  0  0 15  0  0
   -1.0701    2.6635   -1.3333 N   0  0  0  0  0  0  0  0  0 16  0  0
   -1.1757    1.4276   -0.6812 C   0  0  0  0  0  0  0  0  0 17  0  0
   -0.4301    1.1507    0.3800 N   0  0  0  0  0  0  0  0  0 18  0  0
   -0.5520   -0.0211    0.9915 C   0  0  0  0  0  0  0  0  0 19  0  0
   -1.4164   -0.9189    0.5378 N   0  0  0  0  0  0  0  0  0 20  0  0
   -2.1615   -0.6432   -0.5244 C   0  0  0  0  0  0  0  0  0 21  0  0
   -2.0436    0.5302   -1.1301 N   0  0  0  0  0  0  0  0  0 22  0  0
   -3.1373   -1.6584   -1.0402 C   0  0  0  0  0  0  0  0  0 23  0  0
    0.2303   -0.3046    2.1105 O   0  0  0  0  0  0  0  0  0 24  0  0
   -0.0757   -1.6150    2.6017 C   0  0  0  0  0  0  0  0  0 25  0  0
 24 25  1  0
 19 24  1  0
 21 23  1  0
 22 17  4  0
 21 22  4  0
 20 21  4  0
 19 20  4  0
 18 19  4  0
 17 18  4  0
 16 17  1  0
 14 16  1  0
 14 15  2  0
 13 14  1  0
 10 13  1  0
 10 12  2  0
 10 11  2  0
  1 10  1  0
  8  9  1  0
  6  8  1  0
  6  7  2  0
  5  6  1  0
  5  1  4  0
  4  5  4  0
  3  4  4  0
  2  3  4  0
  1  2  4  0
M  END
> <Name>
Thiameturon-methyl

> <CAS RN>
079277-27-3

> <Log Koc>
1.65

> <VP-0>
14.2826

> <nAromBond>
11

> <MAXDP>
5.46981

> <nHBAcc>
10

> <Splitting>
1

$$$$
Imazapyr acid
  SciTegic01221512053D

 19 20  0  0  0  0            999 V2000
   -1.8260    5.5534   -0.5712 C   0  0  0  0  0  0  0  0  0  1  0  0
   -1.5856    5.1678    0.7380 C   0  0  0  0  0  0  0  0  0  2  0  0
   -1.0906    3.8983    1.0109 C   0  0  0  0  0  0  0  0  0  3  0  0
   -0.8451    3.0302   -0.0660 C   0  0  0  0  0  0  0  0  0  4  0  0
   -0.3177    1.6407    0.0423 C   0  0  0  0  0  0  0  0  0  5  0  0
   -0.1210    0.9205   -0.9951 N   0  0  0  0  0  0  0  0  0  6  0  0
    0.3925   -0.3782   -0.6224 C   0  0  1  0  0  0  0  0  0  7  0  0
    0.4369   -0.2325    0.8597 C   0  0  0  0  0  0  0  0  0  8  0  0
    0.8001   -1.1059    1.6558 O   0  0  0  0  0  0  0  0  0  9  0  0
    0.0133    0.9633    1.2113 N   0  0  0  0  0  0  0  0  0 10  0  0
   -0.5690   -1.5144   -1.0283 C   0  0  0  0  0  0  0  0  0 11  0  0
    1.7857   -0.6633   -1.2521 C   0  0  0  0  0  0  0  0  0 12  0  0
    2.3491   -2.0187   -0.7720 C   0  0  0  0  0  0  0  0  0 13  0  0
    1.6634   -0.6867   -2.7882 C   0  0  0  0  0  0  0  0  0 14  0  0
   -1.0903    3.4428   -1.3076 N   0  0  0  0  0  0  0  0  0 15  0  0
   -1.5629    4.6507   -1.5897 C   0  0  0  0  0  0  0  0  0 16  0  0
   -0.8683    3.5887    2.4515 C   0  0  0  0  0  0  0  0  0 17  0  0
   -0.4328    2.5079    2.8462 O   0  0  0  0  0  0  0  0  0 18  0  0
   -1.1654    4.5682    3.3926 O   0  0  0  0  0  0  0  0  0 19  0  0
 17 19  1  0
 17 18  2  0
  3 17  1  0
 16  1  4  0
 15 16  4  0
  4 15  4  0
 12 14  1  0
 12 13  1  0
  7 12  1  0
  7 11  1  0
 10  5  1  0
  8 10  1  0
  8  9  2  0
  7  8  1  0
  6  7  1  0
  5  6  2  0
  4  5  1  0
  3  4  4  0
  2  3  4  0
  1  2  4  0
M  END
> <Name>
Imazapyr acid

> <CAS RN>
081334-34-1

> <Log Koc>
2

> <VP-0>
10.9675

> <nAromBond>
6

> <MAXDP>
5.00149

> <nHBAcc>
6

> <Splitting>
2

$$$$
Isoxaben
  SciTegic01221512053D

 24 25  0  0  0  0            999 V2000
    2.1305    5.0493   -1.4841 C   0  0  0  0  0  0  0  0  0  1  0  0
    1.7220    5.5080   -0.2439 C   0  0  0  0  0  0  0  0  0  2  0  0
    0.6312    4.9203    0.3832 C   0  0  0  0  0  0  0  0  0  3  0  0
   -0.0686    3.8695   -0.2097 C   0  0  0  0  0  0  0  0  0  4  0  0
    0.3259    3.4173   -1.4920 C   0  0  0  0  0  0  0  0  0  5  0  0
    1.4284    4.0202   -2.0921 C   0  0  0  0  0  0  0  0  0  6  0  0
   -0.2932    2.3976   -2.3584 O   0  0  0  0  0  0  0  0  0  7  0  0
   -1.5488    1.7730   -2.0376 C   0  0  0  0  0  0  0  0  0  8  0  0
   -1.1992    3.3509    0.6520 C   0  0  0  0  0  0  0  0  0  9  0  0
   -1.9938    4.1852    1.0994 O   0  0  0  0  0  0  0  0  0 10  0  0
   -1.3459    2.0770    1.1161 N   0  0  0  0  0  0  0  0  0 11  0  0
   -0.4920    0.9166    0.9722 C   0  0  0  0  0  0  0  0  0 12  0  0
    0.7604    0.8444    0.3858 C   0  0  0  0  0  0  0  0  0 13  0  0
    1.0783   -0.4858    0.5709 C   0  0  0  0  0  0  0  0  0 14  0  0
    2.3398   -1.1739    0.1049 C   0  0  0  0  0  0  0  0  0 15  0  0
    2.0012   -2.6398   -0.2264 C   0  0  0  0  0  0  0  0  0 16  0  0
    3.3913   -1.2010    1.2651 C   0  0  0  0  0  0  0  0  0 17  0  0
    3.8133    0.2208    1.7266 C   0  0  0  0  0  0  0  0  0 18  0  0
    2.9257   -0.4348   -1.1286 C   0  0  0  0  0  0  0  0  0 19  0  0
    4.1908   -1.1583   -1.6516 C   0  0  0  0  0  0  0  0  0 20  0  0
    0.0774   -1.0791    1.2085 N   0  0  0  0  0  0  0  0  0 21  0  0
   -0.8146   -0.2516    1.4337 O   0  0  0  0  0  0  0  0  0 22  0  0
    0.2235    5.3701    1.6533 O   0  0  0  0  0  0  0  0  0 23  0  0
    1.0509    6.4447    2.1249 C   0  0  0  0  0  0  0  0  0 24  0  0
 23 24  1  0
  3 23  1  0
 22 12  4  0
 21 22  4  0
 14 21  4  0
 19 20  1  0
 15 19  1  0
 17 18  1  0
 15 17  1  0
 15 16  1  0
 14 15  1  0
 13 14  4  0
 12 13  4  0
 11 12  1  0
  9 11  1  0
  9 10  2  0
  4  9  1  0
  7  8  1  0
  5  7  1  0
  6  1  4  0
  5  6  4  0
  4  5  4  0
  3  4  4  0
  2  3  4  0
  1  2  4  0
M  END
> <Name>
Isoxaben

> <CAS RN>
082558-50-7

> <Log Koc>
2.4

> <VP-0>
14.8038

> <nAromBond>
11

> <MAXDP>
5.61266

> <nHBAcc>
2

> <Splitting>
2

$$$$
Bifenthrin
  SciTegic01221512053D

 31 33  0  0  0  0            999 V2000
   -2.1504   -0.4912    0.3064 C   0  0  0  0  0  0  0  0  0  1  0  0
   -0.9118   -0.0103    0.3496 C   0  0  0  0  0  0  0  0  0  2  0  0
   -0.2556    0.6808   -0.8156 C   0  0  1  0  0  0  0  0  0  3  0  0
   -0.7465    0.6500   -1.7878 H   0  0  0  0  0  0  0  0  0  4  0  0
    0.8959    1.7980   -0.6548 C   0  0  1  0  0  0  0  0  0  5  0  0
    0.7100    2.4201   -1.5557 H   0  0  0  0  0  0  0  0  0  6  0  0
    0.6358    2.4992    0.7371 C   0  0  0  0  0  0  0  0  0  7  0  0
    0.8273    3.7192    0.8302 O   0  0  0  0  0  0  0  0  0  8  0  0
    0.2162    1.8123    1.8904 O   0  0  0  0  0  0  0  0  0  9  0  0
    0.1097    2.6932    3.0315 C   0  0  0  0  0  0  0  0  0 10  0  0
    1.4463    2.8784    3.7493 C   0  0  0  0  0  0  0  0  0 11  0  0
    1.8592    4.1779    4.0135 C   0  0  0  0  0  0  0  0  0 12  0  0
    3.0617    4.4072    4.6610 C   0  0  0  0  0  0  0  0  0 13  0  0
    3.8482    3.3324    5.0430 C   0  0  0  0  0  0  0  0  0 14  0  0
    3.4579    2.0149    4.7990 C   0  0  0  0  0  0  0  0  0 15  0  0
    4.4654    0.9620    5.3021 C   0  0  0  0  0  0  0  0  0 16  0  0
    4.3323   -0.4208    5.1477 C   0  0  0  0  0  0  0  0  0 17  0  0
    5.2961   -1.2977    5.6270 C   0  0  0  0  0  0  0  0  0 18  0  0
    6.4205   -0.8040    6.2747 C   0  0  0  0  0  0  0  0  0 19  0  0
    6.5694    0.5670    6.4362 C   0  0  0  0  0  0  0  0  0 20  0  0
    5.5978    1.4371    5.9510 C   0  0  0  0  0  0  0  0  0 21  0  0
    2.2330    1.7873    4.1458 C   0  0  0  0  0  0  0  0  0 22  0  0
    1.6919    0.3971    3.8583 C   0  0  0  0  0  0  0  0  0 23  0  0
    1.1697    0.2795   -0.8723 C   0  0  0  0  0  0  0  0  0 24  0  0
    1.7799   -0.4669    0.3317 C   0  0  0  0  0  0  0  0  0 25  0  0
    1.7651    0.0066   -2.2554 C   0  0  0  0  0  0  0  0  0 26  0  0
   -2.6904   -1.1615    1.5297 C   0  0  0  0  0  0  0  0  0 27  0  0
   -3.1859   -0.1804    2.3604 F   0  0  0  0  0  0  0  0  0 28  0  0
   -1.6616   -1.7905    2.2032 F   0  0  0  0  0  0  0  0  0 29  0  0
   -3.7138   -2.0296    1.2108 F   0  0  0  0  0  0  0  0  0 30  0  0
   -3.1244   -0.3445   -1.1172 Cl  0  0  0  0  0  0  0  0  0 31  0  0
  1 31  1  0
 27 30  1  0
 27 29  1  0
 27 28  1  0
  1 27  1  0
 24 26  1  0
 24 25  1  0
 24  3  1  0
  5 24  1  0
 22 23  1  0
 22 11  4  0
 15 22  4  0
 21 16  4  0
 20 21  4  0
 19 20  4  0
 18 19  4  0
 17 18  4  0
 16 17  4  0
 15 16  1  0
 14 15  4  0
 13 14  4  0
 12 13  4  0
 11 12  4  0
 10 11  1  0
  9 10  1  0
  7  9  1  0
  7  8  2  0
  5  7  1  0
  5  6  1  0
  3  5  1  0
  3  4  1  0
  2  3  1  0
  1  2  2  0
M  END
> <Name>
Bifenthrin

> <CAS RN>
082657-04-3

> <Log Koc>
5.35

> <VP-0>
17.1422

> <nAromBond>
13

> <MAXDP>
5.58269

> <nHBAcc>
2

> <Splitting>
1

$$$$
Cinmethylin
  SciTegic01221512053D

 21 23  0  0  0  0            999 V2000
    1.8106    0.4162    2.1230 C   0  0  0  0  0  0  0  0  0  1  0  0
    3.2354    0.0828    1.3171 C   0  0  0  0  0  0  0  0  0  2  0  0
    2.8195    0.5531   -0.2973 C   0  0  2  0  0  0  0  0  0  3  0  0
    2.1659    2.1019   -0.6866 C   0  0  0  0  0  0  0  0  0  4  0  0
    0.8812    2.0833    0.3323 C   0  0  1  0  0  0  0  0  0  5  0  0
    0.0352    1.4908   -0.0441 H   0  0  0  0  0  0  0  0  0  6  0  0
    1.7034    1.2452    1.0409 C   0  0  1  0  0  0  0  0  0  7  0  0
    2.9342    2.3996    1.5067 C   0  0  0  0  0  0  0  0  0  8  0  0
    1.8176    0.1423   -0.1302 O   0  0  0  0  0  0  0  0  0  9  0  0
    0.4606    3.3326    0.9140 O   0  0  0  0  0  0  0  0  0 10  0  0
   -0.5723    3.1417    1.8995 C   0  0  0  0  0  0  0  0  0 11  0  0
   -0.7292    4.4170    2.6687 C   0  0  0  0  0  0  0  0  0 12  0  0
   -1.7340    4.5495    3.6238 C   0  0  0  0  0  0  0  0  0 13  0  0
   -1.8589    5.7363    4.3357 C   0  0  0  0  0  0  0  0  0 14  0  0
   -0.9823    6.7894    4.0967 C   0  0  0  0  0  0  0  0  0 15  0  0
    0.0200    6.6565    3.1431 C   0  0  0  0  0  0  0  0  0 16  0  0
    0.1452    5.4697    2.4299 C   0  0  0  0  0  0  0  0  0 17  0  0
   -2.6836    3.4150    3.8887 C   0  0  0  0  0  0  0  0  0 18  0  0
    3.8030    0.0155   -1.3652 C   0  0  0  0  0  0  0  0  0 19  0  0
    4.0980   -1.4730   -1.1001 C   0  0  0  0  0  0  0  0  0 20  0  0
    3.1842    0.1706   -2.7673 C   0  0  0  0  0  0  0  0  0 21  0  0
 19 21  1  0
 19 20  1  0
  3 19  1  0
 13 18  1  0
 17 12  4  0
 16 17  4  0
 15 16  4  0
 14 15  4  0
 13 14  4  0
 12 13  4  0
 11 12  1  0
 10 11  1  0
  5 10  1  0
  9  3  1  0
  7  9  1  0
  7  8  1  0
  7  1  1  0
  5  7  1  0
  5  6  1  0
  4  5  1  0
  3  4  1  0
  2  3  1  0
  1  2  1  0
M  END
> <Name>
Cinmethylin

> <CAS RN>
087818-31-3

> <Log Koc>
2.6

> <VP-0>
13.109

> <nAromBond>
6

> <MAXDP>
2.9151

> <nHBAcc>
2

> <Splitting>
2

$$$$
Chlorimuron ethyl
  SciTegic01221512053D

 27 28  0  0  0  0            999 V2000
    5.7728    2.5278    0.3179 C   0  0  0  0  0  0  0  0  0  1  0  0
    4.6804    1.6798    0.1914 C   0  0  0  0  0  0  0  0  0  2  0  0
    3.3960    2.1952    0.2977 C   0  0  0  0  0  0  0  0  0  3  0  0
    3.1905    3.5527    0.5302 C   0  0  0  0  0  0  0  0  0  4  0  0
    4.2858    4.4043    0.6577 C   0  0  0  0  0  0  0  0  0  5  0  0
    5.5732    3.8825    0.5496 C   0  0  0  0  0  0  0  0  0  6  0  0
    4.1513    5.8485    0.9030 C   0  0  0  0  0  0  0  0  0  7  0  0
    5.1797    6.5280    1.0017 O   0  0  0  0  0  0  0  0  0  8  0  0
    2.8917    6.4445    1.0441 O   0  0  0  0  0  0  0  0  0  9  0  0
    2.9836    7.8659    1.2512 C   0  0  0  0  0  0  0  0  0 10  0  0
    3.3654    8.5858   -0.0664 C   0  0  0  0  0  0  0  0  0 11  0  0
    1.5062    4.0982    0.6451 S   0  0  0  0  0  0  0  0  0 12  0  0
    1.2212    5.1540   -0.4063 O   0  0  0  0  0  0  0  0  0 13  0  0
    1.2307    4.6689    2.0237 O   0  0  0  0  0  0  0  0  0 14  0  0
    0.5797    2.7156    0.3673 N   0  0  0  0  0  0  0  0  0 15  0  0
   -0.5201    2.3637    1.1342 C   0  0  0  0  0  0  0  0  0 16  0  0
   -0.9283    3.1017    2.0379 O   0  0  0  0  0  0  0  0  0 17  0  0
   -0.9991    1.0569    1.0187 N   0  0  0  0  0  0  0  0  0 18  0  0
   -0.4918    0.2390   -0.0053 C   0  0  0  0  0  0  0  0  0 19  0  0
    0.0525    0.7960   -1.0833 N   0  0  0  0  0  0  0  0  0 20  0  0
    0.5600    0.0568   -2.0596 C   0  0  0  0  0  0  0  0  0 21  0  0
    0.5332   -1.3251   -1.9502 C   0  0  0  0  0  0  0  0  0 22  0  0
   -0.0357   -1.8789   -0.8123 C   0  0  0  0  0  0  0  0  0 23  0  0
   -0.5358   -1.0830    0.1262 N   0  0  0  0  0  0  0  0  0 24  0  0
   -0.0689   -3.2625   -0.6555 O   0  0  0  0  0  0  0  0  0 25  0  0
   -0.6765   -3.5969    0.5954 C   0  0  0  0  0  0  0  0  0 26  0  0
    1.2542    0.8123   -3.4499 Cl  0  0  0  0  0  0  0  0  0 27  0  0
 21 27  1  0
 25 26  1  0
 23 25  1  0
 24 19  4  0
 23 24  4  0
 22 23  4  0
 21 22  4  0
 20 21  4  0
 19 20  4  0
 18 19  1  0
 16 18  1  0
 16 17  2  0
 15 16  1  0
 12 15  1  0
 12 14  2  0
 12 13  2  0
  4 12  1  0
 10 11  1  0
  9 10  1  0
  7  9  1  0
  7  8  2  0
  5  7  1  0
  6  1  4  0
  5  6  4  0
  4  5  4  0
  3  4  4  0
  2  3  4  0
  1  2  4  0
M  END
> <Name>
Chlorimuron ethyl

> <CAS RN>
090982-32-4

> <Log Koc>
2.04

> <VP-0>
15.1837

> <nAromBond>
12

> <MAXDP>
5.66338

> <nHBAcc>
9

> <Splitting>
1

$$$$
Cyhalothrin
  SciTegic01221512053D

 34 36  0  0  0  0            999 V2000
   -4.5722   -1.4122    1.4406 C   0  0  0  0  0  0  0  0  0  1  0  0
   -5.3296   -1.2087    2.5600 F   0  0  0  0  0  0  0  0  0  2  0  0
   -5.4323   -1.3748    0.3502 F   0  0  0  0  0  0  0  0  0  3  0  0
   -3.9508   -2.6474    1.5377 F   0  0  0  0  0  0  0  0  0  4  0  0
   -3.5333   -0.2858    1.3180 C   0  0  0  0  0  0  0  0  0  5  0  0
   -2.2528   -0.4872    1.6724 C   0  0  0  0  0  0  0  0  0  6  0  0
   -1.2004    0.6115    1.4456 C   0  0  2  0  0  0  0  0  0  7  0  0
   -1.4655    1.6504    1.6959 H   0  0  0  0  0  0  0  0  0  8  0  0
   -0.1418    0.5229    0.2212 C   0  0  2  0  0  0  0  0  0  9  0  0
    0.0680    1.7832   -0.1762 H   0  0  0  0  0  0  0  0  0 10  0  0
   -0.6867   -0.6424   -0.6518 C   0  0  0  0  0  0  0  0  0 11  0  0
   -0.3091   -1.7880   -0.4024 O   0  0  0  0  0  0  0  0  0 12  0  0
   -1.7670   -0.4501   -1.4687 O   0  0  0  0  0  0  0  0  0 13  0  0
   -2.5471   -1.6821   -1.5113 C   0  0  2  0  0  0  0  0  0 14  0  0
   -2.7840   -1.8929   -0.5001 H   0  0  0  0  0  0  0  0  0 15  0  0
   -2.0267   -2.9233   -1.9902 C   0  0  0  0  0  0  0  0  0 16  0  0
   -1.8942   -3.1237   -3.3367 C   0  0  0  0  0  0  0  0  0 17  0  0
   -1.5164   -4.3654   -3.8127 C   0  0  0  0  0  0  0  0  0 18  0  0
   -1.5514   -4.6198   -5.1798 O   0  0  0  0  0  0  0  0  0 19  0  0
   -1.7512   -3.4808   -6.0092 C   0  0  0  0  0  0  0  0  0 20  0  0
   -0.9406   -2.3402   -6.0025 C   0  0  0  0  0  0  0  0  0 21  0  0
   -1.2327   -1.2730   -6.8439 C   0  0  0  0  0  0  0  0  0 22  0  0
   -2.3463   -1.3287   -7.6739 C   0  0  0  0  0  0  0  0  0 23  0  0
   -3.1534   -2.4591   -7.6808 C   0  0  0  0  0  0  0  0  0 24  0  0
   -2.8431   -3.5358   -6.8632 C   0  0  0  0  0  0  0  0  0 25  0  0
   -1.2925   -5.4099   -2.9209 C   0  0  0  0  0  0  0  0  0 26  0  0
   -1.4223   -5.2061   -1.5522 C   0  0  0  0  0  0  0  0  0 27  0  0
   -1.8130   -3.9604   -1.0878 C   0  0  0  0  0  0  0  0  0 28  0  0
   -3.7601   -1.3996   -2.2337 C   0  0  0  0  0  0  0  0  0 29  0  0
   -4.7287   -1.1755   -2.8112 N   0  0  0  0  0  0  0  0  0 30  0  0
    0.2476    0.2288    1.7058 C   0  0  0  0  0  0  0  0  0 31  0  0
    1.0757    1.3311    2.4007 C   0  0  0  0  0  0  0  0  0 32  0  0
    0.5147   -1.1705    2.0886 C   0  0  0  0  0  0  0  0  0 33  0  0
   -3.9634    1.1744    0.5002 Cl  0  0  0  0  0  0  0  0  0 34  0  0
  5 34  1  0
 31 33  1  0
 31 32  1  0
 31  7  1  0
  9 31  1  0
 29 30  3  0
 14 29  1  0
 28 16  4  0
 27 28  4  0
 26 27  4  0
 18 26  4  0
 25 20  4  0
 24 25  4  0
 23 24  4  0
 22 23  4  0
 21 22  4  0
 20 21  4  0
 19 20  1  0
 18 19  1  0
 17 18  4  0
 16 17  4  0
 14 16  1  0
 14 15  1  0
 13 14  1  0
 11 13  1  0
 11 12  2  0
  9 11  1  0
  9 10  1  0
  7  9  1  0
  7  8  1  0
  6  7  1  0
  5  6  2  0
  1  5  1  0
  1  4  1  0
  1  3  1  0
  1  2  1  0
M  END
> <Name>
Cyhalothrin

> <CAS RN>
091465-08-6

> <Log Koc>
5.26

> <VP-0>
17.4453

> <nAromBond>
12

> <MAXDP>
5.67937

> <nHBAcc>
3

> <Splitting>
2

$$$$
