1
 OpenBabel11300909433D

 28 29  0  0  0  0  0  0  0  0999 V2000
   -1.3400    0.3560    0.3216 C   0  0  0  0  0
   -0.8216    0.9227    1.4980 C   0  0  0  0  0
    0.5499    1.1489    1.6423 C   0  0  0  0  0
    1.4214    0.8132    0.6107 C   0  0  0  0  0
    0.9330    0.2456   -0.5610 C   0  0  0  0  0
    3.1084    1.1038    0.7847 Cl  0  0  0  0  0
   -0.4382    0.0145   -0.7042 C   0  0  0  0  0
   -2.8465    0.1195    0.1194 C   0  0  0  0  0
   -3.4630   -0.6701    1.2913 C   0  0  0  0  0
   -3.4480   -2.0789    1.2380 C   0  0  0  0  0
   -3.9948   -2.8479    2.2694 C   0  0  0  0  0
   -4.5532   -2.2203    3.3769 C   0  0  0  0  0
   -4.5647   -0.8322    3.4616 C   0  0  0  0  0
   -5.2262   -3.1621    4.6484 Cl  0  0  0  0  0
   -4.0214   -0.0619    2.4273 C   0  0  0  0  0
   -3.6352    1.3721   -0.4159 C   0  0  0  0  0
   -5.3926    1.0008   -0.6223 Cl  0  0  0  0  0
   -3.4962    2.8419    0.6108 Cl  0  0  0  0  0
   -3.0392    1.8388   -2.0682 Cl  0  0  0  0  0
   -1.4718    1.1998    2.3254 H   0  0  0  0  0
    0.9302    1.5909    2.5600 H   0  0  0  0  0
    1.6113   -0.0153   -1.3696 H   0  0  0  0  0
   -0.7921   -0.4277   -1.6340 H   0  0  0  0  0
   -2.9141   -0.5967   -0.7165 H   0  0  0  0  0
   -3.0095   -2.5965    0.3856 H   0  0  0  0  0
   -3.9790   -3.9323    2.2011 H   0  0  0  0  0
   -4.9938   -0.3393    4.3304 H   0  0  0  0  0
   -4.0463    1.0168    2.5483 H   0  0  0  0  0
  1  2  2  0  0  0
  1  7  1  0  0  0
  1  8  1  0  0  0
  2  3  1  0  0  0
  2 20  1  0  0  0
  3  4  2  0  0  0
  3 21  1  0  0  0
  4  5  1  0  0  0
  4  6  1  0  0  0
  5  7  2  0  0  0
  5 22  1  0  0  0
  7 23  1  0  0  0
  8 16  1  0  0  0
  8  9  1  0  0  0
  8 24  1  0  0  0
  9 10  2  0  0  0
  9 15  1  0  0  0
 10 11  1  0  0  0
 10 25  1  0  0  0
 11 12  2  0  0  0
 11 26  1  0  0  0
 12 13  1  0  0  0
 12 14  1  0  0  0
 13 15  2  0  0  0
 13 27  1  0  0  0
 15 28  1  0  0  0
 16 19  1  0  0  0
 16 18  1  0  0  0
 16 17  1  0  0  0
M  END