5
 OpenBabel11300909433D

  5  4  0  0  0  0  0  0  0  0999 V2000
    0.9967   -0.0047   -0.0080 C   0  0  0  0  0
    0.4149   -0.8279   -1.4769 Cl  0  0  0  0  0
    0.3914   -0.8612    1.4325 Cl  0  0  0  0  0
    0.4022    1.6749    0.0067 Cl  0  0  0  0  0
    2.7784   -0.0044    0.0067 Cl  0  0  0  0  0
  1  5  1  0  0  0
  1  4  1  0  0  0
  1  3  1  0  0  0
  1  2  1  0  0  0
M  END