7
 OpenBabel11300909373D

 30 33  0  0  0  0  0  0  0  0999 V2000
   -1.3757   -1.2230    0.2316 C   0  0  0  0  0
   -1.7391    0.1438    0.1662 C   0  0  0  0  0
   -3.1042    0.5236    0.4248 C   0  0  0  0  0
   -4.0301   -0.4705    0.8349 C   0  0  0  0  0
   -3.6351   -1.8093    0.8887 C   0  0  0  0  0
   -5.3407   -0.1187    1.1991 C   0  0  0  0  0
   -5.7778    1.2011    1.1274 C   0  0  0  0  0
   -4.9115    2.1827    0.6681 C   0  0  0  0  0
   -3.5987    1.8483    0.3265 C   0  0  0  0  0
   -0.6963    1.0688   -0.0961 C   0  0  0  0  0
    0.6494    0.6792   -0.2303 C   0  0  0  0  0
    0.9772   -0.6868   -0.1827 C   0  0  0  0  0
    2.3225   -1.0789   -0.2893 C   0  0  0  0  0
    3.3354   -0.1257   -0.4058 C   0  0  0  0  0
    3.0133    1.2267   -0.4397 C   0  0  0  0  0
    1.6785    1.6268   -0.3660 C   0  0  0  0  0
   -2.3344   -2.1840    0.5634 C   0  0  0  0  0
   -0.0457   -1.6237    0.0161 C   0  0  0  0  0
   -4.3392   -2.5821    1.1909 H   0  0  0  0  0
   -6.0353   -0.8777    1.5529 H   0  0  0  0  0
   -6.7932    1.4574    1.4192 H   0  0  0  0  0
   -5.2490    3.2124    0.5827 H   0  0  0  0  0
   -2.9626    2.6554   -0.0246 H   0  0  0  0  0
   -0.9159    2.1319   -0.1359 H   0  0  0  0  0
    2.5928   -2.1314   -0.2539 H   0  0  0  0  0
    4.3745   -0.4405   -0.4584 H   0  0  0  0  0
    3.7999    1.9726   -0.5136 H   0  0  0  0  0
    1.4481    2.6892   -0.3853 H   0  0  0  0  0
   -2.0676   -3.2368    0.6188 H   0  0  0  0  0
    0.2086   -2.6810    0.0616 H   0  0  0  0  0
  1 17  1  0  0  0
  1 18  1  0  0  0
  1  2  2  0  0  0
  2 10  1  0  0  0
  2  3  1  0  0  0
  3  4  2  0  0  0
  3  9  1  0  0  0
  4  5  1  0  0  0
  4  6  1  0  0  0
  5 17  2  0  0  0
  5 19  1  0  0  0
  6  7  2  0  0  0
  6 20  1  0  0  0
  7  8  1  0  0  0
  7 21  1  0  0  0
  8  9  2  0  0  0
  8 22  1  0  0  0
  9 23  1  0  0  0
 10 11  2  0  0  0
 10 24  1  0  0  0
 11 12  1  0  0  0
 11 16  1  0  0  0
 12 18  2  0  0  0
 12 13  1  0  0  0
 13 14  2  0  0  0
 13 25  1  0  0  0
 14 15  1  0  0  0
 14 26  1  0  0  0
 15 16  2  0  0  0
 15 27  1  0  0  0
 16 28  1  0  0  0
 17 29  1  0  0  0
 18 30  1  0  0  0
M  END