10
 OpenBabel11300909433D

 15 14  0  0  0  0  0  0  0  0999 V2000
    1.3365   -0.5537   -0.0001 O   0  0  0  0  0
    0.9437   -1.9227    0.0651 C   0  0  0  0  0
   -0.5710   -1.9883    0.0680 C   0  0  0  0  0
    2.7542   -0.4107    0.0073 C   0  0  0  0  0
    3.0874    1.0646   -0.0866 C   0  0  0  0  0
    1.3382   -2.3786    0.9803 H   0  0  0  0  0
    1.3381   -2.4617   -0.8038 H   0  0  0  0  0
   -0.9777   -1.4450    0.9267 H   0  0  0  0  0
   -0.9160   -3.0248    0.1101 H   0  0  0  0  0
   -0.9788   -1.5155   -0.8309 H   0  0  0  0  0
    3.1856   -0.9442   -0.8463 H   0  0  0  0  0
    3.1624   -0.8262    0.9348 H   0  0  0  0  0
    2.6721    1.4965   -1.0037 H   0  0  0  0  0
    4.1701    1.2221   -0.0817 H   0  0  0  0  0
    2.6466    1.6147    0.7520 H   0  0  0  0  0
  1  4  1  0  0  0
  1  2  1  0  0  0
  2  3  1  0  0  0
  2  6  1  0  0  0
  2  7  1  0  0  0
  3  8  1  0  0  0
  3  9  1  0  0  0
  3 10  1  0  0  0
  4  5  1  0  0  0
  4 11  1  0  0  0
  4 12  1  0  0  0
  5 13  1  0  0  0
  5 14  1  0  0  0
  5 15  1  0  0  0
M  END