11
 OpenBabel11300909433D

  9  8  0  0  0  0  0  0  0  0999 V2000
    0.9559   -0.0475    0.0033 O   0  0  0  0  0
    2.1800   -0.0121    0.0016 C   0  0  0  0  0
    2.9260   -1.1517   -0.0027 N   0  0  0  0  0
    2.9791    1.2587    0.0059 C   0  0  0  0  0
    2.4347   -2.0361   -0.0040 H   0  0  0  0  0
    3.9359   -1.1521   -0.0003 H   0  0  0  0  0
    2.3026    2.1173   -0.0081 H   0  0  0  0  0
    3.6181    1.2982   -0.8804 H   0  0  0  0  0
    3.5937    1.3066    0.9088 H   0  0  0  0  0
  1  2  2  0  0  0
  2  4  1  0  0  0
  2  3  1  0  0  0
  3  5  1  0  0  0
  3  6  1  0  0  0
  4  7  1  0  0  0
  4  8  1  0  0  0
  4  9  1  0  0  0
M  END