16
 OpenBabel11300909373D

 26 27  0  0  0  0  0  0  0  0999 V2000
    2.8869    1.0950   -0.0698 O   0  0  0  0  0
    2.4128   -0.0241    0.0559 C   0  0  0  0  0
    3.1239   -1.2110    0.1662 O   0  0  0  0  0
    4.5285   -1.1899    0.0039 C   0  0  0  0  0
    5.3150   -1.9340    0.9129 C   0  0  0  0  0
    6.7130   -1.9906    0.6953 C   0  0  0  0  0
    7.5235   -2.7262    1.5747 C   0  0  0  0  0
    6.9705   -3.4033    2.6617 C   0  0  0  0  0
    5.5995   -3.3514    2.8864 C   0  0  0  0  0
    7.2730   -1.3167   -0.4043 C   0  0  0  0  0
    6.4720   -0.6019   -1.2944 C   0  0  0  0  0
    4.7789   -2.6238    2.0220 C   0  0  0  0  0
    5.0958   -0.5473   -1.1006 C   0  0  0  0  0
    1.0732   -0.3034    0.0753 N   0  0  0  0  0
    0.0909    0.6991   -0.2337 C   0  0  0  0  0
    8.5979   -2.7803    1.4158 H   0  0  0  0  0
    7.6120   -3.9702    3.3318 H   0  0  0  0  0
    5.1661   -3.8756    3.7342 H   0  0  0  0  0
    8.3464   -1.3508   -0.5789 H   0  0  0  0  0
    6.9215   -0.0920   -2.1431 H   0  0  0  0  0
    3.7102   -2.5952    2.2197 H   0  0  0  0  0
    4.4779   -0.0028   -1.8085 H   0  0  0  0  0
    0.8245   -1.2825    0.0486 H   0  0  0  0  0
    0.3449    1.6444    0.2518 H   0  0  0  0  0
   -0.8860    0.3500    0.1100 H   0  0  0  0  0
    0.0699    0.8435   -1.3180 H   0  0  0  0  0
  1  2  2  0  0  0
  2 14  1  0  0  0
  2  3  1  0  0  0
  3  4  1  0  0  0
  4 13  1  0  0  0
  4  5  2  0  0  0
  5  6  1  0  0  0
  5 12  1  0  0  0
  6  7  1  0  0  0
  6 10  2  0  0  0
  7  8  2  0  0  0
  7 16  1  0  0  0
  8  9  1  0  0  0
  8 17  1  0  0  0
  9 12  2  0  0  0
  9 18  1  0  0  0
 10 11  1  0  0  0
 10 19  1  0  0  0
 11 13  2  0  0  0
 11 20  1  0  0  0
 12 21  1  0  0  0
 13 22  1  0  0  0
 14 15  1  0  0  0
 14 23  1  0  0  0
 15 24  1  0  0  0
 15 25  1  0  0  0
 15 26  1  0  0  0
M  END