21
 OpenBabel11300909433D

  6  5  0  0  0  0  0  0  0  0999 V2000
    0.9967   -0.0101    0.0058 O   0  0  0  0  0
    2.4132    0.0059   -0.0049 C   0  0  0  0  0
    0.7008    0.9165   -0.0022 H   0  0  0  0  0
    2.7796   -1.0228    0.0037 H   0  0  0  0  0
    2.7788    0.5285    0.8822 H   0  0  0  0  0
    2.7655    0.5088   -0.9085 H   0  0  0  0  0
  1  2  1  0  0  0
  1  3  1  0  0  0
  2  4  1  0  0  0
  2  5  1  0  0  0
  2  6  1  0  0  0
M  END