22
 OpenBabel11300909373D

 12 11  0  0  0  0  0  0  0  0999 V2000
    1.0132   -0.0119   -0.0255 O   0  0  0  0  0
    2.4365    0.0030    0.0065 C   0  0  0  0  0
    2.9486   -0.7525   -1.2093 C   0  0  0  0  0
    2.9248    1.4434    0.0166 C   0  0  0  0  0
    0.6970    0.4607    0.7634 H   0  0  0  0  0
    2.7605   -0.5090    0.9188 H   0  0  0  0  0
    2.5939   -0.2907   -2.1375 H   0  0  0  0  0
    2.5709   -1.7807   -1.2064 H   0  0  0  0  0
    4.0422   -0.7829   -1.2278 H   0  0  0  0  0
    2.5627    1.9872   -0.8632 H   0  0  0  0  0
    4.0179    1.4929    0.0355 H   0  0  0  0  0
    2.5376    1.9730    0.8939 H   0  0  0  0  0
  1  2  1  0  0  0
  1  5  1  0  0  0
  2  4  1  0  0  0
  2  3  1  0  0  0
  2  6  1  0  0  0
  3  7  1  0  0  0
  3  8  1  0  0  0
  3  9  1  0  0  0
  4 10  1  0  0  0
  4 11  1  0  0  0
  4 12  1  0  0  0
M  END