26
 OpenBabel11300909373D

 16 16  0  0  0  0  0  0  0  0999 V2000
    2.8081   -1.1287   -0.5599 O   0  0  0  0  0
    2.2250   -0.0848   -0.3129 C   0  0  0  0  0
    0.8965   -0.0407   -0.0797 O   0  0  0  0  0
    2.9285    1.2316   -0.2472 C   0  0  0  0  0
    2.2954    2.4513    0.0332 C   0  0  0  0  0
    0.9433    2.4881    0.2694 O   0  0  0  0  0
    3.0254    3.6425    0.0766 C   0  0  0  0  0
    4.4000    3.6225   -0.1611 C   0  0  0  0  0
    5.0437    2.4192   -0.4409 C   0  0  0  0  0
    4.3123    1.2303   -0.4839 C   0  0  0  0  0
    0.5818    0.8726    0.1030 H   0  0  0  0  0
    0.6852    3.4133    0.4441 H   0  0  0  0  0
    2.5462    4.5931    0.2927 H   0  0  0  0  0
    4.9724    4.5472   -0.1283 H   0  0  0  0  0
    6.1151    2.4025   -0.6264 H   0  0  0  0  0
    4.8283    0.2966   -0.7038 H   0  0  0  0  0
  1  2  2  0  0  0
  2  4  1  0  0  0
  2  3  1  0  0  0
  3 11  1  0  0  0
  4  5  2  0  0  0
  4 10  1  0  0  0
  5  7  1  0  0  0
  5  6  1  0  0  0
  6 12  1  0  0  0
  7  8  2  0  0  0
  7 13  1  0  0  0
  8  9  1  0  0  0
  8 14  1  0  0  0
  9 10  2  0  0  0
  9 15  1  0  0  0
 10 16  1  0  0  0
M  END