28
 OpenBabel11300909373D

 15 14  0  0  0  0  0  0  0  0999 V2000
    0.9718    0.0171    0.0161 O   0  0  0  0  0
    2.3924   -0.0304    0.0158 C   0  0  0  0  0
    2.9324    1.3917   -0.0011 C   0  0  0  0  0
    4.4586    1.4149   -0.0029 C   0  0  0  0  0
    4.9946    2.8379   -0.0173 C   0  0  0  0  0
    0.6557   -0.9020    0.0272 H   0  0  0  0  0
    2.7216   -0.5844   -0.8692 H   0  0  0  0  0
    2.7226   -0.5636    0.9132 H   0  0  0  0  0
    2.5454    1.9381    0.8683 H   0  0  0  0  0
    2.5438    1.9180   -0.8821 H   0  0  0  0  0
    4.8379    0.8788   -0.8805 H   0  0  0  0  0
    4.8399    0.8960    0.8843 H   0  0  0  0  0
    4.6568    3.3750   -0.9089 H   0  0  0  0  0
    6.0888    2.8302   -0.0192 H   0  0  0  0  0
    4.6601    3.3916    0.8655 H   0  0  0  0  0
  1  2  1  0  0  0
  1  6  1  0  0  0
  2  3  1  0  0  0
  2  7  1  0  0  0
  2  8  1  0  0  0
  3  4  1  0  0  0
  3  9  1  0  0  0
  3 10  1  0  0  0
  4  5  1  0  0  0
  4 11  1  0  0  0
  4 12  1  0  0  0
  5 13  1  0  0  0
  5 14  1  0  0  0
  5 15  1  0  0  0
M  END