31
 OpenBabel11300909373D

 36 37  0  0  0  0  0  0  0  0999 V2000
    2.1726   -0.7130    1.5209 C   0  0  0  0  0
    2.3425   -0.0957    0.2516 O   0  0  0  0  0
    3.1308    1.0203    0.2164 C   0  0  0  0  0
    3.0434    1.7654   -0.9591 C   0  0  0  0  0
    3.7923    2.9338   -1.1222 C   0  0  0  0  0
    4.6636    3.3756   -0.1133 C   0  0  0  0  0
    4.7528    2.6101    1.0599 C   0  0  0  0  0
    3.9942    1.4441    1.2234 C   0  0  0  0  0
    5.4863    4.6568   -0.3216 C   0  0  0  0  0
    5.3086    5.6388    0.8515 C   0  0  0  0  0
    6.1518    5.6741    1.9700 C   0  0  0  0  0
    5.9282    6.5874    3.0061 C   0  0  0  0  0
    4.8606    7.4828    2.9574 C   0  0  0  0  0
    4.7644    8.3189    4.0343 O   0  0  0  0  0
    3.7044    9.2663    4.0202 C   0  0  0  0  0
    4.0049    7.4518    1.8604 C   0  0  0  0  0
    4.2235    6.5362    0.8234 C   0  0  0  0  0
    6.9413    4.4139   -0.8659 C   0  0  0  0  0
    6.8851    3.6551   -2.5173 Cl  0  0  0  0  0
    7.8288    5.9761   -1.0865 Cl  0  0  0  0  0
    7.9605    3.3390    0.1543 Cl  0  0  0  0  0
    1.4438   -1.5216    1.4047 H   0  0  0  0  0
    1.7712   -0.0049    2.2547 H   0  0  0  0  0
    3.1091   -1.1589    1.8735 H   0  0  0  0  0
    2.3790    1.4361   -1.7545 H   0  0  0  0  0
    3.6861    3.4882   -2.0526 H   0  0  0  0  0
    5.4120    2.9054    1.8735 H   0  0  0  0  0
    4.1093    0.8874    2.1478 H   0  0  0  0  0
    4.9909    5.1839   -1.1541 H   0  0  0  0  0
    6.9942    4.9986    2.0795 H   0  0  0  0  0
    6.5968    6.5985    3.8639 H   0  0  0  0  0
    3.7747    9.8604    4.9366 H   0  0  0  0  0
    2.7297    8.7676    4.0208 H   0  0  0  0  0
    3.7981    9.9517    3.1713 H   0  0  0  0  0
    3.1557    8.1215    1.7785 H   0  0  0  0  0
    3.5279    6.5323   -0.0144 H   0  0  0  0  0
  1  2  1  0  0  0
  1 22  1  0  0  0
  1 23  1  0  0  0
  1 24  1  0  0  0
  2  3  1  0  0  0
  3  4  2  0  0  0
  3  8  1  0  0  0
  4  5  1  0  0  0
  4 25  1  0  0  0
  5  6  2  0  0  0
  5 26  1  0  0  0
  6  7  1  0  0  0
  6  9  1  0  0  0
  7  8  2  0  0  0
  7 27  1  0  0  0
  8 28  1  0  0  0
  9 18  1  0  0  0
  9 10  1  0  0  0
  9 29  1  0  0  0
 10 11  2  0  0  0
 10 17  1  0  0  0
 11 12  1  0  0  0
 11 30  1  0  0  0
 12 13  2  0  0  0
 12 31  1  0  0  0
 13 16  1  0  0  0
 13 14  1  0  0  0
 14 15  1  0  0  0
 15 32  1  0  0  0
 15 33  1  0  0  0
 15 34  1  0  0  0
 16 17  2  0  0  0
 16 35  1  0  0  0
 17 36  1  0  0  0
 18 21  1  0  0  0
 18 20  1  0  0  0
 18 19  1  0  0  0
M  END