34
 OpenBabel11300909373D

  6  5  0  0  0  0  0  0  0  0999 V2000
    1.0138    0.0085    0.0000 C   0  0  0  0  0
    0.3408    1.1590    0.0000 C   0  0  0  0  0
    2.7237   -0.0645   -0.0000 Cl  0  0  0  0  0
    0.5512   -0.9700    0.0000 H   0  0  0  0  0
    0.8519    2.1160   -0.0000 H   0  0  0  0  0
   -0.7437    1.1649    0.0000 H   0  0  0  0  0
  1  3  1  0  0  0
  1  2  2  0  0  0
  1  4  1  0  0  0
  2  5  1  0  0  0
  2  6  1  0  0  0
M  END