37
 OpenBabel11300909373D

  5  4  0  0  0  0  0  0  0  0999 V2000
    1.0055   -0.0150   -0.0048 Cl  0  0  0  0  0
    2.7731    0.0097    0.0062 C   0  0  0  0  0
    3.3865    1.6678   -0.0048 Cl  0  0  0  0  0
    3.1412   -0.5110   -0.8799 H   0  0  0  0  0
    3.1298   -0.4950    0.9061 H   0  0  0  0  0
  1  2  1  0  0  0
  2  3  1  0  0  0
  2  4  1  0  0  0
  2  5  1  0  0  0
M  END