42
 OpenBabel11300909373D

 15 14  0  0  0  0  0  0  0  0999 V2000
    2.4047   -0.2823    0.8963 O   0  0  0  0  0
    2.8343    0.9273    0.2694 C   0  0  0  0  0
    2.4549    0.8691   -1.2103 C   0  0  0  0  0
    2.1479    2.1044    0.9626 C   0  0  0  0  0
    4.3506    1.0173    0.4327 C   0  0  0  0  0
    1.4402   -0.3481    0.7922 H   0  0  0  0  0
    2.7927    1.7607   -1.7479 H   0  0  0  0  0
    2.8923   -0.0137   -1.6893 H   0  0  0  0  0
    1.3698    0.7818   -1.3321 H   0  0  0  0  0
    2.3860    2.1184    2.0317 H   0  0  0  0  0
    1.0583    2.0195    0.8891 H   0  0  0  0  0
    2.4510    3.0610    0.5258 H   0  0  0  0  0
    4.6300    0.9980    1.4918 H   0  0  0  0  0
    4.7508    1.9317   -0.0158 H   0  0  0  0  0
    4.8440    0.1571   -0.0331 H   0  0  0  0  0
  1  2  1  0  0  0
  1  6  1  0  0  0
  2  3  1  0  0  0
  2  7  1  0  0  0
  2  8  1  0  0  0
  3  5  1  0  0  0
  3  4  1  0  0  0
  3  9  1  0  0  0
  4 10  1  0  0  0
  4 11  1  0  0  0
  4 12  1  0  0  0
  5 13  1  0  0  0
  5 14  1  0  0  0
  5 15  1  0  0  0
M  END