43
 OpenBabel11300909443D

 11 10  0  0  0  0  0  0  0  0999 V2000
    0.9671   -0.0447   -0.0879 Cl  0  0  0  0  0
    2.7422    0.0115    0.0841 C   0  0  0  0  0
    3.2818    1.4401    0.0342 C   0  0  0  0  0
    2.7702    2.3741    1.4767 Cl  0  0  0  0  0
    4.8047    1.4417   -0.0297 C   0  0  0  0  0
    3.1512   -0.5824   -0.7395 H   0  0  0  0  0
    3.0023   -0.4887    1.0228 H   0  0  0  0  0
    2.8876    1.9669   -0.8411 H   0  0  0  0  0
    5.2456    0.9496    0.8443 H   0  0  0  0  0
    5.1962    2.4644   -0.0774 H   0  0  0  0  0
    5.1538    0.9133   -0.9237 H   0  0  0  0  0
  1  2  1  0  0  0
  2  3  1  0  0  0
  2  6  1  0  0  0
  2  7  1  0  0  0
  3  5  1  0  0  0
  3  4  1  0  0  0
  3  8  1  0  0  0
  5  9  1  0  0  0
  5 10  1  0  0  0
  5 11  1  0  0  0
M  END