44
 OpenBabel11300909443D

 13 12  0  0  0  0  0  0  0  0999 V2000
    1.6826    0.5142    1.0679 O   0  0  0  0  0
    2.0547   -0.0233    0.0257 C   0  0  0  0  0
    2.9200   -1.2643    0.0457 C   0  0  0  0  0
    2.0762   -2.5169   -0.0780 C   0  0  0  0  0
    1.6311    0.4999   -1.3218 C   0  0  0  0  0
    3.4827   -1.2763    0.9858 H   0  0  0  0  0
    3.6527   -1.2034   -0.7658 H   0  0  0  0  0
    1.3342   -2.5706    0.7254 H   0  0  0  0  0
    2.7073   -3.4090   -0.0230 H   0  0  0  0  0
    1.5368   -2.5391   -1.0302 H   0  0  0  0  0
    1.0808    1.4363   -1.1948 H   0  0  0  0  0
    0.9834   -0.2277   -1.8156 H   0  0  0  0  0
    2.5146    0.6961   -1.9340 H   0  0  0  0  0
  1  2  2  0  0  0
  2  5  1  0  0  0
  2  3  1  0  0  0
  3  4  1  0  0  0
  3  6  1  0  0  0
  3  7  1  0  0  0
  4  8  1  0  0  0
  4  9  1  0  0  0
  4 10  1  0  0  0
  5 11  1  0  0  0
  5 12  1  0  0  0
  5 13  1  0  0  0
M  END