46
 OpenBabel11300909443D

  9  8  0  0  0  0  0  0  0  0999 V2000
    1.1306   -0.1620   -0.3873 O   0  0  0  0  0
    2.2889   -0.0908   -0.0139 C   0  0  0  0  0
    3.0002   -1.1504    0.4123 O   0  0  0  0  0
    3.0123    1.1936    0.0540 C   0  0  0  0  0
    4.3373    1.3486   -0.0717 C   0  0  0  0  0
    3.8485   -0.9142    0.8272 H   0  0  0  0  0
    2.3635    2.0595    0.1489 H   0  0  0  0  0
    5.0202    0.5251   -0.2511 H   0  0  0  0  0
    4.7698    2.3453   -0.0457 H   0  0  0  0  0
  1  2  2  0  0  0
  2  4  1  0  0  0
  2  3  1  0  0  0
  3  6  1  0  0  0
  4  5  2  0  0  0
  4  7  1  0  0  0
  5  8  1  0  0  0
  5  9  1  0  0  0
M  END