47
 OpenBabel11300909373D

  8  7  0  0  0  0  0  0  0  0999 V2000
    1.2777   -0.1972   -1.0177 O   0  0  0  0  0
    2.2268   -0.0426   -0.2596 C   0  0  0  0  0
    2.7461   -1.0752    0.4432 O   0  0  0  0  0
    2.8899    1.2984   -0.0482 C   0  0  0  0  0
    4.2374    1.1936    1.1136 Cl  0  0  0  0  0
    3.5000   -0.7920    1.0041 H   0  0  0  0  0
    2.1589    2.0043    0.3525 H   0  0  0  0  0
    3.2957    1.6550   -0.9976 H   0  0  0  0  0
  1  2  2  0  0  0
  2  4  1  0  0  0
  2  3  1  0  0  0
  3  6  1  0  0  0
  4  5  1  0  0  0
  4  7  1  0  0  0
  4  8  1  0  0  0
M  END