50
 OpenBabel11300909383D

 15 14  0  0  0  0  0  0  0  0999 V2000
    2.5863   -0.0959   -0.1844 O   0  0  0  0  0
    2.2819    1.0847   -0.0928 C   0  0  0  0  0
    1.0140    1.5691   -0.0569 O   0  0  0  0  0
   -0.0005    0.5677   -0.1311 C   0  0  0  0  0
    3.2909    2.1806   -0.0190 C   0  0  0  0  0
    2.9460    3.4737    0.1107 C   0  0  0  0  0
    4.7199    1.7375   -0.0967 C   0  0  0  0  0
   -0.9600    1.0427    0.0914 H   0  0  0  0  0
    0.1683   -0.2241    0.6051 H   0  0  0  0  0
   -0.0431    0.1537   -1.1431 H   0  0  0  0  0
    1.9114    3.7979    0.1688 H   0  0  0  0  0
    3.6996    4.2536    0.1620 H   0  0  0  0  0
    4.9149    1.2387   -1.0517 H   0  0  0  0  0
    4.9521    1.0400    0.7158 H   0  0  0  0  0
    5.4146    2.5799   -0.0154 H   0  0  0  0  0
  1  2  2  0  0  0
  2  5  1  0  0  0
  2  3  1  0  0  0
  3  4  1  0  0  0
  4  8  1  0  0  0
  4  9  1  0  0  0
  4 10  1  0  0  0
  5  7  1  0  0  0
  5  6  2  0  0  0
  6 11  1  0  0  0
  6 12  1  0  0  0
  7 13  1  0  0  0
  7 14  1  0  0  0
  7 15  1  0  0  0
M  END