51
 OpenBabel11300909443D

 30 30  0  0  0  0  0  0  0  0999 V2000
    3.7845    0.0538   -0.6985 O   0  0  0  0  0
    3.1585    1.1037   -0.6937 C   0  0  0  0  0
    1.8299    1.2387   -0.9118 O   0  0  0  0  0
    1.1087    0.0055   -1.0621 C   0  0  0  0  0
    0.8739   -0.6654    0.2811 C   0  0  0  0  0
    3.8252    2.4214   -0.5735 C   0  0  0  0  0
    3.2542    3.5647   -0.0012 C   0  0  0  0  0
    3.9944    4.7622    0.0512 C   0  0  0  0  0
    5.2880    4.8226   -0.4669 C   0  0  0  0  0
    5.8591    3.6885   -1.0342 C   0  0  0  0  0
    1.9230    3.5574    0.6413 C   0  0  0  0  0
    1.5445    2.7238    1.4420 O   0  0  0  0  0
    1.2478    4.6541    0.2121 O   0  0  0  0  0
   -0.0505    4.8671    0.7832 C   0  0  0  0  0
   -1.1070    4.2121   -0.0834 C   0  0  0  0  0
    5.1349    2.4959   -1.0847 C   0  0  0  0  0
    1.6308   -0.6626   -1.7571 H   0  0  0  0  0
    0.1445    0.2523   -1.5183 H   0  0  0  0  0
    1.8173   -0.8930    0.7874 H   0  0  0  0  0
    0.3180   -1.5990    0.1542 H   0  0  0  0  0
    0.3078   -0.0060    0.9467 H   0  0  0  0  0
    3.5695    5.6514    0.5143 H   0  0  0  0  0
    5.8522    5.7510   -0.4162 H   0  0  0  0  0
    6.8701    3.7271   -1.4334 H   0  0  0  0  0
   -0.2126    5.9500    0.8065 H   0  0  0  0  0
   -0.1007    4.5110    1.8182 H   0  0  0  0  0
   -1.0212    4.5537   -1.1202 H   0  0  0  0  0
   -2.1099    4.4475    0.2840 H   0  0  0  0  0
   -0.9824    3.1249   -0.0931 H   0  0  0  0  0
    5.5979    1.6150   -1.5289 H   0  0  0  0  0
  1  2  2  0  0  0
  2  6  1  0  0  0
  2  3  1  0  0  0
  3  4  1  0  0  0
  4  5  1  0  0  0
  4 17  1  0  0  0
  4 18  1  0  0  0
  5 19  1  0  0  0
  5 20  1  0  0  0
  5 21  1  0  0  0
  6  7  2  0  0  0
  6 16  1  0  0  0
  7  8  1  0  0  0
  7 11  1  0  0  0
  8  9  2  0  0  0
  8 22  1  0  0  0
  9 10  1  0  0  0
  9 23  1  0  0  0
 10 16  2  0  0  0
 10 24  1  0  0  0
 11 13  1  0  0  0
 11 12  2  0  0  0
 13 14  1  0  0  0
 14 15  1  0  0  0
 14 25  1  0  0  0
 14 26  1  0  0  0
 15 27  1  0  0  0
 15 28  1  0  0  0
 15 29  1  0  0  0
 16 30  1  0  0  0
M  END