53
 OpenBabel11300909443D

 24 26  0  0  0  0  0  0  0  0999 V2000
   -1.4126    0.8427   -0.0000 C   0  0  0  0  0
   -0.7210   -0.3962    0.0000 C   0  0  0  0  0
    0.7203   -0.3966   -0.0001 C   0  0  0  0  0
    1.4125    0.8419   -0.0001 C   0  0  0  0  0
    0.6963    2.0414   -0.0001 C   0  0  0  0  0
    2.8176    0.8762   -0.0001 C   0  0  0  0  0
    3.5657   -0.2979   -0.0001 C   0  0  0  0  0
    2.9154   -1.5221   -0.0002 C   0  0  0  0  0
    1.5179   -1.5693   -0.0001 C   0  0  0  0  0
   -1.5193   -1.5685    0.0001 C   0  0  0  0  0
   -2.9167   -1.5206    0.0003 C   0  0  0  0  0
   -3.5663   -0.2960    0.0003 C   0  0  0  0  0
   -0.6957    2.0418   -0.0000 C   0  0  0  0  0
   -2.8177    0.8777    0.0002 C   0  0  0  0  0
    1.2172    2.9966   -0.0000 H   0  0  0  0  0
    3.3446    1.8283   -0.0001 H   0  0  0  0  0
    4.6512   -0.2537   -0.0001 H   0  0  0  0  0
    3.4893   -2.4450   -0.0002 H   0  0  0  0  0
    1.0592   -2.5538   -0.0001 H   0  0  0  0  0
   -1.0609   -2.5532    0.0001 H   0  0  0  0  0
   -3.4910   -2.4433    0.0004 H   0  0  0  0  0
   -4.6518   -0.2513    0.0005 H   0  0  0  0  0
   -1.2160    2.9973    0.0000 H   0  0  0  0  0
   -3.3442    1.8301    0.0002 H   0  0  0  0  0
  1 13  1  0  0  0
  1 14  1  0  0  0
  1  2  2  0  0  0
  2  3  1  0  0  0
  2 10  1  0  0  0
  3  9  1  0  0  0
  3  4  2  0  0  0
  4  6  1  0  0  0
  4  5  1  0  0  0
  5 13  2  0  0  0
  5 15  1  0  0  0
  6  7  2  0  0  0
  6 16  1  0  0  0
  7  8  1  0  0  0
  7 17  1  0  0  0
  8  9  2  0  0  0
  8 18  1  0  0  0
  9 19  1  0  0  0
 10 11  2  0  0  0
 10 20  1  0  0  0
 11 12  1  0  0  0
 11 21  1  0  0  0
 12 14  2  0  0  0
 12 22  1  0  0  0
 13 23  1  0  0  0
 14 24  1  0  0  0
M  END