54
 OpenBabel11300909383D

 43 44  0  0  0  0  0  0  0  0999 V2000
    2.8952   -0.2424    0.7677 O   0  0  0  0  0
    2.7271    0.5113   -0.1732 C   0  0  0  0  0
    2.2191    0.2217   -1.3948 O   0  0  0  0  0
    1.9388   -1.1647   -1.6256 C   0  0  0  0  0
    3.1560   -1.8385   -2.2110 C   0  0  0  0  0
    4.0950   -2.4565   -1.3725 C   0  0  0  0  0
    5.2393   -3.0532   -1.9041 C   0  0  0  0  0
    5.4581   -3.0377   -3.2796 C   0  0  0  0  0
    4.5362   -2.4205   -4.1236 C   0  0  0  0  0
    3.3931   -1.8182   -3.5926 C   0  0  0  0  0
    3.2046    1.8985   -0.2235 C   0  0  0  0  0
    2.4885    2.9744    0.3074 C   0  0  0  0  0
    3.0057    4.2737    0.1658 C   0  0  0  0  0
    4.2318    4.4857   -0.4699 C   0  0  0  0  0
    4.9491    3.4058   -0.9792 C   0  0  0  0  0
    1.2040    2.8549    1.0321 C   0  0  0  0  0
    0.3324    3.7082    0.9851 O   0  0  0  0  0
    1.2440    1.7879    1.8573 O   0  0  0  0  0
    0.2245    1.7204    2.8668 C   0  0  0  0  0
    0.7714    2.3543    4.1429 C   0  0  0  0  0
   -0.2276    2.2945    5.2935 C   0  0  0  0  0
    0.3518    2.9103    6.5582 C   0  0  0  0  0
    4.4371    2.1140   -0.8629 C   0  0  0  0  0
    1.1080   -1.2170   -2.3389 H   0  0  0  0  0
    1.5917   -1.6742   -0.7183 H   0  0  0  0  0
    3.9423   -2.4693   -0.2942 H   0  0  0  0  0
    5.9596   -3.5273   -1.2424 H   0  0  0  0  0
    6.3486   -3.5040   -3.6931 H   0  0  0  0  0
    4.7094   -2.4061   -5.1966 H   0  0  0  0  0
    2.6890   -1.3316   -4.2637 H   0  0  0  0  0
    2.4576    5.1267    0.5639 H   0  0  0  0  0
    4.6266    5.4950   -0.5624 H   0  0  0  0  0
    5.9050    3.5695   -1.4714 H   0  0  0  0  0
    0.0035    0.6606    3.0319 H   0  0  0  0  0
   -0.7056    2.2009    2.5416 H   0  0  0  0  0
    1.0515    3.3962    3.9429 H   0  0  0  0  0
    1.7023    1.8456    4.4244 H   0  0  0  0  0
   -0.5044    1.2533    5.4947 H   0  0  0  0  0
   -1.1443    2.8289    5.0194 H   0  0  0  0  0
    1.2540    2.3775    6.8760 H   0  0  0  0  0
   -0.3764    2.8612    7.3737 H   0  0  0  0  0
    0.6134    3.9615    6.3988 H   0  0  0  0  0
    4.9942    1.2730   -1.2721 H   0  0  0  0  0
  1  2  2  0  0  0
  2 11  1  0  0  0
  2  3  1  0  0  0
  3  4  1  0  0  0
  4  5  1  0  0  0
  4 24  1  0  0  0
  4 25  1  0  0  0
  5  6  2  0  0  0
  5 10  1  0  0  0
  6  7  1  0  0  0
  6 26  1  0  0  0
  7  8  2  0  0  0
  7 27  1  0  0  0
  8  9  1  0  0  0
  8 28  1  0  0  0
  9 10  2  0  0  0
  9 29  1  0  0  0
 10 30  1  0  0  0
 11 12  2  0  0  0
 11 23  1  0  0  0
 12 13  1  0  0  0
 12 16  1  0  0  0
 13 14  2  0  0  0
 13 31  1  0  0  0
 14 15  1  0  0  0
 14 32  1  0  0  0
 15 23  2  0  0  0
 15 33  1  0  0  0
 16 18  1  0  0  0
 16 17  2  0  0  0
 18 19  1  0  0  0
 19 20  1  0  0  0
 19 34  1  0  0  0
 19 35  1  0  0  0
 20 21  1  0  0  0
 20 36  1  0  0  0
 20 37  1  0  0  0
 21 22  1  0  0  0
 21 38  1  0  0  0
 21 39  1  0  0  0
 22 40  1  0  0  0
 22 41  1  0  0  0
 22 42  1  0  0  0
 23 43  1  0  0  0
M  END