55
 OpenBabel11300909383D

 25 26  0  0  0  0  0  0  0  0999 V2000
    2.9511   -0.1844    0.7162 O   0  0  0  0  0
    2.4325    0.7504    0.0945 N   0  0  0  0  0
    3.1997    1.8862    0.0315 N   0  0  0  0  0
    2.4940    3.1463   -0.0411 C   0  0  0  0  0
    3.0180    4.2549   -0.7333 C   0  0  0  0  0
    2.3208    5.4667   -0.7994 C   0  0  0  0  0
    1.0784    5.5934   -0.1850 C   0  0  0  0  0
    0.5292    4.5103    0.4925 C   0  0  0  0  0
    1.2279    3.3007    0.5621 C   0  0  0  0  0
    4.6388    1.8051   -0.0818 C   0  0  0  0  0
    5.4709    2.7331    0.5740 C   0  0  0  0  0
    6.8630    2.6571    0.4680 C   0  0  0  0  0
    7.4515    1.6444   -0.2852 C   0  0  0  0  0
    6.6509    0.7069   -0.9318 C   0  0  0  0  0
    5.2591    0.7864   -0.8309 C   0  0  0  0  0
    3.9693    4.1857   -1.2551 H   0  0  0  0  0
    2.7476    6.3081   -1.3396 H   0  0  0  0  0
    0.5357    6.5339   -0.2400 H   0  0  0  0  0
   -0.4432    4.6015    0.9696 H   0  0  0  0  0
    0.7737    2.4785    1.1113 H   0  0  0  0  0
    5.0388    3.5156    1.1938 H   0  0  0  0  0
    7.4869    3.3829    0.9835 H   0  0  0  0  0
    8.5342    1.5804   -0.3618 H   0  0  0  0  0
    7.1066   -0.0909   -1.5130 H   0  0  0  0  0
    4.6572    0.0444   -1.3510 H   0  0  0  0  0
  1  2  2  0  0  0
  2  3  1  0  0  0
  3 10  1  0  0  0
  3  4  1  0  0  0
  4  5  2  0  0  0
  4  9  1  0  0  0
  5  6  1  0  0  0
  5 16  1  0  0  0
  6  7  2  0  0  0
  6 17  1  0  0  0
  7  8  1  0  0  0
  7 18  1  0  0  0
  8  9  2  0  0  0
  8 19  1  0  0  0
  9 20  1  0  0  0
 10 11  2  0  0  0
 10 15  1  0  0  0
 11 12  1  0  0  0
 11 21  1  0  0  0
 12 13  2  0  0  0
 12 22  1  0  0  0
 13 14  1  0  0  0
 13 23  1  0  0  0
 14 15  2  0  0  0
 14 24  1  0  0  0
 15 25  1  0  0  0
M  END