57
 OpenBabel11300909383D

 20 20  0  0  0  0  0  0  0  0999 V2000
    0.8932   -0.0163   -0.2406 N   0  0  0  0  0
    2.2804   -0.0334    0.0042 C   0  0  0  0  0
    2.9993    1.1750    0.1453 C   0  0  0  0  0
    4.3953    1.1388    0.3219 C   0  0  0  0  0
    5.0865   -0.0660    0.3130 C   0  0  0  0  0
    4.3948   -1.2494    0.0880 C   0  0  0  0  0
    2.3666    2.5416    0.1019 C   0  0  0  0  0
    3.0023   -1.2443   -0.1091 C   0  0  0  0  0
    2.3440   -2.5732   -0.3782 C   0  0  0  0  0
    0.4159    0.7647    0.1934 H   0  0  0  0  0
    0.4342   -0.8860    0.0063 H   0  0  0  0  0
    4.9515    2.0649    0.4557 H   0  0  0  0  0
    6.1634   -0.0802    0.4534 H   0  0  0  0  0
    4.9484   -2.1848    0.0496 H   0  0  0  0  0
    1.2795    2.5249    0.0102 H   0  0  0  0  0
    2.7544    3.0990   -0.7577 H   0  0  0  0  0
    2.6052    3.0928    1.0179 H   0  0  0  0  0
    1.3974   -2.4729   -0.9154 H   0  0  0  0  0
    2.1659   -3.0977    0.5654 H   0  0  0  0  0
    2.9882   -3.1946   -1.0109 H   0  0  0  0  0
  1  2  1  0  0  0
  1 10  1  0  0  0
  1 11  1  0  0  0
  2  3  2  0  0  0
  2  8  1  0  0  0
  3  4  1  0  0  0
  3  7  1  0  0  0
  4  5  2  0  0  0
  4 12  1  0  0  0
  5  6  1  0  0  0
  5 13  1  0  0  0
  6  8  2  0  0  0
  6 14  1  0  0  0
  7 15  1  0  0  0
  7 16  1  0  0  0
  7 17  1  0  0  0
  8  9  1  0  0  0
  9 18  1  0  0  0
  9 19  1  0  0  0
  9 20  1  0  0  0
M  END