59
 OpenBabel11300909443D

 17 17  0  0  0  0  0  0  0  0999 V2000
    0.9347   -0.0807    0.0177 N   0  0  0  0  0
    0.3468   -0.8499   -0.7543 O   0  0  0  0  0
    0.3873    0.6322    0.8706 O   0  0  0  0  0
    2.3913   -0.0371   -0.0674 C   0  0  0  0  0
    3.0823    1.1883   -0.1200 C   0  0  0  0  0
    4.4850    1.1432   -0.1688 C   0  0  0  0  0
    5.1657   -0.0786   -0.1895 C   0  0  0  0  0
    4.4607   -1.2806   -0.1574 C   0  0  0  0  0
    2.3962    2.5255   -0.1040 C   0  0  0  0  0
    3.0692   -1.2660   -0.0956 C   0  0  0  0  0
    5.0642    2.0655   -0.1958 H   0  0  0  0  0
    6.2528   -0.0898   -0.2326 H   0  0  0  0  0
    4.9964   -2.2265   -0.1771 H   0  0  0  0  0
    3.0751    3.3222   -0.4273 H   0  0  0  0  0
    2.0544    2.7650    0.9074 H   0  0  0  0  0
    1.5469    2.5375   -0.7945 H   0  0  0  0  0
    2.5230   -2.2068   -0.0651 H   0  0  0  0  0
  1  4  1  0  0  0
  1  3  2  0  0  0
  1  2  2  0  0  0
  4  5  2  0  0  0
  4 10  1  0  0  0
  5  6  1  0  0  0
  5  9  1  0  0  0
  6  7  2  0  0  0
  6 11  1  0  0  0
  7  8  1  0  0  0
  7 12  1  0  0  0
  8 10  2  0  0  0
  8 13  1  0  0  0
  9 14  1  0  0  0
  9 15  1  0  0  0
  9 16  1  0  0  0
 10 17  1  0  0  0
M  END