62
 OpenBabel11300909443D

 17 17  0  0  0  0  0  0  0  0999 V2000
    0.7790    0.0526    0.3900 O   0  0  0  0  0
    0.2331    1.2917    0.1866 C   0  0  0  0  0
   -1.0957    1.3206   -0.2597 C   0  0  0  0  0
   -1.7587    0.1391   -0.4622 O   0  0  0  0  0
   -1.7510    2.5294   -0.4993 C   0  0  0  0  0
   -1.0765    3.7314   -0.2932 C   0  0  0  0  0
    0.2450    3.7192    0.1493 C   0  0  0  0  0
    0.8984    2.5049    0.3885 C   0  0  0  0  0
    2.1167   -0.0042    0.8609 C   0  0  0  0  0
   -2.6580    0.3297   -0.7685 H   0  0  0  0  0
   -2.7802    2.5523   -0.8443 H   0  0  0  0  0
   -1.5791    4.6774   -0.4772 H   0  0  0  0  0
    0.7719    4.6570    0.3097 H   0  0  0  0  0
    1.9273    2.5421    0.7313 H   0  0  0  0  0
    2.3873   -1.0587    0.9764 H   0  0  0  0  0
    2.2114    0.4717    1.8427 H   0  0  0  0  0
    2.8097    0.4386    0.1378 H   0  0  0  0  0
  1  9  1  0  0  0
  1  2  1  0  0  0
  2  3  2  0  0  0
  2  8  1  0  0  0
  3  5  1  0  0  0
  3  4  1  0  0  0
  4 10  1  0  0  0
  5  6  2  0  0  0
  5 11  1  0  0  0
  6  7  1  0  0  0
  6 12  1  0  0  0
  7  8  2  0  0  0
  7 13  1  0  0  0
  8 14  1  0  0  0
  9 15  1  0  0  0
  9 16  1  0  0  0
  9 17  1  0  0  0
M  END