64
 OpenBabel11300909383D

 18 19  0  0  0  0  0  0  0  0999 V2000
   -0.0082    0.7013   -0.0119 C   0  0  0  0  0
    0.0138   -0.7127   -0.0045 C   0  0  0  0  0
    1.2494   -1.3801    0.0072 C   0  0  0  0  0
    2.4473   -0.6635    0.0115 C   0  0  0  0  0
    2.4257    0.7281    0.0042 C   0  0  0  0  0
   -1.2004   -1.4183   -0.0089 C   0  0  0  0  0
   -2.4201   -0.7396   -0.0207 C   0  0  0  0  0
   -2.4419    0.6526   -0.0280 C   0  0  0  0  0
    1.2060    1.4070   -0.0075 C   0  0  0  0  0
   -1.2437    1.3686   -0.0236 C   0  0  0  0  0
    1.2866   -2.4669    0.0132 H   0  0  0  0  0
    3.3964   -1.1931    0.0206 H   0  0  0  0  0
    3.3578    1.2871    0.0075 H   0  0  0  0  0
   -1.2039   -2.5059   -0.0034 H   0  0  0  0  0
   -3.3523   -1.2983   -0.0240 H   0  0  0  0  0
   -3.3904    1.1816   -0.0372 H   0  0  0  0  0
    1.2093    2.4944   -0.0131 H   0  0  0  0  0
   -1.2809    2.4556   -0.0296 H   0  0  0  0  0
  1  9  1  0  0  0
  1 10  1  0  0  0
  1  2  2  0  0  0
  2  6  1  0  0  0
  2  3  1  0  0  0
  3  4  2  0  0  0
  3 11  1  0  0  0
  4  5  1  0  0  0
  4 12  1  0  0  0
  5  9  2  0  0  0
  5 13  1  0  0  0
  6  7  2  0  0  0
  6 14  1  0  0  0
  7  8  1  0  0  0
  7 15  1  0  0  0
  8 10  2  0  0  0
  8 16  1  0  0  0
  9 17  1  0  0  0
 10 18  1  0  0  0
M  END