65
 OpenBabel11300909443D

 17 18  0  0  0  0  0  0  0  0999 V2000
   -1.1627   -1.4148   -0.0748 N   0  0  0  0  0
   -0.0217   -0.7026   -0.0452 C   0  0  0  0  0
   -0.0131    0.7088   -0.0154 C   0  0  0  0  0
    1.2056    1.4098    0.0151 C   0  0  0  0  0
    2.4155    0.7186    0.0161 C   0  0  0  0  0
    2.4127   -0.6714   -0.0132 C   0  0  0  0  0
   -1.2464    1.3739   -0.0172 C   0  0  0  0  0
   -2.4262    0.6408   -0.0478 C   0  0  0  0  0
    1.1988   -1.3649   -0.0434 C   0  0  0  0  0
   -2.3320   -0.7377   -0.0756 C   0  0  0  0  0
    1.2164    2.4969    0.0381 H   0  0  0  0  0
    3.3560    1.2628    0.0396 H   0  0  0  0  0
    3.3501   -1.2215   -0.0127 H   0  0  0  0  0
   -1.2919    2.4593    0.0051 H   0  0  0  0  0
   -3.3926    1.1314   -0.0499 H   0  0  0  0  0
    1.2036   -2.4520   -0.0662 H   0  0  0  0  0
   -3.2230   -1.3588   -0.1001 H   0  0  0  0  0
  1 10  1  0  0  0
  1  2  2  0  0  0
  2  3  1  0  0  0
  2  9  1  0  0  0
  3  4  1  0  0  0
  3  7  2  0  0  0
  4  5  2  0  0  0
  4 11  1  0  0  0
  5  6  1  0  0  0
  5 12  1  0  0  0
  6  9  2  0  0  0
  6 13  1  0  0  0
  7  8  1  0  0  0
  7 14  1  0  0  0
  8 10  2  0  0  0
  8 15  1  0  0  0
  9 16  1  0  0  0
 10 17  1  0  0  0
M  END