66
 OpenBabel11300909383D

 20 21  0  0  0  0  0  0  0  0999 V2000
   -0.0139    0.6961   -0.0441 C   0  0  0  0  0
    0.0062   -0.7156   -0.0063 C   0  0  0  0  0
    1.2400   -1.3803   -0.0259 C   0  0  0  0  0
    2.4378   -0.6600   -0.0656 C   0  0  0  0  0
    2.4320    0.7342   -0.0403 C   0  0  0  0  0
    3.6275    1.4463   -0.2043 N   0  0  0  0  0
   -1.2080   -1.4209    0.0317 C   0  0  0  0  0
   -2.4275   -0.7419    0.0313 C   0  0  0  0  0
   -2.4483    0.6490   -0.0099 C   0  0  0  0  0
   -1.2500    1.3639   -0.0489 C   0  0  0  0  0
    1.2034    1.4001   -0.0835 C   0  0  0  0  0
    1.2805   -2.4670   -0.0255 H   0  0  0  0  0
    3.3769   -1.2031   -0.1149 H   0  0  0  0  0
    4.4441    0.9556    0.1461 H   0  0  0  0  0
    3.5810    2.4020    0.1350 H   0  0  0  0  0
   -1.2111   -2.5082    0.0584 H   0  0  0  0  0
   -3.3596   -1.2999    0.0598 H   0  0  0  0  0
   -3.3971    1.1794   -0.0135 H   0  0  0  0  0
   -1.2867    2.4504   -0.0824 H   0  0  0  0  0
    1.1907    2.4855   -0.1459 H   0  0  0  0  0
  1 11  1  0  0  0
  1 10  1  0  0  0
  1  2  2  0  0  0
  2  7  1  0  0  0
  2  3  1  0  0  0
  3  4  2  0  0  0
  3 12  1  0  0  0
  4  5  1  0  0  0
  4 13  1  0  0  0
  5 11  2  0  0  0
  5  6  1  0  0  0
  6 14  1  0  0  0
  6 15  1  0  0  0
  7  8  2  0  0  0
  7 16  1  0  0  0
  8  9  1  0  0  0
  8 17  1  0  0  0
  9 10  2  0  0  0
  9 18  1  0  0  0
 10 19  1  0  0  0
 11 20  1  0  0  0
M  END