68
 OpenBabel11300909383D

 26 27  0  0  0  0  0  0  0  0999 V2000
    0.9656    0.0218    0.3768 N   0  0  0  0  0
    2.3238    0.0319    0.0382 C   0  0  0  0  0
    2.9646    1.2330   -0.2656 C   0  0  0  0  0
    4.3473    1.2718   -0.4846 C   0  0  0  0  0
    5.1326    0.1156   -0.3625 C   0  0  0  0  0
    6.5860    0.1544   -0.5915 C   0  0  0  0  0
    7.4020    1.0781    0.0788 C   0  0  0  0  0
    8.7848    1.1124   -0.1388 C   0  0  0  0  0
    9.3830    0.2574   -1.0644 C   0  0  0  0  0
   10.7766    0.2121   -1.1870 N   0  0  0  0  0
    8.5896   -0.7062   -1.6873 C   0  0  0  0  0
    7.2067   -0.7445   -1.4716 C   0  0  0  0  0
    4.4873   -1.0742    0.0060 C   0  0  0  0  0
    3.1049   -1.1086    0.2252 C   0  0  0  0  0
    0.4293    0.7572   -0.0727 H   0  0  0  0  0
    0.5279   -0.8882    0.2739 H   0  0  0  0  0
    2.3943    2.1546   -0.3398 H   0  0  0  0  0
    4.8082    2.2204   -0.7517 H   0  0  0  0  0
    6.9685    1.7659    0.8021 H   0  0  0  0  0
    9.3888    1.8164    0.4268 H   0  0  0  0  0
   11.0946   -0.1824   -2.0667 H   0  0  0  0  0
   11.2318    1.0949   -0.9770 H   0  0  0  0  0
    9.0387   -1.4382   -2.3532 H   0  0  0  0  0
    6.6153   -1.4893   -1.9997 H   0  0  0  0  0
    5.0636   -1.9852    0.1534 H   0  0  0  0  0
    2.6462   -2.0400    0.5463 H   0  0  0  0  0
  1  2  1  0  0  0
  1 15  1  0  0  0
  1 16  1  0  0  0
  2  3  2  0  0  0
  2 14  1  0  0  0
  3  4  1  0  0  0
  3 17  1  0  0  0
  4  5  2  0  0  0
  4 18  1  0  0  0
  5 13  1  0  0  0
  5  6  1  0  0  0
  6  7  2  0  0  0
  6 12  1  0  0  0
  7  8  1  0  0  0
  7 19  1  0  0  0
  8  9  2  0  0  0
  8 20  1  0  0  0
  9 11  1  0  0  0
  9 10  1  0  0  0
 10 21  1  0  0  0
 10 22  1  0  0  0
 11 12  2  0  0  0
 11 23  1  0  0  0
 12 24  1  0  0  0
 13 14  2  0  0  0
 13 25  1  0  0  0
 14 26  1  0  0  0
M  END