69
 OpenBabel11300909443D

 19 19  0  0  0  0  0  0  0  0999 V2000
    4.1716   -2.0241   -0.6469 O   0  0  0  0  0
    4.0824   -0.8257   -0.4207 C   0  0  0  0  0
    2.9674   -0.2608    0.1022 O   0  0  0  0  0
    5.1978    0.1695   -0.6941 C   0  0  0  0  0
    4.7516    1.4718   -0.3129 O   0  0  0  0  0
    5.6227    2.5174   -0.4740 C   0  0  0  0  0
    5.1633    3.7848   -0.0714 C   0  0  0  0  0
    5.9724    4.9161   -0.1935 C   0  0  0  0  0
    7.2517    4.7851   -0.7223 C   0  0  0  0  0
    7.7237    3.5380   -1.1272 C   0  0  0  0  0
    8.2592    6.1700   -0.8786 Cl  0  0  0  0  0
    3.5774    3.9863    0.5911 Cl  0  0  0  0  0
    6.9118    2.4048   -1.0040 C   0  0  0  0  0
    3.0967    0.7087    0.2074 H   0  0  0  0  0
    5.4106    0.1422   -1.7679 H   0  0  0  0  0
    6.0619   -0.1261   -0.0899 H   0  0  0  0  0
    5.6069    5.8897    0.1213 H   0  0  0  0  0
    8.7251    3.4397   -1.5410 H   0  0  0  0  0
    7.3219    1.4549   -1.3333 H   0  0  0  0  0
  1  2  2  0  0  0
  2  4  1  0  0  0
  2  3  1  0  0  0
  3 14  1  0  0  0
  4  5  1  0  0  0
  4 15  1  0  0  0
  4 16  1  0  0  0
  5  6  1  0  0  0
  6  7  2  0  0  0
  6 13  1  0  0  0
  7  8  1  0  0  0
  7 12  1  0  0  0
  8  9  2  0  0  0
  8 17  1  0  0  0
  9 10  1  0  0  0
  9 11  1  0  0  0
 10 13  2  0  0  0
 10 18  1  0  0  0
 13 19  1  0  0  0
M  END