70
 OpenBabel11300909443D

 25 25  0  0  0  0  0  0  0  0999 V2000
    0.7948    1.2577    3.3893 O   0  0  0  0  0
    2.1128    1.0510    3.2230 C   0  0  0  0  0
    2.8891    1.1738    4.1573 O   0  0  0  0  0
    2.4829    0.7361    1.8046 C   0  0  0  0  0
    2.8195    2.0237    1.0622 C   0  0  0  0  0
    3.2778    1.7736   -0.3714 C   0  0  0  0  0
    2.2288    1.1111   -1.0761 O   0  0  0  0  0
    2.2185    1.2318   -2.4399 C   0  0  0  0  0
    3.3528    1.5173   -3.2068 C   0  0  0  0  0
    3.2504    1.6390   -4.5962 C   0  0  0  0  0
    2.0184    1.4605   -5.2228 C   0  0  0  0  0
    1.8990    1.6249   -6.9314 Cl  0  0  0  0  0
    0.8863    1.1473   -4.4778 C   0  0  0  0  0
    0.9899    1.0274   -3.0905 C   0  0  0  0  0
   -0.4427    0.6400   -2.2013 Cl  0  0  0  0  0
    0.7001    1.4785    4.3391 H   0  0  0  0  0
    1.6564    0.1948    1.3307 H   0  0  0  0  0
    3.3390    0.0524    1.8213 H   0  0  0  0  0
    3.6004    2.5748    1.5998 H   0  0  0  0  0
    1.9288    2.6647    1.0472 H   0  0  0  0  0
    4.1759    1.1449   -0.3790 H   0  0  0  0  0
    3.5085    2.7455   -0.8255 H   0  0  0  0  0
    4.3302    1.6419   -2.7512 H   0  0  0  0  0
    4.1358    1.8713   -5.1831 H   0  0  0  0  0
   -0.0710    1.0007   -4.9702 H   0  0  0  0  0
  1  2  1  0  0  0
  1 16  1  0  0  0
  2  4  1  0  0  0
  2  3  2  0  0  0
  4  5  1  0  0  0
  4 17  1  0  0  0
  4 18  1  0  0  0
  5  6  1  0  0  0
  5 19  1  0  0  0
  5 20  1  0  0  0
  6  7  1  0  0  0
  6 21  1  0  0  0
  6 22  1  0  0  0
  7  8  1  0  0  0
  8  9  2  0  0  0
  8 14  1  0  0  0
  9 10  1  0  0  0
  9 23  1  0  0  0
 10 11  2  0  0  0
 10 24  1  0  0  0
 11 13  1  0  0  0
 11 12  1  0  0  0
 13 14  2  0  0  0
 13 25  1  0  0  0
 14 15  1  0  0  0
M  END