71
 OpenBabel11300909443D

 15 16  0  0  0  0  0  0  0  0999 V2000
   -1.7768   -1.4427    0.0001 S   0  0  0  0  0
   -0.2045   -0.7358    0.0000 C   0  0  0  0  0
   -0.2733    0.6606    0.0002 C   0  0  0  0  0
   -1.6357    1.1134    0.0002 C   0  0  0  0  0
    0.9396    1.3899    0.0001 C   0  0  0  0  0
    2.1681    0.7220   -0.0000 C   0  0  0  0  0
    2.2110   -0.6654   -0.0001 C   0  0  0  0  0
    1.0307   -1.4125   -0.0000 C   0  0  0  0  0
   -2.5431    0.0802    0.0002 C   0  0  0  0  0
   -1.9282    2.1561    0.0002 H   0  0  0  0  0
    0.9190    2.4768    0.0001 H   0  0  0  0  0
    3.0928    1.2941   -0.0001 H   0  0  0  0  0
    3.1704   -1.1778   -0.0002 H   0  0  0  0  0
    1.0666   -2.4981   -0.0001 H   0  0  0  0  0
   -3.6223    0.1471    0.0002 H   0  0  0  0  0
  1  2  1  0  0  0
  1  9  1  0  0  0
  2  8  1  0  0  0
  2  3  2  0  0  0
  3  4  1  0  0  0
  3  5  1  0  0  0
  4  9  2  0  0  0
  4 10  1  0  0  0
  5  6  2  0  0  0
  5 11  1  0  0  0
  6  7  1  0  0  0
  6 12  1  0  0  0
  7  8  2  0  0  0
  7 13  1  0  0  0
  8 14  1  0  0  0
  9 15  1  0  0  0
M  END