72
 OpenBabel11300909383D

 18 18  0  0  0  0  0  0  0  0999 V2000
   -0.6443   -1.2544   -0.1091 C   0  0  0  0  0
   -1.4105   -0.0722   -0.1035 C   0  0  0  0  0
   -0.7539    1.1684   -0.0337 C   0  0  0  0  0
    0.6372    1.2420    0.0343 C   0  0  0  0  0
    1.3932    0.0758    0.0333 C   0  0  0  0  0
   -2.9124   -0.0944   -0.1753 C   0  0  0  0  0
    0.7569   -1.1627   -0.0374 C   0  0  0  0  0
   -1.2511   -2.6290   -0.1789 C   0  0  0  0  0
   -1.3274    2.0933   -0.0313 H   0  0  0  0  0
    1.1281    2.2096    0.0884 H   0  0  0  0  0
    2.4770    0.1282    0.0874 H   0  0  0  0  0
   -3.3334    0.9158   -0.1336 H   0  0  0  0  0
   -3.3256   -0.6550    0.6693 H   0  0  0  0  0
   -3.2403   -0.5485   -1.1158 H   0  0  0  0  0
    1.3622   -2.0673   -0.0367 H   0  0  0  0  0
   -2.3388   -2.6124   -0.2826 H   0  0  0  0  0
   -1.0135   -3.1875    0.7329 H   0  0  0  0  0
   -0.8505   -3.1703   -1.0430 H   0  0  0  0  0
  1  2  2  0  0  0
  1  7  1  0  0  0
  1  8  1  0  0  0
  2  3  1  0  0  0
  2  6  1  0  0  0
  3  4  2  0  0  0
  3  9  1  0  0  0
  4  5  1  0  0  0
  4 10  1  0  0  0
  5  7  2  0  0  0
  5 11  1  0  0  0
  6 12  1  0  0  0
  6 13  1  0  0  0
  6 14  1  0  0  0
  7 15  1  0  0  0
  8 16  1  0  0  0
  8 17  1  0  0  0
  8 18  1  0  0  0
M  END