74
 OpenBabel11300909383D

 12 12  0  0  0  0  0  0  0  0999 V2000
   -0.6451   -1.2572   -0.0325 C   0  0  0  0  0
   -1.4090   -0.0846   -0.0343 C   0  0  0  0  0
   -0.7726    1.1604   -0.0126 C   0  0  0  0  0
    0.6216    1.2359    0.0107 C   0  0  0  0  0
    1.3830    0.0691    0.0125 C   0  0  0  0  0
   -3.1371   -0.1038   -0.0626 Cl  0  0  0  0  0
    0.7511   -1.1760   -0.0091 C   0  0  0  0  0
   -1.3589   -2.8301   -0.0585 Cl  0  0  0  0  0
   -1.3580    2.0768   -0.0138 H   0  0  0  0  0
    1.1126    2.2068    0.0276 H   0  0  0  0  0
    2.4688    0.1269    0.0307 H   0  0  0  0  0
    1.3539   -2.0819   -0.0075 H   0  0  0  0  0
  1  2  2  0  0  0
  1  7  1  0  0  0
  1  8  1  0  0  0
  2  3  1  0  0  0
  2  6  1  0  0  0
  3  4  2  0  0  0
  3  9  1  0  0  0
  4  5  1  0  0  0
  4 10  1  0  0  0
  5  7  2  0  0  0
  5 11  1  0  0  0
  7 12  1  0  0  0
M  END