75
 OpenBabel11300909443D

 14 14  0  0  0  0  0  0  0  0999 V2000
    0.9800   -0.0403    0.2582 N   0  0  0  0  0
    2.3622   -0.0281   -0.0116 C   0  0  0  0  0
    3.1018    1.1686   -0.0551 C   0  0  0  0  0
    4.4919    1.1503   -0.1952 C   0  0  0  0  0
    5.1680   -0.0675   -0.2529 C   0  0  0  0  0
    4.4547   -1.2612   -0.1558 C   0  0  0  0  0
    2.3040    2.7017    0.0257 Cl  0  0  0  0  0
    3.0640   -1.2389   -0.0168 C   0  0  0  0  0
    0.5282    0.8340   -0.0040 H   0  0  0  0  0
    0.4962   -0.8557   -0.1032 H   0  0  0  0  0
    5.0512    2.0799   -0.2499 H   0  0  0  0  0
    6.2506   -0.0857   -0.3555 H   0  0  0  0  0
    4.9818   -2.2116   -0.1727 H   0  0  0  0  0
    2.5305   -2.1791    0.0930 H   0  0  0  0  0
  1  2  1  0  0  0
  1  9  1  0  0  0
  1 10  1  0  0  0
  2  3  2  0  0  0
  2  8  1  0  0  0
  3  4  1  0  0  0
  3  7  1  0  0  0
  4  5  2  0  0  0
  4 11  1  0  0  0
  5  6  1  0  0  0
  5 12  1  0  0  0
  6  8  2  0  0  0
  6 13  1  0  0  0
  8 14  1  0  0  0
M  END