76
 OpenBabel11300909383D

 17 17  0  0  0  0  0  0  0  0999 V2000
    0.9782   -0.0561    0.2063 N   0  0  0  0  0
    2.3605   -0.0398   -0.0450 C   0  0  0  0  0
    3.0802    1.1670   -0.1223 C   0  0  0  0  0
    4.4787    1.1296   -0.2580 C   0  0  0  0  0
    5.1633   -0.0849   -0.2646 C   0  0  0  0  0
    4.4589   -1.2744   -0.1202 C   0  0  0  0  0
    2.3870    2.5008   -0.0805 C   0  0  0  0  0
    3.0698   -1.2472    0.0103 C   0  0  0  0  0
    0.4876    0.7488   -0.1679 H   0  0  0  0  0
    0.5320   -0.9277   -0.0610 H   0  0  0  0  0
    5.0465    2.0534   -0.3435 H   0  0  0  0  0
    6.2455   -0.0995   -0.3619 H   0  0  0  0  0
    4.9883   -2.2226   -0.0945 H   0  0  0  0  0
    3.1043    3.3285   -0.0910 H   0  0  0  0  0
    1.7940    2.5949    0.8350 H   0  0  0  0  0
    1.7348    2.6153   -0.9523 H   0  0  0  0  0
    2.5390   -2.1847    0.1537 H   0  0  0  0  0
  1  2  1  0  0  0
  1  9  1  0  0  0
  1 10  1  0  0  0
  2  3  2  0  0  0
  2  8  1  0  0  0
  3  4  1  0  0  0
  3  7  1  0  0  0
  4  5  2  0  0  0
  4 11  1  0  0  0
  5  6  1  0  0  0
  5 12  1  0  0  0
  6  8  2  0  0  0
  6 13  1  0  0  0
  7 14  1  0  0  0
  7 15  1  0  0  0
  7 16  1  0  0  0
  8 17  1  0  0  0
M  END