77
 OpenBabel11300909443D

 21 21  0  0  0  0  0  0  0  0999 V2000
   -0.6456   -1.2476   -0.0963 C   0  0  0  0  0
   -1.3946   -0.0708   -0.0501 C   0  0  0  0  0
   -0.7574    1.1713   -0.0527 C   0  0  0  0  0
    0.6417    1.2634   -0.0965 C   0  0  0  0  0
    1.4070    0.0811   -0.1306 C   0  0  0  0  0
    2.9099    0.1206   -0.1817 C   0  0  0  0  0
    1.2907    2.6200   -0.1109 C   0  0  0  0  0
    0.7521   -1.1620   -0.1324 C   0  0  0  0  0
   -1.3138   -2.5901   -0.0951 C   0  0  0  0  0
   -2.4807   -0.1087   -0.0155 H   0  0  0  0  0
   -1.3660    2.0724   -0.0219 H   0  0  0  0  0
    3.3406   -0.8847   -0.1279 H   0  0  0  0  0
    3.3072    0.6898    0.6642 H   0  0  0  0  0
    3.2444    0.5768   -1.1190 H   0  0  0  0  0
    0.5459    3.4223   -0.0769 H   0  0  0  0  0
    1.8745    2.7513   -1.0272 H   0  0  0  0  0
    1.9430    2.7402    0.7593 H   0  0  0  0  0
    1.3378   -2.0792   -0.1642 H   0  0  0  0  0
   -2.4039   -2.4962   -0.1472 H   0  0  0  0  0
   -1.0639   -3.1346    0.8203 H   0  0  0  0  0
   -0.9895   -3.1747   -0.9623 H   0  0  0  0  0
  1  2  2  0  0  0
  1  8  1  0  0  0
  1  9  1  0  0  0
  2  3  1  0  0  0
  2 10  1  0  0  0
  3  4  2  0  0  0
  3 11  1  0  0  0
  4  5  1  0  0  0
  4  7  1  0  0  0
  5  8  2  0  0  0
  5  6  1  0  0  0
  6 12  1  0  0  0
  6 13  1  0  0  0
  6 14  1  0  0  0
  7 15  1  0  0  0
  7 16  1  0  0  0
  7 17  1  0  0  0
  8 18  1  0  0  0
  9 19  1  0  0  0
  9 20  1  0  0  0
  9 21  1  0  0  0
M  END