81
 OpenBabel11300909443D

 17 18  0  0  0  0  0  0  0  0999 V2000
    0.7084   -0.8553   -1.1343 O   0  0  0  0  0
    0.6308   -0.2444    0.1669 C   0  0  0  0  0
    1.5594   -0.7516    1.2390 C   0  0  0  0  0
    2.1938    0.1333    2.1269 C   0  0  0  0  0
    3.0471   -0.3305    3.1321 C   0  0  0  0  0
    3.2805   -1.6956    3.2717 C   0  0  0  0  0
    2.6611   -2.5939    2.4079 C   0  0  0  0  0
    1.8091   -2.1241    1.4048 C   0  0  0  0  0
    1.1928    0.4862   -1.0300 C   0  0  0  0  0
   -0.3626    0.0447    0.4968 H   0  0  0  0  0
    2.0212    1.2038    2.0347 H   0  0  0  0  0
    3.5274    0.3750    3.8050 H   0  0  0  0  0
    3.9436   -2.0586    4.0516 H   0  0  0  0  0
    2.8390   -3.6611    2.5107 H   0  0  0  0  0
    1.3331   -2.8374    0.7347 H   0  0  0  0  0
    0.5956    1.2700   -1.4770 H   0  0  0  0  0
    2.2627    0.6356   -1.1016 H   0  0  0  0  0
  1  2  1  0  0  0
  1  9  1  0  0  0
  2  9  1  0  0  0
  2  3  1  0  0  0
  2 10  1  0  0  0
  3  4  2  0  0  0
  3  8  1  0  0  0
  4  5  1  0  0  0
  4 11  1  0  0  0
  5  6  2  0  0  0
  5 12  1  0  0  0
  6  7  1  0  0  0
  6 13  1  0  0  0
  7  8  2  0  0  0
  7 14  1  0  0  0
  8 15  1  0  0  0
  9 16  1  0  0  0
  9 17  1  0  0  0
M  END