82
 OpenBabel11300909443D

 11 10  0  0  0  0  0  0  0  0999 V2000
    3.2340   -0.9292    1.7089 Cl  0  0  0  0  0
    2.7853   -0.0789    0.2079 C   0  0  0  0  0
    3.3581    1.3397    0.1056 C   0  0  0  0  0
    2.6166    2.4046    1.3524 Cl  0  0  0  0  0
    4.8796    1.4338    0.2105 C   0  0  0  0  0
    5.6886    0.5481   -1.1093 Cl  0  0  0  0  0
    1.6910   -0.0551    0.1652 H   0  0  0  0  0
    3.1255   -0.7001   -0.6258 H   0  0  0  0  0
    3.0414    1.7643   -0.8534 H   0  0  0  0  0
    5.2602    1.0392    1.1580 H   0  0  0  0  0
    5.2070    2.4756    0.1308 H   0  0  0  0  0
  1  2  1  0  0  0
  2  3  1  0  0  0
  2  7  1  0  0  0
  2  8  1  0  0  0
  3  5  1  0  0  0
  3  4  1  0  0  0
  3  9  1  0  0  0
  5  6  1  0  0  0
  5 10  1  0  0  0
  5 11  1  0  0  0
M  END