83
 OpenBabel11300909383D

 16 15  0  0  0  0  0  0  0  0999 V2000
    1.5428    0.0725    0.2588 O   0  0  0  0  0
    2.7466   -0.0130    0.0185 C   0  0  0  0  0
    3.4150   -1.3450   -0.2740 C   0  0  0  0  0
    2.4337   -2.3817   -0.7906 C   0  0  0  0  0
    3.6662    1.1966    0.0371 C   0  0  0  0  0
    2.9406    2.4785    0.4076 C   0  0  0  0  0
    3.8918   -1.6960    0.6463 H   0  0  0  0  0
    4.1938   -1.1862   -1.0287 H   0  0  0  0  0
    1.6542   -2.5924   -0.0508 H   0  0  0  0  0
    2.9523   -3.3185   -1.0157 H   0  0  0  0  0
    1.9426   -2.0325   -1.7043 H   0  0  0  0  0
    4.1072    1.3022   -0.9587 H   0  0  0  0  0
    4.4673    1.0075    0.7589 H   0  0  0  0  0
    2.1260    2.6868   -0.2936 H   0  0  0  0  0
    3.6328    3.3260    0.3894 H   0  0  0  0  0
    2.5100    2.4093    1.4113 H   0  0  0  0  0
  1  2  2  0  0  0
  2  5  1  0  0  0
  2  3  1  0  0  0
  3  4  1  0  0  0
  3  7  1  0  0  0
  3  8  1  0  0  0
  4  9  1  0  0  0
  4 10  1  0  0  0
  4 11  1  0  0  0
  5  6  1  0  0  0
  5 12  1  0  0  0
  5 13  1  0  0  0
  6 14  1  0  0  0
  6 15  1  0  0  0
  6 16  1  0  0  0
M  END