84
 OpenBabel11300909443D

 21 21  0  0  0  0  0  0  0  0999 V2000
   -1.3389   -0.0790   -0.1285 C   0  0  0  0  0
   -0.6690    1.1449   -0.2798 C   0  0  0  0  0
    0.7223    1.2130   -0.1831 C   0  0  0  0  0
    1.4627    0.0594    0.0607 C   0  0  0  0  0
    0.8141   -1.1638    0.2072 C   0  0  0  0  0
   -0.5773   -1.2334    0.1125 C   0  0  0  0  0
   -2.8498   -0.1824   -0.2372 C   0  0  0  0  0
   -3.5645    0.7470    0.7477 C   0  0  0  0  0
   -3.3173    0.0789   -1.6706 C   0  0  0  0  0
   -1.2253    2.0578   -0.4777 H   0  0  0  0  0
    1.2276    2.1686   -0.3004 H   0  0  0  0  0
    2.5461    0.1132    0.1346 H   0  0  0  0  0
    1.3902   -2.0656    0.3941 H   0  0  0  0  0
   -1.0639   -2.1992    0.2275 H   0  0  0  0  0
   -3.1478   -1.2076    0.0218 H   0  0  0  0  0
   -3.3900    1.8034    0.5171 H   0  0  0  0  0
   -3.2245    0.5674    1.7734 H   0  0  0  0  0
   -4.6463    0.5776    0.7183 H   0  0  0  0  0
   -3.0909    1.1011   -1.9932 H   0  0  0  0  0
   -4.3995   -0.0667   -1.7560 H   0  0  0  0  0
   -2.8305   -0.6074   -2.3724 H   0  0  0  0  0
  1  2  2  0  0  0
  1  6  1  0  0  0
  1  7  1  0  0  0
  2  3  1  0  0  0
  2 10  1  0  0  0
  3  4  2  0  0  0
  3 11  1  0  0  0
  4  5  1  0  0  0
  4 12  1  0  0  0
  5  6  2  0  0  0
  5 13  1  0  0  0
  6 14  1  0  0  0
  7  9  1  0  0  0
  7  8  1  0  0  0
  7 15  1  0  0  0
  8 16  1  0  0  0
  8 17  1  0  0  0
  8 18  1  0  0  0
  9 19  1  0  0  0
  9 20  1  0  0  0
  9 21  1  0  0  0
M  END