87
 OpenBabel11300909383D

 17 17  0  0  0  0  0  0  0  0999 V2000
    0.9323    0.0147    0.1498 N   0  0  0  0  0
    0.3596   -1.0830    0.0880 O   0  0  0  0  0
    0.3570    1.0959    0.3410 O   0  0  0  0  0
    2.3906    0.0356   -0.0146 C   0  0  0  0  0
    3.0789    1.2533    0.0474 C   0  0  0  0  0
    4.4667    1.2671   -0.1105 C   0  0  0  0  0
    5.1718    0.0734   -0.3190 C   0  0  0  0  0
    4.4689   -1.1370   -0.3933 C   0  0  0  0  0
    6.6593    0.1023   -0.5212 C   0  0  0  0  0
    3.0810   -1.1621   -0.2368 C   0  0  0  0  0
    2.5550    2.1923    0.2130 H   0  0  0  0  0
    4.9976    2.2167   -0.0692 H   0  0  0  0  0
    5.0006   -2.0699   -0.5735 H   0  0  0  0  0
    7.1120   -0.8568   -0.2484 H   0  0  0  0  0
    7.1211    0.8702    0.1083 H   0  0  0  0  0
    6.8900    0.3149   -1.5696 H   0  0  0  0  0
    2.5589   -2.1150   -0.2931 H   0  0  0  0  0
  1  4  1  0  0  0
  1  3  2  0  0  0
  1  2  2  0  0  0
  4  5  2  0  0  0
  4 10  1  0  0  0
  5  6  1  0  0  0
  5 11  1  0  0  0
  6  7  2  0  0  0
  6 12  1  0  0  0
  7  8  1  0  0  0
  7  9  1  0  0  0
  8 10  2  0  0  0
  8 13  1  0  0  0
  9 14  1  0  0  0
  9 15  1  0  0  0
  9 16  1  0  0  0
 10 17  1  0  0  0
M  END