91
 OpenBabel11300909443D

 16 16  0  0  0  0  0  0  0  0999 V2000
    1.8491   -0.3798   -1.1833 O   0  0  0  0  0
    2.4065   -0.0108    0.0678 C   0  0  0  0  0
    2.8864    1.4101   -0.0070 C   0  0  0  0  0
    2.0230    2.4715    0.2986 C   0  0  0  0  0
    2.4666    3.7922    0.2212 C   0  0  0  0  0
    3.7755    4.0672   -0.1721 C   0  0  0  0  0
    4.6383    3.0215   -0.4948 C   0  0  0  0  0
    4.1953    1.6998   -0.4176 C   0  0  0  0  0
    1.5522   -1.2999   -1.0969 H   0  0  0  0  0
    3.2334   -0.6885    0.3061 H   0  0  0  0  0
    1.6448   -0.1229    0.8471 H   0  0  0  0  0
    0.9944    2.2712    0.5912 H   0  0  0  0  0
    1.7888    4.6075    0.4599 H   0  0  0  0  0
    4.1191    5.0957   -0.2370 H   0  0  0  0  0
    5.6549    3.2350   -0.8146 H   0  0  0  0  0
    4.8736    0.8941   -0.6874 H   0  0  0  0  0
  1  2  1  0  0  0
  1  9  1  0  0  0
  2  3  1  0  0  0
  2 10  1  0  0  0
  2 11  1  0  0  0
  3  4  2  0  0  0
  3  8  1  0  0  0
  4  5  1  0  0  0
  4 12  1  0  0  0
  5  6  2  0  0  0
  5 13  1  0  0  0
  6  7  1  0  0  0
  6 14  1  0  0  0
  7  8  2  0  0  0
  7 15  1  0  0  0
  8 16  1  0  0  0
M  END