92
 OpenBabel11300909393D

 16 16  0  0  0  0  0  0  0  0999 V2000
    0.7803    0.0510    0.4006 O   0  0  0  0  0
    0.2138    1.2788    0.1885 C   0  0  0  0  0
   -1.1108    1.2417   -0.2554 C   0  0  0  0  0
   -1.8097    2.4228   -0.5110 C   0  0  0  0  0
   -1.1841    3.6525   -0.3235 C   0  0  0  0  0
    0.1370    3.6983    0.1189 C   0  0  0  0  0
    0.8363    2.5139    0.3748 C   0  0  0  0  0
    2.1265    0.0361    0.8551 C   0  0  0  0  0
   -1.6017    0.2829   -0.4027 H   0  0  0  0  0
   -2.8393    2.3799   -0.8557 H   0  0  0  0  0
   -1.7248    4.5741   -0.5215 H   0  0  0  0  0
    0.6259    4.6581    0.2654 H   0  0  0  0  0
    1.8623    2.5917    0.7176 H   0  0  0  0  0
    2.4272   -1.0094    0.9758 H   0  0  0  0  0
    2.2199    0.5235    1.8316 H   0  0  0  0  0
    2.7976    0.4921    0.1193 H   0  0  0  0  0
  1  8  1  0  0  0
  1  2  1  0  0  0
  2  3  2  0  0  0
  2  7  1  0  0  0
  3  4  1  0  0  0
  3  9  1  0  0  0
  4  5  2  0  0  0
  4 10  1  0  0  0
  5  6  1  0  0  0
  5 11  1  0  0  0
  6  7  2  0  0  0
  6 12  1  0  0  0
  7 13  1  0  0  0
  8 14  1  0  0  0
  8 15  1  0  0  0
  8 16  1  0  0  0
M  END