94
 OpenBabel11300909443D

 21 21  0  0  0  0  0  0  0  0999 V2000
   -0.7851   -0.1456   -0.1591 C   0  0  0  0  0
   -0.3344    1.1810   -0.1790 C   0  0  0  0  0
    1.0321    1.4641   -0.1449 C   0  0  0  0  0
    1.9596    0.4250   -0.0960 C   0  0  0  0  0
    1.5219   -0.8979   -0.0833 C   0  0  0  0  0
    0.1560   -1.1829   -0.1175 C   0  0  0  0  0
   -2.2607   -0.4543   -0.2128 C   0  0  0  0  0
   -2.7582   -0.5889   -1.6523 C   0  0  0  0  0
   -4.2415   -0.9202   -1.6977 C   0  0  0  0  0
   -1.0470    2.0015   -0.2213 H   0  0  0  0  0
    1.3725    2.4962   -0.1584 H   0  0  0  0  0
    3.0231    0.6463   -0.0698 H   0  0  0  0  0
    2.2444   -1.7088   -0.0486 H   0  0  0  0  0
   -0.1707   -2.2202   -0.1116 H   0  0  0  0  0
   -2.8169    0.3362    0.3072 H   0  0  0  0  0
   -2.4590   -1.3785    0.3447 H   0  0  0  0  0
   -2.1993   -1.3753   -2.1741 H   0  0  0  0  0
   -2.5811    0.3435   -2.2020 H   0  0  0  0  0
   -4.4469   -1.8692   -1.1919 H   0  0  0  0  0
   -4.5786   -1.0089   -2.7353 H   0  0  0  0  0
   -4.8337   -0.1370   -1.2138 H   0  0  0  0  0
  1  2  2  0  0  0
  1  6  1  0  0  0
  1  7  1  0  0  0
  2  3  1  0  0  0
  2 10  1  0  0  0
  3  4  2  0  0  0
  3 11  1  0  0  0
  4  5  1  0  0  0
  4 12  1  0  0  0
  5  6  2  0  0  0
  5 13  1  0  0  0
  6 14  1  0  0  0
  7  8  1  0  0  0
  7 15  1  0  0  0
  7 16  1  0  0  0
  8  9  1  0  0  0
  8 17  1  0  0  0
  8 18  1  0  0  0
  9 19  1  0  0  0
  9 20  1  0  0  0
  9 21  1  0  0  0
M  END