95
 OpenBabel11300909443D

 18 18  0  0  0  0  0  0  0  0999 V2000
    1.4119    1.0807   -1.8853 O   0  0  0  0  0
    2.5532    1.4051   -1.5829 C   0  0  0  0  0
    3.2946    2.2035   -2.3832 O   0  0  0  0  0
    3.1921    1.0176   -0.2661 C   0  0  0  0  0
    4.6990    0.9051   -0.2839 C   0  0  0  0  0
    5.4887    1.7884    0.4655 C   0  0  0  0  0
    6.8805    1.6927    0.4305 C   0  0  0  0  0
    7.4945    0.7159   -0.3510 C   0  0  0  0  0
    6.7184   -0.1701   -1.0954 C   0  0  0  0  0
    5.3267   -0.0796   -1.0606 C   0  0  0  0  0
    4.1913    2.3916   -2.0421 H   0  0  0  0  0
    2.7838    0.0469    0.0405 H   0  0  0  0  0
    2.8725    1.7563    0.4784 H   0  0  0  0  0
    5.0298    2.5539    1.0887 H   0  0  0  0  0
    7.4881    2.3767    1.0184 H   0  0  0  0  0
    8.5789    0.6402   -0.3746 H   0  0  0  0  0
    7.1981   -0.9362   -1.6999 H   0  0  0  0  0
    4.7366   -0.7839   -1.6454 H   0  0  0  0  0
  1  2  2  0  0  0
  2  4  1  0  0  0
  2  3  1  0  0  0
  3 11  1  0  0  0
  4  5  1  0  0  0
  4 12  1  0  0  0
  4 13  1  0  0  0
  5  6  2  0  0  0
  5 10  1  0  0  0
  6  7  1  0  0  0
  6 14  1  0  0  0
  7  8  2  0  0  0
  7 15  1  0  0  0
  8  9  1  0  0  0
  8 16  1  0  0  0
  9 10  2  0  0  0
  9 17  1  0  0  0
 10 18  1  0  0  0
M  END