100
 OpenBabel11300909393D

 10  9  0  0  0  0  0  0  0  0999 V2000
    1.1708    0.0979    0.2744 C   0  0  0  0  0
    0.5529    1.4001    0.2296 C   0  0  0  0  0
   -0.6618    1.6473    0.7326 C   0  0  0  0  0
    2.3857   -0.1492   -0.2288 C   0  0  0  0  0
    0.6159   -0.7135    0.7403 H   0  0  0  0  0
    1.1079    2.2119   -0.2364 H   0  0  0  0  0
   -1.2591    0.8758    1.2080 H   0  0  0  0  0
   -1.0883    2.6440    0.6767 H   0  0  0  0  0
    2.9828    0.6221   -0.7041 H   0  0  0  0  0
    2.8121   -1.1461   -0.1725 H   0  0  0  0  0
  1  4  2  0  0  0
  1  2  1  0  0  0
  1  5  1  0  0  0
  2  3  2  0  0  0
  2  6  1  0  0  0
  3  7  1  0  0  0
  3  8  1  0  0  0
  4  9  1  0  0  0
  4 10  1  0  0  0
M  END