105
 OpenBabel11300909393D

 10  9  0  0  0  0  0  0  0  0999 V2000
    0.9880   -0.0707   -0.3013 O   0  0  0  0  0
    2.3513   -0.0300    0.0867 C   0  0  0  0  0
    2.7880    1.3946    0.0541 C   0  0  0  0  0
    3.3408    2.0474    1.0846 C   0  0  0  0  0
    0.7069   -0.9981   -0.2345 H   0  0  0  0  0
    2.9375   -0.6206   -0.6240 H   0  0  0  0  0
    2.4488   -0.4699    1.0847 H   0  0  0  0  0
    2.6296    1.9227   -0.8826 H   0  0  0  0  0
    3.5100    1.5664    2.0430 H   0  0  0  0  0
    3.6270    3.0905    0.9888 H   0  0  0  0  0
  1  2  1  0  0  0
  1  5  1  0  0  0
  2  3  1  0  0  0
  2  6  1  0  0  0
  2  7  1  0  0  0
  3  4  2  0  0  0
  3  8  1  0  0  0
  4  9  1  0  0  0
  4 10  1  0  0  0
M  END