106
 OpenBabel11300909443D

 10  9  0  0  0  0  0  0  0  0999 V2000
    0.9882    0.0266    0.0801 O   0  0  0  0  0
    2.4043   -0.0172   -0.0169 C   0  0  0  0  0
    2.9750    1.3954   -0.0285 C   0  0  0  0  0
    4.3977    1.3659   -0.0471 O   0  0  0  0  0
    0.6704   -0.8907    0.0160 H   0  0  0  0  0
    2.6877   -0.5479   -0.9316 H   0  0  0  0  0
    2.8014   -0.5833    0.8320 H   0  0  0  0  0
    2.6392    1.9652    0.8451 H   0  0  0  0  0
    2.6272    1.9367   -0.9147 H   0  0  0  0  0
    4.6903    1.0700    0.8322 H   0  0  0  0  0
  1  2  1  0  0  0
  1  5  1  0  0  0
  2  3  1  0  0  0
  2  6  1  0  0  0
  2  7  1  0  0  0
  3  4  1  0  0  0
  3  8  1  0  0  0
  3  9  1  0  0  0
  4 10  1  0  0  0
M  END