107
 OpenBabel11300909393D

  9  8  0  0  0  0  0  0  0  0999 V2000
    1.0259    0.0564    0.0192 O   0  0  0  0  0
    0.5942    1.4067   -0.0352 C   0  0  0  0  0
   -1.1770    1.4371   -0.0036 Cl  0  0  0  0  0
    2.4423   -0.0351   -0.0028 C   0  0  0  0  0
    0.9269    1.8820   -0.9623 H   0  0  0  0  0
    0.9603    1.9649    0.8310 H   0  0  0  0  0
    2.7210   -1.0920    0.0409 H   0  0  0  0  0
    2.8739    0.4753    0.8639 H   0  0  0  0  0
    2.8406    0.3923   -0.9285 H   0  0  0  0  0
  1  4  1  0  0  0
  1  2  1  0  0  0
  2  3  1  0  0  0
  2  5  1  0  0  0
  2  6  1  0  0  0
  4  7  1  0  0  0
  4  8  1  0  0  0
  4  9  1  0  0  0
M  END