110
 OpenBabel11300909453D

 14 13  0  0  0  0  0  0  0  0999 V2000
    1.8501   -0.8666   -1.5778 O   0  0  0  0  0
    1.7605   -0.0600   -0.6669 C   0  0  0  0  0
    0.5673    0.4082   -0.2306 O   0  0  0  0  0
    2.9204    0.5286    0.1027 C   0  0  0  0  0
    4.2646    0.0240   -0.4164 C   0  0  0  0  0
    5.4239    0.6209    0.3647 C   0  0  0  0  0
    0.6411    1.0463    0.5037 H   0  0  0  0  0
    2.8043    0.2550    1.1573 H   0  0  0  0  0
    2.8756    1.6193    0.0082 H   0  0  0  0  0
    4.3743    0.2775   -1.4778 H   0  0  0  0  0
    4.3064   -1.0698   -0.3469 H   0  0  0  0  0
    5.4264    1.7129    0.2900 H   0  0  0  0  0
    6.3760    0.2513   -0.0285 H   0  0  0  0  0
    5.3648    0.3485    1.4231 H   0  0  0  0  0
  1  2  2  0  0  0
  2  4  1  0  0  0
  2  3  1  0  0  0
  3  7  1  0  0  0
  4  5  1  0  0  0
  4  8  1  0  0  0
  4  9  1  0  0  0
  5  6  1  0  0  0
  5 10  1  0  0  0
  5 11  1  0  0  0
  6 12  1  0  0  0
  6 13  1  0  0  0
  6 14  1  0  0  0
M  END