111
 OpenBabel11300909393D

 12 11  0  0  0  0  0  0  0  0999 V2000
    2.0097    0.1934   -0.7187 O   0  0  0  0  0
    2.8710    1.0451   -0.5503 C   0  0  0  0  0
    4.2237    0.9003   -0.7368 O   0  0  0  0  0
    4.6523   -0.3551   -1.1669 C   0  0  0  0  0
    5.9433   -0.6115   -1.3834 C   0  0  0  0  0
    2.5865    2.4446   -0.0898 C   0  0  0  0  0
    3.8708   -1.0916   -1.3086 H   0  0  0  0  0
    6.7004    0.1502   -1.2313 H   0  0  0  0  0
    6.2656   -1.5921   -1.7180 H   0  0  0  0  0
    1.5070    2.5729    0.0318 H   0  0  0  0  0
    2.9384    3.1603   -0.8371 H   0  0  0  0  0
    3.0703    2.6232    0.8736 H   0  0  0  0  0
  1  2  2  0  0  0
  2  6  1  0  0  0
  2  3  1  0  0  0
  3  4  1  0  0  0
  4  5  2  0  0  0
  4  7  1  0  0  0
  5  8  1  0  0  0
  5  9  1  0  0  0
  6 10  1  0  0  0
  6 11  1  0  0  0
  6 12  1  0  0  0
M  END