112
 OpenBabel11300909453D

 19 18  0  0  0  0  0  0  0  0999 V2000
    2.6103   -0.5262    0.0213 O   0  0  0  0  0
    3.0179   -1.1465   -0.9599 C   0  0  0  0  0
    2.7444   -2.6267   -1.1666 C   0  0  0  0  0
    1.4932   -3.1289   -0.4312 C   0  0  0  0  0
    0.2156   -2.5353   -1.0320 C   0  0  0  0  0
    1.4303   -4.6565   -0.4905 C   0  0  0  0  0
    3.8930   -0.4790   -1.9887 C   0  0  0  0  0
    3.6332   -3.1627   -0.8133 H   0  0  0  0  0
    2.6434   -2.8169   -2.2413 H   0  0  0  0  0
    1.5452   -2.8329    0.6242 H   0  0  0  0  0
    0.1184   -2.7934   -2.0918 H   0  0  0  0  0
    0.2054   -1.4443   -0.9476 H   0  0  0  0  0
   -0.6695   -2.9139   -0.5098 H   0  0  0  0  0
    1.3825   -5.0122   -1.5254 H   0  0  0  0  0
    0.5473   -5.0309    0.0375 H   0  0  0  0  0
    2.3136   -5.1003   -0.0199 H   0  0  0  0  0
    3.9348    0.5959   -1.7969 H   0  0  0  0  0
    3.4730   -0.6363   -2.9866 H   0  0  0  0  0
    4.9020   -0.8944   -1.9350 H   0  0  0  0  0
  1  2  2  0  0  0
  2  7  1  0  0  0
  2  3  1  0  0  0
  3  4  1  0  0  0
  3  8  1  0  0  0
  3  9  1  0  0  0
  4  6  1  0  0  0
  4  5  1  0  0  0
  4 10  1  0  0  0
  5 11  1  0  0  0
  5 12  1  0  0  0
  5 13  1  0  0  0
  6 14  1  0  0  0
  6 15  1  0  0  0
  6 16  1  0  0  0
  7 17  1  0  0  0
  7 18  1  0  0  0
  7 19  1  0  0  0
M  END