114
 OpenBabel11300909453D

 21 20  0  0  0  0  0  0  0  0999 V2000
    1.2144    0.4952    0.0069 O   0  0  0  0  0
    0.7577    1.1388    1.2084 C   0  0  0  0  0
    1.2910    2.5755    1.2798 C   0  0  0  0  0
    0.8666    3.3783    2.8110 Cl  0  0  0  0  0
   -0.7682    1.1090    1.1447 C   0  0  0  0  0
    2.5497   -0.0348    0.0656 C   0  0  0  0  0
    2.5405   -1.4336    0.6978 C   0  0  0  0  0
    4.1828   -2.0718    0.9386 Cl  0  0  0  0  0
    3.0523   -0.0695   -1.3773 C   0  0  0  0  0
    1.0821    0.5648    2.0827 H   0  0  0  0  0
    0.9019    3.1816    0.4540 H   0  0  0  0  0
    2.3820    2.5996    1.1993 H   0  0  0  0  0
   -1.1346    1.6664    0.2746 H   0  0  0  0  0
   -1.2282    1.5253    2.0453 H   0  0  0  0  0
   -1.1238    0.0785    1.0258 H   0  0  0  0  0
    3.1945    0.6383    0.6421 H   0  0  0  0  0
    1.9825   -2.1416    0.0761 H   0  0  0  0  0
    2.0522   -1.4202    1.6769 H   0  0  0  0  0
    2.4392   -0.7408   -1.9878 H   0  0  0  0  0
    4.0951   -0.3910   -1.4413 H   0  0  0  0  0
    2.9717    0.9246   -1.8293 H   0  0  0  0  0
  1  6  1  0  0  0
  1  2  1  0  0  0
  2  5  1  0  0  0
  2  3  1  0  0  0
  2 10  1  0  0  0
  3  4  1  0  0  0
  3 11  1  0  0  0
  3 12  1  0  0  0
  5 13  1  0  0  0
  5 14  1  0  0  0
  5 15  1  0  0  0
  6  9  1  0  0  0
  6  7  1  0  0  0
  6 16  1  0  0  0
  7  8  1  0  0  0
  7 17  1  0  0  0
  7 18  1  0  0  0
  9 19  1  0  0  0
  9 20  1  0  0  0
  9 21  1  0  0  0
M  END