117
 OpenBabel11300909393D

 12 12  0  0  0  0  0  0  0  0999 V2000
   -1.3942   -0.0741   -0.0281 C   0  0  0  0  0
   -0.7693    1.1722   -0.0184 C   0  0  0  0  0
    0.6244    1.2458    0.0029 C   0  0  0  0  0
    1.3854    0.0765    0.0144 C   0  0  0  0  0
    0.7553   -1.1682    0.0047 C   0  0  0  0  0
   -0.6381   -1.2456   -0.0168 C   0  0  0  0  0
   -3.2820   -0.1766   -0.0568 Br  0  0  0  0  0
   -1.3555    2.0872   -0.0272 H   0  0  0  0  0
    1.1167    2.2152    0.0105 H   0  0  0  0  0
    2.4706    0.1354    0.0310 H   0  0  0  0  0
    1.3495   -2.0786    0.0137 H   0  0  0  0  0
   -1.1220   -2.2186   -0.0242 H   0  0  0  0  0
  1  2  2  0  0  0
  1  6  1  0  0  0
  1  7  1  0  0  0
  2  3  1  0  0  0
  2  8  1  0  0  0
  3  4  2  0  0  0
  3  9  1  0  0  0
  4  5  1  0  0  0
  4 10  1  0  0  0
  5  6  2  0  0  0
  5 11  1  0  0  0
  6 12  1  0  0  0
M  END