118
 OpenBabel11300909393D

 21 21  0  0  0  0  0  0  0  0999 V2000
    0.7120    1.2482   -0.2790 C   0  0  0  0  0
    1.4419   -0.0251    0.1753 C   0  0  0  0  0
    0.7046   -1.3066   -0.2090 C   0  0  0  0  0
   -0.7419   -1.2923    0.2746 C   0  0  0  0  0
   -1.4881   -0.0476   -0.1974 C   0  0  0  0  0
   -0.7508    1.2332    0.1882 C   0  0  0  0  0
    0.8204    1.4520   -1.7935 C   0  0  0  0  0
    1.2077    2.1069    0.1933 H   0  0  0  0  0
    1.5491    0.0028    1.2672 H   0  0  0  0  0
    2.4581   -0.0474   -0.2359 H   0  0  0  0  0
    1.2248   -2.1694    0.2219 H   0  0  0  0  0
    0.7273   -1.4390   -1.2971 H   0  0  0  0  0
   -0.7586   -1.3303    1.3706 H   0  0  0  0  0
   -1.2594   -2.1899   -0.0826 H   0  0  0  0  0
   -2.4930   -0.0364    0.2407 H   0  0  0  0  0
   -1.6218   -0.0896   -1.2852 H   0  0  0  0  0
   -1.2864    2.1011   -0.2129 H   0  0  0  0  0
   -0.7711    1.3328    1.2807 H   0  0  0  0  0
    0.3560    0.6391   -2.3581 H   0  0  0  0  0
    1.8703    1.5137   -2.0981 H   0  0  0  0  0
    0.3334    2.3865   -2.0905 H   0  0  0  0  0
  1  2  1  0  0  0
  1  6  1  0  0  0
  1  7  1  0  0  0
  1  8  1  0  0  0
  2  3  1  0  0  0
  2  9  1  0  0  0
  2 10  1  0  0  0
  3  4  1  0  0  0
  3 11  1  0  0  0
  3 12  1  0  0  0
  4  5  1  0  0  0
  4 13  1  0  0  0
  4 14  1  0  0  0
  5  6  1  0  0  0
  5 15  1  0  0  0
  5 16  1  0  0  0
  6 17  1  0  0  0
  6 18  1  0  0  0
  7 19  1  0  0  0
  7 20  1  0  0  0
  7 21  1  0  0  0
M  END