119
 OpenBabel11300909453D

 15 15  0  0  0  0  0  0  0  0999 V2000
   -1.3922   -0.0732   -0.0811 C   0  0  0  0  0
   -0.7488    1.1699   -0.0578 C   0  0  0  0  0
    0.6440    1.2434    0.0045 C   0  0  0  0  0
    1.4046    0.0761    0.0404 C   0  0  0  0  0
    0.7734   -1.1661    0.0129 C   0  0  0  0  0
   -0.6191   -1.2410   -0.0490 C   0  0  0  0  0
   -2.8871   -0.1673   -0.1582 C   0  0  0  0  0
   -1.3272    2.0902   -0.0875 H   0  0  0  0  0
    1.1356    2.2123    0.0241 H   0  0  0  0  0
    2.4886    0.1342    0.0884 H   0  0  0  0  0
    1.3651   -2.0772    0.0387 H   0  0  0  0  0
   -1.0997   -2.2164   -0.0722 H   0  0  0  0  0
   -3.3559    0.8191   -0.0801 H   0  0  0  0  0
   -3.2705   -0.7831    0.6619 H   0  0  0  0  0
   -3.1871   -0.6111   -1.1127 H   0  0  0  0  0
  1  2  2  0  0  0
  1  6  1  0  0  0
  1  7  1  0  0  0
  2  3  1  0  0  0
  2  8  1  0  0  0
  3  4  2  0  0  0
  3  9  1  0  0  0
  4  5  1  0  0  0
  4 10  1  0  0  0
  5  6  2  0  0  0
  5 11  1  0  0  0
  6 12  1  0  0  0
  7 13  1  0  0  0
  7 14  1  0  0  0
  7 15  1  0  0  0
M  END