122
 OpenBabel11300909393D

 20 20  0  0  0  0  0  0  0  0999 V2000
    0.9931    0.0279    0.1019 N   0  0  0  0  0
    2.4554    0.0128    0.0255 C   0  0  0  0  0
    2.9529    1.1650   -0.8576 C   0  0  0  0  0
    2.6134    0.9690   -2.3358 C   0  0  0  0  0
    3.1090   -0.3791   -2.8523 C   0  0  0  0  0
    2.6047   -1.5379   -1.9964 C   0  0  0  0  0
    2.9450   -1.3358   -0.5190 C   0  0  0  0  0
    0.6802    0.9066    0.5109 H   0  0  0  0  0
    0.6750   -0.7114    0.7278 H   0  0  0  0  0
    2.8477    0.1488    1.0401 H   0  0  0  0  0
    4.0431    1.2441   -0.7531 H   0  0  0  0  0
    2.5406    2.1202   -0.5101 H   0  0  0  0  0
    3.0658    1.7752   -2.9247 H   0  0  0  0  0
    1.5291    1.0418   -2.4825 H   0  0  0  0  0
    4.2060   -0.3837   -2.8584 H   0  0  0  0  0
    2.7847   -0.5185   -3.8897 H   0  0  0  0  0
    3.0509   -2.4747   -2.3492 H   0  0  0  0  0
    1.5199   -1.6396   -2.1190 H   0  0  0  0  0
    2.5272   -2.1617    0.0698 H   0  0  0  0  0
    4.0348   -1.3911   -0.3968 H   0  0  0  0  0
  1  2  1  0  0  0
  1  8  1  0  0  0
  1  9  1  0  0  0
  2  3  1  0  0  0
  2  7  1  0  0  0
  2 10  1  0  0  0
  3  4  1  0  0  0
  3 11  1  0  0  0
  3 12  1  0  0  0
  4  5  1  0  0  0
  4 13  1  0  0  0
  4 14  1  0  0  0
  5  6  1  0  0  0
  5 15  1  0  0  0
  5 16  1  0  0  0
  6  7  1  0  0  0
  6 17  1  0  0  0
  6 18  1  0  0  0
  7 19  1  0  0  0
  7 20  1  0  0  0
M  END