125
 OpenBabel11300909453D

 13 13  0  0  0  0  0  0  0  0999 V2000
    0.9913   -0.0356    0.1354 O   0  0  0  0  0
    2.3488    0.0304    0.0144 C   0  0  0  0  0
    3.0125    1.2520   -0.0503 C   0  0  0  0  0
    4.4024    1.2703   -0.1742 C   0  0  0  0  0
    5.1166    0.0721   -0.2322 C   0  0  0  0  0
    4.4413   -1.1474   -0.1663 C   0  0  0  0  0
    3.0524   -1.1679   -0.0424 C   0  0  0  0  0
    0.6411    0.8697    0.1607 H   0  0  0  0  0
    2.4701    2.1909   -0.0064 H   0  0  0  0  0
    4.9312    2.2189   -0.2257 H   0  0  0  0  0
    6.1989    0.0885   -0.3287 H   0  0  0  0  0
    4.9953   -2.0804   -0.2112 H   0  0  0  0  0
    2.5205   -2.1135    0.0094 H   0  0  0  0  0
  1  2  1  0  0  0
  1  8  1  0  0  0
  2  3  2  0  0  0
  2  7  1  0  0  0
  3  4  1  0  0  0
  3  9  1  0  0  0
  4  5  2  0  0  0
  4 10  1  0  0  0
  5  6  1  0  0  0
  5 11  1  0  0  0
  6  7  2  0  0  0
  6 12  1  0  0  0
  7 13  1  0  0  0
M  END