126
 OpenBabel11300909453D

 14 14  0  0  0  0  0  0  0  0999 V2000
   -0.6300   -1.2386    0.0681 N   0  0  0  0  0
   -1.3412   -0.0914    0.0813 C   0  0  0  0  0
   -0.7709    1.1688    0.0181 C   0  0  0  0  0
    0.6153    1.2614   -0.0622 C   0  0  0  0  0
    1.3872    0.0977   -0.0751 C   0  0  0  0  0
    2.8779    0.1657   -0.1683 C   0  0  0  0  0
    0.7147   -1.1179   -0.0104 C   0  0  0  0  0
   -2.4183   -0.2159    0.1449 H   0  0  0  0  0
   -1.3914    2.0574    0.0306 H   0  0  0  0  0
    1.0883    2.2387   -0.1146 H   0  0  0  0  0
    3.3302   -0.8291   -0.0989 H   0  0  0  0  0
    3.2814    0.7727    0.6485 H   0  0  0  0  0
    3.1760    0.6065   -1.1248 H   0  0  0  0  0
    1.2520   -2.0624   -0.0204 H   0  0  0  0  0
  1  2  2  0  0  0
  1  7  1  0  0  0
  2  3  1  0  0  0
  2  8  1  0  0  0
  3  4  2  0  0  0
  3  9  1  0  0  0
  4  5  1  0  0  0
  4 10  1  0  0  0
  5  7  2  0  0  0
  5  6  1  0  0  0
  6 11  1  0  0  0
  6 12  1  0  0  0
  6 13  1  0  0  0
  7 14  1  0  0  0
M  END