127
 OpenBabel11300909453D

 17 16  0  0  0  0  0  0  0  0999 V2000
    4.9852   -4.1621   -1.7267 O   0  0  0  0  0
    5.0298   -4.4250   -0.5337 C   0  0  0  0  0
    5.2406   -3.5310    0.4709 O   0  0  0  0  0
    5.4220   -2.1660    0.0611 C   0  0  0  0  0
    6.8850   -1.9151   -0.2860 C   0  0  0  0  0
    7.1283   -0.4717   -0.6884 C   0  0  0  0  0
    4.8559   -5.8001    0.0351 C   0  0  0  0  0
    5.1244   -1.5391    0.9093 H   0  0  0  0  0
    4.7545   -1.9138   -0.7715 H   0  0  0  0  0
    7.1980   -2.5801   -1.0989 H   0  0  0  0  0
    7.5148   -2.1736    0.5732 H   0  0  0  0  0
    6.5300   -0.2029   -1.5653 H   0  0  0  0  0
    8.1833   -0.3199   -0.9381 H   0  0  0  0  0
    6.8704    0.2122    0.1268 H   0  0  0  0  0
    4.7354   -6.5171   -0.7813 H   0  0  0  0  0
    3.9621   -5.8305    0.6634 H   0  0  0  0  0
    5.7419   -6.0780    0.6117 H   0  0  0  0  0
  1  2  2  0  0  0
  2  7  1  0  0  0
  2  3  1  0  0  0
  3  4  1  0  0  0
  4  5  1  0  0  0
  4  8  1  0  0  0
  4  9  1  0  0  0
  5  6  1  0  0  0
  5 10  1  0  0  0
  5 11  1  0  0  0
  6 12  1  0  0  0
  6 13  1  0  0  0
  6 14  1  0  0  0
  7 15  1  0  0  0
  7 16  1  0  0  0
  7 17  1  0  0  0
M  END