128
 OpenBabel11300909393D

 17 16  0  0  0  0  0  0  0  0999 V2000
    0.9963   -0.0368   -0.0282 C   0  0  0  0  0
    0.4746    1.3996    0.0050 C   0  0  0  0  0
   -1.0535    1.4348    0.0152 C   0  0  0  0  0
   -1.5788    2.8613    0.0367 C   0  0  0  0  0
    2.5161   -0.0786   -0.0375 C   0  0  0  0  0
    0.6269   -0.5875    0.8445 H   0  0  0  0  0
    0.6175   -0.5497   -0.9200 H   0  0  0  0  0
    0.8494    1.9471   -0.8685 H   0  0  0  0  0
    0.8600    1.9105    0.8958 H   0  0  0  0  0
   -1.4320    0.8989    0.8935 H   0  0  0  0  0
   -1.4440    0.9215   -0.8712 H   0  0  0  0  0
   -1.2282    3.3956    0.9254 H   0  0  0  0  0
   -2.6733    2.8617    0.0496 H   0  0  0  0  0
   -1.2495    3.4138   -0.8492 H   0  0  0  0  0
    2.9271    0.3969    0.8589 H   0  0  0  0  0
    2.9175    0.4376   -0.9154 H   0  0  0  0  0
    2.8665   -1.1150   -0.0632 H   0  0  0  0  0
  1  5  1  0  0  0
  1  2  1  0  0  0
  1  6  1  0  0  0
  1  7  1  0  0  0
  2  3  1  0  0  0
  2  8  1  0  0  0
  2  9  1  0  0  0
  3  4  1  0  0  0
  3 10  1  0  0  0
  3 11  1  0  0  0
  4 12  1  0  0  0
  4 13  1  0  0  0
  4 14  1  0  0  0
  5 15  1  0  0  0
  5 16  1  0  0  0
  5 17  1  0  0  0
M  END