129
 OpenBabel11300909453D

 15 14  0  0  0  0  0  0  0  0999 V2000
    0.8746    0.1625   -0.0370 C   0  0  0  0  0
    0.1737   -0.5546    0.8490 C   0  0  0  0  0
    2.3750    0.2060   -0.0868 C   0  0  0  0  0
    2.8978    1.6253    0.1365 C   0  0  0  0  0
    4.4169    1.6730    0.0821 C   0  0  0  0  0
    0.3398    0.7490   -0.7820 H   0  0  0  0  0
    0.6607   -1.1600    1.6081 H   0  0  0  0  0
   -0.9119   -0.5506    0.8326 H   0  0  0  0  0
    2.7004   -0.1593   -1.0682 H   0  0  0  0  0
    2.8065   -0.4683    0.6630 H   0  0  0  0  0
    2.5620    2.0008    1.1109 H   0  0  0  0  0
    2.4911    2.3010   -0.6260 H   0  0  0  0  0
    4.8571    1.0360    0.8558 H   0  0  0  0  0
    4.7700    2.6963    0.2432 H   0  0  0  0  0
    4.7852    1.3358   -0.8920 H   0  0  0  0  0
  1  3  1  0  0  0
  1  2  2  0  0  0
  1  6  1  0  0  0
  2  7  1  0  0  0
  2  8  1  0  0  0
  3  4  1  0  0  0
  3  9  1  0  0  0
  3 10  1  0  0  0
  4  5  1  0  0  0
  4 11  1  0  0  0
  4 12  1  0  0  0
  5 13  1  0  0  0
  5 14  1  0  0  0
  5 15  1  0  0  0
M  END