134
 OpenBabel11300909453D

  9  9  0  0  0  0  0  0  0  0999 V2000
   -0.5180   -1.2692   -0.0028 S   0  0  0  0  0
   -1.3027    0.2518   -0.0191 C   0  0  0  0  0
   -0.4053    1.2974   -0.0360 C   0  0  0  0  0
    0.9446    0.8415   -0.0355 C   0  0  0  0  0
    1.0266   -0.5338   -0.0182 C   0  0  0  0  0
   -2.3837    0.3049   -0.0155 H   0  0  0  0  0
   -0.7043    2.3378   -0.0481 H   0  0  0  0  0
    1.8126    1.4896   -0.0471 H   0  0  0  0  0
    1.9184   -1.1439   -0.0140 H   0  0  0  0  0
  1  2  1  0  0  0
  1  5  1  0  0  0
  2  3  2  0  0  0
  2  6  1  0  0  0
  3  4  1  0  0  0
  3  7  1  0  0  0
  4  5  2  0  0  0
  4  8  1  0  0  0
  5  9  1  0  0  0
M  END