135
 OpenBabel11300909453D

 22 21  0  0  0  0  0  0  0  0999 V2000
    0.9767    0.1084    0.2166 O   0  0  0  0  0
    2.1992    0.0358    0.1038 C   0  0  0  0  0
    2.9407   -1.2857    0.0008 C   0  0  0  0  0
    2.0019   -2.4880    0.0677 C   0  0  0  0  0
    2.7718   -3.8052   -0.0321 C   0  0  0  0  0
    1.8252   -5.0047    0.0166 C   0  0  0  0  0
    2.5834   -6.3192   -0.0762 C   0  0  0  0  0
    3.0493    1.2789    0.0575 C   0  0  0  0  0
    3.6647   -1.3307    0.8220 H   0  0  0  0  0
    3.4880   -1.2912   -0.9484 H   0  0  0  0  0
    1.2672   -2.4269   -0.7448 H   0  0  0  0  0
    1.4359   -2.4622    1.0073 H   0  0  0  0  0
    3.4938   -3.8725    0.7908 H   0  0  0  0  0
    3.3444   -3.8273   -0.9673 H   0  0  0  0  0
    1.1071   -4.9451   -0.8097 H   0  0  0  0  0
    1.2488   -4.9871    0.9490 H   0  0  0  0  0
    3.1520   -6.3794   -1.0095 H   0  0  0  0  0
    1.8853   -7.1616   -0.0487 H   0  0  0  0  0
    3.2813   -6.4290    0.7598 H   0  0  0  0  0
    2.4133    2.1643    0.1458 H   0  0  0  0  0
    3.5842    1.3217   -0.8945 H   0  0  0  0  0
    3.7580    1.2694    0.8891 H   0  0  0  0  0
  1  2  2  0  0  0
  2  8  1  0  0  0
  2  3  1  0  0  0
  3  4  1  0  0  0
  3  9  1  0  0  0
  3 10  1  0  0  0
  4  5  1  0  0  0
  4 11  1  0  0  0
  4 12  1  0  0  0
  5  6  1  0  0  0
  5 13  1  0  0  0
  5 14  1  0  0  0
  6  7  1  0  0  0
  6 15  1  0  0  0
  6 16  1  0  0  0
  7 17  1  0  0  0
  7 18  1  0  0  0
  7 19  1  0  0  0
  8 20  1  0  0  0
  8 21  1  0  0  0
  8 22  1  0  0  0
M  END