136
 OpenBabel11300909453D

 20 19  0  0  0  0  0  0  0  0999 V2000
    1.0230   -0.0505   -0.0182 C   0  0  0  0  0
    0.4979    1.3853   -0.0036 C   0  0  0  0  0
   -1.0306    1.4189    0.0057 C   0  0  0  0  0
   -1.5543    2.8548   -0.0006 C   0  0  0  0  0
   -3.0749    2.8945    0.0148 C   0  0  0  0  0
    2.5432   -0.0878   -0.0224 C   0  0  0  0  0
    0.6522   -0.5923    0.8601 H   0  0  0  0  0
    0.6481   -0.5749   -0.9050 H   0  0  0  0  0
    0.8727    1.9211   -0.8840 H   0  0  0  0  0
    0.8822    1.9079    0.8806 H   0  0  0  0  0
   -1.4046    0.8950    0.8938 H   0  0  0  0  0
   -1.4164    0.8841   -0.8710 H   0  0  0  0  0
   -1.1905    3.3798   -0.8918 H   0  0  0  0  0
   -1.1718    3.3955    0.8732 H   0  0  0  0  0
   -3.4890    2.3853   -0.8608 H   0  0  0  0  0
   -3.4264    3.9306    0.0036 H   0  0  0  0  0
   -3.4699    2.4110    0.9133 H   0  0  0  0  0
    2.9493    0.3965    0.8713 H   0  0  0  0  0
    2.9454    0.4225   -0.9030 H   0  0  0  0  0
    2.8967   -1.1231   -0.0383 H   0  0  0  0  0
  1  6  1  0  0  0
  1  2  1  0  0  0
  1  7  1  0  0  0
  1  8  1  0  0  0
  2  3  1  0  0  0
  2  9  1  0  0  0
  2 10  1  0  0  0
  3  4  1  0  0  0
  3 11  1  0  0  0
  3 12  1  0  0  0
  4  5  1  0  0  0
  4 13  1  0  0  0
  4 14  1  0  0  0
  5 15  1  0  0  0
  5 16  1  0  0  0
  5 17  1  0  0  0
  6 18  1  0  0  0
  6 19  1  0  0  0
  6 20  1  0  0  0
M  END