138
 OpenBabel11300909393D

 18 18  0  0  0  0  0  0  0  0999 V2000
    0.7315    1.2630   -0.2225 C   0  0  0  0  0
    1.4590   -0.0025    0.2229 C   0  0  0  0  0
    0.7301   -1.2624   -0.2369 C   0  0  0  0  0
   -0.7289   -1.2637    0.2121 C   0  0  0  0  0
   -1.4566    0.0017   -0.2340 C   0  0  0  0  0
   -0.7278    1.2607    0.2264 C   0  0  0  0  0
    0.7757    1.3434   -1.3152 H   0  0  0  0  0
    1.2410    2.1440    0.1838 H   0  0  0  0  0
    1.5429   -0.0088    1.3169 H   0  0  0  0  0
    2.4796   -0.0008   -0.1756 H   0  0  0  0  0
    1.2389   -2.1484    0.1595 H   0  0  0  0  0
    0.7744   -1.3303   -1.3303 H   0  0  0  0  0
   -0.7734   -1.3437    1.3061 H   0  0  0  0  0
   -1.2387   -2.1453   -0.1930 H   0  0  0  0  0
   -2.4771   -0.0003    0.1639 H   0  0  0  0  0
   -1.5389    0.0076   -1.3270 H   0  0  0  0  0
   -1.2366    2.1473   -0.1690 H   0  0  0  0  0
   -0.7721    1.3286    1.3211 H   0  0  0  0  0
  1  2  1  0  0  0
  1  6  1  0  0  0
  1  7  1  0  0  0
  1  8  1  0  0  0
  2  3  1  0  0  0
  2  9  1  0  0  0
  2 10  1  0  0  0
  3  4  1  0  0  0
  3 11  1  0  0  0
  3 12  1  0  0  0
  4  5  1  0  0  0
  4 13  1  0  0  0
  4 14  1  0  0  0
  5  6  1  0  0  0
  5 15  1  0  0  0
  5 16  1  0  0  0
  6 17  1  0  0  0
  6 18  1  0  0  0
M  END