139
 OpenBabel11300909393D

 16 16  0  0  0  0  0  0  0  0999 V2000
   -0.4218   -1.3512    0.0422 C   0  0  0  0  0
   -1.3574   -0.3946   -0.0426 C   0  0  0  0  0
   -1.0320    1.0714   -0.0730 C   0  0  0  0  0
    0.4154    1.3734    0.3240 C   0  0  0  0  0
    1.3860    0.3824   -0.3128 C   0  0  0  0  0
    1.0502   -1.0590    0.0797 C   0  0  0  0  0
   -0.7225   -2.3953    0.0823 H   0  0  0  0  0
   -2.4078   -0.6712   -0.0877 H   0  0  0  0  0
   -1.2238    1.4462   -1.0858 H   0  0  0  0  0
   -1.7068    1.6086    0.6021 H   0  0  0  0  0
    0.6729    2.3965    0.0283 H   0  0  0  0  0
    0.5133    1.3241    1.4164 H   0  0  0  0  0
    2.4139    0.6161   -0.0133 H   0  0  0  0  0
    1.3422    0.4845   -1.4048 H   0  0  0  0  0
    1.4169   -1.2616    1.0931 H   0  0  0  0  0
    1.5753   -1.7437   -0.5954 H   0  0  0  0  0
  1  6  1  0  0  0
  1  2  2  0  0  0
  1  7  1  0  0  0
  2  3  1  0  0  0
  2  8  1  0  0  0
  3  4  1  0  0  0
  3  9  1  0  0  0
  3 10  1  0  0  0
  4  5  1  0  0  0
  4 11  1  0  0  0
  4 12  1  0  0  0
  5  6  1  0  0  0
  5 13  1  0  0  0
  5 14  1  0  0  0
  6 15  1  0  0  0
  6 16  1  0  0  0
M  END