141
 OpenBabel11300909453D

 21 20  0  0  0  0  0  0  0  0999 V2000
    1.3135   -0.5081    0.4587 O   0  0  0  0  0
    2.7071   -0.2476    0.3613 C   0  0  0  0  0
    2.9160    1.2467    0.1622 C   0  0  0  0  0
    4.3979    1.5983    0.0536 C   0  0  0  0  0
    4.6008    3.0998   -0.1561 C   0  0  0  0  0
    6.0853    3.4520   -0.2503 C   0  0  0  0  0
    6.2921    4.9422   -0.4691 C   0  0  0  0  0
    1.2107   -1.4669    0.5853 H   0  0  0  0  0
    3.1086   -0.8145   -0.4846 H   0  0  0  0  0
    3.1904   -0.5907    1.2817 H   0  0  0  0  0
    2.4564    1.7921    0.9959 H   0  0  0  0  0
    2.3810    1.5711   -0.7392 H   0  0  0  0  0
    4.8462    1.0476   -0.7822 H   0  0  0  0  0
    4.9180    1.2811    0.9657 H   0  0  0  0  0
    4.1445    3.6524    0.6743 H   0  0  0  0  0
    4.0890    3.4148   -1.0737 H   0  0  0  0  0
    6.5478    2.8997   -1.0767 H   0  0  0  0  0
    6.5984    3.1490    0.6698 H   0  0  0  0  0
    5.8236    5.2701   -1.4025 H   0  0  0  0  0
    7.3606    5.1721   -0.5264 H   0  0  0  0  0
    5.8631    5.5230    0.3536 H   0  0  0  0  0
  1  2  1  0  0  0
  1  8  1  0  0  0
  2  3  1  0  0  0
  2  9  1  0  0  0
  2 10  1  0  0  0
  3  4  1  0  0  0
  3 11  1  0  0  0
  3 12  1  0  0  0
  4  5  1  0  0  0
  4 13  1  0  0  0
  4 14  1  0  0  0
  5  6  1  0  0  0
  5 15  1  0  0  0
  5 16  1  0  0  0
  6  7  1  0  0  0
  6 17  1  0  0  0
  6 18  1  0  0  0
  7 19  1  0  0  0
  7 20  1  0  0  0
  7 21  1  0  0  0
M  END