142
 OpenBabel11300909393D

 18 17  0  0  0  0  0  0  0  0999 V2000
    1.6502    3.1192    2.1789 O   0  0  0  0  0
    1.2615    2.2447    1.1228 C   0  0  0  0  0
    2.0985    2.5298   -0.1305 C   0  0  0  0  0
    3.5313    2.4346    0.1899 N   0  0  0  0  0
    4.3444    2.6466   -1.0185 C   0  0  0  0  0
    5.8335    2.4392   -0.7108 C   0  0  0  0  0
    6.0608    1.0951   -0.2858 O   0  0  0  0  0
    2.6177    3.2210    2.0705 H   0  0  0  0  0
    0.1978    2.3993    0.9184 H   0  0  0  0  0
    1.4018    1.2127    1.4621 H   0  0  0  0  0
    1.8844    3.5508   -0.4692 H   0  0  0  0  0
    1.8196    1.8291   -0.9224 H   0  0  0  0  0
    3.7532    1.4932    0.5306 H   0  0  0  0  0
    4.1931    3.6622   -1.4019 H   0  0  0  0  0
    4.0430    1.9295   -1.7926 H   0  0  0  0  0
    6.1688    3.1205    0.0766 H   0  0  0  0  0
    6.4295    2.6181   -1.6121 H   0  0  0  0  0
    6.9956    1.0435   -0.0213 H   0  0  0  0  0
  1  2  1  0  0  0
  1  8  1  0  0  0
  2  3  1  0  0  0
  2  9  1  0  0  0
  2 10  1  0  0  0
  3  4  1  0  0  0
  3 11  1  0  0  0
  3 12  1  0  0  0
  4  5  1  0  0  0
  4 13  1  0  0  0
  5  6  1  0  0  0
  5 14  1  0  0  0
  5 15  1  0  0  0
  6  7  1  0  0  0
  6 16  1  0  0  0
  6 17  1  0  0  0
  7 18  1  0  0  0
M  END