144
 OpenBabel11300909393D

 15 14  0  0  0  0  0  0  0  0999 V2000
    1.0864   -0.1222    0.0392 O   0  0  0  0  0
    0.5862   -1.4639    0.0340 C   0  0  0  0  0
   -0.9333   -1.4202    0.0869 C   0  0  0  0  0
   -1.6143   -3.0615    0.0982 Cl  0  0  0  0  0
    2.5158   -0.0928   -0.0328 C   0  0  0  0  0
    2.9784    1.3557    0.0065 C   0  0  0  0  0
    4.7491    1.4587   -0.0909 Cl  0  0  0  0  0
    0.9833   -1.9984    0.9054 H   0  0  0  0  0
    0.9215   -1.9715   -0.8785 H   0  0  0  0  0
   -1.3363   -0.8845   -0.7776 H   0  0  0  0  0
   -1.2763   -0.8969    0.9842 H   0  0  0  0  0
    2.8383   -0.5709   -0.9650 H   0  0  0  0  0
    2.9324   -0.6483    0.8156 H   0  0  0  0  0
    2.6537    1.8420    0.9319 H   0  0  0  0  0
    2.5518    1.9233   -0.8268 H   0  0  0  0  0
  1  5  1  0  0  0
  1  2  1  0  0  0
  2  3  1  0  0  0
  2  8  1  0  0  0
  2  9  1  0  0  0
  3  4  1  0  0  0
  3 10  1  0  0  0
  3 11  1  0  0  0
  5  6  1  0  0  0
  5 12  1  0  0  0
  5 13  1  0  0  0
  6  7  1  0  0  0
  6 14  1  0  0  0
  6 15  1  0  0  0
M  END