149
 OpenBabel11300909453D

 38 37  0  0  0  0  0  0  0  0999 V2000
    1.0996   -0.0429    0.0038 C   0  0  0  0  0
    0.5656    1.3894    0.0377 C   0  0  0  0  0
   -0.9635    1.4129    0.0044 C   0  0  0  0  0
   -1.4996    2.8448    0.0200 C   0  0  0  0  0
   -3.0293    2.8654    0.0047 C   0  0  0  0  0
   -3.5662    4.2978    0.0002 C   0  0  0  0  0
   -5.0957    4.3204    0.0055 C   0  0  0  0  0
   -5.6286    5.7534   -0.0196 C   0  0  0  0  0
   -7.1585    5.7817    0.0034 C   0  0  0  0  0
   -7.6871    7.2149   -0.0419 C   0  0  0  0  0
   -9.2061    7.2498   -0.0080 C   0  0  0  0  0
    2.6188   -0.0729    0.0483 C   0  0  0  0  0
    0.7036   -0.6085    0.8552 H   0  0  0  0  0
    0.7565   -0.5459   -0.9078 H   0  0  0  0  0
    0.9613    1.9489   -0.8185 H   0  0  0  0  0
    0.9207    1.8929    0.9450 H   0  0  0  0  0
   -1.3574    0.8628    0.8680 H   0  0  0  0  0
   -1.3195    0.8977   -0.8964 H   0  0  0  0  0
   -1.1155    3.3898   -0.8507 H   0  0  0  0  0
   -1.1349    3.3648    0.9139 H   0  0  0  0  0
   -3.4121    2.3321    0.8829 H   0  0  0  0  0
   -3.3958    2.3343   -0.8820 H   0  0  0  0  0
   -3.1933    4.8261   -0.8862 H   0  0  0  0  0
   -3.1885    4.8351    0.8790 H   0  0  0  0  0
   -5.4669    3.8048    0.8992 H   0  0  0  0  0
   -5.4748    3.7724   -0.8654 H   0  0  0  0  0
   -5.2659    6.2639   -0.9201 H   0  0  0  0  0
   -5.2396    6.3063    0.8442 H   0  0  0  0  0
   -7.5207    5.2833    0.9114 H   0  0  0  0  0
   -7.5498    5.2177   -0.8524 H   0  0  0  0  0
   -7.3368    7.7114   -0.9536 H   0  0  0  0  0
   -7.2957    7.7835    0.8087 H   0  0  0  0  0
   -9.6315    6.7119   -0.8621 H   0  0  0  0  0
   -9.5627    8.2845   -0.0471 H   0  0  0  0  0
   -9.5895    6.7935    0.9109 H   0  0  0  0  0
    2.9934    0.3902    0.9666 H   0  0  0  0  0
    3.0472    0.4611   -0.8058 H   0  0  0  0  0
    2.9782   -1.1062    0.0180 H   0  0  0  0  0
  1 12  1  0  0  0
  1  2  1  0  0  0
  1 13  1  0  0  0
  1 14  1  0  0  0
  2  3  1  0  0  0
  2 15  1  0  0  0
  2 16  1  0  0  0
  3  4  1  0  0  0
  3 17  1  0  0  0
  3 18  1  0  0  0
  4  5  1  0  0  0
  4 19  1  0  0  0
  4 20  1  0  0  0
  5  6  1  0  0  0
  5 21  1  0  0  0
  5 22  1  0  0  0
  6  7  1  0  0  0
  6 23  1  0  0  0
  6 24  1  0  0  0
  7  8  1  0  0  0
  7 25  1  0  0  0
  7 26  1  0  0  0
  8  9  1  0  0  0
  8 27  1  0  0  0
  8 28  1  0  0  0
  9 10  1  0  0  0
  9 29  1  0  0  0
  9 30  1  0  0  0
 10 11  1  0  0  0
 10 31  1  0  0  0
 10 32  1  0  0  0
 11 33  1  0  0  0
 11 34  1  0  0  0
 11 35  1  0  0  0
 12 36  1  0  0  0
 12 37  1  0  0  0
 12 38  1  0  0  0
M  END