151
 OpenBabel11300909393D

  9  8  0  0  0  0  0  0  0  0999 V2000
    1.0167    0.0236    0.0000 O   0  0  0  0  0
    0.5185    1.3543    0.0045 C   0  0  0  0  0
    2.4373   -0.0018   -0.0045 C   0  0  0  0  0
   -0.5742    1.3133    0.0031 H   0  0  0  0  0
    0.8491    1.8905   -0.8902 H   0  0  0  0  0
    0.8473    1.8834    0.9044 H   0  0  0  0  0
    2.7635   -1.0455   -0.0031 H   0  0  0  0  0
    2.8324    0.4889    0.8902 H   0  0  0  0  0
    2.8264    0.4847   -0.9044 H   0  0  0  0  0
  1  3  1  0  0  0
  1  2  1  0  0  0
  2  4  1  0  0  0
  2  5  1  0  0  0
  2  6  1  0  0  0
  3  7  1  0  0  0
  3  8  1  0  0  0
  3  9  1  0  0  0
M  END