152
 OpenBabel11300909393D

 26 25  0  0  0  0  0  0  0  0999 V2000
    3.8139    0.5016    0.6714 O   0  0  0  0  0
    3.7002   -0.3023   -0.2438 C   0  0  0  0  0
    4.5843   -1.3012   -0.5711 O   0  0  0  0  0
    5.6859   -1.3036    0.3066 N   0  0  0  0  0
    6.5797   -2.1225   -0.1475 C   0  0  0  0  0
    7.9233   -2.3292    0.5372 C   0  0  0  0  0
    9.2158   -1.5149   -0.5084 S   0  0  0  0  0
    8.6885    0.2204   -0.4272 C   0  0  0  0  0
    7.9564   -1.8054    1.9744 C   0  0  0  0  0
    8.2241   -3.8339    0.5357 C   0  0  0  0  0
    2.6397   -0.3347   -1.1123 N   0  0  0  0  0
    1.5021    0.5282   -0.9536 C   0  0  0  0  0
    6.4113   -2.6790   -1.0888 H   0  0  0  0  0
    9.3569    0.8147   -1.0568 H   0  0  0  0  0
    8.7601    0.6059    0.5919 H   0  0  0  0  0
    7.6726    0.3458   -0.8079 H   0  0  0  0  0
    7.2399   -2.3522    2.5996 H   0  0  0  0  0
    7.6813   -0.7484    2.0457 H   0  0  0  0  0
    8.9466   -1.9315    2.4272 H   0  0  0  0  0
    7.4716   -4.3790    1.1187 H   0  0  0  0  0
    9.2033   -4.0546    0.9768 H   0  0  0  0  0
    8.2021   -4.2579   -0.4759 H   0  0  0  0  0
    2.6064   -1.1102   -1.7580 H   0  0  0  0  0
    1.8269    1.5414   -0.7023 H   0  0  0  0  0
    0.8748    0.1368   -0.1485 H   0  0  0  0  0
    0.9394    0.5378   -1.8899 H   0  0  0  0  0
  1  2  2  0  0  0
  2 11  1  0  0  0
  2  3  1  0  0  0
  3  4  1  0  0  0
  4  5  2  0  0  0
  5  6  1  0  0  0
  5 13  1  0  0  0
  6 10  1  0  0  0
  6  9  1  0  0  0
  6  7  1  0  0  0
  7  8  1  0  0  0
  8 14  1  0  0  0
  8 15  1  0  0  0
  8 16  1  0  0  0
  9 17  1  0  0  0
  9 18  1  0  0  0
  9 19  1  0  0  0
 10 20  1  0  0  0
 10 21  1  0  0  0
 10 22  1  0  0  0
 11 12  1  0  0  0
 11 23  1  0  0  0
 12 24  1  0  0  0
 12 25  1  0  0  0
 12 26  1  0  0  0
M  END