153
 OpenBabel11300909453D

 12 12  0  0  0  0  0  0  0  0999 V2000
   -0.6932    1.2190   -0.0001 C   0  0  0  0  0
   -1.3972    0.0004    0.0000 C   0  0  0  0  0
   -0.6951   -1.2180    0.0000 C   0  0  0  0  0
    0.7122   -1.2189   -0.0001 C   0  0  0  0  0
    1.4165   -0.0015   -0.0002 C   0  0  0  0  0
    3.1598   -0.0022   -0.0003 Cl  0  0  0  0  0
    1.5829   -2.7295   -0.0000 Cl  0  0  0  0  0
   -1.5675   -2.7274    0.0002 Cl  0  0  0  0  0
   -3.1410    0.0019    0.0002 Cl  0  0  0  0  0
    0.7136    1.2181   -0.0002 C   0  0  0  0  0
    1.5864    2.7271   -0.0003 Cl  0  0  0  0  0
   -1.5639    2.7291   -0.0001 Cl  0  0  0  0  0
  1  2  2  0  0  0
  1 10  1  0  0  0
  1 12  1  0  0  0
  2  3  1  0  0  0
  2  9  1  0  0  0
  3  4  2  0  0  0
  3  8  1  0  0  0
  4  5  1  0  0  0
  4  7  1  0  0  0
  5 10  2  0  0  0
  5  6  1  0  0  0
 10 11  1  0  0  0
M  END