154
 OpenBabel11300909453D

 18 18  0  0  0  0  0  0  0  0999 V2000
    2.5245   -0.9793    0.6065 O   0  0  0  0  0
    2.1863   -0.0384   -0.0868 C   0  0  0  0  0
    1.1630   -0.0670   -0.9668 O   0  0  0  0  0
    2.9049    1.2525   -0.1245 C   0  0  0  0  0
    2.2757    2.4693    0.1985 C   0  0  0  0  0
    3.0204    3.6529    0.0829 C   0  0  0  0  0
    4.3614    3.6181   -0.3088 C   0  0  0  0  0
    4.9804    2.4019   -0.5911 C   0  0  0  0  0
    0.8442    2.5406    0.6508 C   0  0  0  0  0
    4.2542    1.2167   -0.4979 C   0  0  0  0  0
    1.1064    0.7309   -1.5270 H   0  0  0  0  0
    2.5654    4.6150    0.3133 H   0  0  0  0  0
    4.9284    4.5437   -0.3816 H   0  0  0  0  0
    6.0279    2.3774   -0.8816 H   0  0  0  0  0
    0.6461    3.4763    1.1849 H   0  0  0  0  0
    0.6103    1.7256    1.3432 H   0  0  0  0  0
    0.1720    2.4906   -0.2111 H   0  0  0  0  0
    4.7368    0.2659   -0.7166 H   0  0  0  0  0
  1  2  2  0  0  0
  2  4  1  0  0  0
  2  3  1  0  0  0
  3 11  1  0  0  0
  4  5  2  0  0  0
  4 10  1  0  0  0
  5  6  1  0  0  0
  5  9  1  0  0  0
  6  7  2  0  0  0
  6 12  1  0  0  0
  7  8  1  0  0  0
  7 13  1  0  0  0
  8 10  2  0  0  0
  8 14  1  0  0  0
  9 15  1  0  0  0
  9 16  1  0  0  0
  9 17  1  0  0  0
 10 18  1  0  0  0
M  END