155
 OpenBabel11300909403D

 15 15  0  0  0  0  0  0  0  0999 V2000
    2.8034   -1.0924    0.1028 O   0  0  0  0  0
    2.2051   -0.0499   -0.1110 C   0  0  0  0  0
    0.9014   -0.0277   -0.4493 O   0  0  0  0  0
    2.8998    1.2653   -0.1236 C   0  0  0  0  0
    2.3068    2.4957    0.1879 C   0  0  0  0  0
    3.0667    3.6722    0.1429 C   0  0  0  0  0
    4.4177    3.6297   -0.2029 C   0  0  0  0  0
    5.0188    2.4107   -0.5004 C   0  0  0  0  0
    0.6511    2.6589    0.6549 Cl  0  0  0  0  0
    4.2660    1.2359   -0.4577 C   0  0  0  0  0
    0.5115    0.8618   -0.5537 H   0  0  0  0  0
    2.6127    4.6313    0.3842 H   0  0  0  0  0
    5.0023    4.5468   -0.2325 H   0  0  0  0  0
    6.0740    2.3703   -0.7623 H   0  0  0  0  0
    4.7514    0.2874   -0.6884 H   0  0  0  0  0
  1  2  2  0  0  0
  2  4  1  0  0  0
  2  3  1  0  0  0
  3 11  1  0  0  0
  4  5  2  0  0  0
  4 10  1  0  0  0
  5  6  1  0  0  0
  5  9  1  0  0  0
  6  7  2  0  0  0
  6 12  1  0  0  0
  7  8  1  0  0  0
  7 13  1  0  0  0
  8 10  2  0  0  0
  8 14  1  0  0  0
 10 15  1  0  0  0
M  END