156
 OpenBabel11300909403D

 24 25  0  0  0  0  0  0  0  0999 V2000
    2.3680    0.1836    0.6538 O   0  0  0  0  0
    3.3937   -0.0012    0.0029 C   0  0  0  0  0
    3.8022   -1.3925   -0.3183 C   0  0  0  0  0
    5.1481   -1.7788   -0.3384 C   0  0  0  0  0
    5.4892   -3.0971   -0.6476 C   0  0  0  0  0
    4.4904   -4.0324   -0.9196 C   0  0  0  0  0
    3.1477   -3.6567   -0.8727 C   0  0  0  0  0
    2.8024   -2.3400   -0.5665 C   0  0  0  0  0
    4.1912    1.1699   -0.4474 C   0  0  0  0  0
    4.1832    2.3254    0.3434 C   0  0  0  0  0
    4.9123    3.4486   -0.0496 C   0  0  0  0  0
    5.6423    3.4249   -1.2377 C   0  0  0  0  0
    5.6352    2.2845   -2.0405 C   0  0  0  0  0
    4.9035    1.1599   -1.6532 C   0  0  0  0  0
    5.9386   -1.0714   -0.1013 H   0  0  0  0  0
    6.5338   -3.3981   -0.6679 H   0  0  0  0  0
    4.7579   -5.0595   -1.1569 H   0  0  0  0  0
    2.3694   -4.3897   -1.0695 H   0  0  0  0  0
    1.7541   -2.0524   -0.5214 H   0  0  0  0  0
    3.6067    2.3519    1.2661 H   0  0  0  0  0
    4.9052    4.3427    0.5684 H   0  0  0  0  0
    6.2085    4.3018   -1.5437 H   0  0  0  0  0
    6.1913    2.2759   -2.9750 H   0  0  0  0  0
    4.8875    0.2936   -2.3091 H   0  0  0  0  0
  1  2  2  0  0  0
  2  9  1  0  0  0
  2  3  1  0  0  0
  3  4  2  0  0  0
  3  8  1  0  0  0
  4  5  1  0  0  0
  4 15  1  0  0  0
  5  6  2  0  0  0
  5 16  1  0  0  0
  6  7  1  0  0  0
  6 17  1  0  0  0
  7  8  2  0  0  0
  7 18  1  0  0  0
  8 19  1  0  0  0
  9 10  2  0  0  0
  9 14  1  0  0  0
 10 11  1  0  0  0
 10 20  1  0  0  0
 11 12  2  0  0  0
 11 21  1  0  0  0
 12 13  1  0  0  0
 12 22  1  0  0  0
 13 14  2  0  0  0
 13 23  1  0  0  0
 14 24  1  0  0  0
M  END