162
 OpenBabel11300909403D

 20 20  0  0  0  0  0  0  0  0999 V2000
    1.0387   -0.0081    0.1472 N   0  0  0  0  0
    0.3502   -1.2240    0.0416 C   0  0  0  0  0
    1.0040   -2.4684    0.1028 C   0  0  0  0  0
    0.3154   -3.6836   -0.0188 C   0  0  0  0  0
   -1.0581   -3.6910   -0.2194 C   0  0  0  0  0
   -1.7364   -2.4832   -0.3038 C   0  0  0  0  0
   -1.0390   -1.2734   -0.1797 C   0  0  0  0  0
    2.4508   -0.0165    0.5213 C   0  0  0  0  0
    0.2875    1.1821    0.5437 C   0  0  0  0  0
    2.0771   -2.5298    0.2529 H   0  0  0  0  0
    0.8619   -4.6210    0.0409 H   0  0  0  0  0
   -1.5941   -4.6303   -0.3172 H   0  0  0  0  0
   -2.8096   -2.4717   -0.4735 H   0  0  0  0  0
   -1.6204   -0.3619   -0.2754 H   0  0  0  0  0
    2.8688    0.9964    0.5044 H   0  0  0  0  0
    3.0476   -0.5974   -0.1904 H   0  0  0  0  0
    2.5886   -0.4165    1.5318 H   0  0  0  0  0
    0.9484    2.0477    0.6668 H   0  0  0  0  0
   -0.2271    1.0245    1.4981 H   0  0  0  0  0
   -0.4395    1.4664   -0.2242 H   0  0  0  0  0
  1  9  1  0  0  0
  1  8  1  0  0  0
  1  2  1  0  0  0
  2  3  2  0  0  0
  2  7  1  0  0  0
  3  4  1  0  0  0
  3 10  1  0  0  0
  4  5  2  0  0  0
  4 11  1  0  0  0
  5  6  1  0  0  0
  5 12  1  0  0  0
  6  7  2  0  0  0
  6 13  1  0  0  0
  7 14  1  0  0  0
  8 15  1  0  0  0
  8 16  1  0  0  0
  8 17  1  0  0  0
  9 18  1  0  0  0
  9 19  1  0  0  0
  9 20  1  0  0  0
M  END