163
 OpenBabel11300909453D

 38 37  0  0  0  0  0  0  0  0999 V2000
    6.2922   -1.3847    0.7416 C   0  0  0  0  0
    4.8840   -1.1550    0.2280 C   0  0  0  0  0
    4.5323    0.2346    0.2131 O   0  0  0  0  0
    5.0167    0.9926   -0.8081 C   0  0  0  0  0
    5.8308    0.6353   -1.6440 O   0  0  0  0  0
    4.3244    2.3338   -0.8059 C   0  0  0  0  0
    5.3029    3.4874   -0.9912 C   0  0  0  0  0
    4.3885    4.9684   -1.5982 S   0  0  0  0  0
    3.1231    5.6137   -0.0323 P   0  0  0  0  0
    1.7063    4.4324    0.6046 S   0  0  0  0  0
    4.0529    6.0795    1.2131 O   0  0  0  0  0
    4.8018    7.2754    1.1150 C   0  0  0  0  0
    2.5188    7.0562   -0.4843 O   0  0  0  0  0
    1.6892    7.1280   -1.6287 C   0  0  0  0  0
    6.0932    3.8508    0.2673 C   0  0  0  0  0
    6.6772    4.9147    0.4350 O   0  0  0  0  0
    6.1354    2.8092    1.1408 O   0  0  0  0  0
    6.8829    3.0104    2.3498 C   0  0  0  0  0
    8.3563    2.7415    2.1082 C   0  0  0  0  0
    6.4709   -2.4537    0.8920 H   0  0  0  0  0
    6.4560   -0.8598    1.6879 H   0  0  0  0  0
    7.0362   -1.0119    0.0315 H   0  0  0  0  0
    4.1730   -1.6417    0.9045 H   0  0  0  0  0
    4.7366   -1.5930   -0.7651 H   0  0  0  0  0
    3.7800    2.4353    0.1365 H   0  0  0  0  0
    3.5903    2.2850   -1.6194 H   0  0  0  0  0
    6.0439    3.2356   -1.7581 H   0  0  0  0  0
    4.1468    8.1335    1.2888 H   0  0  0  0  0
    5.2786    7.3671    0.1363 H   0  0  0  0  0
    5.5754    7.2674    1.8870 H   0  0  0  0  0
    2.2823    7.4698   -2.4804 H   0  0  0  0  0
    0.8937    7.8528   -1.4378 H   0  0  0  0  0
    1.2342    6.1641   -1.8709 H   0  0  0  0  0
    6.4955    2.2939    3.0816 H   0  0  0  0  0
    6.7138    4.0139    2.7567 H   0  0  0  0  0
    8.4983    1.7686    1.6262 H   0  0  0  0  0
    8.9125    2.7566    3.0497 H   0  0  0  0  0
    8.7872    3.4940    1.4401 H   0  0  0  0  0
  1  2  1  0  0  0
  1 20  1  0  0  0
  1 21  1  0  0  0
  1 22  1  0  0  0
  2  3  1  0  0  0
  2 23  1  0  0  0
  2 24  1  0  0  0
  3  4  1  0  0  0
  4  6  1  0  0  0
  4  5  2  0  0  0
  6  7  1  0  0  0
  6 25  1  0  0  0
  6 26  1  0  0  0
  7 15  1  0  0  0
  7  8  1  0  0  0
  7 27  1  0  0  0
  8  9  1  0  0  0
  9 13  1  0  0  0
  9 11  1  0  0  0
  9 10  2  0  0  0
 11 12  1  0  0  0
 12 28  1  0  0  0
 12 29  1  0  0  0
 12 30  1  0  0  0
 13 14  1  0  0  0
 14 31  1  0  0  0
 14 32  1  0  0  0
 14 33  1  0  0  0
 15 17  1  0  0  0
 15 16  2  0  0  0
 17 18  1  0  0  0
 18 19  1  0  0  0
 18 34  1  0  0  0
 18 35  1  0  0  0
 19 36  1  0  0  0
 19 37  1  0  0  0
 19 38  1  0  0  0
M  END