164
 OpenBabel11300909453D

 25 25  0  0  0  0  0  0  0  0999 V2000
   -1.4883    1.5706    0.5336 N   0  0  0  0  0
   -1.1970    0.9479   -0.5929 C   0  0  0  0  0
   -0.1300    0.1777   -0.7605 N   0  0  0  0  0
    0.6822    0.0323    0.2815 C   0  0  0  0  0
    0.4839    0.5989    1.4556 N   0  0  0  0  0
    1.8415   -0.7190    0.1568 N   0  0  0  0  0
    1.7474   -1.8872   -0.7007 C   0  0  0  0  0
    3.1490   -2.3808   -1.0238 C   0  0  0  0  0
   -2.0221    1.0621   -1.7034 N   0  0  0  0  0
   -2.7165    2.3286   -1.8408 C   0  0  0  0  0
   -3.5081    2.3249   -3.1395 C   0  0  0  0  0
   -0.6112    1.3439    1.4984 C   0  0  0  0  0
   -0.9261    2.1211    2.9891 Cl  0  0  0  0  0
    2.1898   -0.8958    1.0934 H   0  0  0  0  0
    1.2443   -1.6653   -1.6485 H   0  0  0  0  0
    1.1837   -2.6796   -0.1943 H   0  0  0  0  0
    3.7237   -1.6041   -1.5395 H   0  0  0  0  0
    3.1029   -3.2593   -1.6744 H   0  0  0  0  0
    3.6935   -2.6530   -0.1140 H   0  0  0  0  0
   -1.4677    0.7748   -2.5040 H   0  0  0  0  0
   -2.0048    3.1627   -1.8562 H   0  0  0  0  0
   -3.4117    2.4819   -1.0072 H   0  0  0  0  0
   -2.8422    2.2295   -4.0040 H   0  0  0  0  0
   -4.0743    3.2554   -3.2449 H   0  0  0  0  0
   -4.2135    1.4878   -3.1676 H   0  0  0  0  0
  1  2  2  0  0  0
  1 12  1  0  0  0
  2  3  1  0  0  0
  2  9  1  0  0  0
  3  4  2  0  0  0
  4  5  1  0  0  0
  4  6  1  0  0  0
  5 12  2  0  0  0
  6  7  1  0  0  0
  6 14  1  0  0  0
  7  8  1  0  0  0
  7 15  1  0  0  0
  7 16  1  0  0  0
  8 17  1  0  0  0
  8 18  1  0  0  0
  8 19  1  0  0  0
  9 10  1  0  0  0
  9 20  1  0  0  0
 10 11  1  0  0  0
 10 21  1  0  0  0
 10 22  1  0  0  0
 11 23  1  0  0  0
 11 24  1  0  0  0
 11 25  1  0  0  0
 12 13  1  0  0  0
M  END