166
 OpenBabel11300909463D

 10  9  0  0  0  0  0  0  0  0999 V2000
    1.4108   -0.3637    0.8739 O   0  0  0  0  0
    2.2449   -0.0442    0.0326 C   0  0  0  0  0
    2.9919    1.2617    0.0645 C   0  0  0  0  0
    4.4834    1.0214   -0.0580 C   0  0  0  0  0
    2.4466   -0.6931   -0.8370 H   0  0  0  0  0
    2.7656    1.7813    1.0014 H   0  0  0  0  0
    2.6353    1.8771   -0.7681 H   0  0  0  0  0
    4.8476    0.3964    0.7639 H   0  0  0  0  0
    5.0267    1.9707   -0.0358 H   0  0  0  0  0
    4.7241    0.5101   -0.9958 H   0  0  0  0  0
  1  2  2  0  0  0
  2  3  1  0  0  0
  2  5  1  0  0  0
  3  4  1  0  0  0
  3  6  1  0  0  0
  3  7  1  0  0  0
  4  8  1  0  0  0
  4  9  1  0  0  0
  4 10  1  0  0  0
M  END