167
 OpenBabel11300909403D

 13 12  0  0  0  0  0  0  0  0999 V2000
    1.9996    0.2946    0.5053 O   0  0  0  0  0
    2.1089    1.4995    0.3001 C   0  0  0  0  0
    3.4152    2.2139    0.0450 C   0  0  0  0  0
    4.6119    1.2711    0.0643 C   0  0  0  0  0
    5.9117    2.0151   -0.1950 C   0  0  0  0  0
    1.2159    2.1478    0.2923 H   0  0  0  0  0
    3.5229    2.9860    0.8142 H   0  0  0  0  0
    3.3338    2.7099   -0.9280 H   0  0  0  0  0
    4.4850    0.4889   -0.6941 H   0  0  0  0  0
    4.6730    0.7630    1.0344 H   0  0  0  0  0
    5.8955    2.5028   -1.1748 H   0  0  0  0  0
    6.7569    1.3202   -0.1754 H   0  0  0  0  0
    6.0839    2.7811    0.5677 H   0  0  0  0  0
  1  2  2  0  0  0
  2  3  1  0  0  0
  2  6  1  0  0  0
  3  4  1  0  0  0
  3  7  1  0  0  0
  3  8  1  0  0  0
  4  5  1  0  0  0
  4  9  1  0  0  0
  4 10  1  0  0  0
  5 11  1  0  0  0
  5 12  1  0  0  0
  5 13  1  0  0  0
M  END