168
 OpenBabel11300909403D

 20 19  0  0  0  0  0  0  0  0999 V2000
    2.8538   -1.9868   -2.2740 O   0  0  0  0  0
    2.3064   -1.7468   -1.2074 C   0  0  0  0  0
    2.9355   -1.4045   -0.0498 O   0  0  0  0  0
    4.3659   -1.2993   -0.1245 C   0  0  0  0  0
    5.0098   -2.6635    0.1040 C   0  0  0  0  0
    6.5335   -2.5700    0.0916 C   0  0  0  0  0
    7.1793   -3.9297    0.3042 C   0  0  0  0  0
    0.8239   -1.7711   -0.9942 C   0  0  0  0  0
    4.6718   -0.6038    0.6647 H   0  0  0  0  0
    4.6775   -0.8563   -1.0781 H   0  0  0  0  0
    4.6700   -3.3679   -0.6646 H   0  0  0  0  0
    4.6618   -3.0730    1.0605 H   0  0  0  0  0
    6.8703   -1.8850    0.8786 H   0  0  0  0  0
    6.8734   -2.1567   -0.8652 H   0  0  0  0  0
    6.8798   -4.3609    1.2646 H   0  0  0  0  0
    8.2698   -3.8357    0.2992 H   0  0  0  0  0
    6.8950   -4.6271   -0.4901 H   0  0  0  0  0
    0.3335   -2.1402   -1.8998 H   0  0  0  0  0
    0.4645   -0.7604   -0.7858 H   0  0  0  0  0
    0.5763   -2.4452   -0.1703 H   0  0  0  0  0
  1  2  2  0  0  0
  2  8  1  0  0  0
  2  3  1  0  0  0
  3  4  1  0  0  0
  4  5  1  0  0  0
  4  9  1  0  0  0
  4 10  1  0  0  0
  5  6  1  0  0  0
  5 11  1  0  0  0
  5 12  1  0  0  0
  6  7  1  0  0  0
  6 13  1  0  0  0
  6 14  1  0  0  0
  7 15  1  0  0  0
  7 16  1  0  0  0
  7 17  1  0  0  0
  8 18  1  0  0  0
  8 19  1  0  0  0
  8 20  1  0  0  0
M  END