171
 OpenBabel11300909403D

 10  9  0  0  0  0  0  0  0  0999 V2000
    1.0107    0.0134   -0.0129 N   0  0  0  0  0
    0.5017    1.3776   -0.0003 C   0  0  0  0  0
    2.4665    0.0006    0.0100 C   0  0  0  0  0
    0.6578   -0.4839    0.8039 H   0  0  0  0  0
    0.8406    1.9356   -0.8797 H   0  0  0  0  0
    0.8094    1.9132    0.9041 H   0  0  0  0  0
   -0.5927    1.3593   -0.0244 H   0  0  0  0  0
    2.8813    0.5032   -0.8703 H   0  0  0  0  0
    2.8228   -1.0344   -0.0043 H   0  0  0  0  0
    2.8588    0.4791    0.9136 H   0  0  0  0  0
  1  3  1  0  0  0
  1  2  1  0  0  0
  1  4  1  0  0  0
  2  5  1  0  0  0
  2  6  1  0  0  0
  2  7  1  0  0  0
  3  8  1  0  0  0
  3  9  1  0  0  0
  3 10  1  0  0  0
M  END