172
 OpenBabel11300909403D

 10  9  0  0  0  0  0  0  0  0999 V2000
    0.9389    0.1278    0.2211 C   0  0  0  0  0
    0.2315   -1.1373    0.2838 C   0  0  0  0  0
    0.7017   -2.3021    0.7508 C   0  0  0  0  0
    0.3639    1.2341   -0.2693 C   0  0  0  0  0
    2.5727    0.2383    0.7892 Cl  0  0  0  0  0
   -0.7908   -1.1276   -0.0918 H   0  0  0  0  0
    1.7059   -2.4161    1.1462 H   0  0  0  0  0
    0.0745   -3.1880    0.7466 H   0  0  0  0  0
    0.9010    2.1765   -0.3123 H   0  0  0  0  0
   -0.6553    1.2348   -0.6414 H   0  0  0  0  0
  1  5  1  0  0  0
  1  4  2  0  0  0
  1  2  1  0  0  0
  2  3  2  0  0  0
  2  6  1  0  0  0
  3  7  1  0  0  0
  3  8  1  0  0  0
  4  9  1  0  0  0
  4 10  1  0  0  0
M  END