173
 OpenBabel11300909463D

 26 29  0  0  0  0  0  0  0  0999 V2000
   -0.7085    0.0082   -0.0000 C   0  0  0  0  0
    0.7086    0.0083    0.0001 C   0  0  0  0  0
    1.4156   -1.2170    0.0002 C   0  0  0  0  0
    0.6987   -2.4209    0.0001 C   0  0  0  0  0
   -0.6987   -2.4208   -0.0000 C   0  0  0  0  0
    2.8181   -1.2000    0.0004 C   0  0  0  0  0
    3.5143    0.0083    0.0005 C   0  0  0  0  0
    2.8181    1.2165    0.0004 C   0  0  0  0  0
    1.4156    1.2330    0.0002 C   0  0  0  0  0
    0.6987    2.4375    0.0001 C   0  0  0  0  0
   -0.6985    2.4373   -0.0001 C   0  0  0  0  0
   -1.4154   -1.2165   -0.0001 C   0  0  0  0  0
   -2.8179   -1.1997   -0.0001 C   0  0  0  0  0
   -3.5142    0.0084   -0.0003 C   0  0  0  0  0
   -2.8179    1.2166   -0.0003 C   0  0  0  0  0
   -1.4153    1.2332   -0.0002 C   0  0  0  0  0
    1.2234   -3.3737    0.0002 H   0  0  0  0  0
   -1.2235   -3.3736   -0.0001 H   0  0  0  0  0
    3.3799   -2.1313    0.0005 H   0  0  0  0  0
    4.6013    0.0082    0.0006 H   0  0  0  0  0
    3.3800    2.1478    0.0005 H   0  0  0  0  0
    1.2235    3.3902    0.0002 H   0  0  0  0  0
   -1.2232    3.3902   -0.0002 H   0  0  0  0  0
   -3.3800   -2.1311   -0.0003 H   0  0  0  0  0
   -4.6012    0.0086   -0.0003 H   0  0  0  0  0
   -3.3797    2.1481   -0.0003 H   0  0  0  0  0
  1 12  1  0  0  0
  1 16  1  0  0  0
  1  2  2  0  0  0
  2  3  1  0  0  0
  2  9  1  0  0  0
  3  6  1  0  0  0
  3  4  2  0  0  0
  4  5  1  0  0  0
  4 17  1  0  0  0
  5 12  2  0  0  0
  5 18  1  0  0  0
  6  7  2  0  0  0
  6 19  1  0  0  0
  7  8  1  0  0  0
  7 20  1  0  0  0
  8  9  2  0  0  0
  8 21  1  0  0  0
  9 10  1  0  0  0
 10 11  2  0  0  0
 10 22  1  0  0  0
 11 16  1  0  0  0
 11 23  1  0  0  0
 12 13  1  0  0  0
 13 14  2  0  0  0
 13 24  1  0  0  0
 14 15  1  0  0  0
 14 25  1  0  0  0
 15 16  2  0  0  0
 15 26  1  0  0  0
M  END