174
 OpenBabel11300909403D

 24 24  0  0  0  0  0  0  0  0999 V2000
    2.8520   -0.7708    0.4653 O   0  0  0  0  0
    2.3095    0.2256    0.0170 C   0  0  0  0  0
    1.0861    0.2914   -0.5610 O   0  0  0  0  0
    0.3097   -0.8977   -0.4164 C   0  0  0  0  0
    2.9730    1.5429   -0.0806 C   0  0  0  0  0
    2.3111    2.7526    0.1650 C   0  0  0  0  0
    2.9941    3.9694    0.0117 C   0  0  0  0  0
    4.3363    3.9747   -0.3738 C   0  0  0  0  0
    5.0030    2.7709   -0.5973 C   0  0  0  0  0
    0.9223    2.7703    0.6660 C   0  0  0  0  0
    0.5191    2.0887    1.5896 O   0  0  0  0  0
    0.1974    3.6299   -0.0946 O   0  0  0  0  0
   -1.1935    3.6435    0.2236 C   0  0  0  0  0
    4.3268    1.5572   -0.4491 C   0  0  0  0  0
    0.6960   -1.6810   -1.0742 H   0  0  0  0  0
   -0.7175   -0.6662   -0.7107 H   0  0  0  0  0
    0.2976   -1.2349    0.6252 H   0  0  0  0  0
    2.4894    4.9128    0.2089 H   0  0  0  0  0
    4.8648    4.9182   -0.4873 H   0  0  0  0  0
    6.0518    2.7754   -0.8867 H   0  0  0  0  0
   -1.3538    3.8246    1.2898 H   0  0  0  0  0
   -1.6540    2.6996   -0.0829 H   0  0  0  0  0
   -1.6610    4.4563   -0.3386 H   0  0  0  0  0
    4.8552    0.6219   -0.6272 H   0  0  0  0  0
  1  2  2  0  0  0
  2  5  1  0  0  0
  2  3  1  0  0  0
  3  4  1  0  0  0
  4 15  1  0  0  0
  4 16  1  0  0  0
  4 17  1  0  0  0
  5  6  2  0  0  0
  5 14  1  0  0  0
  6  7  1  0  0  0
  6 10  1  0  0  0
  7  8  2  0  0  0
  7 18  1  0  0  0
  8  9  1  0  0  0
  8 19  1  0  0  0
  9 14  2  0  0  0
  9 20  1  0  0  0
 10 12  1  0  0  0
 10 11  2  0  0  0
 12 13  1  0  0  0
 13 21  1  0  0  0
 13 22  1  0  0  0
 13 23  1  0  0  0
 14 24  1  0  0  0
M  END