175
 OpenBabel11300909463D

 21 23  0  0  0  0  0  0  0  0999 V2000
   -0.0058   -1.6119   -0.0001 O   0  0  0  0  0
   -1.0977   -0.7986    0.0000 C   0  0  0  0  0
   -0.7127    0.5382    0.0002 C   0  0  0  0  0
    0.7130    0.5342   -0.0002 C   0  0  0  0  0
    1.7240    1.5141   -0.0001 C   0  0  0  0  0
    3.0645    1.1022   -0.0003 C   0  0  0  0  0
    3.4010   -0.2539   -0.0002 C   0  0  0  0  0
    2.4128   -1.2436   -0.0002 C   0  0  0  0  0
   -1.7178    1.5238    0.0006 C   0  0  0  0  0
   -3.0609    1.1197    0.0006 C   0  0  0  0  0
   -3.4049   -0.2346    0.0002 C   0  0  0  0  0
   -2.4226   -1.2298   -0.0001 C   0  0  0  0  0
    1.0903   -0.8046    0.0001 C   0  0  0  0  0
    1.4739    2.5706   -0.0002 H   0  0  0  0  0
    3.8539    1.8513   -0.0003 H   0  0  0  0  0
    4.4487   -0.5470   -0.0002 H   0  0  0  0  0
    2.6552   -2.2995   -0.0001 H   0  0  0  0  0
   -1.4620    2.5790    0.0009 H   0  0  0  0  0
   -3.8461    1.8733    0.0009 H   0  0  0  0  0
   -4.4544   -0.5217    0.0001 H   0  0  0  0  0
   -2.6711   -2.2843   -0.0003 H   0  0  0  0  0
  1 13  1  0  0  0
  1  2  1  0  0  0
  2 12  1  0  0  0
  2  3  2  0  0  0
  3  4  1  0  0  0
  3  9  1  0  0  0
  4  5  2  0  0  0
  4 13  1  0  0  0
  5  6  1  0  0  0
  5 14  1  0  0  0
  6  7  2  0  0  0
  6 15  1  0  0  0
  7  8  1  0  0  0
  7 16  1  0  0  0
  8 13  2  0  0  0
  8 17  1  0  0  0
  9 10  2  0  0  0
  9 18  1  0  0  0
 10 11  1  0  0  0
 10 19  1  0  0  0
 11 12  2  0  0  0
 11 20  1  0  0  0
 12 21  1  0  0  0
M  END