176
 OpenBabel11300909463D

 20 21  0  0  0  0  0  0  0  0999 V2000
   -0.0159    0.6732    0.0138 C   0  0  0  0  0
   -0.0007   -0.7455   -0.0245 C   0  0  0  0  0
    1.2537   -1.4202   -0.0122 C   0  0  0  0  0
    1.3534   -2.8214   -0.1659 N   0  0  0  0  0
    2.4390   -0.6731   -0.0683 C   0  0  0  0  0
    2.4124    0.7177   -0.0231 C   0  0  0  0  0
   -1.2500   -1.4087   -0.0686 C   0  0  0  0  0
   -2.4582   -0.7059   -0.0611 C   0  0  0  0  0
   -2.4515    0.6817   -0.0155 C   0  0  0  0  0
   -1.2383    1.3658    0.0206 C   0  0  0  0  0
    1.1927    1.3843    0.0281 C   0  0  0  0  0
    2.2475   -3.1927    0.1407 H   0  0  0  0  0
    0.5808   -3.3253    0.2545 H   0  0  0  0  0
    3.3991   -1.1762   -0.1396 H   0  0  0  0  0
    3.3413    1.2808   -0.0420 H   0  0  0  0  0
   -1.2985   -2.4932   -0.1197 H   0  0  0  0  0
   -3.4005   -1.2466   -0.0961 H   0  0  0  0  0
   -3.3877    1.2324   -0.0159 H   0  0  0  0  0
   -1.2534    2.4527    0.0447 H   0  0  0  0  0
    1.1913    2.4725    0.0558 H   0  0  0  0  0
  1 11  1  0  0  0
  1 10  1  0  0  0
  1  2  2  0  0  0
  2  7  1  0  0  0
  2  3  1  0  0  0
  3  5  2  0  0  0
  3  4  1  0  0  0
  4 12  1  0  0  0
  4 13  1  0  0  0
  5  6  1  0  0  0
  5 14  1  0  0  0
  6 11  2  0  0  0
  6 15  1  0  0  0
  7  8  2  0  0  0
  7 16  1  0  0  0
  8  9  1  0  0  0
  8 17  1  0  0  0
  9 10  2  0  0  0
  9 18  1  0  0  0
 10 19  1  0  0  0
 11 20  1  0  0  0
M  END