177
 OpenBabel11300909463D

 24 23  0  0  0  0  0  0  0  0999 V2000
   -5.5647    0.1225    2.8951 N   0  0  0  0  0
   -4.6469    1.1363    3.2107 C   0  0  0  0  0
   -4.8144    2.2088    4.5028 S   0  0  0  0  0
   -3.2333    1.2366    2.1424 S   0  0  0  0  0
   -3.5050    3.0552    1.2018 S   0  0  0  0  0
   -4.9679    2.7984    0.2235 C   0  0  0  0  0
   -6.0709    3.6157    0.5447 N   0  0  0  0  0
   -6.0323    4.7084    1.5210 C   0  0  0  0  0
   -7.3955    3.4206   -0.0469 C   0  0  0  0  0
   -4.9389    1.6710   -1.0330 S   0  0  0  0  0
   -6.9262    0.1271    3.4238 C   0  0  0  0  0
   -5.1947   -1.1231    2.2222 C   0  0  0  0  0
   -5.0273    5.0767    1.7259 H   0  0  0  0  0
   -6.4921    4.3581    2.4494 H   0  0  0  0  0
   -6.6123    5.5520    1.1329 H   0  0  0  0  0
   -7.6407    4.3032   -0.6442 H   0  0  0  0  0
   -8.1258    3.3216    0.7635 H   0  0  0  0  0
   -7.4728    2.5357   -0.6776 H   0  0  0  0  0
   -7.6007   -0.3099    2.6806 H   0  0  0  0  0
   -7.2761    1.1397    3.6362 H   0  0  0  0  0
   -6.9536   -0.4747    4.3381 H   0  0  0  0  0
   -5.8132   -1.2398    1.3262 H   0  0  0  0  0
   -5.3977   -1.9547    2.9086 H   0  0  0  0  0
   -4.1426   -1.1846    1.9453 H   0  0  0  0  0
  1 12  1  0  0  0
  1 11  1  0  0  0
  1  2  1  0  0  0
  2  4  1  0  0  0
  2  3  2  0  0  0
  4  5  1  0  0  0
  5  6  1  0  0  0
  6 10  2  0  0  0
  6  7  1  0  0  0
  7  9  1  0  0  0
  7  8  1  0  0  0
  8 13  1  0  0  0
  8 14  1  0  0  0
  8 15  1  0  0  0
  9 16  1  0  0  0
  9 17  1  0  0  0
  9 18  1  0  0  0
 11 19  1  0  0  0
 11 20  1  0  0  0
 11 21  1  0  0  0
 12 22  1  0  0  0
 12 23  1  0  0  0
 12 24  1  0  0  0
M  END