178
 OpenBabel11300909463D

 11 10  0  0  0  0  0  0  0  0999 V2000
    1.0093   -0.0134    0.0204 O   0  0  0  0  0
    2.4324   -0.0340   -0.0070 C   0  0  0  0  0
    2.9657    1.4001   -0.0198 C   0  0  0  0  0
    4.4266    1.4456    0.0199 N   0  0  0  0  0
    0.7156   -0.9393   -0.0277 H   0  0  0  0  0
    2.7569   -0.5753   -0.9018 H   0  0  0  0  0
    2.7837   -0.5720    0.8795 H   0  0  0  0  0
    2.5553    1.9567    0.8310 H   0  0  0  0  0
    2.6087    1.9112   -0.9213 H   0  0  0  0  0
    4.7514    1.0783    0.9138 H   0  0  0  0  0
    4.7253    2.4204   -0.0062 H   0  0  0  0  0
  1  2  1  0  0  0
  1  5  1  0  0  0
  2  3  1  0  0  0
  2  6  1  0  0  0
  2  7  1  0  0  0
  3  4  1  0  0  0
  3  8  1  0  0  0
  3  9  1  0  0  0
  4 10  1  0  0  0
  4 11  1  0  0  0
M  END