179
 OpenBabel11300909463D

 14 13  0  0  0  0  0  0  0  0999 V2000
    2.5104    1.2099    0.0840 O   0  0  0  0  0
    2.2670    0.1475   -0.4725 C   0  0  0  0  0
    3.0856   -0.9391   -0.5046 O   0  0  0  0  0
    4.3403   -0.7953    0.1776 C   0  0  0  0  0
    4.1813   -1.1404    1.6465 C   0  0  0  0  0
    1.0059   -0.1413   -1.2269 C   0  0  0  0  0
    4.7533    0.2114    0.0438 H   0  0  0  0  0
    5.0406   -1.4946   -0.2909 H   0  0  0  0  0
    3.4882   -0.4516    2.1391 H   0  0  0  0  0
    5.1446   -1.0942    2.1619 H   0  0  0  0  0
    3.7663   -2.1469    1.7620 H   0  0  0  0  0
    0.3402    0.7245   -1.1656 H   0  0  0  0  0
    0.4972   -1.0013   -0.7840 H   0  0  0  0  0
    1.2382   -0.3301   -2.2780 H   0  0  0  0  0
  1  2  2  0  0  0
  2  6  1  0  0  0
  2  3  1  0  0  0
  3  4  1  0  0  0
  4  5  1  0  0  0
  4  7  1  0  0  0
  4  8  1  0  0  0
  5  9  1  0  0  0
  5 10  1  0  0  0
  5 11  1  0  0  0
  6 12  1  0  0  0
  6 13  1  0  0  0
  6 14  1  0  0  0
M  END