180
 OpenBabel11300909403D

 13 13  0  0  0  0  0  0  0  0999 V2000
    0.9942   -0.6690   -0.0522 C   0  0  0  0  0
    0.9944    0.6676   -0.0453 C   0  0  0  0  0
   -0.3824    1.2204    0.1167 C   0  0  0  0  0
   -1.2681    0.0002   -0.1299 C   0  0  0  0  0
   -0.3826   -1.2234    0.1043 C   0  0  0  0  0
    1.8805   -1.2841   -0.1286 H   0  0  0  0  0
    1.8808    1.2833   -0.1153 H   0  0  0  0  0
   -0.5156    1.6171    1.1293 H   0  0  0  0  0
   -0.5921    2.0136   -0.6061 H   0  0  0  0  0
   -1.6223    0.0054   -1.1695 H   0  0  0  0  0
   -2.1551   -0.0033    0.5118 H   0  0  0  0  0
   -0.5925   -2.0088   -0.6269 H   0  0  0  0  0
   -0.5159   -1.6302    1.1123 H   0  0  0  0  0
  1  2  2  0  0  0
  1  5  1  0  0  0
  1  6  1  0  0  0
  2  3  1  0  0  0
  2  7  1  0  0  0
  3  4  1  0  0  0
  3  8  1  0  0  0
  3  9  1  0  0  0
  4  5  1  0  0  0
  4 10  1  0  0  0
  4 11  1  0  0  0
  5 12  1  0  0  0
  5 13  1  0  0  0
M  END