181
 OpenBabel11300909403D

 20 19  0  0  0  0  0  0  0  0999 V2000
    2.6372   -1.1052   -0.1023 O   0  0  0  0  0
    2.1565    0.0160   -0.1077 C   0  0  0  0  0
    0.8222    0.2307   -0.1718 O   0  0  0  0  0
    2.9401    1.3072   -0.0428 C   0  0  0  0  0
    4.4471    1.0596   -0.0028 C   0  0  0  0  0
    5.2269    2.3739    0.0489 C   0  0  0  0  0
    6.7344    2.1241    0.0908 C   0  0  0  0  0
    7.5144    3.4281    0.1384 C   0  0  0  0  0
    0.5749    1.1742   -0.1669 H   0  0  0  0  0
    2.6302    1.8502    0.8568 H   0  0  0  0  0
    2.6885    1.9045   -0.9268 H   0  0  0  0  0
    4.7502    0.4845   -0.8869 H   0  0  0  0  0
    4.6969    0.4463    0.8723 H   0  0  0  0  0
    4.9246    2.9461    0.9341 H   0  0  0  0  0
    4.9798    2.9821   -0.8294 H   0  0  0  0  0
    7.0422    1.5531   -0.7931 H   0  0  0  0  0
    6.9877    1.5212    0.9709 H   0  0  0  0  0
    7.3073    4.0415   -0.7443 H   0  0  0  0  0
    8.5895    3.2258    0.1667 H   0  0  0  0  0
    7.2542    4.0086    1.0293 H   0  0  0  0  0
  1  2  2  0  0  0
  2  4  1  0  0  0
  2  3  1  0  0  0
  3  9  1  0  0  0
  4  5  1  0  0  0
  4 10  1  0  0  0
  4 11  1  0  0  0
  5  6  1  0  0  0
  5 12  1  0  0  0
  5 13  1  0  0  0
  6  7  1  0  0  0
  6 14  1  0  0  0
  6 15  1  0  0  0
  7  8  1  0  0  0
  7 16  1  0  0  0
  7 17  1  0  0  0
  8 18  1  0  0  0
  8 19  1  0  0  0
  8 20  1  0  0  0
M  END