182
 OpenBabel11300909403D

 32 36  0  0  0  0  0  0  0  0999 V2000
    0.6695    2.8534   -0.0265 C   0  0  0  0  0
    1.1286    4.2073   -0.0181 C   0  0  0  0  0
    2.4902    4.4951    0.0937 C   0  0  0  0  0
    3.4137    3.4690    0.1909 C   0  0  0  0  0
    2.9788    2.1458    0.1633 C   0  0  0  0  0
    0.2239    5.2654   -0.1218 C   0  0  0  0  0
   -1.1326    5.0143   -0.2302 C   0  0  0  0  0
   -1.5927    3.6993   -0.2196 C   0  0  0  0  0
    1.6093    1.7917    0.0496 C   0  0  0  0  0
    1.1495    0.4357    0.0132 C   0  0  0  0  0
   -0.2433    0.1655   -0.0347 C   0  0  0  0  0
   -0.7029   -1.1880   -0.0349 C   0  0  0  0  0
    0.2064   -2.2481   -0.0171 C   0  0  0  0  0
    1.5674   -1.9975    0.0044 C   0  0  0  0  0
   -2.0695   -1.4748   -0.0518 C   0  0  0  0  0
   -2.9963   -0.4478   -0.0764 C   0  0  0  0  0
   -2.5588    0.8749   -0.0974 C   0  0  0  0  0
   -1.1841    1.2277   -0.0830 C   0  0  0  0  0
    2.0257   -0.6821    0.0241 C   0  0  0  0  0
   -0.7217    2.5840   -0.1107 C   0  0  0  0  0
    2.8438    5.5236    0.1110 H   0  0  0  0  0
    4.4727    3.6933    0.2871 H   0  0  0  0  0
    3.7505    1.3864    0.2462 H   0  0  0  0  0
    0.5690    6.2968   -0.1238 H   0  0  0  0  0
   -1.8360    5.8375   -0.3210 H   0  0  0  0  0
   -2.6669    3.5670   -0.3103 H   0  0  0  0  0
   -0.1382   -3.2791   -0.0253 H   0  0  0  0  0
    2.2752   -2.8222    0.0072 H   0  0  0  0  0
   -2.4240   -2.5027   -0.0411 H   0  0  0  0  0
   -4.0598   -0.6705   -0.0802 H   0  0  0  0  0
   -3.3340    1.6355   -0.1131 H   0  0  0  0  0
    3.1038   -0.5510    0.0376 H   0  0  0  0  0
  1  9  1  0  0  0
  1 20  1  0  0  0
  1  2  2  0  0  0
  2  6  1  0  0  0
  2  3  1  0  0  0
  3  4  2  0  0  0
  3 21  1  0  0  0
  4  5  1  0  0  0
  4 22  1  0  0  0
  5  9  2  0  0  0
  5 23  1  0  0  0
  6  7  2  0  0  0
  6 24  1  0  0  0
  7  8  1  0  0  0
  7 25  1  0  0  0
  8 20  2  0  0  0
  8 26  1  0  0  0
  9 10  1  0  0  0
 10 19  1  0  0  0
 10 11  2  0  0  0
 11 12  1  0  0  0
 11 18  1  0  0  0
 12 13  2  0  0  0
 12 15  1  0  0  0
 13 14  1  0  0  0
 13 27  1  0  0  0
 14 19  2  0  0  0
 14 28  1  0  0  0
 15 16  2  0  0  0
 15 29  1  0  0  0
 16 17  1  0  0  0
 16 30  1  0  0  0
 17 18  2  0  0  0
 17 31  1  0  0  0
 18 20  1  0  0  0
 19 32  1  0  0  0
M  END