183
 OpenBabel11300909463D

 26 29  0  0  0  0  0  0  0  0999 V2000
   -0.9110    0.0069   -0.0009 C   0  0  0  0  0
   -2.2800    0.0185   -0.0015 C   0  0  0  0  0
   -2.8915    1.2841   -0.0016 C   0  0  0  0  0
   -2.1040    2.4541   -0.0012 C   0  0  0  0  0
   -0.6961    2.4102   -0.0006 C   0  0  0  0  0
   -2.9129   -1.2370   -0.0018 C   0  0  0  0  0
   -2.1448   -2.4197   -0.0015 C   0  0  0  0  0
   -0.7368   -2.3999   -0.0010 C   0  0  0  0  0
   -0.1081    1.1502   -0.0005 C   0  0  0  0  0
    1.3152    0.6968    0.0000 C   0  0  0  0  0
    1.3010   -0.7162   -0.0001 C   0  0  0  0  0
    2.4562   -1.4604    0.0002 C   0  0  0  0  0
    3.6587   -0.7438    0.0007 C   0  0  0  0  0
    3.6738    0.6718    0.0008 C   0  0  0  0  0
    2.4865    1.4143    0.0004 C   0  0  0  0  0
   -0.1279   -1.1497   -0.0007 C   0  0  0  0  0
   -3.9752    1.3688   -0.0021 H   0  0  0  0  0
   -2.5993    3.4230   -0.0013 H   0  0  0  0  0
   -0.0968    3.3128   -0.0003 H   0  0  0  0  0
   -3.9978   -1.3033   -0.0023 H   0  0  0  0  0
   -2.6566   -3.3805   -0.0018 H   0  0  0  0  0
   -0.1525   -3.3121   -0.0008 H   0  0  0  0  0
    2.4455   -2.5427    0.0001 H   0  0  0  0  0
    4.6036   -1.2840    0.0009 H   0  0  0  0  0
    4.6297    1.1918    0.0011 H   0  0  0  0  0
    2.4995    2.4968    0.0005 H   0  0  0  0  0
  1 16  1  0  0  0
  1  2  2  0  0  0
  1  9  1  0  0  0
  2  6  1  0  0  0
  2  3  1  0  0  0
  3  4  2  0  0  0
  3 17  1  0  0  0
  4  5  1  0  0  0
  4 18  1  0  0  0
  5  9  2  0  0  0
  5 19  1  0  0  0
  6  7  2  0  0  0
  6 20  1  0  0  0
  7  8  1  0  0  0
  7 21  1  0  0  0
  8 16  2  0  0  0
  8 22  1  0  0  0
  9 10  1  0  0  0
 10 15  1  0  0  0
 10 11  2  0  0  0
 11 12  1  0  0  0
 11 16  1  0  0  0
 12 13  2  0  0  0
 12 23  1  0  0  0
 13 14  1  0  0  0
 13 24  1  0  0  0
 14 15  2  0  0  0
 14 25  1  0  0  0
 15 26  1  0  0  0
M  END