184
 OpenBabel11300909403D

 32 36  0  0  0  0  0  0  0  0999 V2000
    1.4457    0.4344   -0.3175 C   0  0  0  0  0
    2.7924    0.4699   -0.7561 C   0  0  0  0  0
    3.8005    0.8920    0.1170 C   0  0  0  0  0
    3.4965    1.1982    1.4379 C   0  0  0  0  0
    2.2030    0.9833    1.9132 C   0  0  0  0  0
    3.0972    0.0231   -2.0523 C   0  0  0  0  0
    2.0872   -0.3866   -2.9159 C   0  0  0  0  0
    0.7559   -0.2282   -2.5433 C   0  0  0  0  0
    1.1553    0.5620    1.0561 C   0  0  0  0  0
   -0.1474    0.1645    1.4812 C   0  0  0  0  0
   -1.1977    0.1052    0.5306 C   0  0  0  0  0
   -2.5157   -0.2269    0.9140 C   0  0  0  0  0
   -2.7373   -0.7284    2.2005 C   0  0  0  0  0
   -1.6985   -0.7730    3.1254 C   0  0  0  0  0
   -3.5719   -0.0845   -0.0000 C   0  0  0  0  0
   -3.3280    0.3691   -1.2920 C   0  0  0  0  0
   -2.0145    0.5214   -1.7166 C   0  0  0  0  0
   -0.9326    0.3078   -0.8333 C   0  0  0  0  0
   -0.4418   -0.2639    2.7932 C   0  0  0  0  0
    0.4149    0.2050   -1.2488 C   0  0  0  0  0
    4.8276    0.9905   -0.2250 H   0  0  0  0  0
    4.2738    1.5616    2.1054 H   0  0  0  0  0
    2.0073    1.1751    2.9646 H   0  0  0  0  0
    4.1303   -0.0722   -2.3752 H   0  0  0  0  0
    2.3294   -0.8420   -3.8747 H   0  0  0  0  0
   -0.0153   -0.5661   -3.2274 H   0  0  0  0  0
   -3.7131   -1.1197    2.4781 H   0  0  0  0  0
   -1.8640   -1.2147    4.1048 H   0  0  0  0  0
   -4.5953   -0.2956    0.2995 H   0  0  0  0  0
   -4.1501    0.5616   -1.9764 H   0  0  0  0  0
   -1.8280    0.8382   -2.7411 H   0  0  0  0  0
    0.3424   -0.3099    3.5449 H   0  0  0  0  0
  1  2  2  0  0  0
  1 10  1  0  0  0
  1 21  1  0  0  0
  2  3  1  0  0  0
  2 22  1  0  0  0
  3  4  2  0  0  0
  3 23  1  0  0  0
  4  5  1  0  0  0
  4  9  1  0  0  0
  5  6  2  0  0  0
  5 24  1  0  0  0
  6  7  1  0  0  0
  6 19  1  0  0  0
  7  8  2  0  0  0
  7 11  1  0  0  0
  8  9  1  0  0  0
  8 25  1  0  0  0
  9 10  2  0  0  0
 10 26  1  0  0  0
 11 12  2  0  0  0
 11 20  1  0  0  0
 12 13  1  0  0  0
 12 27  1  0  0  0
 13 14  2  0  0  0
 13 28  1  0  0  0
 14 15  1  0  0  0
 14 29  1  0  0  0
 15 16  2  0  0  0
 15 20  1  0  0  0
 16 17  1  0  0  0
 16 30  1  0  0  0
 17 18  2  0  0  0
 17 31  1  0  0  0
 18 19  1  0  0  0
 18 32  1  0  0  0
 19 20  2  0  0  0
M  END