186
 OpenBabel11300909463D

 15 15  0  0  0  0  0  0  0  0999 V2000
   -0.7804   -0.9886   -0.1895 C   0  0  0  0  0
    0.7210   -1.0586    0.0687 C   0  0  0  0  0
    1.2200    0.3863    0.0668 C   0  0  0  0  0
   -0.0032    1.2547   -0.2037 C   0  0  0  0  0
   -1.1739    0.4065    0.2633 C   0  0  0  0  0
   -1.3299   -1.7714    0.3419 H   0  0  0  0  0
   -0.9785   -1.1053   -1.2616 H   0  0  0  0  0
    1.2270   -1.6662   -0.6885 H   0  0  0  0  0
    0.9195   -1.5186    1.0442 H   0  0  0  0  0
    1.9984    0.5483   -0.6850 H   0  0  0  0  0
    1.6515    0.6305    1.0442 H   0  0  0  0  0
   -0.0886    1.4527   -1.2795 H   0  0  0  0  0
    0.0483    2.2179    0.3131 H   0  0  0  0  0
   -1.2593    0.4435    1.3553 H   0  0  0  0  0
   -2.1236    0.7328   -0.1690 H   0  0  0  0  0
  1  2  1  0  0  0
  1  5  1  0  0  0
  1  6  1  0  0  0
  1  7  1  0  0  0
  2  3  1  0  0  0
  2  8  1  0  0  0
  2  9  1  0  0  0
  3  4  1  0  0  0
  3 10  1  0  0  0
  3 11  1  0  0  0
  4  5  1  0  0  0
  4 12  1  0  0  0
  4 13  1  0  0  0
  5 14  1  0  0  0
  5 15  1  0  0  0
M  END