187
 OpenBabel11300909403D

 24 24  0  0  0  0  0  0  0  0999 V2000
   -1.5537   -0.0000    0.7322 C   0  0  0  0  0
   -1.3751   -1.2962   -0.0527 C   0  0  0  0  0
    0.0091   -1.5866   -0.6328 C   0  0  0  0  0
    1.1821   -1.3049    0.3071 C   0  0  0  0  0
    1.9298   -0.0011    0.0203 C   0  0  0  0  0
    1.1813    1.3036    0.3048 C   0  0  0  0  0
    0.0096    1.5837   -0.6363 C   0  0  0  0  0
   -1.3754    1.2917   -0.0594 C   0  0  0  0  0
   -2.5798    0.0006    1.1256 H   0  0  0  0  0
   -0.9144    0.0021    1.6205 H   0  0  0  0  0
   -2.1099   -1.3336   -0.8657 H   0  0  0  0  0
   -1.6346   -2.1226    0.6220 H   0  0  0  0  0
    0.0253   -2.6559   -0.8838 H   0  0  0  0  0
    0.1401   -1.0750   -1.5913 H   0  0  0  0  0
    0.8792   -1.3560    1.3584 H   0  0  0  0  0
    1.9102   -2.1164    0.1716 H   0  0  0  0  0
    2.8368   -0.0002    0.6385 H   0  0  0  0  0
    2.2776   -0.0017   -1.0204 H   0  0  0  0  0
    0.8778    1.3557    1.3560 H   0  0  0  0  0
    1.9097    2.1147    0.1692 H   0  0  0  0  0
    0.0252    2.6528   -0.8880 H   0  0  0  0  0
    0.1428    1.0719   -1.5949 H   0  0  0  0  0
   -1.6396    2.1216    0.6103 H   0  0  0  0  0
   -2.1082    1.3234   -0.8748 H   0  0  0  0  0
  1  8  1  0  0  0
  1  2  1  0  0  0
  1  9  1  0  0  0
  1 10  1  0  0  0
  2  3  1  0  0  0
  2 11  1  0  0  0
  2 12  1  0  0  0
  3  4  1  0  0  0
  3 13  1  0  0  0
  3 14  1  0  0  0
  4  5  1  0  0  0
  4 15  1  0  0  0
  4 16  1  0  0  0
  5  6  1  0  0  0
  5 17  1  0  0  0
  5 18  1  0  0  0
  6  7  1  0  0  0
  6 19  1  0  0  0
  6 20  1  0  0  0
  7  8  1  0  0  0
  7 21  1  0  0  0
  7 22  1  0  0  0
  8 23  1  0  0  0
  8 24  1  0  0  0
M  END