188
 OpenBabel11300909463D

 26 26  0  0  0  0  0  0  0  0999 V2000
    3.5057    4.9341   -1.9077 C   0  0  0  0  0
    3.2675    4.9767   -0.5130 O   0  0  0  0  0
    1.9969    4.1544    0.0667 P   0  0  0  0  0
    0.2655    4.5589   -0.7134 S   0  0  0  0  0
    2.5185    2.6304   -0.1228 O   0  0  0  0  0
    1.7037    1.5781    0.3566 C   0  0  0  0  0
    2.1584    4.3387    1.6651 O   0  0  0  0  0
    1.9065    5.4814    2.3700 C   0  0  0  0  0
    1.6216    5.3011    3.7257 C   0  0  0  0  0
    1.3516    6.4001    4.5456 C   0  0  0  0  0
    1.3831    7.6877    3.9986 C   0  0  0  0  0
    1.6748    7.8746    2.6403 C   0  0  0  0  0
    1.9404    6.7653    1.8273 C   0  0  0  0  0
    1.1240    8.8486    4.8606 N   0  0  0  0  0
    1.1779    9.9742    4.3419 O   0  0  0  0  0
    0.8739    8.6366    6.0549 O   0  0  0  0  0
    3.1851    3.9828   -2.3422 H   0  0  0  0  0
    4.5767    5.0572   -2.0878 H   0  0  0  0  0
    2.9711    5.7570   -2.3895 H   0  0  0  0  0
    2.3423    0.7343    0.6308 H   0  0  0  0  0
    1.0219    1.2597   -0.4361 H   0  0  0  0  0
    1.1304    1.8834    1.2367 H   0  0  0  0  0
    1.6020    4.2999    4.1491 H   0  0  0  0  0
    1.1241    6.2356    5.5968 H   0  0  0  0  0
    1.7033    8.8708    2.2020 H   0  0  0  0  0
    2.1804    6.9391    0.7820 H   0  0  0  0  0
  1  2  1  0  0  0
  1 17  1  0  0  0
  1 18  1  0  0  0
  1 19  1  0  0  0
  2  3  1  0  0  0
  3  7  1  0  0  0
  3  5  1  0  0  0
  3  4  2  0  0  0
  5  6  1  0  0  0
  6 20  1  0  0  0
  6 21  1  0  0  0
  6 22  1  0  0  0
  7  8  1  0  0  0
  8  9  2  0  0  0
  8 13  1  0  0  0
  9 10  1  0  0  0
  9 23  1  0  0  0
 10 11  2  0  0  0
 10 24  1  0  0  0
 11 12  1  0  0  0
 11 14  1  0  0  0
 12 13  2  0  0  0
 12 25  1  0  0  0
 13 26  1  0  0  0
 14 16  2  0  0  0
 14 15  2  0  0  0
M  END