191
 OpenBabel11300909463D

 24 24  0  0  0  0  0  0  0  0999 V2000
    3.9238   -1.6178    1.8849 O   0  0  0  0  0
    3.7216   -0.8852    0.9192 C   0  0  0  0  0
    2.8150   -1.2358   -0.0811 N   0  0  0  0  0
    2.6106   -0.5182   -1.3311 C   0  0  0  0  0
    1.9572   -2.3912    0.1346 C   0  0  0  0  0
    4.3273    0.3412    0.7369 N   0  0  0  0  0
    5.3324    0.9291    1.5341 C   0  0  0  0  0
    6.0332    0.2497    2.5326 C   0  0  0  0  0
    7.0104    0.9061    3.2902 C   0  0  0  0  0
    7.3037    2.2490    3.0517 C   0  0  0  0  0
    6.6199    2.9327    2.0433 C   0  0  0  0  0
    6.9276    4.5945    1.6785 Cl  0  0  0  0  0
    8.5135    2.9986    4.0286 Cl  0  0  0  0  0
    5.6428    2.2722    1.2870 C   0  0  0  0  0
    1.8650    0.2633   -1.1632 H   0  0  0  0  0
    2.2521   -1.2070   -2.1012 H   0  0  0  0  0
    3.5433   -0.0688   -1.6820 H   0  0  0  0  0
    2.1075   -2.8495    1.1149 H   0  0  0  0  0
    2.1696   -3.1349   -0.6384 H   0  0  0  0  0
    0.9144   -2.0709    0.0565 H   0  0  0  0  0
    3.8834    0.9499    0.0697 H   0  0  0  0  0
    5.8468   -0.7988    2.7478 H   0  0  0  0  0
    7.5363    0.3556    4.0671 H   0  0  0  0  0
    5.1203    2.8219    0.5082 H   0  0  0  0  0
  1  2  2  0  0  0
  2  6  1  0  0  0
  2  3  1  0  0  0
  3  5  1  0  0  0
  3  4  1  0  0  0
  4 15  1  0  0  0
  4 16  1  0  0  0
  4 17  1  0  0  0
  5 18  1  0  0  0
  5 19  1  0  0  0
  5 20  1  0  0  0
  6  7  1  0  0  0
  6 21  1  0  0  0
  7  8  2  0  0  0
  7 14  1  0  0  0
  8  9  1  0  0  0
  8 22  1  0  0  0
  9 10  2  0  0  0
  9 23  1  0  0  0
 10 11  1  0  0  0
 10 13  1  0  0  0
 11 14  2  0  0  0
 11 12  1  0  0  0
 14 24  1  0  0  0
M  END