192
 OpenBabel11300909413D

 25 25  0  0  0  0  0  0  0  0999 V2000
    3.1890   -1.5308    0.3970 O   0  0  0  0  0
    2.7786   -0.4541    0.8173 C   0  0  0  0  0
    1.4219   -0.2265    1.0868 N   0  0  0  0  0
    1.0416    1.1430    1.1588 O   0  0  0  0  0
    0.5923    1.4071    2.4903 C   0  0  0  0  0
    0.4383   -1.0109    0.3678 C   0  0  0  0  0
    3.5599    0.6409    1.1310 N   0  0  0  0  0
    4.9583    0.7543    1.1432 C   0  0  0  0  0
    5.8251   -0.2863    0.8080 C   0  0  0  0  0
    7.2110   -0.1080    0.8853 C   0  0  0  0  0
    7.7428    1.1128    1.3037 C   0  0  0  0  0
    6.8814    2.1620    1.6341 C   0  0  0  0  0
    7.4583    3.7014    2.1691 Cl  0  0  0  0  0
    9.4612    1.2563    1.3966 Cl  0  0  0  0  0
    5.4955    1.9825    1.5478 C   0  0  0  0  0
    0.2480    2.4437    2.5336 H   0  0  0  0  0
    1.4163    1.2811    3.2001 H   0  0  0  0  0
   -0.2404    0.7491    2.7574 H   0  0  0  0  0
    0.6221   -2.0743    0.5476 H   0  0  0  0  0
    0.5297   -0.8106   -0.7041 H   0  0  0  0  0
   -0.5665   -0.7493    0.7103 H   0  0  0  0  0
    3.0055    1.4581    1.3492 H   0  0  0  0  0
    5.4546   -1.2547    0.4834 H   0  0  0  0  0
    7.8670   -0.9345    0.6217 H   0  0  0  0  0
    4.8376    2.8060    1.8145 H   0  0  0  0  0
  1  2  2  0  0  0
  2  7  1  0  0  0
  2  3  1  0  0  0
  3  6  1  0  0  0
  3  4  1  0  0  0
  4  5  1  0  0  0
  5 16  1  0  0  0
  5 17  1  0  0  0
  5 18  1  0  0  0
  6 19  1  0  0  0
  6 20  1  0  0  0
  6 21  1  0  0  0
  7  8  1  0  0  0
  7 22  1  0  0  0
  8  9  2  0  0  0
  8 15  1  0  0  0
  9 10  1  0  0  0
  9 23  1  0  0  0
 10 11  2  0  0  0
 10 24  1  0  0  0
 11 12  1  0  0  0
 11 14  1  0  0  0
 12 15  2  0  0  0
 12 13  1  0  0  0
 15 25  1  0  0  0
M  END