193
 OpenBabel11300909413D

 40 40  0  0  0  0  0  0  0  0999 V2000
   -0.3215   -2.9764    0.5998 O   0  0  0  0  0
    1.0775   -3.5184    1.2253 P   0  0  0  0  0
    1.6692   -4.3707   -0.0188 O   0  0  0  0  0
    1.0574   -5.5996   -0.3644 C   0  0  0  0  0
    1.8125   -6.1862   -1.5398 C   0  0  0  0  0
    1.9677   -2.1689    1.2172 O   0  0  0  0  0
    3.3115   -2.2096    1.4789 C   0  0  0  0  0
    3.9047   -3.4045    1.5707 N   0  0  0  0  0
    5.2202   -3.4009    1.8416 C   0  0  0  0  0
    5.9585   -2.2846    1.9830 N   0  0  0  0  0
    5.3231   -1.0997    1.8668 C   0  0  0  0  0
    6.1464    0.1420    2.0247 C   0  0  0  0  0
    5.9417   -4.7284    1.9254 C   0  0  0  0  0
    5.0788   -5.8218    2.5569 C   0  0  0  0  0
    6.4163   -5.1501    0.5357 C   0  0  0  0  0
    3.9717   -1.0125    1.6116 C   0  0  0  0  0
    0.8208   -4.4170    2.9294 S   0  0  0  0  0
   -0.3181   -2.2914   -0.6395 C   0  0  0  0  0
   -1.7446   -1.8983   -0.9675 C   0  0  0  0  0
    0.0122   -5.4262   -0.6360 H   0  0  0  0  0
    1.0978   -6.2916    0.4805 H   0  0  0  0  0
    1.8299   -5.4829   -2.3801 H   0  0  0  0  0
    1.3563   -7.1236   -1.8709 H   0  0  0  0  0
    2.8562   -6.3793   -1.2665 H   0  0  0  0  0
    7.1974   -0.1075    2.2038 H   0  0  0  0  0
    5.7858    0.7301    2.8741 H   0  0  0  0  0
    6.0921    0.7504    1.1163 H   0  0  0  0  0
    6.8236   -4.5920    2.5644 H   0  0  0  0  0
    4.1947   -6.0457    1.9481 H   0  0  0  0  0
    4.7319   -5.5225    3.5526 H   0  0  0  0  0
    5.6500   -6.7505    2.6652 H   0  0  0  0  0
    5.5744   -5.2895   -0.1518 H   0  0  0  0  0
    6.9731   -6.0923    0.5847 H   0  0  0  0  0
    7.0787   -4.3930    0.1000 H   0  0  0  0  0
    3.4581   -0.0659    1.5222 H   0  0  0  0  0
    0.0728   -2.9435   -1.4252 H   0  0  0  0  0
    0.3088   -1.3983   -0.5731 H   0  0  0  0  0
   -2.3976   -2.7786   -0.9751 H   0  0  0  0  0
   -1.8017   -1.4068   -1.9435 H   0  0  0  0  0
   -2.1404   -1.2164   -0.2064 H   0  0  0  0  0
  1 18  1  0  0  0
  1  2  1  0  0  0
  2 17  2  0  0  0
  2  6  1  0  0  0
  2  3  1  0  0  0
  3  4  1  0  0  0
  4  5  1  0  0  0
  4 20  1  0  0  0
  4 21  1  0  0  0
  5 22  1  0  0  0
  5 23  1  0  0  0
  5 24  1  0  0  0
  6  7  1  0  0  0
  7  8  2  0  0  0
  7 16  1  0  0  0
  8  9  1  0  0  0
  9 10  2  0  0  0
  9 13  1  0  0  0
 10 11  1  0  0  0
 11 16  2  0  0  0
 11 12  1  0  0  0
 12 25  1  0  0  0
 12 26  1  0  0  0
 12 27  1  0  0  0
 13 15  1  0  0  0
 13 14  1  0  0  0
 13 28  1  0  0  0
 14 29  1  0  0  0
 14 30  1  0  0  0
 14 31  1  0  0  0
 15 32  1  0  0  0
 15 33  1  0  0  0
 15 34  1  0  0  0
 16 35  1  0  0  0
 18 19  1  0  0  0
 18 36  1  0  0  0
 18 37  1  0  0  0
 19 38  1  0  0  0
 19 39  1  0  0  0
 19 40  1  0  0  0
M  END