194
 OpenBabel11300909413D

 12 12  0  0  0  0  0  0  0  0999 V2000
    0.9778    0.0219    0.1819 F   0  0  0  0  0
    2.3103    0.0372    0.0431 C   0  0  0  0  0
    2.9770    1.2556   -0.0279 C   0  0  0  0  0
    4.3641    1.2720   -0.1723 C   0  0  0  0  0
    5.0704    0.0691   -0.2443 C   0  0  0  0  0
    4.3920   -1.1498   -0.1721 C   0  0  0  0  0
    3.0049   -1.1655   -0.0276 C   0  0  0  0  0
    2.4131    2.1807    0.0296 H   0  0  0  0  0
    4.8944    2.2190   -0.2288 H   0  0  0  0  0
    6.1522    0.0815   -0.3569 H   0  0  0  0  0
    4.9439   -2.0844   -0.2283 H   0  0  0  0  0
    2.4626   -2.1034    0.0301 H   0  0  0  0  0
  1  2  1  0  0  0
  2  3  2  0  0  0
  2  7  1  0  0  0
  3  4  1  0  0  0
  3  8  1  0  0  0
  4  5  2  0  0  0
  4  9  1  0  0  0
  5  6  1  0  0  0
  5 10  1  0  0  0
  6  7  2  0  0  0
  6 11  1  0  0  0
  7 12  1  0  0  0
M  END