195
 OpenBabel11300909463D

 19 20  0  0  0  0  0  0  0  0999 V2000
   -0.1075   -0.7501   -0.0107 C   0  0  0  0  0
   -0.3822    0.6189    0.0090 C   0  0  0  0  0
    0.6415    1.5504    0.0400 C   0  0  0  0  0
    1.9615    1.0933    0.0548 C   0  0  0  0  0
    2.2376   -0.2829    0.0349 C   0  0  0  0  0
   -1.8493    0.8850   -0.0637 C   0  0  0  0  0
   -2.4618   -0.5138    0.1086 C   0  0  0  0  0
    1.1990   -1.2136    0.0004 C   0  0  0  0  0
   -1.3570   -1.5614   -0.0998 C   0  0  0  0  0
    0.4292    2.6150    0.0431 H   0  0  0  0  0
    2.7807    1.8062    0.0735 H   0  0  0  0  0
    3.2698   -0.6236    0.0387 H   0  0  0  0  0
   -2.1784    1.5545    0.7354 H   0  0  0  0  0
   -2.1129    1.3124   -1.0358 H   0  0  0  0  0
   -2.8747   -0.6118    1.1216 H   0  0  0  0  0
   -3.2993   -0.6724   -0.5826 H   0  0  0  0  0
    1.4139   -2.2778   -0.0270 H   0  0  0  0  0
   -1.3969   -2.3289    0.6780 H   0  0  0  0  0
   -1.4396   -2.0290   -1.0846 H   0  0  0  0  0
  1  8  1  0  0  0
  1  9  1  0  0  0
  1  2  2  0  0  0
  2  6  1  0  0  0
  2  3  1  0  0  0
  3  4  2  0  0  0
  3 10  1  0  0  0
  4  5  1  0  0  0
  4 11  1  0  0  0
  5  8  2  0  0  0
  5 12  1  0  0  0
  6  7  1  0  0  0
  6 13  1  0  0  0
  6 14  1  0  0  0
  7  9  1  0  0  0
  7 15  1  0  0  0
  7 16  1  0  0  0
  8 17  1  0  0  0
  9 18  1  0  0  0
  9 19  1  0  0  0
M  END