198
 OpenBabel11300909463D

 12 12  0  0  0  0  0  0  0  0999 V2000
   -0.6185   -1.2465   -0.0188 C   0  0  0  0  0
   -1.3862   -0.0812   -0.0035 C   0  0  0  0  0
   -0.7575    1.1646    0.0035 C   0  0  0  0  0
    0.6361    1.2391   -0.0047 C   0  0  0  0  0
    1.3938    0.0674   -0.0200 C   0  0  0  0  0
    3.1121    0.1651   -0.0301 Cl  0  0  0  0  0
    0.7733   -1.1799   -0.0271 C   0  0  0  0  0
   -1.3988   -2.7802   -0.0275 Cl  0  0  0  0  0
   -2.4720   -0.1381    0.0029 H   0  0  0  0  0
   -1.3520    2.0749    0.0155 H   0  0  0  0  0
    1.1246    2.2102    0.0008 H   0  0  0  0  0
    1.3669   -2.0891   -0.0390 H   0  0  0  0  0
  1  2  2  0  0  0
  1  7  1  0  0  0
  1  8  1  0  0  0
  2  3  1  0  0  0
  2  9  1  0  0  0
  3  4  2  0  0  0
  3 10  1  0  0  0
  4  5  1  0  0  0
  4 11  1  0  0  0
  5  7  2  0  0  0
  5  6  1  0  0  0
  7 12  1  0  0  0
M  END