199
 OpenBabel11300909413D

  9  8  0  0  0  0  0  0  0  0999 V2000
    1.2863   -0.3605    0.0678 O   0  0  0  0  0
    0.7973   -1.6932    0.0325 C   0  0  0  0  0
    0.6984   -2.2586   -1.6444 Cl  0  0  0  0  0
    2.7026   -0.2872   -0.0115 C   0  0  0  0  0
    3.4148   -0.5542    1.5888 Cl  0  0  0  0  0
   -0.2182   -1.6929    0.4372 H   0  0  0  0  0
    1.4088   -2.3851    0.6201 H   0  0  0  0  0
    2.9731    0.7256   -0.3247 H   0  0  0  0  0
    3.1250   -0.9999   -0.7280 H   0  0  0  0  0
  1  4  1  0  0  0
  1  2  1  0  0  0
  2  3  1  0  0  0
  2  6  1  0  0  0
  2  7  1  0  0  0
  4  5  1  0  0  0
  4  8  1  0  0  0
  4  9  1  0  0  0
M  END