203
 OpenBabel11300909463D

 15 14  0  0  0  0  0  0  0  0999 V2000
    3.1108   -0.9387    1.9018 O   0  0  0  0  0
    3.0241   -2.1100    1.5530 C   0  0  0  0  0
    3.8256   -2.7313    0.6509 O   0  0  0  0  0
    4.8622   -1.9173    0.0940 C   0  0  0  0  0
    5.9815   -2.8342   -0.2936 C   0  0  0  0  0
    7.2517   -2.6885    0.1067 C   0  0  0  0  0
    1.9572   -3.0473    2.0296 C   0  0  0  0  0
    5.2112   -1.1539    0.7993 H   0  0  0  0  0
    4.4707   -1.4245   -0.8026 H   0  0  0  0  0
    5.7220   -3.6714   -0.9379 H   0  0  0  0  0
    7.5575   -1.8699    0.7513 H   0  0  0  0  0
    8.0168   -3.3946   -0.2028 H   0  0  0  0  0
    1.6691   -2.7795    3.0502 H   0  0  0  0  0
    2.3314   -4.0751    2.0484 H   0  0  0  0  0
    1.0910   -2.9783    1.3672 H   0  0  0  0  0
  1  2  2  0  0  0
  2  7  1  0  0  0
  2  3  1  0  0  0
  3  4  1  0  0  0
  4  5  1  0  0  0
  4  8  1  0  0  0
  4  9  1  0  0  0
  5  6  2  0  0  0
  5 10  1  0  0  0
  6 11  1  0  0  0
  6 12  1  0  0  0
  7 13  1  0  0  0
  7 14  1  0  0  0
  7 15  1  0  0  0
M  END