205
 OpenBabel11300909413D

 17 16  0  0  0  0  0  0  0  0999 V2000
    3.6148    1.9406    2.3236 O   0  0  0  0  0
    2.9989    2.4603    1.4087 C   0  0  0  0  0
    3.4502    2.6938    0.1516 O   0  0  0  0  0
    4.7957    2.2677   -0.1131 C   0  0  0  0  0
    5.7790    3.3687    0.2731 C   0  0  0  0  0
    7.2203    2.9620   -0.0203 C   0  0  0  0  0
    8.1985    4.0586    0.3697 C   0  0  0  0  0
    1.9623    2.8226    1.4876 H   0  0  0  0  0
    4.8593    2.0682   -1.1888 H   0  0  0  0  0
    5.0179    1.3240    0.4002 H   0  0  0  0  0
    5.6660    3.6100    1.3368 H   0  0  0  0  0
    5.5245    4.2868   -0.2707 H   0  0  0  0  0
    7.3354    2.7398   -1.0874 H   0  0  0  0  0
    7.4683    2.0473    0.5306 H   0  0  0  0  0
    7.9984    4.9794   -0.1876 H   0  0  0  0  0
    9.2248    3.7461    0.1525 H   0  0  0  0  0
    8.1309    4.2824    1.4393 H   0  0  0  0  0
  1  2  2  0  0  0
  2  3  1  0  0  0
  2  8  1  0  0  0
  3  4  1  0  0  0
  4  5  1  0  0  0
  4  9  1  0  0  0
  4 10  1  0  0  0
  5  6  1  0  0  0
  5 11  1  0  0  0
  5 12  1  0  0  0
  6  7  1  0  0  0
  6 13  1  0  0  0
  6 14  1  0  0  0
  7 15  1  0  0  0
  7 16  1  0  0  0
  7 17  1  0  0  0
M  END