208
 OpenBabel11300909463D

 12 11  0  0  0  0  0  0  0  0999 V2000
    2.5411   -0.9983   -1.1024 O   0  0  0  0  0
    2.2131   -0.1474   -0.1018 C   0  0  0  0  0
    1.2655   -0.3517    0.6426 O   0  0  0  0  0
    3.0908    1.0895   -0.0325 C   0  0  0  0  0
    4.5493    0.7335    0.0469 C   0  0  0  0  0
    5.4678    1.0913   -0.8599 C   0  0  0  0  0
    3.3273   -0.7077   -1.6047 H   0  0  0  0  0
    2.8172    1.6560    0.8645 H   0  0  0  0  0
    2.8641    1.7168   -0.9016 H   0  0  0  0  0
    4.8616    0.1563    0.9176 H   0  0  0  0  0
    5.2181    1.6856   -1.7344 H   0  0  0  0  0
    6.5101    0.8114   -0.7310 H   0  0  0  0  0
  1  2  1  0  0  0
  1  7  1  0  0  0
  2  4  1  0  0  0
  2  3  2  0  0  0
  4  5  1  0  0  0
  4  8  1  0  0  0
  4  9  1  0  0  0
  5  6  2  0  0  0
  5 10  1  0  0  0
  6 11  1  0  0  0
  6 12  1  0  0  0
M  END