209
 OpenBabel11300909413D

 14 14  0  0  0  0  0  0  0  0999 V2000
   -0.4459    1.3553    0.0195 C   0  0  0  0  0
    0.8765    1.1217    0.0033 C   0  0  0  0  0
    1.4697   -0.2599   -0.0006 C   0  0  0  0  0
    0.4390   -1.3552    0.0034 C   0  0  0  0  0
   -0.8830   -1.1218    0.0196 C   0  0  0  0  0
   -1.4762    0.2602    0.0356 C   0  0  0  0  0
   -0.8122    2.3779    0.0215 H   0  0  0  0  0
    1.5707    1.9571   -0.0078 H   0  0  0  0  0
    2.1111   -0.3732    0.8807 H   0  0  0  0  0
    2.1026   -0.3718   -0.8881 H   0  0  0  0  0
    0.8057   -2.3780   -0.0073 H   0  0  0  0  0
   -1.5779   -1.9572    0.0219 H   0  0  0  0  0
   -2.1301    0.3755   -0.8361 H   0  0  0  0  0
   -2.0965    0.3697    0.9324 H   0  0  0  0  0
  1  2  2  0  0  0
  1  6  1  0  0  0
  1  7  1  0  0  0
  2  3  1  0  0  0
  2  8  1  0  0  0
  3  4  1  0  0  0
  3  9  1  0  0  0
  3 10  1  0  0  0
  4  5  2  0  0  0
  4 11  1  0  0  0
  5  6  1  0  0  0
  5 12  1  0  0  0
  6 13  1  0  0  0
  6 14  1  0  0  0
M  END