210
 OpenBabel11300909463D

 23 22  0  0  0  0  0  0  0  0999 V2000
    3.7656   -1.7677    2.9876 O   0  0  0  0  0
    3.6837   -2.9869    2.9693 C   0  0  0  0  0
    4.0410   -3.7923    1.9312 O   0  0  0  0  0
    4.5752   -3.1218    0.7786 C   0  0  0  0  0
    6.0697   -2.8769    0.9631 C   0  0  0  0  0
    6.6859   -2.1967   -0.2573 C   0  0  0  0  0
    8.1775   -1.9350   -0.0492 C   0  0  0  0  0
    8.7984   -1.2500   -1.2558 C   0  0  0  0  0
    3.1422   -3.8129    4.0959 C   0  0  0  0  0
    4.0292   -2.1920    0.5785 H   0  0  0  0  0
    4.4060   -3.7825   -0.0787 H   0  0  0  0  0
    6.5708   -3.8332    1.1584 H   0  0  0  0  0
    6.2373   -2.2641    1.8569 H   0  0  0  0  0
    6.1700   -1.2479   -0.4491 H   0  0  0  0  0
    6.5422   -2.8279   -1.1427 H   0  0  0  0  0
    8.6993   -2.8812    0.1359 H   0  0  0  0  0
    8.3246   -1.3051    0.8359 H   0  0  0  0  0
    8.6986   -1.8692   -2.1530 H   0  0  0  0  0
    9.8643   -1.0715   -1.0828 H   0  0  0  0  0
    8.3193   -0.2848   -1.4486 H   0  0  0  0  0
    3.1091   -3.2058    5.0048 H   0  0  0  0  0
    3.7985   -4.6662    4.2847 H   0  0  0  0  0
    2.1332   -4.1530    3.8510 H   0  0  0  0  0
  1  2  2  0  0  0
  2  9  1  0  0  0
  2  3  1  0  0  0
  3  4  1  0  0  0
  4  5  1  0  0  0
  4 10  1  0  0  0
  4 11  1  0  0  0
  5  6  1  0  0  0
  5 12  1  0  0  0
  5 13  1  0  0  0
  6  7  1  0  0  0
  6 14  1  0  0  0
  6 15  1  0  0  0
  7  8  1  0  0  0
  7 16  1  0  0  0
  7 17  1  0  0  0
  8 18  1  0  0  0
  8 19  1  0  0  0
  8 20  1  0  0  0
  9 21  1  0  0  0
  9 22  1  0  0  0
  9 23  1  0  0  0
M  END