212
 OpenBabel11300909413D

 12 12  0  0  0  0  0  0  0  0999 V2000
   -0.6792    1.1913    0.0003 C   0  0  0  0  0
   -1.3795   -0.0107    0.0012 C   0  0  0  0  0
   -0.6804   -1.2220    0.0011 C   0  0  0  0  0
    0.7237   -1.2350    0.0002 C   0  0  0  0  0
    1.4126   -0.0119   -0.0007 C   0  0  0  0  0
    3.1404    0.0809   -0.0019 Cl  0  0  0  0  0
    1.5920   -2.7369    0.0001 Cl  0  0  0  0  0
   -1.6229   -2.6734    0.0023 Cl  0  0  0  0  0
    0.7122    1.1982   -0.0007 C   0  0  0  0  0
   -1.5395    2.6803    0.0003 Cl  0  0  0  0  0
   -2.4674   -0.0064    0.0019 H   0  0  0  0  0
    1.2513    2.1435   -0.0014 H   0  0  0  0  0
  1  2  2  0  0  0
  1  9  1  0  0  0
  1 10  1  0  0  0
  2  3  1  0  0  0
  2 11  1  0  0  0
  3  4  2  0  0  0
  3  8  1  0  0  0
  4  5  1  0  0  0
  4  7  1  0  0  0
  5  9  2  0  0  0
  5  6  1  0  0  0
  9 12  1  0  0  0
M  END