213
 OpenBabel11300909463D

 16 15  0  0  0  0  0  0  0  0999 V2000
    0.9824    0.0132   -0.1013 C   0  0  0  0  0
   -0.2149    0.0444   -0.1797 C   0  0  0  0  0
    2.4496   -0.0290   -0.0052 C   0  0  0  0  0
    3.0447    1.3783   -0.0467 C   0  0  0  0  0
    4.5696    1.3413    0.0530 C   0  0  0  0  0
    5.1649    2.7396    0.0080 C   0  0  0  0  0
   -1.2786    0.0723   -0.2494 H   0  0  0  0  0
    2.8524   -0.6276   -0.8306 H   0  0  0  0  0
    2.7402   -0.5285    0.9263 H   0  0  0  0  0
    2.6366    1.9783    0.7770 H   0  0  0  0  0
    2.7486    1.8790   -0.9776 H   0  0  0  0  0
    4.9825    0.7482   -0.7713 H   0  0  0  0  0
    4.8699    0.8525    0.9871 H   0  0  0  0  0
    4.9105    3.2443   -0.9295 H   0  0  0  0  0
    6.2557    2.6897    0.0817 H   0  0  0  0  0
    4.7958    3.3500    0.8384 H   0  0  0  0  0
  1  3  1  0  0  0
  1  2  3  0  0  0
  2  7  1  0  0  0
  3  4  1  0  0  0
  3  8  1  0  0  0
  3  9  1  0  0  0
  4  5  1  0  0  0
  4 10  1  0  0  0
  4 11  1  0  0  0
  5  6  1  0  0  0
  5 12  1  0  0  0
  5 13  1  0  0  0
  6 14  1  0  0  0
  6 15  1  0  0  0
  6 16  1  0  0  0
M  END