217
 OpenBabel11300909463D

 39 39  0  0  0  0  0  0  0  0999 V2000
    1.4604    0.9486   -2.4278 C   0  0  0  0  0
    2.9483    1.1928   -2.2144 C   0  0  0  0  0
    3.2912    1.1356   -0.7285 C   0  0  0  0  0
    4.7397    1.3318   -0.5024 N   0  0  0  0  0
    5.4194    0.1853    0.1476 C   0  0  0  0  0
    5.5754   -0.9799   -0.8407 C   0  0  0  0  0
    6.2563   -2.1810   -0.2081 C   0  0  0  0  0
    5.3603    2.5838   -0.4879 C   0  0  0  0  0
    4.8138    3.7710    0.0563 C   0  0  0  0  0
    5.4514    5.0392    0.0151 C   0  0  0  0  0
    6.7099    5.1892   -0.5660 C   0  0  0  0  0
    7.3118    4.0489   -1.0935 C   0  0  0  0  0
    6.6437    2.8009   -1.0549 C   0  0  0  0  0
    7.3553    1.7376   -1.7310 N   0  0  0  0  0
    7.0783    1.5396   -2.9191 O   0  0  0  0  0
    8.2595    1.1785   -1.0915 O   0  0  0  0  0
    7.4134    6.5247   -0.6183 C   0  0  0  0  0
    8.5563    6.5307    0.1177 F   0  0  0  0  0
    7.7747    6.8667   -1.8836 F   0  0  0  0  0
    6.6547    7.5513   -0.1499 F   0  0  0  0  0
    3.5809    3.7694    0.8175 N   0  0  0  0  0
    3.5882    3.1893    1.9102 O   0  0  0  0  0
    2.6304    4.4055    0.3392 O   0  0  0  0  0
    1.2237    0.9282   -3.4955 H   0  0  0  0  0
    0.8647    1.7402   -1.9611 H   0  0  0  0  0
    1.1520   -0.0087   -1.9935 H   0  0  0  0  0
    3.2224    2.1666   -2.6348 H   0  0  0  0  0
    3.5204    0.4338   -2.7602 H   0  0  0  0  0
    2.9884    0.1521   -0.3449 H   0  0  0  0  0
    2.6681    1.8352   -0.1754 H   0  0  0  0  0
    4.8214   -0.1409    1.0085 H   0  0  0  0  0
    6.3924    0.4694    0.5634 H   0  0  0  0  0
    6.1532   -0.6688   -1.7154 H   0  0  0  0  0
    4.5983   -1.2950   -1.2237 H   0  0  0  0  0
    7.2238   -1.9072    0.2231 H   0  0  0  0  0
    6.4282   -2.9552   -0.9634 H   0  0  0  0  0
    5.6312   -2.6113    0.5802 H   0  0  0  0  0
    4.9572    5.9067    0.4587 H   0  0  0  0  0
    8.2986    4.1239   -1.5555 H   0  0  0  0  0
  1  2  1  0  0  0
  1 24  1  0  0  0
  1 25  1  0  0  0
  1 26  1  0  0  0
  2  3  1  0  0  0
  2 27  1  0  0  0
  2 28  1  0  0  0
  3  4  1  0  0  0
  3 29  1  0  0  0
  3 30  1  0  0  0
  4  8  1  0  0  0
  4  5  1  0  0  0
  5  6  1  0  0  0
  5 31  1  0  0  0
  5 32  1  0  0  0
  6  7  1  0  0  0
  6 33  1  0  0  0
  6 34  1  0  0  0
  7 35  1  0  0  0
  7 36  1  0  0  0
  7 37  1  0  0  0
  8 13  1  0  0  0
  8  9  2  0  0  0
  9 10  1  0  0  0
  9 21  1  0  0  0
 10 11  2  0  0  0
 10 38  1  0  0  0
 11 12  1  0  0  0
 11 17  1  0  0  0
 12 13  2  0  0  0
 12 39  1  0  0  0
 13 14  1  0  0  0
 14 16  2  0  0  0
 14 15  2  0  0  0
 17 20  1  0  0  0
 17 19  1  0  0  0
 17 18  1  0  0  0
 21 23  2  0  0  0
 21 22  2  0  0  0
M  END