219
 OpenBabel11300909413D

 22 24  0  0  0  0  0  0  0  0999 V2000
    1.0421    0.0170    0.0036 Cl  0  0  0  0  0
    2.7699    0.0183    0.0005 C   0  0  0  0  0
    3.4190   -1.2205   -0.0008 C   0  0  0  0  0
    4.8117   -1.2695   -0.0032 C   0  0  0  0  0
    5.4018   -2.5078   -0.0042 O   0  0  0  0  0
    6.7735   -2.5117   -0.0062 C   0  0  0  0  0
    7.4143   -3.7488   -0.0069 C   0  0  0  0  0
    8.8112   -3.8057   -0.0089 C   0  0  0  0  0
    9.5497   -5.3676   -0.0097 Cl  0  0  0  0  0
    9.5610   -2.6210   -0.0103 C   0  0  0  0  0
   11.2889   -2.6198   -0.0127 Cl  0  0  0  0  0
    8.9118   -1.3827   -0.0096 C   0  0  0  0  0
    7.5194   -1.3331   -0.0075 C   0  0  0  0  0
    6.9293   -0.0950   -0.0068 O   0  0  0  0  0
    5.5571   -0.0919   -0.0044 C   0  0  0  0  0
    4.9167    1.1461   -0.0032 C   0  0  0  0  0
    3.5196    1.2027   -0.0007 C   0  0  0  0  0
    2.7813    2.7647    0.0008 Cl  0  0  0  0  0
    2.8465   -2.1441    0.0002 H   0  0  0  0  0
    6.8244   -4.6618   -0.0059 H   0  0  0  0  0
    9.4844   -0.4587   -0.0106 H   0  0  0  0  0
    5.5066    2.0590   -0.0041 H   0  0  0  0  0
  1  2  1  0  0  0
  2 17  1  0  0  0
  2  3  2  0  0  0
  3  4  1  0  0  0
  3 19  1  0  0  0
  4 15  2  0  0  0
  4  5  1  0  0  0
  5  6  1  0  0  0
  6 13  1  0  0  0
  6  7  2  0  0  0
  7  8  1  0  0  0
  7 20  1  0  0  0
  8 10  2  0  0  0
  8  9  1  0  0  0
 10 12  1  0  0  0
 10 11  1  0  0  0
 12 13  2  0  0  0
 12 21  1  0  0  0
 13 14  1  0  0  0
 14 15  1  0  0  0
 15 16  1  0  0  0
 16 17  2  0  0  0
 16 22  1  0  0  0
 17 18  1  0  0  0
M  END