221
 OpenBabel11300909413D

 19 19  0  0  0  0  0  0  0  0999 V2000
    2.6007   -0.4820   -0.7768 C   0  0  0  0  0
    3.7287    0.2459   -1.2801 O   0  0  0  0  0
    3.9136    1.4053   -0.5622 C   0  0  0  0  0
    3.3111    2.5949   -0.9966 C   0  0  0  0  0
    2.2956    2.6387   -2.3916 Cl  0  0  0  0  0
    3.5372    3.7850   -0.3087 C   0  0  0  0  0
    4.3886    3.7962    0.7971 C   0  0  0  0  0
    5.0218    2.6202    1.2192 C   0  0  0  0  0
    6.1212    2.7730    2.5436 Cl  0  0  0  0  0
    4.7919    1.4147    0.5383 C   0  0  0  0  0
    5.4380    0.1576    0.9887 C   0  0  0  0  0
    5.9193   -0.6005   -0.0215 O   0  0  0  0  0
    5.5306   -0.1689    2.1579 O   0  0  0  0  0
    2.4453   -1.3460   -1.4295 H   0  0  0  0  0
    1.6883    0.1233   -0.7896 H   0  0  0  0  0
    2.7949   -0.8504    0.2359 H   0  0  0  0  0
    3.0675    4.7107   -0.6345 H   0  0  0  0  0
    4.5696    4.7346    1.3187 H   0  0  0  0  0
    5.6462   -0.3063   -0.9152 H   0  0  0  0  0
  1  2  1  0  0  0
  1 14  1  0  0  0
  1 15  1  0  0  0
  1 16  1  0  0  0
  2  3  1  0  0  0
  3  4  2  0  0  0
  3 10  1  0  0  0
  4  6  1  0  0  0
  4  5  1  0  0  0
  6  7  2  0  0  0
  6 17  1  0  0  0
  7  8  1  0  0  0
  7 18  1  0  0  0
  8 10  2  0  0  0
  8  9  1  0  0  0
 10 11  1  0  0  0
 11 13  2  0  0  0
 11 12  1  0  0  0
 12 19  1  0  0  0
M  END