222
 OpenBabel11300909413D

 22 23  0  0  0  0  0  0  0  0999 V2000
    0.8699   -0.0776    0.0357 Cl  0  0  0  0  0
    2.6114   -0.0113    0.0222 C   0  0  0  0  0
    3.2861    0.5188   -1.0919 C   0  0  0  0  0
    2.3869    1.1109   -2.4610 Cl  0  0  0  0  0
    4.6932    0.5710   -1.1000 C   0  0  0  0  0
    5.5412    1.2270   -2.4773 Cl  0  0  0  0  0
    5.4463    0.0962    0.0002 C   0  0  0  0  0
    4.7487   -0.4336    1.1115 C   0  0  0  0  0
    5.6652   -1.0227    2.4753 Cl  0  0  0  0  0
    3.3417   -0.4885    1.1253 C   0  0  0  0  0
    2.5112   -1.1461    2.5078 Cl  0  0  0  0  0
    6.9363    0.1528   -0.0110 C   0  0  0  0  0
    7.6994   -0.9247   -0.5202 C   0  0  0  0  0
    6.8645   -2.3279   -1.1365 Cl  0  0  0  0  0
    9.1066   -0.8740   -0.5320 C   0  0  0  0  0
   10.0189   -2.2162   -1.1647 Cl  0  0  0  0  0
    9.7712    0.2605   -0.0336 C   0  0  0  0  0
   11.5124    0.3267   -0.0469 Cl  0  0  0  0  0
    9.0306    1.3417    0.4762 C   0  0  0  0  0
    9.8476    2.7496    1.0953 Cl  0  0  0  0  0
    7.6234    1.2856    0.4858 C   0  0  0  0  0
    6.6938    2.6217    1.1162 Cl  0  0  0  0  0
  1  2  1  0  0  0
  2 10  1  0  0  0
  2  3  2  0  0  0
  3  5  1  0  0  0
  3  4  1  0  0  0
  5  7  2  0  0  0
  5  6  1  0  0  0
  7  8  1  0  0  0
  7 12  1  0  0  0
  8 10  2  0  0  0
  8  9  1  0  0  0
 10 11  1  0  0  0
 12 21  1  0  0  0
 12 13  2  0  0  0
 13 15  1  0  0  0
 13 14  1  0  0  0
 15 17  2  0  0  0
 15 16  1  0  0  0
 17 19  1  0  0  0
 17 18  1  0  0  0
 19 21  2  0  0  0
 19 20  1  0  0  0
 21 22  1  0  0  0
M  END