223
 OpenBabel11300909423D

 22 23  0  0  0  0  0  0  0  0999 V2000
    1.1134    0.0290    0.6775 Cl  0  0  0  0  0
    2.7770    0.0151    0.2351 C   0  0  0  0  0
    3.4444    1.2186    0.0236 C   0  0  0  0  0
    4.7909    1.2047   -0.3328 C   0  0  0  0  0
    5.4619   -0.0131   -0.4768 C   0  0  0  0  0
    4.8022   -1.2371   -0.2673 C   0  0  0  0  0
    3.4447   -1.2024    0.0925 C   0  0  0  0  0
    5.5130   -2.5175   -0.4209 C   0  0  0  0  0
    6.7173   -2.7638    0.2601 C   0  0  0  0  0
    7.3923   -3.9792    0.1157 C   0  0  0  0  0
    6.8741   -4.9701   -0.7138 C   0  0  0  0  0
    5.6823   -4.7472   -1.3983 C   0  0  0  0  0
    5.0081   -3.5316   -1.2523 C   0  0  0  0  0
    2.9232    2.1656    0.1345 H   0  0  0  0  0
    5.3191    2.1395   -0.5034 H   0  0  0  0  0
    6.5109   -0.0025   -0.7687 H   0  0  0  0  0
    2.9077   -2.1307    0.2747 H   0  0  0  0  0
    7.1346   -2.0087    0.9234 H   0  0  0  0  0
    8.3205   -4.1511    0.6544 H   0  0  0  0  0
    7.3984   -5.9155   -0.8265 H   0  0  0  0  0
    5.2760   -5.5174   -2.0487 H   0  0  0  0  0
    4.0843   -3.3758   -1.8060 H   0  0  0  0  0
  1  2  1  0  0  0
  2  3  2  0  0  0
  2  7  1  0  0  0
  3  4  1  0  0  0
  3 14  1  0  0  0
  4  5  2  0  0  0
  4 15  1  0  0  0
  5  6  1  0  0  0
  5 16  1  0  0  0
  6  7  2  0  0  0
  6  8  1  0  0  0
  7 17  1  0  0  0
  8  9  2  0  0  0
  8 13  1  0  0  0
  9 10  1  0  0  0
  9 18  1  0  0  0
 10 11  2  0  0  0
 10 19  1  0  0  0
 11 12  1  0  0  0
 11 20  1  0  0  0
 12 13  2  0  0  0
 12 21  1  0  0  0
 13 22  1  0  0  0
M  END