224
 OpenBabel11300909423D

 32 31  0  0  0  0  0  0  0  0999 V2000
    3.3020   -0.8304   -1.1871 C   0  0  0  0  0
    2.4582   -0.0202   -0.1981 C   0  0  0  0  0
    2.5369   -0.6041    1.2153 C   0  0  0  0  0
    2.7644    1.4310   -0.2473 N   0  0  0  0  0
    1.6407    2.3813   -0.4740 C   0  0  0  0  0
    0.6649    1.9634   -1.5818 C   0  0  0  0  0
    0.8812    2.6545    0.8273 C   0  0  0  0  0
    4.0496    1.8316    0.1581 C   0  0  0  0  0
    4.9485    1.0592    0.4648 O   0  0  0  0  0
    4.3719    3.5618    0.2578 S   0  0  0  0  0
    5.2318    3.5856    1.8573 C   0  0  0  0  0
    4.2954    3.2572    2.9897 C   0  0  0  0  0
    3.3430    4.5880    3.5691 Cl  0  0  0  0  0
    4.2278    2.0388    3.5416 C   0  0  0  0  0
    3.1852    1.5680    4.8170 Cl  0  0  0  0  0
    3.2449   -0.3968   -2.1920 H   0  0  0  0  0
    2.9382   -1.8619   -1.2436 H   0  0  0  0  0
    4.3565   -0.8740   -0.9023 H   0  0  0  0  0
    1.4204   -0.1565   -0.5134 H   0  0  0  0  0
    3.5623   -0.6546    1.5908 H   0  0  0  0  0
    2.1349   -1.6228    1.2274 H   0  0  0  0  0
    1.9512   -0.0052    1.9201 H   0  0  0  0  0
    2.0570    3.3314   -0.8177 H   0  0  0  0  0
    0.0018    1.1503   -1.2698 H   0  0  0  0  0
    1.2031    1.6471   -2.4802 H   0  0  0  0  0
    0.0204    2.8063   -1.8511 H   0  0  0  0  0
    0.3854    1.7518    1.1965 H   0  0  0  0  0
    0.1173    3.4231    0.6762 H   0  0  0  0  0
    1.5545    3.0029    1.6131 H   0  0  0  0  0
    5.6575    4.5863    2.0010 H   0  0  0  0  0
    6.0843    2.8990    1.8319 H   0  0  0  0  0
    4.8247    1.2024    3.1985 H   0  0  0  0  0
  1  2  1  0  0  0
  1 16  1  0  0  0
  1 17  1  0  0  0
  1 18  1  0  0  0
  2  4  1  0  0  0
  2  3  1  0  0  0
  2 19  1  0  0  0
  3 20  1  0  0  0
  3 21  1  0  0  0
  3 22  1  0  0  0
  4  8  1  0  0  0
  4  5  1  0  0  0
  5  7  1  0  0  0
  5  6  1  0  0  0
  5 23  1  0  0  0
  6 24  1  0  0  0
  6 25  1  0  0  0
  6 26  1  0  0  0
  7 27  1  0  0  0
  7 28  1  0  0  0
  7 29  1  0  0  0
  8 10  1  0  0  0
  8  9  2  0  0  0
 10 11  1  0  0  0
 11 12  1  0  0  0
 11 30  1  0  0  0
 11 31  1  0  0  0
 12 14  2  0  0  0
 12 13  1  0  0  0
 14 15  1  0  0  0
 14 32  1  0  0  0
M  END