228
 OpenBabel11300909423D

 26 27  0  0  0  0  0  0  0  0999 V2000
    1.1649    0.3031    1.0468 Cl  0  0  0  0  0
    2.8499    0.1084    0.6541 C   0  0  0  0  0
    3.3434   -1.0043    0.0609 C   0  0  0  0  0
    4.7940   -1.0874   -0.2644 C   0  0  0  0  0
    5.2164   -0.6824   -1.5423 C   0  0  0  0  0
    6.5660   -0.7367   -1.8978 C   0  0  0  0  0
    7.5106   -1.1966   -0.9836 C   0  0  0  0  0
    7.1079   -1.6001    0.2888 C   0  0  0  0  0
    5.7581   -1.5458    0.6506 C   0  0  0  0  0
    5.3398   -2.0482    2.2517 Cl  0  0  0  0  0
    2.4329   -2.1254   -0.2851 C   0  0  0  0  0
    2.1155   -3.1044    0.6670 C   0  0  0  0  0
    1.2593   -4.1585    0.3382 C   0  0  0  0  0
    0.7172   -4.2362   -0.9427 C   0  0  0  0  0
    1.0228   -3.2689   -1.8979 C   0  0  0  0  0
    1.8796   -2.2146   -1.5703 C   0  0  0  0  0
   -0.3377   -5.5334   -1.3474 Cl  0  0  0  0  0
    3.8430    1.4781    1.0683 Cl  0  0  0  0  0
    4.4971   -0.3135   -2.2704 H   0  0  0  0  0
    6.8798   -0.4167   -2.8892 H   0  0  0  0  0
    8.5614   -1.2376   -1.2603 H   0  0  0  0  0
    7.8528   -1.9541    0.9975 H   0  0  0  0  0
    2.5262   -3.0534    1.6730 H   0  0  0  0  0
    1.0197   -4.9106    1.0852 H   0  0  0  0  0
    0.5971   -3.3281   -2.8961 H   0  0  0  0  0
    2.1047   -1.4637   -2.3238 H   0  0  0  0  0
  1  2  1  0  0  0
  2 18  1  0  0  0
  2  3  2  0  0  0
  3 11  1  0  0  0
  3  4  1  0  0  0
  4  5  2  0  0  0
  4  9  1  0  0  0
  5  6  1  0  0  0
  5 19  1  0  0  0
  6  7  2  0  0  0
  6 20  1  0  0  0
  7  8  1  0  0  0
  7 21  1  0  0  0
  8  9  2  0  0  0
  8 22  1  0  0  0
  9 10  1  0  0  0
 11 12  2  0  0  0
 11 16  1  0  0  0
 12 13  1  0  0  0
 12 23  1  0  0  0
 13 14  2  0  0  0
 13 24  1  0  0  0
 14 15  1  0  0  0
 14 17  1  0  0  0
 15 16  2  0  0  0
 15 25  1  0  0  0
 16 26  1  0  0  0
M  END