229
 OpenBabel11300909473D

 21 23  0  0  0  0  0  0  0  0999 V2000
    1.0171    0.0643   -0.0012 Cl  0  0  0  0  0
    2.7405    0.0293   -0.0004 C   0  0  0  0  0
    3.3972   -1.2035   -0.0001 C   0  0  0  0  0
    4.7988   -1.2701    0.0006 C   0  0  0  0  0
    5.5321   -0.0686    0.0010 C   0  0  0  0  0
    4.8329    1.1334    0.0008 C   0  0  0  0  0
    3.4439    1.2352    0.0001 C   0  0  0  0  0
    5.6943    2.1865    0.0013 O   0  0  0  0  0
    6.9592    1.6748    0.0018 C   0  0  0  0  0
    8.1489    2.4040    0.0025 C   0  0  0  0  0
    8.1619    4.1198    0.0027 Cl  0  0  0  0  0
    9.3454    1.6810    0.0030 C   0  0  0  0  0
    9.3380    0.2841    0.0029 C   0  0  0  0  0
    8.1307   -0.4297    0.0023 C   0  0  0  0  0
    6.9142    0.2821    0.0017 C   0  0  0  0  0
    2.8220   -2.1275   -0.0005 H   0  0  0  0  0
    5.3026   -2.2326    0.0007 H   0  0  0  0  0
    2.9506    2.1992   -0.0001 H   0  0  0  0  0
   10.2962    2.2096    0.0035 H   0  0  0  0  0
   10.2811   -0.2589    0.0034 H   0  0  0  0  0
    8.1377   -1.5167    0.0022 H   0  0  0  0  0
  1  2  1  0  0  0
  2  3  2  0  0  0
  2  7  1  0  0  0
  3  4  1  0  0  0
  3 16  1  0  0  0
  4  5  2  0  0  0
  4 17  1  0  0  0
  5  6  1  0  0  0
  5 15  1  0  0  0
  6  7  2  0  0  0
  6  8  1  0  0  0
  7 18  1  0  0  0
  8  9  1  0  0  0
  9 10  2  0  0  0
  9 15  1  0  0  0
 10 12  1  0  0  0
 10 11  1  0  0  0
 12 13  2  0  0  0
 12 19  1  0  0  0
 13 14  1  0  0  0
 13 20  1  0  0  0
 14 15  2  0  0  0
 14 21  1  0  0  0
M  END