230
 OpenBabel11300909423D

 23 24  0  0  0  0  0  0  0  0999 V2000
    2.0836    1.9489   -0.6031 O   0  0  0  0  0
    1.2985    2.7793   -1.3744 C   0  0  0  0  0
    0.2328    2.1696   -2.0410 C   0  0  0  0  0
   -0.5998    2.9254   -2.8700 C   0  0  0  0  0
   -0.3561    4.2882   -3.0373 C   0  0  0  0  0
    0.7176    4.8983   -2.3907 C   0  0  0  0  0
   -1.3816    5.2210   -4.0556 Cl  0  0  0  0  0
    1.5526    4.1415   -1.5649 C   0  0  0  0  0
    2.7000    2.4984    0.4954 C   0  0  0  0  0
    4.0894    2.4087    0.5715 C   0  0  0  0  0
    4.7569    2.9400    1.6753 C   0  0  0  0  0
    4.0318    3.5416    2.7053 C   0  0  0  0  0
    2.6386    3.6025    2.6397 C   0  0  0  0  0
    1.9683    3.0715    1.5375 C   0  0  0  0  0
    0.0493    1.1059   -1.9135 H   0  0  0  0  0
   -1.4302    2.4467   -3.3820 H   0  0  0  0  0
    0.9144    5.9576   -2.5286 H   0  0  0  0  0
    2.3979    4.6260   -1.0837 H   0  0  0  0  0
    4.6497    1.9353   -0.2300 H   0  0  0  0  0
    5.8405    2.8830    1.7337 H   0  0  0  0  0
    4.5531    3.9566    3.5644 H   0  0  0  0  0
    2.0757    4.0604    3.4491 H   0  0  0  0  0
    0.8837    3.1078    1.4936 H   0  0  0  0  0
  1  9  1  0  0  0
  1  2  1  0  0  0
  2  3  2  0  0  0
  2  8  1  0  0  0
  3  4  1  0  0  0
  3 15  1  0  0  0
  4  5  2  0  0  0
  4 16  1  0  0  0
  5  6  1  0  0  0
  5  7  1  0  0  0
  6  8  2  0  0  0
  6 17  1  0  0  0
  8 18  1  0  0  0
  9 10  2  0  0  0
  9 14  1  0  0  0
 10 11  1  0  0  0
 10 19  1  0  0  0
 11 12  2  0  0  0
 11 20  1  0  0  0
 12 13  1  0  0  0
 12 21  1  0  0  0
 13 14  2  0  0  0
 13 22  1  0  0  0
 14 23  1  0  0  0
M  END