231
 OpenBabel11300909423D

 25 25  0  0  0  0  0  0  0  0999 V2000
    2.2915    5.1452   -0.2027 O   0  0  0  0  0
    1.9115    3.9946   -0.0416 C   0  0  0  0  0
    1.4852    3.2143   -1.0663 O   0  0  0  0  0
    1.9050    3.2738    1.3054 C   0  0  0  0  0
    0.9730    2.1883    1.3060 O   0  0  0  0  0
   -0.3519    2.4545    1.5414 C   0  0  0  0  0
   -1.1913    1.3250    1.6118 C   0  0  0  0  0
   -2.5642    1.4967    1.8554 C   0  0  0  0  0
   -3.0975    2.7741    2.0047 C   0  0  0  0  0
   -2.2736    3.8905    1.9171 C   0  0  0  0  0
   -4.7806    2.9721    2.2967 Cl  0  0  0  0  0
   -0.6377   -0.0672    1.4767 C   0  0  0  0  0
   -0.9037    3.7325    1.6842 C   0  0  0  0  0
    3.2916    2.6834    1.5339 C   0  0  0  0  0
    1.1844    2.3421   -0.7311 H   0  0  0  0  0
    1.6918    3.9837    2.1121 H   0  0  0  0  0
   -3.2188    0.6310    1.9276 H   0  0  0  0  0
   -2.6886    4.8897    2.0282 H   0  0  0  0  0
   -1.4360   -0.7990    1.3132 H   0  0  0  0  0
   -0.0976   -0.3454    2.3869 H   0  0  0  0  0
    0.0382   -0.1348    0.6178 H   0  0  0  0  0
   -0.3087    4.6383    1.6165 H   0  0  0  0  0
    3.5289    1.9317    0.7725 H   0  0  0  0  0
    3.3377    2.1785    2.5043 H   0  0  0  0  0
    4.0654    3.4569    1.5028 H   0  0  0  0  0
  1  2  2  0  0  0
  2  4  1  0  0  0
  2  3  1  0  0  0
  3 15  1  0  0  0
  4 14  1  0  0  0
  4  5  1  0  0  0
  4 16  1  0  0  0
  5  6  1  0  0  0
  6  7  2  0  0  0
  6 13  1  0  0  0
  7  8  1  0  0  0
  7 12  1  0  0  0
  8  9  2  0  0  0
  8 17  1  0  0  0
  9 10  1  0  0  0
  9 11  1  0  0  0
 10 13  2  0  0  0
 10 18  1  0  0  0
 12 19  1  0  0  0
 12 20  1  0  0  0
 12 21  1  0  0  0
 13 22  1  0  0  0
 14 23  1  0  0  0
 14 24  1  0  0  0
 14 25  1  0  0  0
M  END