232
 OpenBabel11300909473D

 28 29  0  0  0  0  0  0  0  0999 V2000
    1.3827    1.0068    0.3014 Cl  0  0  0  0  0
    2.9119    0.1328    0.0970 C   0  0  0  0  0
    3.1295   -0.4325   -1.3167 C   0  0  0  0  0
    4.0376    0.6800   -2.3576 Cl  0  0  0  0  0
    3.8836   -1.7707   -1.0358 C   0  0  0  0  0
    2.7675   -2.7996   -0.6994 C   0  0  0  0  0
    3.2278   -1.1076    1.0269 C   0  0  0  0  0
    2.2357   -2.3182    0.6731 C   0  0  0  0  0
    0.4913   -1.9421    0.5558 Cl  0  0  0  0  0
    2.2531   -3.6639    1.8774 Cl  0  0  0  0  0
    4.6361   -1.5900    0.3413 C   0  0  0  0  0
    5.2625   -2.9357    0.8920 C   0  0  0  0  0
    6.4190   -3.7392   -0.2060 Cl  0  0  0  0  0
    5.9994   -2.7741    2.5091 Cl  0  0  0  0  0
    5.7818   -0.5078    0.3063 C   0  0  0  0  0
    6.9626   -0.6957   -1.0167 Cl  0  0  0  0  0
    3.1939   -0.7528    2.5168 C   0  0  0  0  0
    4.2497    0.6035    2.9695 Cl  0  0  0  0  0
    3.6170    0.9373    0.2947 H   0  0  0  0  0
    2.1850   -0.6162   -1.8393 H   0  0  0  0  0
    4.4991   -2.1101   -1.8727 H   0  0  0  0  0
    3.1818   -3.8128   -0.6637 H   0  0  0  0  0
    2.0002   -2.8152   -1.4826 H   0  0  0  0  0
    4.5288   -3.7139    1.0201 H   0  0  0  0  0
    6.3627   -0.5014    1.2323 H   0  0  0  0  0
    5.4384    0.5166    0.1975 H   0  0  0  0  0
    3.4975   -1.5889    3.1473 H   0  0  0  0  0
    2.1810   -0.4744    2.8239 H   0  0  0  0  0
  1  2  1  0  0  0
  2  3  1  0  0  0
  2  7  1  0  0  0
  2 19  1  0  0  0
  3  5  1  0  0  0
  3  4  1  0  0  0
  3 20  1  0  0  0
  5  6  1  0  0  0
  5 11  1  0  0  0
  5 21  1  0  0  0
  6  8  1  0  0  0
  6 22  1  0  0  0
  6 23  1  0  0  0
  7  8  1  0  0  0
  7 11  1  0  0  0
  7 17  1  0  0  0
  8 10  1  0  0  0
  8  9  1  0  0  0
 11 15  1  0  0  0
 11 12  1  0  0  0
 12 14  1  0  0  0
 12 13  1  0  0  0
 12 24  1  0  0  0
 15 16  1  0  0  0
 15 25  1  0  0  0
 15 26  1  0  0  0
 17 18  1  0  0  0
 17 27  1  0  0  0
 17 28  1  0  0  0
M  END