233
 OpenBabel11300909433D

 39 40  0  0  0  0  0  0  0  0999 V2000
   -2.2149   -0.8930    0.4721 C   0  0  0  0  0
   -2.3636    0.4914    0.5359 C   0  0  0  0  0
   -1.2460    1.3274    0.4753 C   0  0  0  0  0
    0.0265    0.7516    0.3463 C   0  0  0  0  0
    1.2415    1.3675    0.3600 N   0  0  0  0  0
    2.1354    0.4103    0.2891 C   0  0  0  0  0
    3.5015    0.5500    0.3675 N   0  0  0  0  0
    4.1255    1.7336    0.6189 C   0  0  0  0  0
    3.6355    2.8430    0.7455 O   0  0  0  0  0
    5.4622    1.4852    0.7303 O   0  0  0  0  0
    6.2342    2.6380    1.0678 C   0  0  0  0  0
    1.5311   -0.8312    0.0744 N   0  0  0  0  0
    2.2443   -2.0078   -0.2249 C   0  0  0  0  0
    3.4435   -2.0696    0.0190 O   0  0  0  0  0
    1.5033   -2.9583   -0.8946 N   0  0  0  0  0
    2.1927   -4.0928   -1.4776 C   0  0  0  0  0
    1.2437   -5.2046   -1.9128 C   0  0  0  0  0
    0.3582   -5.7655   -0.7974 C   0  0  0  0  0
    1.1393   -6.3400    0.3737 C   0  0  0  0  0
    0.1592   -0.6295    0.2243 C   0  0  0  0  0
   -0.9540   -1.4836    0.3141 C   0  0  0  0  0
   -3.0960   -1.5262    0.5610 H   0  0  0  0  0
   -3.3516    0.9287    0.6609 H   0  0  0  0  0
   -1.3441    2.4051    0.5581 H   0  0  0  0  0
    4.0856   -0.2788    0.3151 H   0  0  0  0  0
    7.2765    2.3268    1.1783 H   0  0  0  0  0
    5.8987    3.0596    2.0209 H   0  0  0  0  0
    6.1770    3.3848    0.2700 H   0  0  0  0  0
    0.6461   -2.6602   -1.3454 H   0  0  0  0  0
    2.9386   -4.4666   -0.7674 H   0  0  0  0  0
    2.7442   -3.7202   -2.3491 H   0  0  0  0  0
    1.8362   -6.0192   -2.3474 H   0  0  0  0  0
    0.5935   -4.8293   -2.7129 H   0  0  0  0  0
   -0.2716   -6.5567   -1.2214 H   0  0  0  0  0
   -0.3223   -4.9882   -0.4326 H   0  0  0  0  0
    1.8301   -7.1207    0.0404 H   0  0  0  0  0
    0.4514   -6.7826    1.1012 H   0  0  0  0  0
    1.7135   -5.5667    0.8925 H   0  0  0  0  0
   -0.8609   -2.5648    0.3069 H   0  0  0  0  0
  1  2  2  0  0  0
  1 21  1  0  0  0
  1 22  1  0  0  0
  2  3  1  0  0  0
  2 23  1  0  0  0
  3  4  2  0  0  0
  3 24  1  0  0  0
  4  5  1  0  0  0
  4 20  1  0  0  0
  5  6  2  0  0  0
  6 12  1  0  0  0
  6  7  1  0  0  0
  7  8  1  0  0  0
  7 25  1  0  0  0
  8 10  1  0  0  0
  8  9  2  0  0  0
 10 11  1  0  0  0
 11 26  1  0  0  0
 11 27  1  0  0  0
 11 28  1  0  0  0
 12 20  1  0  0  0
 12 13  1  0  0  0
 13 15  1  0  0  0
 13 14  2  0  0  0
 15 16  1  0  0  0
 15 29  1  0  0  0
 16 17  1  0  0  0
 16 30  1  0  0  0
 16 31  1  0  0  0
 17 18  1  0  0  0
 17 32  1  0  0  0
 17 33  1  0  0  0
 18 19  1  0  0  0
 18 34  1  0  0  0
 18 35  1  0  0  0
 19 36  1  0  0  0
 19 37  1  0  0  0
 19 38  1  0  0  0
 20 21  2  0  0  0
 21 39  1  0  0  0
M  END