234
 OpenBabel11300909433D

 22 23  0  0  0  0  0  0  0  0999 V2000
    1.0285   -0.3230   -0.3549 Cl  0  0  0  0  0
    2.7426   -0.1634   -0.1818 C   0  0  0  0  0
    3.3632    1.0976   -0.0862 C   0  0  0  0  0
    4.7647    1.1418    0.0391 C   0  0  0  0  0
    5.5147   -0.0343    0.0722 C   0  0  0  0  0
    4.8891   -1.2743   -0.0199 C   0  0  0  0  0
    3.5013   -1.3390   -0.1475 C   0  0  0  0  0
    7.2260    0.0487    0.2256 Cl  0  0  0  0  0
    2.6076    2.3605   -0.1136 C   0  0  0  0  0
    2.0502    2.9389    1.0431 C   0  0  0  0  0
    1.3395    4.1424    0.9693 C   0  0  0  0  0
    1.1768    4.7870   -0.2552 C   0  0  0  0  0
    1.7239    4.2316   -1.4090 C   0  0  0  0  0
    2.4330    3.0302   -1.3384 C   0  0  0  0  0
    2.2224    2.2023    2.5998 Cl  0  0  0  0  0
    5.2702    2.1027    0.1178 H   0  0  0  0  0
    5.4727   -2.1910    0.0075 H   0  0  0  0  0
    3.0147   -2.3088   -0.2193 H   0  0  0  0  0
    0.9103    4.5805    1.8675 H   0  0  0  0  0
    0.6230    5.7202   -0.3091 H   0  0  0  0  0
    1.5966    4.7315   -2.3664 H   0  0  0  0  0
    2.8486    2.6102   -2.2539 H   0  0  0  0  0
  1  2  1  0  0  0
  2  3  2  0  0  0
  2  7  1  0  0  0
  3  4  1  0  0  0
  3  9  1  0  0  0
  4  5  2  0  0  0
  4 16  1  0  0  0
  5  6  1  0  0  0
  5  8  1  0  0  0
  6  7  2  0  0  0
  6 17  1  0  0  0
  7 18  1  0  0  0
  9 10  2  0  0  0
  9 14  1  0  0  0
 10 11  1  0  0  0
 10 15  1  0  0  0
 11 12  2  0  0  0
 11 19  1  0  0  0
 12 13  1  0  0  0
 12 20  1  0  0  0
 13 14  2  0  0  0
 13 21  1  0  0  0
 14 22  1  0  0  0
M  END