235
 OpenBabel11300909433D

 22 23  0  0  0  0  0  0  0  0999 V2000
    1.0280   -0.2846   -0.4045 Cl  0  0  0  0  0
    2.7420   -0.1505   -0.2100 C   0  0  0  0  0
    3.3733    1.1010   -0.0814 C   0  0  0  0  0
    4.7731    1.1276    0.0600 C   0  0  0  0  0
    5.5198   -0.0559    0.0781 C   0  0  0  0  0
    4.8729   -1.2885   -0.0473 C   0  0  0  0  0
    3.4851   -1.3345   -0.1921 C   0  0  0  0  0
    5.7293   -2.7890   -0.0356 Cl  0  0  0  0  0
    7.2323    0.0789    0.2558 Cl  0  0  0  0  0
    2.6290    2.3714   -0.0874 C   0  0  0  0  0
    2.0669    2.9273    1.0791 C   0  0  0  0  0
    1.3641    4.1361    1.0298 C   0  0  0  0  0
    1.2135    4.8098   -0.1826 C   0  0  0  0  0
    1.7668    4.2729   -1.3418 C   0  0  0  0  0
    2.4690    3.0674   -1.3000 C   0  0  0  0  0
    1.5856    5.1027   -2.8374 Cl  0  0  0  0  0
    2.2252    2.1535    2.6185 Cl  0  0  0  0  0
    5.2852    2.0837    0.1640 H   0  0  0  0  0
    2.9807   -2.2934   -0.2908 H   0  0  0  0  0
    0.9312    4.5578    1.9340 H   0  0  0  0  0
    0.6655    5.7478   -0.2153 H   0  0  0  0  0
    2.8896    2.6626   -2.2190 H   0  0  0  0  0
  1  2  1  0  0  0
  2  3  2  0  0  0
  2  7  1  0  0  0
  3  4  1  0  0  0
  3 10  1  0  0  0
  4  5  2  0  0  0
  4 18  1  0  0  0
  5  6  1  0  0  0
  5  9  1  0  0  0
  6  7  2  0  0  0
  6  8  1  0  0  0
  7 19  1  0  0  0
 10 11  2  0  0  0
 10 15  1  0  0  0
 11 12  1  0  0  0
 11 17  1  0  0  0
 12 13  2  0  0  0
 12 20  1  0  0  0
 13 14  1  0  0  0
 13 21  1  0  0  0
 14 15  2  0  0  0
 14 16  1  0  0  0
 15 22  1  0  0  0
M  END