238
 OpenBabel11300909433D

 22 23  0  0  0  0  0  0  0  0999 V2000
    0.8646   -0.1079   -0.0095 Cl  0  0  0  0  0
    2.5982   -0.0354   -0.0033 C   0  0  0  0  0
    3.2699    1.0351   -0.6097 C   0  0  0  0  0
    4.6698    1.0916   -0.6045 C   0  0  0  0  0
    5.4283    0.0833    0.0066 C   0  0  0  0  0
    4.7524   -0.9854    0.6127 C   0  0  0  0  0
    3.3524   -1.0462    0.6081 C   0  0  0  0  0
    2.6246   -2.4110    1.3833 Cl  0  0  0  0  0
    6.9043    0.1448    0.0120 C   0  0  0  0  0
    7.6618   -0.4839   -1.0080 C   0  0  0  0  0
    9.0646   -0.4210   -0.9945 C   0  0  0  0  0
    9.7288    0.2632    0.0218 C   0  0  0  0  0
    9.0026    0.8891    1.0332 C   0  0  0  0  0
    7.5992    0.8346    1.0361 C   0  0  0  0  0
    6.7049    1.6174    2.3094 Cl  0  0  0  0  0
    9.9063    1.7166    2.2546 Cl  0  0  0  0  0
   10.0429   -1.1697   -2.2092 Cl  0  0  0  0  0
    6.8449   -1.3385   -2.2866 Cl  0  0  0  0  0
    2.4357    2.3347   -1.3905 Cl  0  0  0  0  0
    5.1715    1.9324   -1.0816 H   0  0  0  0  0
    5.3194   -1.7819    1.0938 H   0  0  0  0  0
   10.8166    0.3087    0.0256 H   0  0  0  0  0
  1  2  1  0  0  0
  2  7  1  0  0  0
  2  3  2  0  0  0
  3  4  1  0  0  0
  3 19  1  0  0  0
  4  5  2  0  0  0
  4 20  1  0  0  0
  5  6  1  0  0  0
  5  9  1  0  0  0
  6  7  2  0  0  0
  6 21  1  0  0  0
  7  8  1  0  0  0
  9 14  1  0  0  0
  9 10  2  0  0  0
 10 11  1  0  0  0
 10 18  1  0  0  0
 11 12  2  0  0  0
 11 17  1  0  0  0
 12 13  1  0  0  0
 12 22  1  0  0  0
 13 14  2  0  0  0
 13 16  1  0  0  0
 14 15  1  0  0  0
M  END