239
 OpenBabel11300909473D

 22 24  0  0  0  0  0  0  0  0999 V2000
    1.0027    0.0805    0.0040 Cl  0  0  0  0  0
    2.7430    0.0223    0.0006 C   0  0  0  0  0
    3.4932    1.2148   -0.0012 C   0  0  0  0  0
    2.6872    2.7582   -0.0001 Cl  0  0  0  0  0
    4.8979    1.1575   -0.0038 C   0  0  0  0  0
    5.8605    2.6048   -0.0062 Cl  0  0  0  0  0
    5.5473   -0.0842   -0.0046 C   0  0  0  0  0
    6.9240   -0.0980   -0.0072 O   0  0  0  0  0
    7.5202   -1.3297   -0.0076 C   0  0  0  0  0
    8.9130   -1.3762   -0.0099 C   0  0  0  0  0
    9.5634   -2.6112   -0.0104 C   0  0  0  0  0
    8.8198   -3.7932   -0.0086 C   0  0  0  0  0
    7.4249   -3.7415   -0.0064 C   0  0  0  0  0
    6.7801   -2.5061   -0.0059 C   0  0  0  0  0
    5.4116   -2.5018   -0.0036 O   0  0  0  0  0
    4.8037   -1.2670   -0.0028 C   0  0  0  0  0
    3.4026   -1.2192   -0.0003 C   0  0  0  0  0
    2.5150   -2.7135    0.0018 Cl  0  0  0  0  0
    9.4907   -0.4558   -0.0113 H   0  0  0  0  0
   10.6501   -2.6528   -0.0122 H   0  0  0  0  0
    9.3276   -4.7549   -0.0090 H   0  0  0  0  0
    6.8452   -4.6606   -0.0050 H   0  0  0  0  0
  1  2  1  0  0  0
  2  3  2  0  0  0
  2 17  1  0  0  0
  3  5  1  0  0  0
  3  4  1  0  0  0
  5  7  2  0  0  0
  5  6  1  0  0  0
  7  8  1  0  0  0
  7 16  1  0  0  0
  8  9  1  0  0  0
  9 10  2  0  0  0
  9 14  1  0  0  0
 10 11  1  0  0  0
 10 19  1  0  0  0
 11 12  2  0  0  0
 11 20  1  0  0  0
 12 13  1  0  0  0
 12 21  1  0  0  0
 13 14  2  0  0  0
 13 22  1  0  0  0
 14 15  1  0  0  0
 15 16  1  0  0  0
 16 17  2  0  0  0
 17 18  1  0  0  0
M  END