240
 OpenBabel11300909433D

 45 45  0  0  0  0  0  0  0  0999 V2000
    2.2941    0.7421   -3.2152 C   0  0  0  0  0
    3.6258    1.1022   -2.5724 C   0  0  0  0  0
    3.5358    1.0039   -1.0522 C   0  0  0  0  0
    4.8458    1.2743   -0.4255 N   0  0  0  0  0
    5.3610    0.1843    0.4354 C   0  0  0  0  0
    5.8157   -1.0076   -0.4204 C   0  0  0  0  0
    6.3594   -2.1460    0.4250 C   0  0  0  0  0
    5.3833    2.5550   -0.2813 C   0  0  0  0  0
    4.6633    3.7212    0.0639 C   0  0  0  0  0
    5.2400    5.0129    0.1821 C   0  0  0  0  0
    6.6052    5.2160   -0.0250 C   0  0  0  0  0
    7.3636    4.1015   -0.3719 C   0  0  0  0  0
    6.7602    2.8241   -0.4917 C   0  0  0  0  0
    7.6640    1.7875   -0.9451 N   0  0  0  0  0
    7.6953    1.5577   -2.1620 O   0  0  0  0  0
    8.4046    1.2767   -0.0894 O   0  0  0  0  0
    7.1907    6.6121    0.0898 C   0  0  0  0  0
    8.5616    6.6496    0.7729 C   0  0  0  0  0
    7.2598    7.2753   -1.2873 C   0  0  0  0  0
    3.2642    3.6772    0.4282 N   0  0  0  0  0
    2.9736    3.1429    1.5070 O   0  0  0  0  0
    2.4680    4.2309   -0.3449 O   0  0  0  0  0
    2.3775    0.7640   -4.3057 H   0  0  0  0  0
    1.5132    1.4497   -2.9179 H   0  0  0  0  0
    1.9733   -0.2626   -2.9197 H   0  0  0  0  0
    3.9142    2.1150   -2.8744 H   0  0  0  0  0
    4.4014    0.4223   -2.9441 H   0  0  0  0  0
    3.2054   -0.0106   -0.7934 H   0  0  0  0  0
    2.7372    1.6404   -0.6749 H   0  0  0  0  0
    4.5641   -0.1354    1.1192 H   0  0  0  0  0
    6.1796    0.5249    1.0794 H   0  0  0  0  0
    6.5854   -0.6984   -1.1334 H   0  0  0  0  0
    4.9845   -1.3893   -1.0238 H   0  0  0  0  0
    7.1970   -1.8131    1.0450 H   0  0  0  0  0
    6.7161   -2.9551   -0.2212 H   0  0  0  0  0
    5.5812   -2.5531    1.0776 H   0  0  0  0  0
    4.6061    5.8599    0.4514 H   0  0  0  0  0
    8.4290    4.2042   -0.5770 H   0  0  0  0  0
    6.5177    7.2117    0.7178 H   0  0  0  0  0
    9.3378    6.1692    0.1678 H   0  0  0  0  0
    8.5306    6.1471    1.7458 H   0  0  0  0  0
    8.8758    7.6858    0.9414 H   0  0  0  0  0
    7.9146    6.7213   -1.9693 H   0  0  0  0  0
    7.6439    8.2981   -1.2071 H   0  0  0  0  0
    6.2672    7.3276   -1.7487 H   0  0  0  0  0
  1  2  1  0  0  0
  1 23  1  0  0  0
  1 24  1  0  0  0
  1 25  1  0  0  0
  2  3  1  0  0  0
  2 26  1  0  0  0
  2 27  1  0  0  0
  3  4  1  0  0  0
  3 28  1  0  0  0
  3 29  1  0  0  0
  4  8  1  0  0  0
  4  5  1  0  0  0
  5  6  1  0  0  0
  5 30  1  0  0  0
  5 31  1  0  0  0
  6  7  1  0  0  0
  6 32  1  0  0  0
  6 33  1  0  0  0
  7 34  1  0  0  0
  7 35  1  0  0  0
  7 36  1  0  0  0
  8 13  1  0  0  0
  8  9  2  0  0  0
  9 10  1  0  0  0
  9 20  1  0  0  0
 10 11  2  0  0  0
 10 37  1  0  0  0
 11 12  1  0  0  0
 11 17  1  0  0  0
 12 13  2  0  0  0
 12 38  1  0  0  0
 13 14  1  0  0  0
 14 16  2  0  0  0
 14 15  2  0  0  0
 17 19  1  0  0  0
 17 18  1  0  0  0
 17 39  1  0  0  0
 18 40  1  0  0  0
 18 41  1  0  0  0
 18 42  1  0  0  0
 19 43  1  0  0  0
 19 44  1  0  0  0
 19 45  1  0  0  0
 20 22  2  0  0  0
 20 21  2  0  0  0
M  END