241
 OpenBabel11300909473D

 22 24  0  0  0  0  0  0  0  0999 V2000
    1.0618    0.0888    0.0027 Cl  0  0  0  0  0
    2.7809    0.0171   -0.0001 C   0  0  0  0  0
    3.5217    1.2010   -0.0016 C   0  0  0  0  0
    4.9168    1.1471   -0.0038 C   0  0  0  0  0
    5.5587   -0.0902   -0.0041 C   0  0  0  0  0
    6.9316   -0.0918   -0.0067 O   0  0  0  0  0
    7.5219   -1.3309   -0.0073 C   0  0  0  0  0
    8.9149   -1.3785   -0.0094 C   0  0  0  0  0
    9.5548   -2.6171   -0.0101 C   0  0  0  0  0
   11.2738   -2.6888   -0.0127 Cl  0  0  0  0  0
    8.8140   -3.8010   -0.0086 C   0  0  0  0  0
    7.4185   -3.7472   -0.0065 C   0  0  0  0  0
    6.7761   -2.5100   -0.0058 C   0  0  0  0  0
    5.4043   -2.5082   -0.0037 O   0  0  0  0  0
    4.8136   -1.2695   -0.0031 C   0  0  0  0  0
    3.4204   -1.2215   -0.0008 C   0  0  0  0  0
    3.0190    2.1648   -0.0010 H   0  0  0  0  0
    5.4988    2.0650   -0.0049 H   0  0  0  0  0
    9.4905   -0.4578   -0.0106 H   0  0  0  0  0
    9.3167   -4.7649   -0.0092 H   0  0  0  0  0
    6.8367   -4.6650   -0.0053 H   0  0  0  0  0
    2.8450   -2.1424    0.0003 H   0  0  0  0  0
  1  2  1  0  0  0
  2  3  2  0  0  0
  2 16  1  0  0  0
  3  4  1  0  0  0
  3 17  1  0  0  0
  4  5  2  0  0  0
  4 18  1  0  0  0
  5  6  1  0  0  0
  5 15  1  0  0  0
  6  7  1  0  0  0
  7  8  2  0  0  0
  7 13  1  0  0  0
  8  9  1  0  0  0
  8 19  1  0  0  0
  9 11  2  0  0  0
  9 10  1  0  0  0
 11 12  1  0  0  0
 11 20  1  0  0  0
 12 13  2  0  0  0
 12 21  1  0  0  0
 13 14  1  0  0  0
 14 15  1  0  0  0
 15 16  2  0  0  0
 16 22  1  0  0  0
M  END