242
 OpenBabel11300909433D

 22 24  0  0  0  0  0  0  0  0999 V2000
    1.0075    0.1055    0.0039 Cl  0  0  0  0  0
    2.7469    0.0347    0.0005 C   0  0  0  0  0
    3.5059    1.2214   -0.0013 C   0  0  0  0  0
    2.7132    2.7711   -0.0000 Cl  0  0  0  0  0
    4.9101    1.1526   -0.0040 C   0  0  0  0  0
    5.8867    2.5901   -0.0062 Cl  0  0  0  0  0
    5.5500   -0.0946   -0.0049 C   0  0  0  0  0
    6.9248   -0.1231   -0.0075 O   0  0  0  0  0
    7.5127   -1.3593   -0.0078 C   0  0  0  0  0
    8.9035   -1.3999   -0.0099 C   0  0  0  0  0
    9.5628   -2.6318   -0.0104 C   0  0  0  0  0
   11.2928   -2.5957   -0.0129 Cl  0  0  0  0  0
    8.8314   -3.8308   -0.0087 C   0  0  0  0  0
    9.6583   -5.3581   -0.0092 Cl  0  0  0  0  0
    7.4260   -3.7777   -0.0066 C   0  0  0  0  0
    6.4670   -5.2255   -0.0046 Cl  0  0  0  0  0
    6.7720   -2.5359   -0.0062 C   0  0  0  0  0
    5.3999   -2.5060   -0.0041 O   0  0  0  0  0
    4.7989   -1.2695   -0.0032 C   0  0  0  0  0
    3.3981   -1.2115   -0.0005 C   0  0  0  0  0
    2.5018   -2.6998    0.0015 Cl  0  0  0  0  0
    9.4699   -0.4709   -0.0112 H   0  0  0  0  0
  1  2  1  0  0  0
  2  3  2  0  0  0
  2 20  1  0  0  0
  3  5  1  0  0  0
  3  4  1  0  0  0
  5  7  2  0  0  0
  5  6  1  0  0  0
  7  8  1  0  0  0
  7 19  1  0  0  0
  8  9  1  0  0  0
  9 10  2  0  0  0
  9 17  1  0  0  0
 10 11  1  0  0  0
 10 22  1  0  0  0
 11 13  2  0  0  0
 11 12  1  0  0  0
 13 15  1  0  0  0
 13 14  1  0  0  0
 15 17  2  0  0  0
 15 16  1  0  0  0
 17 18  1  0  0  0
 18 19  1  0  0  0
 19 20  2  0  0  0
 20 21  1  0  0  0
M  END