243
 OpenBabel11300909433D

 22 24  0  0  0  0  0  0  0  0999 V2000
    1.0523    0.1105    0.0029 Cl  0  0  0  0  0
    2.7713    0.0304    0.0000 C   0  0  0  0  0
    3.5173    1.2102   -0.0015 C   0  0  0  0  0
    4.9125    1.1493   -0.0038 C   0  0  0  0  0
    5.5489   -0.0916   -0.0046 C   0  0  0  0  0
    6.9197   -0.1031   -0.0068 O   0  0  0  0  0
    7.5035   -1.3452   -0.0073 C   0  0  0  0  0
    8.8984   -1.3891   -0.0094 C   0  0  0  0  0
    9.5547   -2.6200   -0.0100 C   0  0  0  0  0
    8.8142   -3.8037   -0.0086 C   0  0  0  0  0
    7.4171   -3.7557   -0.0065 C   0  0  0  0  0
    6.5434   -5.2452   -0.0048 Cl  0  0  0  0  0
    6.7559   -2.5245   -0.0058 C   0  0  0  0  0
    5.3819   -2.5058   -0.0037 O   0  0  0  0  0
    4.7983   -1.2656   -0.0031 C   0  0  0  0  0
    3.4051   -1.2112   -0.0007 C   0  0  0  0  0
    3.0200    2.1760   -0.0008 H   0  0  0  0  0
    5.4995    2.0640   -0.0050 H   0  0  0  0  0
    9.4723   -0.4659   -0.0105 H   0  0  0  0  0
   10.6420   -2.6576   -0.0116 H   0  0  0  0  0
    9.3308   -4.7602   -0.0091 H   0  0  0  0  0
    2.8258   -2.1305    0.0005 H   0  0  0  0  0
  1  2  1  0  0  0
  2  3  2  0  0  0
  2 16  1  0  0  0
  3  4  1  0  0  0
  3 17  1  0  0  0
  4  5  2  0  0  0
  4 18  1  0  0  0
  5  6  1  0  0  0
  5 15  1  0  0  0
  6  7  1  0  0  0
  7  8  2  0  0  0
  7 13  1  0  0  0
  8  9  1  0  0  0
  8 19  1  0  0  0
  9 10  2  0  0  0
  9 20  1  0  0  0
 10 11  1  0  0  0
 10 21  1  0  0  0
 11 13  2  0  0  0
 11 12  1  0  0  0
 13 14  1  0  0  0
 14 15  1  0  0  0
 15 16  2  0  0  0
 16 22  1  0  0  0
M  END