244
 OpenBabel11300909433D

 21 23  0  0  0  0  0  0  0  0999 V2000
    1.1038    0.6365    0.0043 Cl  0  0  0  0  0
    2.7958    0.2307    0.0039 C   0  0  0  0  0
    3.2121   -1.1050   -0.0017 C   0  0  0  0  0
    2.0238   -2.3825   -0.0090 Cl  0  0  0  0  0
    4.5945   -1.4276   -0.0026 C   0  0  0  0  0
    5.0894   -3.0638   -0.0276 Cl  0  0  0  0  0
    5.6055   -0.4227    0.0066 C   0  0  0  0  0
    5.1037    0.8836    0.0076 C   0  0  0  0  0
    6.1102    1.7821    0.0075 O   0  0  0  0  0
    7.2847    1.1170    0.0094 C   0  0  0  0  0
    8.5303    1.7634    0.0088 C   0  0  0  0  0
    8.5800    3.4907    0.0017 Cl  0  0  0  0  0
    9.6781    0.9677    0.0140 C   0  0  0  0  0
   11.2460    1.7221    0.0116 Cl  0  0  0  0  0
    9.5542   -0.4263    0.0235 C   0  0  0  0  0
   10.9858   -1.4231    0.0338 Cl  0  0  0  0  0
    8.2711   -1.0340    0.0259 C   0  0  0  0  0
    8.1339   -2.7377    0.0558 Cl  0  0  0  0  0
    7.0704   -0.2661    0.0143 C   0  0  0  0  0
    3.7492    1.2520    0.0067 C   0  0  0  0  0
    3.3350    2.9292    0.0091 Cl  0  0  0  0  0
  1  2  1  0  0  0
  2  3  2  0  0  0
  2 20  1  0  0  0
  3  5  1  0  0  0
  3  4  1  0  0  0
  5  7  2  0  0  0
  5  6  1  0  0  0
  7  8  1  0  0  0
  7 19  1  0  0  0
  8 20  2  0  0  0
  8  9  1  0  0  0
  9 10  1  0  0  0
 10 11  2  0  0  0
 10 19  1  0  0  0
 11 13  1  0  0  0
 11 12  1  0  0  0
 13 15  2  0  0  0
 13 14  1  0  0  0
 15 17  1  0  0  0
 15 16  1  0  0  0
 17 19  2  0  0  0
 17 18  1  0  0  0
 20 21  1  0  0  0
M  END