245
 OpenBabel11300909473D

 22 24  0  0  0  0  0  0  0  0999 V2000
    1.0566    0.0877    0.0029 Cl  0  0  0  0  0
    2.7759    0.0167   -0.0000 C   0  0  0  0  0
    3.5158    1.2009   -0.0015 C   0  0  0  0  0
    4.9113    1.1479   -0.0039 C   0  0  0  0  0
    5.5544   -0.0892   -0.0046 C   0  0  0  0  0
    6.9264   -0.0899   -0.0069 O   0  0  0  0  0
    7.5169   -1.3286   -0.0074 C   0  0  0  0  0
    8.9100   -1.3791   -0.0095 C   0  0  0  0  0
    9.5579   -2.6155   -0.0101 C   0  0  0  0  0
    8.8124   -3.7965   -0.0087 C   0  0  0  0  0
    7.4172   -3.7436   -0.0066 C   0  0  0  0  0
    6.7725   -2.5075   -0.0059 C   0  0  0  0  0
    5.4003   -2.5073   -0.0038 O   0  0  0  0  0
    4.8091   -1.2688   -0.0031 C   0  0  0  0  0
    3.4161   -1.2215   -0.0008 C   0  0  0  0  0
    3.0129    2.1646   -0.0009 H   0  0  0  0  0
    5.4932    2.0655   -0.0050 H   0  0  0  0  0
    9.4887   -0.4602   -0.0107 H   0  0  0  0  0
   10.6442   -2.6593   -0.0118 H   0  0  0  0  0
    9.3186   -4.7590   -0.0091 H   0  0  0  0  0
    6.8362   -4.6616   -0.0054 H   0  0  0  0  0
    2.8417   -2.1429    0.0003 H   0  0  0  0  0
  1  2  1  0  0  0
  2  3  2  0  0  0
  2 15  1  0  0  0
  3  4  1  0  0  0
  3 16  1  0  0  0
  4  5  2  0  0  0
  4 17  1  0  0  0
  5  6  1  0  0  0
  5 14  1  0  0  0
  6  7  1  0  0  0
  7  8  2  0  0  0
  7 12  1  0  0  0
  8  9  1  0  0  0
  8 18  1  0  0  0
  9 10  2  0  0  0
  9 19  1  0  0  0
 10 11  1  0  0  0
 10 20  1  0  0  0
 11 12  2  0  0  0
 11 21  1  0  0  0
 12 13  1  0  0  0
 13 14  1  0  0  0
 14 15  2  0  0  0
 15 22  1  0  0  0
M  END