246
 OpenBabel11300909433D

 22 24  0  0  0  0  0  0  0  0999 V2000
    1.0361    0.1695    0.0030 Cl  0  0  0  0  0
    2.7587    0.0167   -0.0001 C   0  0  0  0  0
    3.5054    1.1980   -0.0022 C   0  0  0  0  0
    4.8991    1.1415   -0.0046 C   0  0  0  0  0
    5.7793    2.6262   -0.0070 Cl  0  0  0  0  0
    5.5541   -0.0934   -0.0052 C   0  0  0  0  0
    6.9282   -0.1025   -0.0077 O   0  0  0  0  0
    7.5241   -1.3342   -0.0077 C   0  0  0  0  0
    8.9172   -1.3808   -0.0101 C   0  0  0  0  0
    9.5681   -2.6159   -0.0103 C   0  0  0  0  0
    8.8257   -3.7980   -0.0084 C   0  0  0  0  0
    7.4306   -3.7473   -0.0062 C   0  0  0  0  0
    6.7841   -2.5128   -0.0060 C   0  0  0  0  0
    5.4157   -2.5112   -0.0037 O   0  0  0  0  0
    4.8064   -1.2765   -0.0033 C   0  0  0  0  0
    3.4039   -1.2279   -0.0007 C   0  0  0  0  0
    2.4984   -2.7069    0.0017 Cl  0  0  0  0  0
    3.0011    2.1621   -0.0016 H   0  0  0  0  0
    9.4941   -0.4600   -0.0115 H   0  0  0  0  0
   10.6552   -2.6564   -0.0119 H   0  0  0  0  0
    9.3337   -4.7593   -0.0086 H   0  0  0  0  0
    6.8512   -4.6665   -0.0048 H   0  0  0  0  0
  1  2  1  0  0  0
  2  3  2  0  0  0
  2 16  1  0  0  0
  3  4  1  0  0  0
  3 18  1  0  0  0
  4  6  2  0  0  0
  4  5  1  0  0  0
  6  7  1  0  0  0
  6 15  1  0  0  0
  7  8  1  0  0  0
  8  9  2  0  0  0
  8 13  1  0  0  0
  9 10  1  0  0  0
  9 19  1  0  0  0
 10 11  2  0  0  0
 10 20  1  0  0  0
 11 12  1  0  0  0
 11 21  1  0  0  0
 12 13  2  0  0  0
 12 22  1  0  0  0
 13 14  1  0  0  0
 14 15  1  0  0  0
 15 16  2  0  0  0
 16 17  1  0  0  0
M  END