247
 OpenBabel11300909433D

 22 24  0  0  0  0  0  0  0  0999 V2000
    1.0052    0.0822    0.0039 Cl  0  0  0  0  0
    2.7460    0.0216    0.0005 C   0  0  0  0  0
    3.4970    1.2137   -0.0011 C   0  0  0  0  0
    2.6935    2.7581    0.0003 Cl  0  0  0  0  0
    4.9017    1.1543   -0.0038 C   0  0  0  0  0
    5.8670    2.6000   -0.0059 Cl  0  0  0  0  0
    5.5500   -0.0888   -0.0048 C   0  0  0  0  0
    6.9264   -0.1039   -0.0073 O   0  0  0  0  0
    7.5217   -1.3359   -0.0078 C   0  0  0  0  0
    8.9148   -1.3823   -0.0099 C   0  0  0  0  0
    9.5642   -2.6186   -0.0104 C   0  0  0  0  0
    8.8140   -3.7960   -0.0089 C   0  0  0  0  0
    9.6176   -5.3176   -0.0098 Cl  0  0  0  0  0
    7.4211   -3.7502   -0.0068 C   0  0  0  0  0
    6.7806   -2.5129   -0.0062 C   0  0  0  0  0
    5.4115   -2.5056   -0.0041 O   0  0  0  0  0
    4.8045   -1.2698   -0.0032 C   0  0  0  0  0
    3.4038   -1.2201   -0.0006 C   0  0  0  0  0
    2.5152   -2.7135    0.0013 Cl  0  0  0  0  0
    9.4934   -0.4620   -0.0111 H   0  0  0  0  0
   10.6508   -2.6575   -0.0120 H   0  0  0  0  0
    6.8369   -4.6657   -0.0056 H   0  0  0  0  0
  1  2  1  0  0  0
  2  3  2  0  0  0
  2 18  1  0  0  0
  3  5  1  0  0  0
  3  4  1  0  0  0
  5  7  2  0  0  0
  5  6  1  0  0  0
  7  8  1  0  0  0
  7 17  1  0  0  0
  8  9  1  0  0  0
  9 10  2  0  0  0
  9 15  1  0  0  0
 10 11  1  0  0  0
 10 20  1  0  0  0
 11 12  2  0  0  0
 11 21  1  0  0  0
 12 14  1  0  0  0
 12 13  1  0  0  0
 14 15  2  0  0  0
 14 22  1  0  0  0
 15 16  1  0  0  0
 16 17  1  0  0  0
 17 18  2  0  0  0
 18 19  1  0  0  0
M  END