248
 OpenBabel11300909443D

 21 23  0  0  0  0  0  0  0  0999 V2000
    0.9969   -0.1705   -0.0178 Cl  0  0  0  0  0
    2.7229   -0.0460   -0.0036 C   0  0  0  0  0
    3.4458   -1.2459    0.0028 C   0  0  0  0  0
    4.8338   -1.1360    0.0146 C   0  0  0  0  0
    5.7030   -2.1828    0.0220 O   0  0  0  0  0
    6.9592   -1.6605    0.0324 C   0  0  0  0  0
    8.1372   -2.4032    0.0429 C   0  0  0  0  0
    9.3350   -1.6773    0.0529 C   0  0  0  0  0
   10.8050   -2.5901    0.0661 Cl  0  0  0  0  0
    9.3305   -0.2741    0.0525 C   0  0  0  0  0
   10.7924    0.6510    0.0648 Cl  0  0  0  0  0
    8.1218    0.4429    0.0416 C   0  0  0  0  0
    6.9090   -0.2709    0.0318 C   0  0  0  0  0
    5.5245    0.0703    0.0193 C   0  0  0  0  0
    4.7829    1.2665    0.0131 C   0  0  0  0  0
    3.3791    1.1942    0.0011 C   0  0  0  0  0
    2.5154    2.6929   -0.0066 Cl  0  0  0  0  0
    2.9615   -2.2155   -0.0008 H   0  0  0  0  0
    8.1147   -3.4870    0.0431 H   0  0  0  0  0
    8.1216    1.5293    0.0413 H   0  0  0  0  0
    5.2884    2.2284    0.0167 H   0  0  0  0  0
  1  2  1  0  0  0
  2 16  1  0  0  0
  2  3  2  0  0  0
  3  4  1  0  0  0
  3 18  1  0  0  0
  4 14  2  0  0  0
  4  5  1  0  0  0
  5  6  1  0  0  0
  6  7  2  0  0  0
  6 13  1  0  0  0
  7  8  1  0  0  0
  7 19  1  0  0  0
  8 10  2  0  0  0
  8  9  1  0  0  0
 10 12  1  0  0  0
 10 11  1  0  0  0
 12 13  2  0  0  0
 12 20  1  0  0  0
 13 14  1  0  0  0
 14 15  1  0  0  0
 15 16  2  0  0  0
 15 21  1  0  0  0
 16 17  1  0  0  0
M  END