CCCCCCCC(CC(C)C)(CC(C)C)c1ccccc1
  Mrv0541 09161415342D          

 22 22  0  0  0  0            999 V2000
   -4.0145   -1.2375    0.0000 C   0  0  0  0  0  0  0  0  0  0  0  0
   -3.3000   -1.6500    0.0000 C   0  0  0  0  0  0  0  0  0  0  0  0
   -2.5855   -1.2375    0.0000 C   0  0  0  0  0  0  0  0  0  0  0  0
   -1.8711   -1.6500    0.0000 C   0  0  0  0  0  0  0  0  0  0  0  0
   -1.1566   -1.2375    0.0000 C   0  0  0  0  0  0  0  0  0  0  0  0
   -0.4421   -1.6500    0.0000 C   0  0  0  0  0  0  0  0  0  0  0  0
   -0.4421   -2.4750    0.0000 C   0  0  0  0  0  0  0  0  0  0  0  0
    0.2724   -2.8875    0.0000 C   0  0  0  0  0  0  0  0  0  0  0  0
   -0.1401   -3.6020    0.0000 C   0  0  0  0  0  0  0  0  0  0  0  0
   -0.9651   -3.6020    0.0000 C   0  0  0  0  0  0  0  0  0  0  0  0
   -1.3776   -2.8875    0.0000 C   0  0  0  0  0  0  0  0  0  0  0  0
   -1.3776   -4.3164    0.0000 C   0  0  0  0  0  0  0  0  0  0  0  0
    0.9868   -3.3000    0.0000 C   0  0  0  0  0  0  0  0  0  0  0  0
    0.9868   -4.1250    0.0000 C   0  0  0  0  0  0  0  0  0  0  0  0
    0.2724   -4.5375    0.0000 C   0  0  0  0  0  0  0  0  0  0  0  0
    1.7013   -4.5375    0.0000 C   0  0  0  0  0  0  0  0  0  0  0  0
    0.6849   -2.1730    0.0000 C   0  0  0  0  0  0  0  0  0  0  0  0
    0.2724   -1.4586    0.0000 C   0  0  0  0  0  0  0  0  0  0  0  0
    0.6849   -0.7441    0.0000 C   0  0  0  0  0  0  0  0  0  0  0  0
    1.5099   -0.7441    0.0000 C   0  0  0  0  0  0  0  0  0  0  0  0
    1.9224   -1.4586    0.0000 C   0  0  0  0  0  0  0  0  0  0  0  0
    1.5099   -2.1730    0.0000 C   0  0  0  0  0  0  0  0  0  0  0  0
  1  2  1  0  0  0  0
  2  3  1  0  0  0  0
  3  4  1  0  0  0  0
  4  5  1  0  0  0  0
  5  6  1  0  0  0  0
  6  7  1  0  0  0  0
  7  8  1  0  0  0  0
  8  9  1  0  0  0  0
  9 10  1  0  0  0  0
 10 11  1  0  0  0  0
 10 12  1  0  0  0  0
  8 13  1  0  0  0  0
 13 14  1  0  0  0  0
 14 15  1  0  0  0  0
 14 16  1  0  0  0  0
  8 17  1  0  0  0  0
 17 18  4  0  0  0  0
 18 19  4  0  0  0  0
 19 20  4  0  0  0  0
 20 21  4  0  0  0  0
 21 22  4  0  0  0  0
 17 22  4  0  0  0  0
M  END