CCCCCCCC[C@H](CCC)c1ccccc1
  Mrv0541 09161415342D          

 18 18  0  0  1  0            999 V2000
    1.5077   -4.4823    0.0000 C   0  0  0  0  0  0  0  0  0  0  0  0
    2.0477   -5.1059    0.0000 C   0  0  0  0  0  0  0  0  0  0  0  0
    2.8579   -4.9500    0.0000 C   0  0  0  0  0  0  0  0  0  0  0  0
    3.3980   -5.5736    0.0000 C   0  0  0  0  0  0  0  0  0  0  0  0
    4.2081   -5.4177    0.0000 C   0  0  0  0  0  0  0  0  0  0  0  0
    4.7482   -6.0414    0.0000 C   0  0  0  0  0  0  0  0  0  0  0  0
    5.5583   -5.8855    0.0000 C   0  0  0  0  0  0  0  0  0  0  0  0
    6.0984   -6.5091    0.0000 C   0  0  0  0  0  0  0  0  0  0  0  0
    6.9086   -6.3532    0.0000 C   0  0  2  0  0  0  0  0  0  0  0  0
    7.1786   -5.5736    0.0000 C   0  0  0  0  0  0  0  0  0  0  0  0
    6.6385   -4.9500    0.0000 C   0  0  0  0  0  0  0  0  0  0  0  0
    6.9086   -4.1704    0.0000 C   0  0  0  0  0  0  0  0  0  0  0  0
    7.4486   -6.9768    0.0000 C   0  0  0  0  0  0  0  0  0  0  0  0
    8.2588   -6.8209    0.0000 C   0  0  0  0  0  0  0  0  0  0  0  0
    8.7989   -7.4446    0.0000 C   0  0  0  0  0  0  0  0  0  0  0  0
    8.5288   -8.2241    0.0000 C   0  0  0  0  0  0  0  0  0  0  0  0
    7.7187   -8.3800    0.0000 C   0  0  0  0  0  0  0  0  0  0  0  0
    7.1786   -7.7564    0.0000 C   0  0  0  0  0  0  0  0  0  0  0  0
  1  2  1  0  0  0  0
  2  3  1  0  0  0  0
  3  4  1  0  0  0  0
  4  5  1  0  0  0  0
  5  6  1  0  0  0  0
  6  7  1  0  0  0  0
  7  8  1  0  0  0  0
  8  9  1  0  0  0  0
  9 10  1  0  0  0  0
 10 11  1  0  0  0  0
 11 12  1  0  0  0  0
  9 13  1  6  0  0  0
 13 14  4  0  0  0  0
 14 15  4  0  0  0  0
 15 16  4  0  0  0  0
 16 17  4  0  0  0  0
 17 18  4  0  0  0  0
 13 18  4  0  0  0  0
M  END