CCCCCCCCCC(CCCC)(CCCC)c1ccccc1
  Mrv0541 09161415342D          

 24 24  0  0  0  0            999 V2000
   -5.2520   -3.3809    0.0000 C   0  0  0  0  0  0  0  0  0  0  0  0
   -4.5375   -3.7934    0.0000 C   0  0  0  0  0  0  0  0  0  0  0  0
   -3.8230   -3.3809    0.0000 C   0  0  0  0  0  0  0  0  0  0  0  0
   -3.1086   -3.7934    0.0000 C   0  0  0  0  0  0  0  0  0  0  0  0
   -2.3941   -3.3809    0.0000 C   0  0  0  0  0  0  0  0  0  0  0  0
   -1.6796   -3.7934    0.0000 C   0  0  0  0  0  0  0  0  0  0  0  0
   -0.9651   -3.3809    0.0000 C   0  0  0  0  0  0  0  0  0  0  0  0
   -0.2507   -3.7934    0.0000 C   0  0  0  0  0  0  0  0  0  0  0  0
    0.4638   -3.3809    0.0000 C   0  0  0  0  0  0  0  0  0  0  0  0
    1.1783   -3.7934    0.0000 C   0  0  0  0  0  0  0  0  0  0  0  0
    1.8927   -4.2059    0.0000 C   0  0  0  0  0  0  0  0  0  0  0  0
    2.6072   -3.7934    0.0000 C   0  0  0  0  0  0  0  0  0  0  0  0
    3.3217   -4.2059    0.0000 C   0  0  0  0  0  0  0  0  0  0  0  0
    4.0362   -3.7934    0.0000 C   0  0  0  0  0  0  0  0  0  0  0  0
    0.7658   -4.5079    0.0000 C   0  0  0  0  0  0  0  0  0  0  0  0
    1.1783   -5.2224    0.0000 C   0  0  0  0  0  0  0  0  0  0  0  0
    0.7658   -5.9368    0.0000 C   0  0  0  0  0  0  0  0  0  0  0  0
   -0.0592   -5.9368    0.0000 C   0  0  0  0  0  0  0  0  0  0  0  0
    1.5908   -3.0789    0.0000 C   0  0  0  0  0  0  0  0  0  0  0  0
    1.1783   -2.3645    0.0000 C   0  0  0  0  0  0  0  0  0  0  0  0
    1.5908   -1.6500    0.0000 C   0  0  0  0  0  0  0  0  0  0  0  0
    2.4158   -1.6500    0.0000 C   0  0  0  0  0  0  0  0  0  0  0  0
    2.8283   -2.3645    0.0000 C   0  0  0  0  0  0  0  0  0  0  0  0
    2.4158   -3.0789    0.0000 C   0  0  0  0  0  0  0  0  0  0  0  0
  1  2  1  0  0  0  0
  2  3  1  0  0  0  0
  3  4  1  0  0  0  0
  4  5  1  0  0  0  0
  5  6  1  0  0  0  0
  6  7  1  0  0  0  0
  7  8  1  0  0  0  0
  8  9  1  0  0  0  0
  9 10  1  0  0  0  0
 10 11  1  0  0  0  0
 11 12  1  0  0  0  0
 12 13  1  0  0  0  0
 13 14  1  0  0  0  0
 10 15  1  0  0  0  0
 15 16  1  0  0  0  0
 16 17  1  0  0  0  0
 17 18  1  0  0  0  0
 10 19  1  0  0  0  0
 19 20  4  0  0  0  0
 20 21  4  0  0  0  0
 21 22  4  0  0  0  0
 22 23  4  0  0  0  0
 23 24  4  0  0  0  0
 19 24  4  0  0  0  0
M  END