CCCCCCCCC1CCCc2ccccc12
  Mrv0541 09161415342D          

 18 19  0  0  0  0            999 V2000
    6.4302    0.4125    0.0000 C   0  0  0  0  0  0  0  0  0  0  0  0
    7.1447    0.0000    0.0000 C   0  0  0  0  0  0  0  0  0  0  0  0
    7.8592    0.4125    0.0000 C   0  0  0  0  0  0  0  0  0  0  0  0
    8.5737    0.0000    0.0000 C   0  0  0  0  0  0  0  0  0  0  0  0
    9.2881    0.4125    0.0000 C   0  0  0  0  0  0  0  0  0  0  0  0
   10.0026    0.0000    0.0000 C   0  0  0  0  0  0  0  0  0  0  0  0
   10.7171    0.4125    0.0000 C   0  0  0  0  0  0  0  0  0  0  0  0
   11.4315    0.0000    0.0000 C   0  0  0  0  0  0  0  0  0  0  0  0
   12.1460    0.4125    0.0000 C   0  0  0  0  0  0  0  0  0  0  0  0
   12.1460    1.2375    0.0000 C   0  0  0  0  0  0  0  0  0  0  0  0
   12.8605    1.6500    0.0000 C   0  0  0  0  0  0  0  0  0  0  0  0
   13.5749    1.2375    0.0000 C   0  0  0  0  0  0  0  0  0  0  0  0
   13.5749    0.4125    0.0000 C   0  0  0  0  0  0  0  0  0  0  0  0
   14.2894    0.0000    0.0000 C   0  0  0  0  0  0  0  0  0  0  0  0
   14.2894   -0.8250    0.0000 C   0  0  0  0  0  0  0  0  0  0  0  0
   13.5749   -1.2375    0.0000 C   0  0  0  0  0  0  0  0  0  0  0  0
   12.8605   -0.8250    0.0000 C   0  0  0  0  0  0  0  0  0  0  0  0
   12.8605    0.0000    0.0000 C   0  0  0  0  0  0  0  0  0  0  0  0
  1  2  1  0  0  0  0
  2  3  1  0  0  0  0
  3  4  1  0  0  0  0
  4  5  1  0  0  0  0
  5  6  1  0  0  0  0
  6  7  1  0  0  0  0
  7  8  1  0  0  0  0
  8  9  1  0  0  0  0
  9 10  1  0  0  0  0
 10 11  1  0  0  0  0
 11 12  1  0  0  0  0
 12 13  1  0  0  0  0
 13 14  4  0  0  0  0
 14 15  4  0  0  0  0
 15 16  4  0  0  0  0
 16 17  4  0  0  0  0
 17 18  4  0  0  0  0
  9 18  1  0  0  0  0
 13 18  4  0  0  0  0
M  END