O=C1CCCCCO1
  Mrv0541 09161415342D          

  8  8  0  0  0  0            999 V2000
    0.8566    2.1882    0.0000 O   0  0  0  0  0  0  0  0  0  0  0  0
    0.8566    1.3632    0.0000 C   0  0  0  0  0  0  0  0  0  0  0  0
    1.5999    1.0053    0.0000 C   0  0  0  0  0  0  0  0  0  0  0  0
    1.7834    0.2009    0.0000 C   0  0  0  0  0  0  0  0  0  0  0  0
    1.2691   -0.4441    0.0000 C   0  0  0  0  0  0  0  0  0  0  0  0
    0.4441   -0.4441    0.0000 C   0  0  0  0  0  0  0  0  0  0  0  0
   -0.0703    0.2009    0.0000 C   0  0  0  0  0  0  0  0  0  0  0  0
    0.1133    1.0053    0.0000 O   0  0  0  0  0  0  0  0  0  0  0  0
  1  2  2  0  0  0  0
  2  3  1  0  0  0  0
  3  4  1  0  0  0  0
  4  5  1  0  0  0  0
  5  6  1  0  0  0  0
  6  7  1  0  0  0  0
  7  8  1  0  0  0  0
  2  8  1  0  0  0  0
M  END