CC/C=C\C/C=C\C/C=C\CCCCCCCC(=O)O
  Mrv0541 09161415342D          

 20 19  0  0  0  0            999 V2000
    0.1401    0.0809    0.0000 C   0  0  0  0  0  0  0  0  0  0  0  0
    0.8546   -0.3316    0.0000 C   0  0  0  0  0  0  0  0  0  0  0  0
    0.8546   -1.1566    0.0000 C   0  0  0  0  0  0  0  0  0  0  0  0
    1.5691   -1.5691    0.0000 C   0  0  0  0  0  0  0  0  0  0  0  0
    2.2836   -1.1566    0.0000 C   0  0  0  0  0  0  0  0  0  0  0  0
    2.9980   -1.5691    0.0000 C   0  0  0  0  0  0  0  0  0  0  0  0
    3.7125   -1.1566    0.0000 C   0  0  0  0  0  0  0  0  0  0  0  0
    3.7125   -0.3316    0.0000 C   0  0  0  0  0  0  0  0  0  0  0  0
    4.4270    0.0809    0.0000 C   0  0  0  0  0  0  0  0  0  0  0  0
    4.4270    0.9059    0.0000 C   0  0  0  0  0  0  0  0  0  0  0  0
    3.7125    1.3184    0.0000 C   0  0  0  0  0  0  0  0  0  0  0  0
    3.7125    2.1434    0.0000 C   0  0  0  0  0  0  0  0  0  0  0  0
    4.4270    2.5559    0.0000 C   0  0  0  0  0  0  0  0  0  0  0  0
    5.1414    2.1434    0.0000 C   0  0  0  0  0  0  0  0  0  0  0  0
    5.8559    2.5559    0.0000 C   0  0  0  0  0  0  0  0  0  0  0  0
    6.5704    2.1434    0.0000 C   0  0  0  0  0  0  0  0  0  0  0  0
    7.2849    2.5559    0.0000 C   0  0  0  0  0  0  0  0  0  0  0  0
    7.9993    2.1434    0.0000 C   0  0  0  0  0  0  0  0  0  0  0  0
    8.7138    2.5559    0.0000 O   0  0  0  0  0  0  0  0  0  0  0  0
    7.9993    1.3184    0.0000 O   0  0  0  0  0  0  0  0  0  0  0  0
  1  2  1  0  0  0  0
  2  3  1  0  0  0  0
  3  4  2  0  0  0  0
  4  5  1  0  0  0  0
  5  6  1  0  0  0  0
  6  7  2  0  0  0  0
  7  8  1  0  0  0  0
  8  9  1  0  0  0  0
  9 10  2  0  0  0  0
 10 11  1  0  0  0  0
 11 12  1  0  0  0  0
 12 13  1  0  0  0  0
 13 14  1  0  0  0  0
 14 15  1  0  0  0  0
 15 16  1  0  0  0  0
 16 17  1  0  0  0  0
 17 18  1  0  0  0  0
 18 19  2  0  0  0  0
 18 20  1  0  0  0  0
M  END