CC/C=C\C/C=C\C/C=C\CCCCCCCC(=O)OC(COC(=O)CCCCCCC/C=C\C/C=C\C/C=C\CC)COC(=O)CCCCCCC/C=C\C/C=C\C/C=C\CC
  Mrv0541 09161415342D          

 63 62  0  0  0  0            999 V2000
    5.5497   16.2417    0.0000 C   0  0  0  0  0  0  0  0  0  0  0  0
    6.0600   16.8899    0.0000 C   0  0  0  0  0  0  0  0  0  0  0  0
    5.7538   17.6560    0.0000 C   0  0  0  0  0  0  0  0  0  0  0  0
    6.2642   18.3042    0.0000 C   0  0  0  0  0  0  0  0  0  0  0  0
    7.0807   18.1863    0.0000 C   0  0  0  0  0  0  0  0  0  0  0  0
    7.5911   18.8346    0.0000 C   0  0  0  0  0  0  0  0  0  0  0  0
    8.4076   18.7167    0.0000 C   0  0  0  0  0  0  0  0  0  0  0  0
    8.7138   17.9506    0.0000 C   0  0  0  0  0  0  0  0  0  0  0  0
    9.5303   17.8328    0.0000 C   0  0  0  0  0  0  0  0  0  0  0  0
    9.8365   17.0667    0.0000 C   0  0  0  0  0  0  0  0  0  0  0  0
    9.3262   16.4185    0.0000 C   0  0  0  0  0  0  0  0  0  0  0  0
    9.6324   15.6524    0.0000 C   0  0  0  0  0  0  0  0  0  0  0  0
    9.1221   15.0042    0.0000 C   0  0  0  0  0  0  0  0  0  0  0  0
    9.4283   14.2381    0.0000 C   0  0  0  0  0  0  0  0  0  0  0  0
    8.9179   13.5899    0.0000 C   0  0  0  0  0  0  0  0  0  0  0  0
    9.2241   12.8238    0.0000 C   0  0  0  0  0  0  0  0  0  0  0  0
    8.7138   12.1756    0.0000 C   0  0  0  0  0  0  0  0  0  0  0  0
    9.0200   11.4096    0.0000 C   0  0  0  0  0  0  0  0  0  0  0  0
    9.8365   11.2917    0.0000 O   0  0  0  0  0  0  0  0  0  0  0  0
    8.5097   10.7613    0.0000 O   0  0  0  0  0  0  0  0  0  0  0  0
    8.8159    9.9953    0.0000 C   0  0  0  0  0  0  0  0  0  0  0  0
    8.3055    9.3471    0.0000 C   0  0  0  0  0  0  0  0  0  0  0  0
    7.4890    9.4649    0.0000 O   0  0  0  0  0  0  0  0  0  0  0  0
    6.9787    8.8167    0.0000 C   0  0  0  0  0  0  0  0  0  0  0  0
    7.2849    8.0506    0.0000 O   0  0  0  0  0  0  0  0  0  0  0  0
    6.1621    8.9346    0.0000 C   0  0  0  0  0  0  0  0  0  0  0  0
    5.6518    8.2863    0.0000 C   0  0  0  0  0  0  0  0  0  0  0  0
    4.8352    8.4042    0.0000 C   0  0  0  0  0  0  0  0  0  0  0  0
    4.3249    7.7560    0.0000 C   0  0  0  0  0  0  0  0  0  0  0  0
    3.5084    7.8738    0.0000 C   0  0  0  0  0  0  0  0  0  0  0  0
    3.2022    8.6399    0.0000 C   0  0  0  0  0  0  0  0  0  0  0  0
    3.7125    9.2881    0.0000 C   0  0  0  0  0  0  0  0  0  0  0  0
    3.4063   10.0542    0.0000 C   0  0  0  0  0  0  0  0  0  0  0  0
    2.5898   10.1721    0.0000 C   0  0  0  0  0  0  0  0  0  0  0  0
    2.0794    9.5238    0.0000 C   0  0  0  0  0  0  0  0  0  0  0  0
    1.2629    9.6417    0.0000 C   0  0  0  0  0  0  0  0  0  0  0  0
    0.7525    8.9935    0.0000 C   0  0  0  0  0  0  0  0  0  0  0  0
    1.0588    8.2274    0.0000 C   0  0  0  0  0  0  0  0  0  0  0  0
    0.5484    7.5792    0.0000 C   0  0  0  0  0  0  0  0  0  0  0  0
    0.8546    6.8131    0.0000 C   0  0  0  0  0  0  0  0  0  0  0  0
    1.6712    6.6953    0.0000 C   0  0  0  0  0  0  0  0  0  0  0  0
    1.9774    5.9292    0.0000 C   0  0  0  0  0  0  0  0  0  0  0  0
    9.6324    9.8774    0.0000 C   0  0  0  0  0  0  0  0  0  0  0  0
   10.1427   10.5256    0.0000 O   0  0  0  0  0  0  0  0  0  0  0  0
   10.9593   10.4078    0.0000 C   0  0  0  0  0  0  0  0  0  0  0  0
   11.2655    9.6417    0.0000 O   0  0  0  0  0  0  0  0  0  0  0  0
   11.4696   11.0560    0.0000 C   0  0  0  0  0  0  0  0  0  0  0  0
   12.2862   10.9381    0.0000 C   0  0  0  0  0  0  0  0  0  0  0  0
   12.7965   11.5863    0.0000 C   0  0  0  0  0  0  0  0  0  0  0  0
   13.6130   11.4685    0.0000 C   0  0  0  0  0  0  0  0  0  0  0  0
   13.9192   10.7024    0.0000 C   0  0  0  0  0  0  0  0  0  0  0  0
   13.4089   10.0542    0.0000 C   0  0  0  0  0  0  0  0  0  0  0  0
   13.7151    9.2881    0.0000 C   0  0  0  0  0  0  0  0  0  0  0  0
   13.2048    8.6399    0.0000 C   0  0  0  0  0  0  0  0  0  0  0  0
   13.5110    7.8738    0.0000 C   0  0  0  0  0  0  0  0  0  0  0  0
   14.3275    7.7560    0.0000 C   0  0  0  0  0  0  0  0  0  0  0  0
   14.6337    6.9899    0.0000 C   0  0  0  0  0  0  0  0  0  0  0  0
   15.4502    6.8721    0.0000 C   0  0  0  0  0  0  0  0  0  0  0  0
   15.9606    7.5203    0.0000 C   0  0  0  0  0  0  0  0  0  0  0  0
   16.7771    7.4024    0.0000 C   0  0  0  0  0  0  0  0  0  0  0  0
   17.2874    8.0506    0.0000 C   0  0  0  0  0  0  0  0  0  0  0  0
   16.9812    8.8167    0.0000 C   0  0  0  0  0  0  0  0  0  0  0  0
   17.4916    9.4649    0.0000 C   0  0  0  0  0  0  0  0  0  0  0  0
  1  2  1  0  0  0  0
  2  3  1  0  0  0  0
  3  4  2  0  0  0  0
  4  5  1  0  0  0  0
  5  6  1  0  0  0  0
  6  7  2  0  0  0  0
  7  8  1  0  0  0  0
  8  9  1  0  0  0  0
  9 10  2  0  0  0  0
 10 11  1  0  0  0  0
 11 12  1  0  0  0  0
 12 13  1  0  0  0  0
 13 14  1  0  0  0  0
 14 15  1  0  0  0  0
 15 16  1  0  0  0  0
 16 17  1  0  0  0  0
 17 18  1  0  0  0  0
 18 19  2  0  0  0  0
 18 20  1  0  0  0  0
 20 21  1  0  0  0  0
 21 22  1  0  0  0  0
 22 23  1  0  0  0  0
 23 24  1  0  0  0  0
 24 25  2  0  0  0  0
 24 26  1  0  0  0  0
 26 27  1  0  0  0  0
 27 28  1  0  0  0  0
 28 29  1  0  0  0  0
 29 30  1  0  0  0  0
 30 31  1  0  0  0  0
 31 32  1  0  0  0  0
 32 33  1  0  0  0  0
 33 34  2  0  0  0  0
 34 35  1  0  0  0  0
 35 36  1  0  0  0  0
 36 37  2  0  0  0  0
 37 38  1  0  0  0  0
 38 39  1  0  0  0  0
 39 40  2  0  0  0  0
 40 41  1  0  0  0  0
 41 42  1  0  0  0  0
 21 43  1  0  0  0  0
 43 44  1  0  0  0  0
 44 45  1  0  0  0  0
 45 46  2  0  0  0  0
 45 47  1  0  0  0  0
 47 48  1  0  0  0  0
 48 49  1  0  0  0  0
 49 50  1  0  0  0  0
 50 51  1  0  0  0  0
 51 52  1  0  0  0  0
 52 53  1  0  0  0  0
 53 54  1  0  0  0  0
 54 55  2  0  0  0  0
 55 56  1  0  0  0  0
 56 57  1  0  0  0  0
 57 58  2  0  0  0  0
 58 59  1  0  0  0  0
 59 60  1  0  0  0  0
 60 61  2  0  0  0  0
 61 62  1  0  0  0  0
 62 63  1  0  0  0  0
M  END