CCCCC/C=C\C/C=C\CCCCCCCC(=O)OC(COC(=O)CCCCCCC/C=C\C/C=C\CCCCC)COC(=O)CCCCCCC/C=C\C/C=C\CCCCC
  Mrv0541 09161415342D          

 63 62  0  0  0  0            999 V2000
    7.8284   19.9747    0.0000 C   0  0  0  0  0  0  0  0  0  0  0  0
    8.5025   20.4504    0.0000 C   0  0  0  0  0  0  0  0  0  0  0  0
    8.4276   21.2720    0.0000 C   0  0  0  0  0  0  0  0  0  0  0  0
    9.1017   21.7476    0.0000 C   0  0  0  0  0  0  0  0  0  0  0  0
    9.0268   22.5692    0.0000 C   0  0  0  0  0  0  0  0  0  0  0  0
    9.7009   23.0449    0.0000 C   0  0  0  0  0  0  0  0  0  0  0  0
   10.4498   22.6990    0.0000 C   0  0  0  0  0  0  0  0  0  0  0  0
   10.5247   21.8774    0.0000 C   0  0  0  0  0  0  0  0  0  0  0  0
   11.2737   21.5314    0.0000 C   0  0  0  0  0  0  0  0  0  0  0  0
   11.3486   20.7098    0.0000 C   0  0  0  0  0  0  0  0  0  0  0  0
   10.6745   20.2342    0.0000 C   0  0  0  0  0  0  0  0  0  0  0  0
   10.7494   19.4126    0.0000 C   0  0  0  0  0  0  0  0  0  0  0  0
   10.0753   18.9369    0.0000 C   0  0  0  0  0  0  0  0  0  0  0  0
   10.1502   18.1153    0.0000 C   0  0  0  0  0  0  0  0  0  0  0  0
    9.4762   17.6397    0.0000 C   0  0  0  0  0  0  0  0  0  0  0  0
    9.5511   16.8181    0.0000 C   0  0  0  0  0  0  0  0  0  0  0  0
    8.8770   16.3424    0.0000 C   0  0  0  0  0  0  0  0  0  0  0  0
    8.9519   15.5208    0.0000 C   0  0  0  0  0  0  0  0  0  0  0  0
    9.7009   15.1749    0.0000 O   0  0  0  0  0  0  0  0  0  0  0  0
    8.2778   15.0452    0.0000 O   0  0  0  0  0  0  0  0  0  0  0  0
    8.3527   14.2236    0.0000 C   0  0  0  0  0  0  0  0  0  0  0  0
    7.6786   13.7479    0.0000 C   0  0  0  0  0  0  0  0  0  0  0  0
    6.9297   14.0938    0.0000 O   0  0  0  0  0  0  0  0  0  0  0  0
    6.2556   13.6182    0.0000 C   0  0  0  0  0  0  0  0  0  0  0  0
    6.3305   12.7966    0.0000 O   0  0  0  0  0  0  0  0  0  0  0  0
    5.5066   13.9641    0.0000 C   0  0  0  0  0  0  0  0  0  0  0  0
    4.8326   13.4885    0.0000 C   0  0  0  0  0  0  0  0  0  0  0  0
    4.0836   13.8344    0.0000 C   0  0  0  0  0  0  0  0  0  0  0  0
    3.4095   13.3587    0.0000 C   0  0  0  0  0  0  0  0  0  0  0  0
    2.6605   13.7047    0.0000 C   0  0  0  0  0  0  0  0  0  0  0  0
    1.9865   13.2290    0.0000 C   0  0  0  0  0  0  0  0  0  0  0  0
    1.2375   13.5749    0.0000 C   0  0  0  0  0  0  0  0  0  0  0  0
    1.1626   14.3965    0.0000 C   0  0  0  0  0  0  0  0  0  0  0  0
    0.4136   14.7425    0.0000 C   0  0  0  0  0  0  0  0  0  0  0  0
   -0.2604   14.2668    0.0000 C   0  0  0  0  0  0  0  0  0  0  0  0
   -1.0094   14.6128    0.0000 C   0  0  0  0  0  0  0  0  0  0  0  0
   -1.6835   14.1371    0.0000 C   0  0  0  0  0  0  0  0  0  0  0  0
   -1.6086   13.3155    0.0000 C   0  0  0  0  0  0  0  0  0  0  0  0
   -2.2827   12.8398    0.0000 C   0  0  0  0  0  0  0  0  0  0  0  0
   -2.2078   12.0182    0.0000 C   0  0  0  0  0  0  0  0  0  0  0  0
   -2.8818   11.5426    0.0000 C   0  0  0  0  0  0  0  0  0  0  0  0
   -2.8069   10.7210    0.0000 C   0  0  0  0  0  0  0  0  0  0  0  0
    9.1017   13.8776    0.0000 C   0  0  0  0  0  0  0  0  0  0  0  0
    9.7757   14.3533    0.0000 O   0  0  0  0  0  0  0  0  0  0  0  0
   10.5247   14.0074    0.0000 C   0  0  0  0  0  0  0  0  0  0  0  0
   10.5996   13.1858    0.0000 O   0  0  0  0  0  0  0  0  0  0  0  0
   11.1988   14.4830    0.0000 C   0  0  0  0  0  0  0  0  0  0  0  0
   11.9478   14.1371    0.0000 C   0  0  0  0  0  0  0  0  0  0  0  0
   12.6218   14.6128    0.0000 C   0  0  0  0  0  0  0  0  0  0  0  0
   13.3708   14.2668    0.0000 C   0  0  0  0  0  0  0  0  0  0  0  0
   14.0449   14.7425    0.0000 C   0  0  0  0  0  0  0  0  0  0  0  0
   14.7938   14.3965    0.0000 C   0  0  0  0  0  0  0  0  0  0  0  0
   14.8687   13.5749    0.0000 C   0  0  0  0  0  0  0  0  0  0  0  0
   14.1947   13.0993    0.0000 C   0  0  0  0  0  0  0  0  0  0  0  0
   14.2696   12.2777    0.0000 C   0  0  0  0  0  0  0  0  0  0  0  0
   15.0185   11.9318    0.0000 C   0  0  0  0  0  0  0  0  0  0  0  0
   15.0934   11.1102    0.0000 C   0  0  0  0  0  0  0  0  0  0  0  0
   15.8424   10.7642    0.0000 C   0  0  0  0  0  0  0  0  0  0  0  0
   16.5165   11.2399    0.0000 C   0  0  0  0  0  0  0  0  0  0  0  0
   17.2654   10.8940    0.0000 C   0  0  0  0  0  0  0  0  0  0  0  0
   17.9395   11.3696    0.0000 C   0  0  0  0  0  0  0  0  0  0  0  0
   18.6885   11.0237    0.0000 C   0  0  0  0  0  0  0  0  0  0  0  0
   19.3626   11.4993    0.0000 C   0  0  0  0  0  0  0  0  0  0  0  0
  1  2  1  0  0  0  0
  2  3  1  0  0  0  0
  3  4  1  0  0  0  0
  4  5  1  0  0  0  0
  5  6  1  0  0  0  0
  6  7  2  0  0  0  0
  7  8  1  0  0  0  0
  8  9  1  0  0  0  0
  9 10  2  0  0  0  0
 10 11  1  0  0  0  0
 11 12  1  0  0  0  0
 12 13  1  0  0  0  0
 13 14  1  0  0  0  0
 14 15  1  0  0  0  0
 15 16  1  0  0  0  0
 16 17  1  0  0  0  0
 17 18  1  0  0  0  0
 18 19  2  0  0  0  0
 18 20  1  0  0  0  0
 20 21  1  0  0  0  0
 21 22  1  0  0  0  0
 22 23  1  0  0  0  0
 23 24  1  0  0  0  0
 24 25  2  0  0  0  0
 24 26  1  0  0  0  0
 26 27  1  0  0  0  0
 27 28  1  0  0  0  0
 28 29  1  0  0  0  0
 29 30  1  0  0  0  0
 30 31  1  0  0  0  0
 31 32  1  0  0  0  0
 32 33  1  0  0  0  0
 33 34  2  0  0  0  0
 34 35  1  0  0  0  0
 35 36  1  0  0  0  0
 36 37  2  0  0  0  0
 37 38  1  0  0  0  0
 38 39  1  0  0  0  0
 39 40  1  0  0  0  0
 40 41  1  0  0  0  0
 41 42  1  0  0  0  0
 21 43  1  0  0  0  0
 43 44  1  0  0  0  0
 44 45  1  0  0  0  0
 45 46  2  0  0  0  0
 45 47  1  0  0  0  0
 47 48  1  0  0  0  0
 48 49  1  0  0  0  0
 49 50  1  0  0  0  0
 50 51  1  0  0  0  0
 51 52  1  0  0  0  0
 52 53  1  0  0  0  0
 53 54  1  0  0  0  0
 54 55  2  0  0  0  0
 55 56  1  0  0  0  0
 56 57  1  0  0  0  0
 57 58  2  0  0  0  0
 58 59  1  0  0  0  0
 59 60  1  0  0  0  0
 60 61  1  0  0  0  0
 61 62  1  0  0  0  0
 62 63  1  0  0  0  0
M  END