CCCCCCCC/C=C\CCCCCCCC(=O)OC(COC(=O)CCCCCCC/C=C\CCCCCCCC)COC(=O)CCCCCCC/C=C\CCCCCCCC
  Mrv0541 09161415342D          

 63 62  0  0  0  0            999 V2000
   12.1578   -1.1098    0.0000 C   0  0  0  0  0  0  0  0  0  0  0  0
   12.8268   -0.6270    0.0000 C   0  0  0  0  0  0  0  0  0  0  0  0
   13.5794   -0.9649    0.0000 C   0  0  0  0  0  0  0  0  0  0  0  0
   14.2484   -0.4821    0.0000 C   0  0  0  0  0  0  0  0  0  0  0  0
   15.0010   -0.8201    0.0000 C   0  0  0  0  0  0  0  0  0  0  0  0
   15.6700   -0.3373    0.0000 C   0  0  0  0  0  0  0  0  0  0  0  0
   16.4226   -0.6753    0.0000 C   0  0  0  0  0  0  0  0  0  0  0  0
   17.0915   -0.1925    0.0000 C   0  0  0  0  0  0  0  0  0  0  0  0
   17.8441   -0.5304    0.0000 C   0  0  0  0  0  0  0  0  0  0  0  0
   17.9278   -1.3512    0.0000 C   0  0  0  0  0  0  0  0  0  0  0  0
   17.2588   -1.8340    0.0000 C   0  0  0  0  0  0  0  0  0  0  0  0
   17.3424   -2.6547    0.0000 C   0  0  0  0  0  0  0  0  0  0  0  0
   16.6734   -3.1375    0.0000 C   0  0  0  0  0  0  0  0  0  0  0  0
   16.7570   -3.9583    0.0000 C   0  0  0  0  0  0  0  0  0  0  0  0
   16.0881   -4.4411    0.0000 C   0  0  0  0  0  0  0  0  0  0  0  0
   16.1717   -5.2618    0.0000 C   0  0  0  0  0  0  0  0  0  0  0  0
   15.5027   -5.7446    0.0000 C   0  0  0  0  0  0  0  0  0  0  0  0
   15.5863   -6.5654    0.0000 C   0  0  0  0  0  0  0  0  0  0  0  0
   16.3389   -6.9033    0.0000 O   0  0  0  0  0  0  0  0  0  0  0  0
   14.9174   -7.0482    0.0000 O   0  0  0  0  0  0  0  0  0  0  0  0
   15.0010   -7.8689    0.0000 C   0  0  0  0  0  0  0  0  0  0  0  0
   14.3320   -8.3517    0.0000 C   0  0  0  0  0  0  0  0  0  0  0  0
   13.5794   -8.0137    0.0000 O   0  0  0  0  0  0  0  0  0  0  0  0
   12.9104   -8.4965    0.0000 C   0  0  0  0  0  0  0  0  0  0  0  0
   12.9940   -9.3173    0.0000 O   0  0  0  0  0  0  0  0  0  0  0  0
   12.1578   -8.1586    0.0000 C   0  0  0  0  0  0  0  0  0  0  0  0
   11.4888   -8.6414    0.0000 C   0  0  0  0  0  0  0  0  0  0  0  0
   10.7362   -8.3034    0.0000 C   0  0  0  0  0  0  0  0  0  0  0  0
   10.0672   -8.7862    0.0000 C   0  0  0  0  0  0  0  0  0  0  0  0
    9.3146   -8.4483    0.0000 C   0  0  0  0  0  0  0  0  0  0  0  0
    9.2310   -7.6275    0.0000 C   0  0  0  0  0  0  0  0  0  0  0  0
    9.9000   -7.1447    0.0000 C   0  0  0  0  0  0  0  0  0  0  0  0
    9.8164   -6.3240    0.0000 C   0  0  0  0  0  0  0  0  0  0  0  0
    9.0638   -5.9860    0.0000 C   0  0  0  0  0  0  0  0  0  0  0  0
    8.3948   -6.4688    0.0000 C   0  0  0  0  0  0  0  0  0  0  0  0
    7.6422   -6.1308    0.0000 C   0  0  0  0  0  0  0  0  0  0  0  0
    6.9732   -6.6136    0.0000 C   0  0  0  0  0  0  0  0  0  0  0  0
    6.2206   -6.2757    0.0000 C   0  0  0  0  0  0  0  0  0  0  0  0
    5.5516   -6.7585    0.0000 C   0  0  0  0  0  0  0  0  0  0  0  0
    4.7990   -6.4205    0.0000 C   0  0  0  0  0  0  0  0  0  0  0  0
    4.1300   -6.9033    0.0000 C   0  0  0  0  0  0  0  0  0  0  0  0
    3.3774   -6.5654    0.0000 C   0  0  0  0  0  0  0  0  0  0  0  0
   15.7536   -8.2069    0.0000 C   0  0  0  0  0  0  0  0  0  0  0  0
   16.4226   -7.7241    0.0000 O   0  0  0  0  0  0  0  0  0  0  0  0
   17.1752   -8.0620    0.0000 C   0  0  0  0  0  0  0  0  0  0  0  0
   17.2588   -8.8828    0.0000 O   0  0  0  0  0  0  0  0  0  0  0  0
   17.8441   -7.5792    0.0000 C   0  0  0  0  0  0  0  0  0  0  0  0
   18.5967   -7.9172    0.0000 C   0  0  0  0  0  0  0  0  0  0  0  0
   19.2657   -7.4344    0.0000 C   0  0  0  0  0  0  0  0  0  0  0  0
   20.0183   -7.7723    0.0000 C   0  0  0  0  0  0  0  0  0  0  0  0
   20.6873   -7.2895    0.0000 C   0  0  0  0  0  0  0  0  0  0  0  0
   21.4399   -7.6275    0.0000 C   0  0  0  0  0  0  0  0  0  0  0  0
   22.1089   -7.1447    0.0000 C   0  0  0  0  0  0  0  0  0  0  0  0
   22.8615   -7.4827    0.0000 C   0  0  0  0  0  0  0  0  0  0  0  0
   23.5305   -6.9999    0.0000 C   0  0  0  0  0  0  0  0  0  0  0  0
   23.4468   -6.1791    0.0000 C   0  0  0  0  0  0  0  0  0  0  0  0
   24.1158   -5.6963    0.0000 C   0  0  0  0  0  0  0  0  0  0  0  0
   24.8684   -6.0343    0.0000 C   0  0  0  0  0  0  0  0  0  0  0  0
   25.5374   -5.5515    0.0000 C   0  0  0  0  0  0  0  0  0  0  0  0
   26.2900   -5.8894    0.0000 C   0  0  0  0  0  0  0  0  0  0  0  0
   26.9590   -5.4066    0.0000 C   0  0  0  0  0  0  0  0  0  0  0  0
   27.7116   -5.7446    0.0000 C   0  0  0  0  0  0  0  0  0  0  0  0
   28.3806   -5.2618    0.0000 C   0  0  0  0  0  0  0  0  0  0  0  0
  1  2  1  0  0  0  0
  2  3  1  0  0  0  0
  3  4  1  0  0  0  0
  4  5  1  0  0  0  0
  5  6  1  0  0  0  0
  6  7  1  0  0  0  0
  7  8  1  0  0  0  0
  8  9  1  0  0  0  0
  9 10  2  0  0  0  0
 10 11  1  0  0  0  0
 11 12  1  0  0  0  0
 12 13  1  0  0  0  0
 13 14  1  0  0  0  0
 14 15  1  0  0  0  0
 15 16  1  0  0  0  0
 16 17  1  0  0  0  0
 17 18  1  0  0  0  0
 18 19  2  0  0  0  0
 18 20  1  0  0  0  0
 20 21  1  0  0  0  0
 21 22  1  0  0  0  0
 22 23  1  0  0  0  0
 23 24  1  0  0  0  0
 24 25  2  0  0  0  0
 24 26  1  0  0  0  0
 26 27  1  0  0  0  0
 27 28  1  0  0  0  0
 28 29  1  0  0  0  0
 29 30  1  0  0  0  0
 30 31  1  0  0  0  0
 31 32  1  0  0  0  0
 32 33  1  0  0  0  0
 33 34  2  0  0  0  0
 34 35  1  0  0  0  0
 35 36  1  0  0  0  0
 36 37  1  0  0  0  0
 37 38  1  0  0  0  0
 38 39  1  0  0  0  0
 39 40  1  0  0  0  0
 40 41  1  0  0  0  0
 41 42  1  0  0  0  0
 21 43  1  0  0  0  0
 43 44  1  0  0  0  0
 44 45  1  0  0  0  0
 45 46  2  0  0  0  0
 45 47  1  0  0  0  0
 47 48  1  0  0  0  0
 48 49  1  0  0  0  0
 49 50  1  0  0  0  0
 50 51  1  0  0  0  0
 51 52  1  0  0  0  0
 52 53  1  0  0  0  0
 53 54  1  0  0  0  0
 54 55  2  0  0  0  0
 55 56  1  0  0  0  0
 56 57  1  0  0  0  0
 57 58  1  0  0  0  0
 58 59  1  0  0  0  0
 59 60  1  0  0  0  0
 60 61  1  0  0  0  0
 61 62  1  0  0  0  0
 62 63  1  0  0  0  0
M  END