CCCCCCCCCCCC(=O)OC(COC(=O)CCCCCCCCCCC)COC(=O)CCCCCCCCCCC
  Mrv0541 09161415342D          

 45 44  0  0  0  0            999 V2000
   21.0888   17.9506    0.0000 C   0  0  0  0  0  0  0  0  0  0  0  0
   21.0888   17.1256    0.0000 C   0  0  0  0  0  0  0  0  0  0  0  0
   21.8033   16.7131    0.0000 C   0  0  0  0  0  0  0  0  0  0  0  0
   21.8033   15.8881    0.0000 C   0  0  0  0  0  0  0  0  0  0  0  0
   22.5177   15.4756    0.0000 C   0  0  0  0  0  0  0  0  0  0  0  0
   22.5177   14.6506    0.0000 C   0  0  0  0  0  0  0  0  0  0  0  0
   23.2322   14.2381    0.0000 C   0  0  0  0  0  0  0  0  0  0  0  0
   23.2322   13.4131    0.0000 C   0  0  0  0  0  0  0  0  0  0  0  0
   23.9467   13.0006    0.0000 C   0  0  0  0  0  0  0  0  0  0  0  0
   23.9467   12.1756    0.0000 C   0  0  0  0  0  0  0  0  0  0  0  0
   24.6612   11.7631    0.0000 C   0  0  0  0  0  0  0  0  0  0  0  0
   24.6612   10.9381    0.0000 C   0  0  0  0  0  0  0  0  0  0  0  0
   23.9467   10.5256    0.0000 O   0  0  0  0  0  0  0  0  0  0  0  0
   25.3756   10.5256    0.0000 O   0  0  0  0  0  0  0  0  0  0  0  0
   25.3756    9.7006    0.0000 C   0  0  0  0  0  0  0  0  0  0  0  0
   24.6612    9.2881    0.0000 C   0  0  0  0  0  0  0  0  0  0  0  0
   23.9467    9.7006    0.0000 O   0  0  0  0  0  0  0  0  0  0  0  0
   23.2322    9.2881    0.0000 C   0  0  0  0  0  0  0  0  0  0  0  0
   23.2322    8.4631    0.0000 O   0  0  0  0  0  0  0  0  0  0  0  0
   22.5177    9.7006    0.0000 C   0  0  0  0  0  0  0  0  0  0  0  0
   21.8033    9.2881    0.0000 C   0  0  0  0  0  0  0  0  0  0  0  0
   21.0888    9.7006    0.0000 C   0  0  0  0  0  0  0  0  0  0  0  0
   20.3743    9.2881    0.0000 C   0  0  0  0  0  0  0  0  0  0  0  0
   19.6599    9.7006    0.0000 C   0  0  0  0  0  0  0  0  0  0  0  0
   18.9454    9.2881    0.0000 C   0  0  0  0  0  0  0  0  0  0  0  0
   18.2309    9.7006    0.0000 C   0  0  0  0  0  0  0  0  0  0  0  0
   17.5164    9.2881    0.0000 C   0  0  0  0  0  0  0  0  0  0  0  0
   16.8020    9.7006    0.0000 C   0  0  0  0  0  0  0  0  0  0  0  0
   16.0875    9.2881    0.0000 C   0  0  0  0  0  0  0  0  0  0  0  0
   15.3730    9.7006    0.0000 C   0  0  0  0  0  0  0  0  0  0  0  0
   26.0901    9.2881    0.0000 C   0  0  0  0  0  0  0  0  0  0  0  0
   26.8046    9.7006    0.0000 O   0  0  0  0  0  0  0  0  0  0  0  0
   27.5190    9.2881    0.0000 C   0  0  0  0  0  0  0  0  0  0  0  0
   27.5190    8.4631    0.0000 O   0  0  0  0  0  0  0  0  0  0  0  0
   28.2335    9.7006    0.0000 C   0  0  0  0  0  0  0  0  0  0  0  0
   28.9480    9.2881    0.0000 C   0  0  0  0  0  0  0  0  0  0  0  0
   29.6624    9.7006    0.0000 C   0  0  0  0  0  0  0  0  0  0  0  0
   30.3769    9.2881    0.0000 C   0  0  0  0  0  0  0  0  0  0  0  0
   31.0914    9.7006    0.0000 C   0  0  0  0  0  0  0  0  0  0  0  0
   31.8059    9.2881    0.0000 C   0  0  0  0  0  0  0  0  0  0  0  0
   32.5203    9.7006    0.0000 C   0  0  0  0  0  0  0  0  0  0  0  0
   33.2348    9.2881    0.0000 C   0  0  0  0  0  0  0  0  0  0  0  0
   33.9493    9.7006    0.0000 C   0  0  0  0  0  0  0  0  0  0  0  0
   34.6637    9.2881    0.0000 C   0  0  0  0  0  0  0  0  0  0  0  0
   35.3782    9.7006    0.0000 C   0  0  0  0  0  0  0  0  0  0  0  0
  1  2  1  0  0  0  0
  2  3  1  0  0  0  0
  3  4  1  0  0  0  0
  4  5  1  0  0  0  0
  5  6  1  0  0  0  0
  6  7  1  0  0  0  0
  7  8  1  0  0  0  0
  8  9  1  0  0  0  0
  9 10  1  0  0  0  0
 10 11  1  0  0  0  0
 11 12  1  0  0  0  0
 12 13  2  0  0  0  0
 12 14  1  0  0  0  0
 14 15  1  0  0  0  0
 15 16  1  0  0  0  0
 16 17  1  0  0  0  0
 17 18  1  0  0  0  0
 18 19  2  0  0  0  0
 18 20  1  0  0  0  0
 20 21  1  0  0  0  0
 21 22  1  0  0  0  0
 22 23  1  0  0  0  0
 23 24  1  0  0  0  0
 24 25  1  0  0  0  0
 25 26  1  0  0  0  0
 26 27  1  0  0  0  0
 27 28  1  0  0  0  0
 28 29  1  0  0  0  0
 29 30  1  0  0  0  0
 15 31  1  0  0  0  0
 31 32  1  0  0  0  0
 32 33  1  0  0  0  0
 33 34  2  0  0  0  0
 33 35  1  0  0  0  0
 35 36  1  0  0  0  0
 36 37  1  0  0  0  0
 37 38  1  0  0  0  0
 38 39  1  0  0  0  0
 39 40  1  0  0  0  0
 40 41  1  0  0  0  0
 41 42  1  0  0  0  0
 42 43  1  0  0  0  0
 43 44  1  0  0  0  0
 44 45  1  0  0  0  0
M  END