CCCCCCCCCCCCCCCC(=O)OC(COC(=O)CCCCCCCCCCCCCCC)COC(=O)CCCCCCCCCCCCCCC
  Mrv0541 09161415342D          

 57 56  0  0  0  0            999 V2000
   27.4677   23.2835    0.0000 C   0  0  0  0  0  0  0  0  0  0  0  0
   27.4677   22.4585    0.0000 C   0  0  0  0  0  0  0  0  0  0  0  0
   28.1822   22.0460    0.0000 C   0  0  0  0  0  0  0  0  0  0  0  0
   28.1822   21.2210    0.0000 C   0  0  0  0  0  0  0  0  0  0  0  0
   28.8967   20.8085    0.0000 C   0  0  0  0  0  0  0  0  0  0  0  0
   28.8967   19.9835    0.0000 C   0  0  0  0  0  0  0  0  0  0  0  0
   29.6112   19.5710    0.0000 C   0  0  0  0  0  0  0  0  0  0  0  0
   29.6112   18.7460    0.0000 C   0  0  0  0  0  0  0  0  0  0  0  0
   30.3256   18.3335    0.0000 C   0  0  0  0  0  0  0  0  0  0  0  0
   30.3256   17.5085    0.0000 C   0  0  0  0  0  0  0  0  0  0  0  0
   31.0401   17.0960    0.0000 C   0  0  0  0  0  0  0  0  0  0  0  0
   31.0401   16.2710    0.0000 C   0  0  0  0  0  0  0  0  0  0  0  0
   31.7546   15.8585    0.0000 C   0  0  0  0  0  0  0  0  0  0  0  0
   31.7546   15.0335    0.0000 C   0  0  0  0  0  0  0  0  0  0  0  0
   32.4690   14.6210    0.0000 C   0  0  0  0  0  0  0  0  0  0  0  0
   32.4690   13.7960    0.0000 C   0  0  0  0  0  0  0  0  0  0  0  0
   31.7546   13.3835    0.0000 O   0  0  0  0  0  0  0  0  0  0  0  0
   33.1835   13.3835    0.0000 O   0  0  0  0  0  0  0  0  0  0  0  0
   33.1835   12.5585    0.0000 C   0  0  0  0  0  0  0  0  0  0  0  0
   32.4690   12.1460    0.0000 C   0  0  0  0  0  0  0  0  0  0  0  0
   31.7546   12.5585    0.0000 O   0  0  0  0  0  0  0  0  0  0  0  0
   31.0401   12.1460    0.0000 C   0  0  0  0  0  0  0  0  0  0  0  0
   31.0401   11.3210    0.0000 O   0  0  0  0  0  0  0  0  0  0  0  0
   30.3256   12.5585    0.0000 C   0  0  0  0  0  0  0  0  0  0  0  0
   29.6112   12.1460    0.0000 C   0  0  0  0  0  0  0  0  0  0  0  0
   28.8967   12.5585    0.0000 C   0  0  0  0  0  0  0  0  0  0  0  0
   28.1822   12.1460    0.0000 C   0  0  0  0  0  0  0  0  0  0  0  0
   27.4677   12.5585    0.0000 C   0  0  0  0  0  0  0  0  0  0  0  0
   26.7533   12.1460    0.0000 C   0  0  0  0  0  0  0  0  0  0  0  0
   26.0388   12.5585    0.0000 C   0  0  0  0  0  0  0  0  0  0  0  0
   25.3243   12.1460    0.0000 C   0  0  0  0  0  0  0  0  0  0  0  0
   24.6099   12.5585    0.0000 C   0  0  0  0  0  0  0  0  0  0  0  0
   23.8954   12.1460    0.0000 C   0  0  0  0  0  0  0  0  0  0  0  0
   23.1809   12.5585    0.0000 C   0  0  0  0  0  0  0  0  0  0  0  0
   22.4664   12.1460    0.0000 C   0  0  0  0  0  0  0  0  0  0  0  0
   21.7520   12.5585    0.0000 C   0  0  0  0  0  0  0  0  0  0  0  0
   21.0375   12.1460    0.0000 C   0  0  0  0  0  0  0  0  0  0  0  0
   20.3230   12.5585    0.0000 C   0  0  0  0  0  0  0  0  0  0  0  0
   33.8980   12.1460    0.0000 C   0  0  0  0  0  0  0  0  0  0  0  0
   34.6124   12.5585    0.0000 O   0  0  0  0  0  0  0  0  0  0  0  0
   35.3269   12.1460    0.0000 C   0  0  0  0  0  0  0  0  0  0  0  0
   35.3269   11.3210    0.0000 O   0  0  0  0  0  0  0  0  0  0  0  0
   36.0414   12.5585    0.0000 C   0  0  0  0  0  0  0  0  0  0  0  0
   36.7559   12.1460    0.0000 C   0  0  0  0  0  0  0  0  0  0  0  0
   37.4703   12.5585    0.0000 C   0  0  0  0  0  0  0  0  0  0  0  0
   38.1848   12.1460    0.0000 C   0  0  0  0  0  0  0  0  0  0  0  0
   38.8993   12.5585    0.0000 C   0  0  0  0  0  0  0  0  0  0  0  0
   39.6137   12.1460    0.0000 C   0  0  0  0  0  0  0  0  0  0  0  0
   40.3282   12.5585    0.0000 C   0  0  0  0  0  0  0  0  0  0  0  0
   41.0427   12.1460    0.0000 C   0  0  0  0  0  0  0  0  0  0  0  0
   41.7572   12.5585    0.0000 C   0  0  0  0  0  0  0  0  0  0  0  0
   42.4716   12.1460    0.0000 C   0  0  0  0  0  0  0  0  0  0  0  0
   43.1861   12.5585    0.0000 C   0  0  0  0  0  0  0  0  0  0  0  0
   43.9006   12.1460    0.0000 C   0  0  0  0  0  0  0  0  0  0  0  0
   44.6150   12.5585    0.0000 C   0  0  0  0  0  0  0  0  0  0  0  0
   45.3295   12.1460    0.0000 C   0  0  0  0  0  0  0  0  0  0  0  0
   46.0440   12.5585    0.0000 C   0  0  0  0  0  0  0  0  0  0  0  0
  1  2  1  0  0  0  0
  2  3  1  0  0  0  0
  3  4  1  0  0  0  0
  4  5  1  0  0  0  0
  5  6  1  0  0  0  0
  6  7  1  0  0  0  0
  7  8  1  0  0  0  0
  8  9  1  0  0  0  0
  9 10  1  0  0  0  0
 10 11  1  0  0  0  0
 11 12  1  0  0  0  0
 12 13  1  0  0  0  0
 13 14  1  0  0  0  0
 14 15  1  0  0  0  0
 15 16  1  0  0  0  0
 16 17  2  0  0  0  0
 16 18  1  0  0  0  0
 18 19  1  0  0  0  0
 19 20  1  0  0  0  0
 20 21  1  0  0  0  0
 21 22  1  0  0  0  0
 22 23  2  0  0  0  0
 22 24  1  0  0  0  0
 24 25  1  0  0  0  0
 25 26  1  0  0  0  0
 26 27  1  0  0  0  0
 27 28  1  0  0  0  0
 28 29  1  0  0  0  0
 29 30  1  0  0  0  0
 30 31  1  0  0  0  0
 31 32  1  0  0  0  0
 32 33  1  0  0  0  0
 33 34  1  0  0  0  0
 34 35  1  0  0  0  0
 35 36  1  0  0  0  0
 36 37  1  0  0  0  0
 37 38  1  0  0  0  0
 19 39  1  0  0  0  0
 39 40  1  0  0  0  0
 40 41  1  0  0  0  0
 41 42  2  0  0  0  0
 41 43  1  0  0  0  0
 43 44  1  0  0  0  0
 44 45  1  0  0  0  0
 45 46  1  0  0  0  0
 46 47  1  0  0  0  0
 47 48  1  0  0  0  0
 48 49  1  0  0  0  0
 49 50  1  0  0  0  0
 50 51  1  0  0  0  0
 51 52  1  0  0  0  0
 52 53  1  0  0  0  0
 53 54  1  0  0  0  0
 54 55  1  0  0  0  0
 55 56  1  0  0  0  0
 56 57  1  0  0  0  0
M  END