CCCCCCCCCCCCCCCCCC(=O)OC(COC(=O)CCCCCCCCCCCCCCCCC)COC(=O)CCCCCCCCCCCCCCCCC
  Mrv0541 09161415342D          

 63 62  0  0  0  0            999 V2000
   30.6572   25.9499    0.0000 C   0  0  0  0  0  0  0  0  0  0  0  0
   30.6572   25.1249    0.0000 C   0  0  0  0  0  0  0  0  0  0  0  0
   31.3717   24.7124    0.0000 C   0  0  0  0  0  0  0  0  0  0  0  0
   31.3717   23.8874    0.0000 C   0  0  0  0  0  0  0  0  0  0  0  0
   32.0862   23.4749    0.0000 C   0  0  0  0  0  0  0  0  0  0  0  0
   32.0862   22.6499    0.0000 C   0  0  0  0  0  0  0  0  0  0  0  0
   32.8006   22.2374    0.0000 C   0  0  0  0  0  0  0  0  0  0  0  0
   32.8006   21.4124    0.0000 C   0  0  0  0  0  0  0  0  0  0  0  0
   33.5151   20.9999    0.0000 C   0  0  0  0  0  0  0  0  0  0  0  0
   33.5151   20.1749    0.0000 C   0  0  0  0  0  0  0  0  0  0  0  0
   34.2296   19.7624    0.0000 C   0  0  0  0  0  0  0  0  0  0  0  0
   34.2296   18.9374    0.0000 C   0  0  0  0  0  0  0  0  0  0  0  0
   34.9440   18.5249    0.0000 C   0  0  0  0  0  0  0  0  0  0  0  0
   34.9440   17.6999    0.0000 C   0  0  0  0  0  0  0  0  0  0  0  0
   35.6585   17.2874    0.0000 C   0  0  0  0  0  0  0  0  0  0  0  0
   35.6585   16.4624    0.0000 C   0  0  0  0  0  0  0  0  0  0  0  0
   36.3730   16.0499    0.0000 C   0  0  0  0  0  0  0  0  0  0  0  0
   36.3730   15.2249    0.0000 C   0  0  0  0  0  0  0  0  0  0  0  0
   35.6585   14.8124    0.0000 O   0  0  0  0  0  0  0  0  0  0  0  0
   37.0874   14.8124    0.0000 O   0  0  0  0  0  0  0  0  0  0  0  0
   37.0874   13.9874    0.0000 C   0  0  0  0  0  0  0  0  0  0  0  0
   36.3730   13.5749    0.0000 C   0  0  0  0  0  0  0  0  0  0  0  0
   35.6585   13.9874    0.0000 O   0  0  0  0  0  0  0  0  0  0  0  0
   34.9440   13.5749    0.0000 C   0  0  0  0  0  0  0  0  0  0  0  0
   34.9440   12.7499    0.0000 O   0  0  0  0  0  0  0  0  0  0  0  0
   34.2296   13.9874    0.0000 C   0  0  0  0  0  0  0  0  0  0  0  0
   33.5151   13.5749    0.0000 C   0  0  0  0  0  0  0  0  0  0  0  0
   32.8006   13.9874    0.0000 C   0  0  0  0  0  0  0  0  0  0  0  0
   32.0862   13.5749    0.0000 C   0  0  0  0  0  0  0  0  0  0  0  0
   31.3717   13.9874    0.0000 C   0  0  0  0  0  0  0  0  0  0  0  0
   30.6572   13.5749    0.0000 C   0  0  0  0  0  0  0  0  0  0  0  0
   29.9427   13.9874    0.0000 C   0  0  0  0  0  0  0  0  0  0  0  0
   29.2283   13.5749    0.0000 C   0  0  0  0  0  0  0  0  0  0  0  0
   28.5138   13.9874    0.0000 C   0  0  0  0  0  0  0  0  0  0  0  0
   27.7993   13.5749    0.0000 C   0  0  0  0  0  0  0  0  0  0  0  0
   27.0849   13.9874    0.0000 C   0  0  0  0  0  0  0  0  0  0  0  0
   26.3704   13.5749    0.0000 C   0  0  0  0  0  0  0  0  0  0  0  0
   25.6559   13.9874    0.0000 C   0  0  0  0  0  0  0  0  0  0  0  0
   24.9414   13.5749    0.0000 C   0  0  0  0  0  0  0  0  0  0  0  0
   24.2270   13.9874    0.0000 C   0  0  0  0  0  0  0  0  0  0  0  0
   23.5125   13.5749    0.0000 C   0  0  0  0  0  0  0  0  0  0  0  0
   22.7980   13.9874    0.0000 C   0  0  0  0  0  0  0  0  0  0  0  0
   37.8019   13.5749    0.0000 C   0  0  0  0  0  0  0  0  0  0  0  0
   38.5164   13.9874    0.0000 O   0  0  0  0  0  0  0  0  0  0  0  0
   39.2309   13.5749    0.0000 C   0  0  0  0  0  0  0  0  0  0  0  0
   39.2309   12.7499    0.0000 O   0  0  0  0  0  0  0  0  0  0  0  0
   39.9453   13.9874    0.0000 C   0  0  0  0  0  0  0  0  0  0  0  0
   40.6598   13.5749    0.0000 C   0  0  0  0  0  0  0  0  0  0  0  0
   41.3743   13.9874    0.0000 C   0  0  0  0  0  0  0  0  0  0  0  0
   42.0887   13.5749    0.0000 C   0  0  0  0  0  0  0  0  0  0  0  0
   42.8032   13.9874    0.0000 C   0  0  0  0  0  0  0  0  0  0  0  0
   43.5177   13.5749    0.0000 C   0  0  0  0  0  0  0  0  0  0  0  0
   44.2322   13.9874    0.0000 C   0  0  0  0  0  0  0  0  0  0  0  0
   44.9466   13.5749    0.0000 C   0  0  0  0  0  0  0  0  0  0  0  0
   45.6611   13.9874    0.0000 C   0  0  0  0  0  0  0  0  0  0  0  0
   46.3756   13.5749    0.0000 C   0  0  0  0  0  0  0  0  0  0  0  0
   47.0900   13.9874    0.0000 C   0  0  0  0  0  0  0  0  0  0  0  0
   47.8045   13.5749    0.0000 C   0  0  0  0  0  0  0  0  0  0  0  0
   48.5190   13.9874    0.0000 C   0  0  0  0  0  0  0  0  0  0  0  0
   49.2335   13.5749    0.0000 C   0  0  0  0  0  0  0  0  0  0  0  0
   49.9479   13.9874    0.0000 C   0  0  0  0  0  0  0  0  0  0  0  0
   50.6624   13.5749    0.0000 C   0  0  0  0  0  0  0  0  0  0  0  0
   51.3769   13.9874    0.0000 C   0  0  0  0  0  0  0  0  0  0  0  0
  1  2  1  0  0  0  0
  2  3  1  0  0  0  0
  3  4  1  0  0  0  0
  4  5  1  0  0  0  0
  5  6  1  0  0  0  0
  6  7  1  0  0  0  0
  7  8  1  0  0  0  0
  8  9  1  0  0  0  0
  9 10  1  0  0  0  0
 10 11  1  0  0  0  0
 11 12  1  0  0  0  0
 12 13  1  0  0  0  0
 13 14  1  0  0  0  0
 14 15  1  0  0  0  0
 15 16  1  0  0  0  0
 16 17  1  0  0  0  0
 17 18  1  0  0  0  0
 18 19  2  0  0  0  0
 18 20  1  0  0  0  0
 20 21  1  0  0  0  0
 21 22  1  0  0  0  0
 22 23  1  0  0  0  0
 23 24  1  0  0  0  0
 24 25  2  0  0  0  0
 24 26  1  0  0  0  0
 26 27  1  0  0  0  0
 27 28  1  0  0  0  0
 28 29  1  0  0  0  0
 29 30  1  0  0  0  0
 30 31  1  0  0  0  0
 31 32  1  0  0  0  0
 32 33  1  0  0  0  0
 33 34  1  0  0  0  0
 34 35  1  0  0  0  0
 35 36  1  0  0  0  0
 36 37  1  0  0  0  0
 37 38  1  0  0  0  0
 38 39  1  0  0  0  0
 39 40  1  0  0  0  0
 40 41  1  0  0  0  0
 41 42  1  0  0  0  0
 21 43  1  0  0  0  0
 43 44  1  0  0  0  0
 44 45  1  0  0  0  0
 45 46  2  0  0  0  0
 45 47  1  0  0  0  0
 47 48  1  0  0  0  0
 48 49  1  0  0  0  0
 49 50  1  0  0  0  0
 50 51  1  0  0  0  0
 51 52  1  0  0  0  0
 52 53  1  0  0  0  0
 53 54  1  0  0  0  0
 54 55  1  0  0  0  0
 55 56  1  0  0  0  0
 56 57  1  0  0  0  0
 57 58  1  0  0  0  0
 58 59  1  0  0  0  0
 59 60  1  0  0  0  0
 60 61  1  0  0  0  0
 61 62  1  0  0  0  0
 62 63  1  0  0  0  0
M  END