CCCCOC(=O)CCCCCCC/C=C\C/C=C\C/C=C\CC
  Mrv0541 09161415342D          

 24 23  0  0  0  0            999 V2000
    1.2375    3.5724    0.0000 C   0  0  0  0  0  0  0  0  0  0  0  0
    2.0625    3.5724    0.0000 C   0  0  0  0  0  0  0  0  0  0  0  0
    2.4750    4.2868    0.0000 C   0  0  0  0  0  0  0  0  0  0  0  0
    3.3000    4.2868    0.0000 C   0  0  0  0  0  0  0  0  0  0  0  0
    3.7125    5.0013    0.0000 O   0  0  0  0  0  0  0  0  0  0  0  0
    4.5375    5.0013    0.0000 C   0  0  0  0  0  0  0  0  0  0  0  0
    4.9500    4.2868    0.0000 O   0  0  0  0  0  0  0  0  0  0  0  0
    4.9500    5.7158    0.0000 C   0  0  0  0  0  0  0  0  0  0  0  0
    5.7750    5.7158    0.0000 C   0  0  0  0  0  0  0  0  0  0  0  0
    6.1875    6.4302    0.0000 C   0  0  0  0  0  0  0  0  0  0  0  0
    7.0125    6.4302    0.0000 C   0  0  0  0  0  0  0  0  0  0  0  0
    7.4250    5.7158    0.0000 C   0  0  0  0  0  0  0  0  0  0  0  0
    7.0125    5.0013    0.0000 C   0  0  0  0  0  0  0  0  0  0  0  0
    7.4250    4.2868    0.0000 C   0  0  0  0  0  0  0  0  0  0  0  0
    7.0125    3.5724    0.0000 C   0  0  0  0  0  0  0  0  0  0  0  0
    7.4250    2.8579    0.0000 C   0  0  0  0  0  0  0  0  0  0  0  0
    8.2500    2.8579    0.0000 C   0  0  0  0  0  0  0  0  0  0  0  0
    8.6625    2.1434    0.0000 C   0  0  0  0  0  0  0  0  0  0  0  0
    9.4875    2.1434    0.0000 C   0  0  0  0  0  0  0  0  0  0  0  0
    9.9000    2.8579    0.0000 C   0  0  0  0  0  0  0  0  0  0  0  0
   10.7250    2.8579    0.0000 C   0  0  0  0  0  0  0  0  0  0  0  0
   11.1375    3.5724    0.0000 C   0  0  0  0  0  0  0  0  0  0  0  0
   10.7250    4.2868    0.0000 C   0  0  0  0  0  0  0  0  0  0  0  0
   11.1375    5.0013    0.0000 C   0  0  0  0  0  0  0  0  0  0  0  0
  1  2  1  0  0  0  0
  2  3  1  0  0  0  0
  3  4  1  0  0  0  0
  4  5  1  0  0  0  0
  5  6  1  0  0  0  0
  6  7  2  0  0  0  0
  6  8  1  0  0  0  0
  8  9  1  0  0  0  0
  9 10  1  0  0  0  0
 10 11  1  0  0  0  0
 11 12  1  0  0  0  0
 12 13  1  0  0  0  0
 13 14  1  0  0  0  0
 14 15  1  0  0  0  0
 15 16  2  0  0  0  0
 16 17  1  0  0  0  0
 17 18  1  0  0  0  0
 18 19  2  0  0  0  0
 19 20  1  0  0  0  0
 20 21  1  0  0  0  0
 21 22  2  0  0  0  0
 22 23  1  0  0  0  0
 23 24  1  0  0  0  0
M  END