CCCCCC/C=C\CCCCCCCC(=O)OCCCC
  Mrv0541 09161415342D          

 22 21  0  0  0  0            999 V2000
    1.9007    7.6974    0.0000 C   0  0  0  0  0  0  0  0  0  0  0  0
    2.6151    7.2849    0.0000 C   0  0  0  0  0  0  0  0  0  0  0  0
    2.6151    6.4599    0.0000 C   0  0  0  0  0  0  0  0  0  0  0  0
    3.3296    6.0474    0.0000 C   0  0  0  0  0  0  0  0  0  0  0  0
    3.3296    5.2224    0.0000 C   0  0  0  0  0  0  0  0  0  0  0  0
    4.0441    4.8099    0.0000 C   0  0  0  0  0  0  0  0  0  0  0  0
    4.0441    3.9849    0.0000 C   0  0  0  0  0  0  0  0  0  0  0  0
    4.7586    3.5724    0.0000 C   0  0  0  0  0  0  0  0  0  0  0  0
    5.4730    3.9849    0.0000 C   0  0  0  0  0  0  0  0  0  0  0  0
    6.1875    3.5724    0.0000 C   0  0  0  0  0  0  0  0  0  0  0  0
    6.9020    3.9849    0.0000 C   0  0  0  0  0  0  0  0  0  0  0  0
    7.6164    3.5724    0.0000 C   0  0  0  0  0  0  0  0  0  0  0  0
    8.3309    3.9849    0.0000 C   0  0  0  0  0  0  0  0  0  0  0  0
    9.0454    3.5724    0.0000 C   0  0  0  0  0  0  0  0  0  0  0  0
    9.7599    3.9849    0.0000 C   0  0  0  0  0  0  0  0  0  0  0  0
   10.4743    3.5724    0.0000 C   0  0  0  0  0  0  0  0  0  0  0  0
   10.4743    2.7474    0.0000 O   0  0  0  0  0  0  0  0  0  0  0  0
   11.1888    3.9849    0.0000 O   0  0  0  0  0  0  0  0  0  0  0  0
   11.9033    3.5724    0.0000 C   0  0  0  0  0  0  0  0  0  0  0  0
   12.6177    3.9849    0.0000 C   0  0  0  0  0  0  0  0  0  0  0  0
   13.3322    3.5724    0.0000 C   0  0  0  0  0  0  0  0  0  0  0  0
   14.0467    3.9849    0.0000 C   0  0  0  0  0  0  0  0  0  0  0  0
  1  2  1  0  0  0  0
  2  3  1  0  0  0  0
  3  4  1  0  0  0  0
  4  5  1  0  0  0  0
  5  6  1  0  0  0  0
  6  7  1  0  0  0  0
  7  8  2  0  0  0  0
  8  9  1  0  0  0  0
  9 10  1  0  0  0  0
 10 11  1  0  0  0  0
 11 12  1  0  0  0  0
 12 13  1  0  0  0  0
 13 14  1  0  0  0  0
 14 15  1  0  0  0  0
 15 16  1  0  0  0  0
 16 17  2  0  0  0  0
 16 18  1  0  0  0  0
 18 19  1  0  0  0  0
 19 20  1  0  0  0  0
 20 21  1  0  0  0  0
 21 22  1  0  0  0  0
M  END