CCOC(=O)/C=C\C(=O)OCC
  Mrv0541 09161415342D          

 12 11  0  0  0  0            999 V2000
    3.3000   -1.4289    0.0000 C   0  0  0  0  0  0  0  0  0  0  0  0
    2.4750   -1.4289    0.0000 C   0  0  0  0  0  0  0  0  0  0  0  0
    2.0625   -0.7145    0.0000 O   0  0  0  0  0  0  0  0  0  0  0  0
    1.2375   -0.7145    0.0000 C   0  0  0  0  0  0  0  0  0  0  0  0
    0.8250   -1.4289    0.0000 O   0  0  0  0  0  0  0  0  0  0  0  0
    0.8250    0.0000    0.0000 C   0  0  0  0  0  0  0  0  0  0  0  0
    0.0000    0.0000    0.0000 C   0  0  0  0  0  0  0  0  0  0  0  0
   -0.4125   -0.7145    0.0000 C   0  0  0  0  0  0  0  0  0  0  0  0
   -1.2375   -0.7145    0.0000 O   0  0  0  0  0  0  0  0  0  0  0  0
    0.0000   -1.4289    0.0000 O   0  0  0  0  0  0  0  0  0  0  0  0
   -0.4125   -2.1434    0.0000 C   0  0  0  0  0  0  0  0  0  0  0  0
   -1.2375   -2.1434    0.0000 C   0  0  0  0  0  0  0  0  0  0  0  0
  1  2  1  0  0  0  0
  2  3  1  0  0  0  0
  3  4  1  0  0  0  0
  4  5  2  0  0  0  0
  4  6  1  0  0  0  0
  6  7  2  0  0  0  0
  7  8  1  0  0  0  0
  8  9  2  0  0  0  0
  8 10  1  0  0  0  0
 10 11  1  0  0  0  0
 11 12  1  0  0  0  0
M  END