CCCCCCCCCCCCOC(=O)CCCCCCC/C=C\CCCCCCCC
  Mrv0541 09161415342D          

 32 31  0  0  0  0            999 V2000
    9.7086   -6.4302    0.0000 C   0  0  0  0  0  0  0  0  0  0  0  0
   10.4230   -6.8427    0.0000 C   0  0  0  0  0  0  0  0  0  0  0  0
   11.1375   -6.4302    0.0000 C   0  0  0  0  0  0  0  0  0  0  0  0
   11.8520   -6.8427    0.0000 C   0  0  0  0  0  0  0  0  0  0  0  0
   12.5664   -6.4302    0.0000 C   0  0  0  0  0  0  0  0  0  0  0  0
   13.2809   -6.8427    0.0000 C   0  0  0  0  0  0  0  0  0  0  0  0
   13.9954   -6.4302    0.0000 C   0  0  0  0  0  0  0  0  0  0  0  0
   14.7099   -6.8427    0.0000 C   0  0  0  0  0  0  0  0  0  0  0  0
   15.4243   -6.4302    0.0000 C   0  0  0  0  0  0  0  0  0  0  0  0
   16.1388   -6.8427    0.0000 C   0  0  0  0  0  0  0  0  0  0  0  0
   16.8533   -6.4302    0.0000 C   0  0  0  0  0  0  0  0  0  0  0  0
   17.5677   -6.8427    0.0000 C   0  0  0  0  0  0  0  0  0  0  0  0
   18.2822   -6.4302    0.0000 O   0  0  0  0  0  0  0  0  0  0  0  0
   18.9967   -6.8427    0.0000 C   0  0  0  0  0  0  0  0  0  0  0  0
   18.9967   -7.6677    0.0000 O   0  0  0  0  0  0  0  0  0  0  0  0
   19.7112   -6.4302    0.0000 C   0  0  0  0  0  0  0  0  0  0  0  0
   20.4256   -6.8427    0.0000 C   0  0  0  0  0  0  0  0  0  0  0  0
   21.1401   -6.4302    0.0000 C   0  0  0  0  0  0  0  0  0  0  0  0
   21.8546   -6.8427    0.0000 C   0  0  0  0  0  0  0  0  0  0  0  0
   22.5690   -6.4302    0.0000 C   0  0  0  0  0  0  0  0  0  0  0  0
   23.2835   -6.8427    0.0000 C   0  0  0  0  0  0  0  0  0  0  0  0
   23.9980   -6.4302    0.0000 C   0  0  0  0  0  0  0  0  0  0  0  0
   24.7124   -6.8427    0.0000 C   0  0  0  0  0  0  0  0  0  0  0  0
   25.4269   -6.4302    0.0000 C   0  0  0  0  0  0  0  0  0  0  0  0
   25.4269   -5.6052    0.0000 C   0  0  0  0  0  0  0  0  0  0  0  0
   26.1414   -5.1927    0.0000 C   0  0  0  0  0  0  0  0  0  0  0  0
   26.8559   -5.6052    0.0000 C   0  0  0  0  0  0  0  0  0  0  0  0
   27.5703   -5.1927    0.0000 C   0  0  0  0  0  0  0  0  0  0  0  0
   28.2848   -5.6052    0.0000 C   0  0  0  0  0  0  0  0  0  0  0  0
   28.9993   -5.1927    0.0000 C   0  0  0  0  0  0  0  0  0  0  0  0
   29.7137   -5.6052    0.0000 C   0  0  0  0  0  0  0  0  0  0  0  0
   30.4282   -5.1927    0.0000 C   0  0  0  0  0  0  0  0  0  0  0  0
  1  2  1  0  0  0  0
  2  3  1  0  0  0  0
  3  4  1  0  0  0  0
  4  5  1  0  0  0  0
  5  6  1  0  0  0  0
  6  7  1  0  0  0  0
  7  8  1  0  0  0  0
  8  9  1  0  0  0  0
  9 10  1  0  0  0  0
 10 11  1  0  0  0  0
 11 12  1  0  0  0  0
 12 13  1  0  0  0  0
 13 14  1  0  0  0  0
 14 15  2  0  0  0  0
 14 16  1  0  0  0  0
 16 17  1  0  0  0  0
 17 18  1  0  0  0  0
 18 19  1  0  0  0  0
 19 20  1  0  0  0  0
 20 21  1  0  0  0  0
 21 22  1  0  0  0  0
 22 23  1  0  0  0  0
 23 24  2  0  0  0  0
 24 25  1  0  0  0  0
 25 26  1  0  0  0  0
 26 27  1  0  0  0  0
 27 28  1  0  0  0  0
 28 29  1  0  0  0  0
 29 30  1  0  0  0  0
 30 31  1  0  0  0  0
 31 32  1  0  0  0  0
M  END