CCCCCCCCCCCCOC(=O)CCCCCCCCCCC
  Mrv0541 09161415342D          

 26 25  0  0  0  0            999 V2000
   12.8980    8.2717    0.0000 C   0  0  0  0  0  0  0  0  0  0  0  0
   13.6125    7.8592    0.0000 C   0  0  0  0  0  0  0  0  0  0  0  0
   14.3270    8.2717    0.0000 C   0  0  0  0  0  0  0  0  0  0  0  0
   15.0414    7.8592    0.0000 C   0  0  0  0  0  0  0  0  0  0  0  0
   15.7559    8.2717    0.0000 C   0  0  0  0  0  0  0  0  0  0  0  0
   16.4704    7.8592    0.0000 C   0  0  0  0  0  0  0  0  0  0  0  0
   17.1849    8.2717    0.0000 C   0  0  0  0  0  0  0  0  0  0  0  0
   17.8993    7.8592    0.0000 C   0  0  0  0  0  0  0  0  0  0  0  0
   18.6138    8.2717    0.0000 C   0  0  0  0  0  0  0  0  0  0  0  0
   19.3283    7.8592    0.0000 C   0  0  0  0  0  0  0  0  0  0  0  0
   20.0427    8.2717    0.0000 C   0  0  0  0  0  0  0  0  0  0  0  0
   20.7572    7.8592    0.0000 C   0  0  0  0  0  0  0  0  0  0  0  0
   21.4717    8.2717    0.0000 O   0  0  0  0  0  0  0  0  0  0  0  0
   22.1862    7.8592    0.0000 C   0  0  0  0  0  0  0  0  0  0  0  0
   22.1862    7.0342    0.0000 O   0  0  0  0  0  0  0  0  0  0  0  0
   22.9006    8.2717    0.0000 C   0  0  0  0  0  0  0  0  0  0  0  0
   23.6151    7.8592    0.0000 C   0  0  0  0  0  0  0  0  0  0  0  0
   24.3296    8.2717    0.0000 C   0  0  0  0  0  0  0  0  0  0  0  0
   25.0440    7.8592    0.0000 C   0  0  0  0  0  0  0  0  0  0  0  0
   25.7585    8.2717    0.0000 C   0  0  0  0  0  0  0  0  0  0  0  0
   26.4730    7.8592    0.0000 C   0  0  0  0  0  0  0  0  0  0  0  0
   27.1874    8.2717    0.0000 C   0  0  0  0  0  0  0  0  0  0  0  0
   27.9019    7.8592    0.0000 C   0  0  0  0  0  0  0  0  0  0  0  0
   28.6164    8.2717    0.0000 C   0  0  0  0  0  0  0  0  0  0  0  0
   29.3309    7.8592    0.0000 C   0  0  0  0  0  0  0  0  0  0  0  0
   30.0453    8.2717    0.0000 C   0  0  0  0  0  0  0  0  0  0  0  0
  1  2  1  0  0  0  0
  2  3  1  0  0  0  0
  3  4  1  0  0  0  0
  4  5  1  0  0  0  0
  5  6  1  0  0  0  0
  6  7  1  0  0  0  0
  7  8  1  0  0  0  0
  8  9  1  0  0  0  0
  9 10  1  0  0  0  0
 10 11  1  0  0  0  0
 11 12  1  0  0  0  0
 12 13  1  0  0  0  0
 13 14  1  0  0  0  0
 14 15  2  0  0  0  0
 14 16  1  0  0  0  0
 16 17  1  0  0  0  0
 17 18  1  0  0  0  0
 18 19  1  0  0  0  0
 19 20  1  0  0  0  0
 20 21  1  0  0  0  0
 21 22  1  0  0  0  0
 22 23  1  0  0  0  0
 23 24  1  0  0  0  0
 24 25  1  0  0  0  0
 25 26  1  0  0  0  0
M  END