CCCCC/C=C\C=C\C(=O)OCC
  Mrv0541 09161415342D          

 14 13  0  0  0  0            999 V2000
   -0.1914   -0.7145    0.0000 C   0  0  0  0  0  0  0  0  0  0  0  0
    0.5230   -1.1270    0.0000 C   0  0  0  0  0  0  0  0  0  0  0  0
    1.2375   -0.7145    0.0000 C   0  0  0  0  0  0  0  0  0  0  0  0
    1.9520   -1.1270    0.0000 C   0  0  0  0  0  0  0  0  0  0  0  0
    2.6664   -0.7145    0.0000 C   0  0  0  0  0  0  0  0  0  0  0  0
    3.3809   -1.1270    0.0000 C   0  0  0  0  0  0  0  0  0  0  0  0
    4.0954   -0.7145    0.0000 C   0  0  0  0  0  0  0  0  0  0  0  0
    4.0954    0.1105    0.0000 C   0  0  0  0  0  0  0  0  0  0  0  0
    4.8099    0.5230    0.0000 C   0  0  0  0  0  0  0  0  0  0  0  0
    4.8099    1.3480    0.0000 C   0  0  0  0  0  0  0  0  0  0  0  0
    5.5243    1.7605    0.0000 O   0  0  0  0  0  0  0  0  0  0  0  0
    4.0954    1.7605    0.0000 O   0  0  0  0  0  0  0  0  0  0  0  0
    4.0954    2.5855    0.0000 C   0  0  0  0  0  0  0  0  0  0  0  0
    4.8099    2.9980    0.0000 C   0  0  0  0  0  0  0  0  0  0  0  0
  1  2  1  0  0  0  0
  2  3  1  0  0  0  0
  3  4  1  0  0  0  0
  4  5  1  0  0  0  0
  5  6  1  0  0  0  0
  6  7  2  0  0  0  0
  7  8  1  0  0  0  0
  8  9  2  0  0  0  0
  9 10  1  0  0  0  0
 10 11  2  0  0  0  0
 10 12  1  0  0  0  0
 12 13  1  0  0  0  0
 13 14  1  0  0  0  0
M  END