CCCCC/C=C/C/C=C/C/C=C\CCCCC(=O)OC
  Mrv0541 09161415342D          

 21 20  0  0  0  0            999 V2000
   -6.0987    3.9039    0.0000 C   0  0  0  0  0  0  0  0  0  0  0  0
   -5.3842    4.3164    0.0000 C   0  0  0  0  0  0  0  0  0  0  0  0
   -4.6697    3.9039    0.0000 C   0  0  0  0  0  0  0  0  0  0  0  0
   -3.9552    4.3164    0.0000 C   0  0  0  0  0  0  0  0  0  0  0  0
   -3.2408    3.9039    0.0000 C   0  0  0  0  0  0  0  0  0  0  0  0
   -2.5263    4.3164    0.0000 C   0  0  0  0  0  0  0  0  0  0  0  0
   -1.8118    3.9039    0.0000 C   0  0  0  0  0  0  0  0  0  0  0  0
   -1.0974    4.3164    0.0000 C   0  0  0  0  0  0  0  0  0  0  0  0
   -0.3829    3.9039    0.0000 C   0  0  0  0  0  0  0  0  0  0  0  0
   -0.3829    3.0789    0.0000 C   0  0  0  0  0  0  0  0  0  0  0  0
    0.3316    2.6664    0.0000 C   0  0  0  0  0  0  0  0  0  0  0  0
    0.3316    1.8414    0.0000 C   0  0  0  0  0  0  0  0  0  0  0  0
    1.0461    1.4289    0.0000 C   0  0  0  0  0  0  0  0  0  0  0  0
    1.7605    1.8414    0.0000 C   0  0  0  0  0  0  0  0  0  0  0  0
    2.4750    1.4289    0.0000 C   0  0  0  0  0  0  0  0  0  0  0  0
    3.1895    1.8414    0.0000 C   0  0  0  0  0  0  0  0  0  0  0  0
    3.9039    1.4289    0.0000 C   0  0  0  0  0  0  0  0  0  0  0  0
    4.6184    1.8414    0.0000 C   0  0  0  0  0  0  0  0  0  0  0  0
    4.6184    2.6664    0.0000 O   0  0  0  0  0  0  0  0  0  0  0  0
    5.3329    1.4289    0.0000 O   0  0  0  0  0  0  0  0  0  0  0  0
    6.0474    1.8414    0.0000 C   0  0  0  0  0  0  0  0  0  0  0  0
  1  2  1  0  0  0  0
  2  3  1  0  0  0  0
  3  4  1  0  0  0  0
  4  5  1  0  0  0  0
  5  6  1  0  0  0  0
  6  7  2  0  0  0  0
  7  8  1  0  0  0  0
  8  9  1  0  0  0  0
  9 10  2  0  0  0  0
 10 11  1  0  0  0  0
 11 12  1  0  0  0  0
 12 13  2  0  0  0  0
 13 14  1  0  0  0  0
 14 15  1  0  0  0  0
 15 16  1  0  0  0  0
 16 17  1  0  0  0  0
 17 18  1  0  0  0  0
 18 19  2  0  0  0  0
 18 20  1  0  0  0  0
 20 21  1  0  0  0  0
M  END