CC/C=C\C/C=C\C/C=C\CCCCCCCC(=O)OC
  Mrv0541 09161415342D          

 21 20  0  0  0  0            999 V2000
    0.5847    6.1320    0.0000 C   0  0  0  0  0  0  0  0  0  0  0  0
    0.3146    5.3524    0.0000 C   0  0  0  0  0  0  0  0  0  0  0  0
   -0.4955    5.1965    0.0000 C   0  0  0  0  0  0  0  0  0  0  0  0
   -0.7655    4.4170    0.0000 C   0  0  0  0  0  0  0  0  0  0  0  0
   -0.2254    3.7933    0.0000 C   0  0  0  0  0  0  0  0  0  0  0  0
   -0.4955    3.0138    0.0000 C   0  0  0  0  0  0  0  0  0  0  0  0
    0.0446    2.3902    0.0000 C   0  0  0  0  0  0  0  0  0  0  0  0
    0.8547    2.5461    0.0000 C   0  0  0  0  0  0  0  0  0  0  0  0
    1.3948    1.9224    0.0000 C   0  0  0  0  0  0  0  0  0  0  0  0
    2.2050    2.0783    0.0000 C   0  0  0  0  0  0  0  0  0  0  0  0
    2.4750    2.8579    0.0000 C   0  0  0  0  0  0  0  0  0  0  0  0
    1.9349    3.4815    0.0000 C   0  0  0  0  0  0  0  0  0  0  0  0
    2.2050    4.2611    0.0000 C   0  0  0  0  0  0  0  0  0  0  0  0
    3.0151    4.4170    0.0000 C   0  0  0  0  0  0  0  0  0  0  0  0
    3.5552    3.7933    0.0000 C   0  0  0  0  0  0  0  0  0  0  0  0
    4.3653    3.9493    0.0000 C   0  0  0  0  0  0  0  0  0  0  0  0
    4.9054    3.3256    0.0000 C   0  0  0  0  0  0  0  0  0  0  0  0
    5.7155    3.4815    0.0000 C   0  0  0  0  0  0  0  0  0  0  0  0
    5.9856    4.2611    0.0000 O   0  0  0  0  0  0  0  0  0  0  0  0
    6.2556    2.8579    0.0000 O   0  0  0  0  0  0  0  0  0  0  0  0
    7.0658    3.0138    0.0000 C   0  0  0  0  0  0  0  0  0  0  0  0
  1  2  1  0  0  0  0
  2  3  1  0  0  0  0
  3  4  2  0  0  0  0
  4  5  1  0  0  0  0
  5  6  1  0  0  0  0
  6  7  2  0  0  0  0
  7  8  1  0  0  0  0
  8  9  1  0  0  0  0
  9 10  2  0  0  0  0
 10 11  1  0  0  0  0
 11 12  1  0  0  0  0
 12 13  1  0  0  0  0
 13 14  1  0  0  0  0
 14 15  1  0  0  0  0
 15 16  1  0  0  0  0
 16 17  1  0  0  0  0
 17 18  1  0  0  0  0
 18 19  2  0  0  0  0
 18 20  1  0  0  0  0
 20 21  1  0  0  0  0
M  END