CCCCCOC(=O)CCCCCCC/C=C\C/C=C\C/C=C\CC
  Mrv0541 09161415342D          

 25 24  0  0  0  0            999 V2000
    1.9833    5.0533    0.0000 C   0  0  0  0  0  0  0  0  0  0  0  0
    2.4750    5.7158    0.0000 C   0  0  0  0  0  0  0  0  0  0  0  0
    3.2946    5.6211    0.0000 C   0  0  0  0  0  0  0  0  0  0  0  0
    3.7863    6.2836    0.0000 C   0  0  0  0  0  0  0  0  0  0  0  0
    4.6058    6.1889    0.0000 C   0  0  0  0  0  0  0  0  0  0  0  0
    5.0976    6.8514    0.0000 O   0  0  0  0  0  0  0  0  0  0  0  0
    5.9171    6.7567    0.0000 C   0  0  0  0  0  0  0  0  0  0  0  0
    6.2450    5.9997    0.0000 O   0  0  0  0  0  0  0  0  0  0  0  0
    6.4089    7.4192    0.0000 C   0  0  0  0  0  0  0  0  0  0  0  0
    7.2284    7.3245    0.0000 C   0  0  0  0  0  0  0  0  0  0  0  0
    7.7201    7.9870    0.0000 C   0  0  0  0  0  0  0  0  0  0  0  0
    8.5397    7.8923    0.0000 C   0  0  0  0  0  0  0  0  0  0  0  0
    8.8675    7.1353    0.0000 C   0  0  0  0  0  0  0  0  0  0  0  0
    8.3758    6.4728    0.0000 C   0  0  0  0  0  0  0  0  0  0  0  0
    8.7036    5.7158    0.0000 C   0  0  0  0  0  0  0  0  0  0  0  0
    8.2119    5.0533    0.0000 C   0  0  0  0  0  0  0  0  0  0  0  0
    8.5397    4.2963    0.0000 C   0  0  0  0  0  0  0  0  0  0  0  0
    9.3593    4.2016    0.0000 C   0  0  0  0  0  0  0  0  0  0  0  0
    9.6871    3.4446    0.0000 C   0  0  0  0  0  0  0  0  0  0  0  0
   10.5066    3.3499    0.0000 C   0  0  0  0  0  0  0  0  0  0  0  0
   10.9984    4.0124    0.0000 C   0  0  0  0  0  0  0  0  0  0  0  0
   11.8179    3.9177    0.0000 C   0  0  0  0  0  0  0  0  0  0  0  0
   12.3097    4.5802    0.0000 C   0  0  0  0  0  0  0  0  0  0  0  0
   11.9818    5.3372    0.0000 C   0  0  0  0  0  0  0  0  0  0  0  0
   12.4736    5.9997    0.0000 C   0  0  0  0  0  0  0  0  0  0  0  0
  1  2  1  0  0  0  0
  2  3  1  0  0  0  0
  3  4  1  0  0  0  0
  4  5  1  0  0  0  0
  5  6  1  0  0  0  0
  6  7  1  0  0  0  0
  7  8  2  0  0  0  0
  7  9  1  0  0  0  0
  9 10  1  0  0  0  0
 10 11  1  0  0  0  0
 11 12  1  0  0  0  0
 12 13  1  0  0  0  0
 13 14  1  0  0  0  0
 14 15  1  0  0  0  0
 15 16  1  0  0  0  0
 16 17  2  0  0  0  0
 17 18  1  0  0  0  0
 18 19  1  0  0  0  0
 19 20  2  0  0  0  0
 20 21  1  0  0  0  0
 21 22  1  0  0  0  0
 22 23  2  0  0  0  0
 23 24  1  0  0  0  0
 24 25  1  0  0  0  0
M  END