CCCCC/C=C\C/C=C\CCCCCCCC(=O)OCCCCC
  Mrv0541 09161415342D          

 25 24  0  0  0  0            999 V2000
    1.2082    7.5274    0.0000 C   0  0  0  0  0  0  0  0  0  0  0  0
    1.0522    6.7172    0.0000 C   0  0  0  0  0  0  0  0  0  0  0  0
    1.6759    6.1771    0.0000 C   0  0  0  0  0  0  0  0  0  0  0  0
    1.5200    5.3670    0.0000 C   0  0  0  0  0  0  0  0  0  0  0  0
    2.1436    4.8269    0.0000 C   0  0  0  0  0  0  0  0  0  0  0  0
    1.9877    4.0168    0.0000 C   0  0  0  0  0  0  0  0  0  0  0  0
    2.6113    3.4767    0.0000 C   0  0  0  0  0  0  0  0  0  0  0  0
    3.3909    3.7467    0.0000 C   0  0  0  0  0  0  0  0  0  0  0  0
    4.0145    3.2066    0.0000 C   0  0  0  0  0  0  0  0  0  0  0  0
    4.7941    3.4767    0.0000 C   0  0  0  0  0  0  0  0  0  0  0  0
    4.9500    4.2868    0.0000 C   0  0  0  0  0  0  0  0  0  0  0  0
    4.3264    4.8269    0.0000 C   0  0  0  0  0  0  0  0  0  0  0  0
    4.4823    5.6370    0.0000 C   0  0  0  0  0  0  0  0  0  0  0  0
    5.2618    5.9071    0.0000 C   0  0  0  0  0  0  0  0  0  0  0  0
    5.8855    5.3670    0.0000 C   0  0  0  0  0  0  0  0  0  0  0  0
    6.6650    5.6370    0.0000 C   0  0  0  0  0  0  0  0  0  0  0  0
    7.2887    5.0970    0.0000 C   0  0  0  0  0  0  0  0  0  0  0  0
    8.0682    5.3670    0.0000 C   0  0  0  0  0  0  0  0  0  0  0  0
    8.2241    6.1771    0.0000 O   0  0  0  0  0  0  0  0  0  0  0  0
    8.6918    4.8269    0.0000 O   0  0  0  0  0  0  0  0  0  0  0  0
    9.4714    5.0970    0.0000 C   0  0  0  0  0  0  0  0  0  0  0  0
   10.0950    4.5569    0.0000 C   0  0  0  0  0  0  0  0  0  0  0  0
   10.8746    4.8269    0.0000 C   0  0  0  0  0  0  0  0  0  0  0  0
   11.4982    4.2868    0.0000 C   0  0  0  0  0  0  0  0  0  0  0  0
   12.2778    4.5569    0.0000 C   0  0  0  0  0  0  0  0  0  0  0  0
  1  2  1  0  0  0  0
  2  3  1  0  0  0  0
  3  4  1  0  0  0  0
  4  5  1  0  0  0  0
  5  6  1  0  0  0  0
  6  7  2  0  0  0  0
  7  8  1  0  0  0  0
  8  9  1  0  0  0  0
  9 10  2  0  0  0  0
 10 11  1  0  0  0  0
 11 12  1  0  0  0  0
 12 13  1  0  0  0  0
 13 14  1  0  0  0  0
 14 15  1  0  0  0  0
 15 16  1  0  0  0  0
 16 17  1  0  0  0  0
 17 18  1  0  0  0  0
 18 19  2  0  0  0  0
 18 20  1  0  0  0  0
 20 21  1  0  0  0  0
 21 22  1  0  0  0  0
 22 23  1  0  0  0  0
 23 24  1  0  0  0  0
 24 25  1  0  0  0  0
M  END