CCCCCCCC/C=C\CCCCCCCC(=O)OCCCCC
  Mrv0541 09161415342D          

 25 24  0  0  0  0            999 V2000
    9.5684   10.4743    0.0000 C   0  0  0  0  0  0  0  0  0  0  0  0
    9.5684    9.6493    0.0000 C   0  0  0  0  0  0  0  0  0  0  0  0
    8.8539    9.2368    0.0000 C   0  0  0  0  0  0  0  0  0  0  0  0
    8.8539    8.4118    0.0000 C   0  0  0  0  0  0  0  0  0  0  0  0
    8.1395    7.9993    0.0000 C   0  0  0  0  0  0  0  0  0  0  0  0
    8.1395    7.1743    0.0000 C   0  0  0  0  0  0  0  0  0  0  0  0
    7.4250    6.7618    0.0000 C   0  0  0  0  0  0  0  0  0  0  0  0
    7.4250    5.9368    0.0000 C   0  0  0  0  0  0  0  0  0  0  0  0
    6.7105    5.5243    0.0000 C   0  0  0  0  0  0  0  0  0  0  0  0
    6.7105    4.6993    0.0000 C   0  0  0  0  0  0  0  0  0  0  0  0
    7.4250    4.2868    0.0000 C   0  0  0  0  0  0  0  0  0  0  0  0
    8.1395    4.6993    0.0000 C   0  0  0  0  0  0  0  0  0  0  0  0
    8.8539    4.2868    0.0000 C   0  0  0  0  0  0  0  0  0  0  0  0
    9.5684    4.6993    0.0000 C   0  0  0  0  0  0  0  0  0  0  0  0
   10.2829    4.2868    0.0000 C   0  0  0  0  0  0  0  0  0  0  0  0
   10.9974    4.6993    0.0000 C   0  0  0  0  0  0  0  0  0  0  0  0
   11.7118    4.2868    0.0000 C   0  0  0  0  0  0  0  0  0  0  0  0
   12.4263    4.6993    0.0000 C   0  0  0  0  0  0  0  0  0  0  0  0
   12.4263    5.5243    0.0000 O   0  0  0  0  0  0  0  0  0  0  0  0
   13.1408    4.2868    0.0000 O   0  0  0  0  0  0  0  0  0  0  0  0
   13.8552    4.6993    0.0000 C   0  0  0  0  0  0  0  0  0  0  0  0
   14.5697    4.2868    0.0000 C   0  0  0  0  0  0  0  0  0  0  0  0
   15.2842    4.6993    0.0000 C   0  0  0  0  0  0  0  0  0  0  0  0
   15.9987    4.2868    0.0000 C   0  0  0  0  0  0  0  0  0  0  0  0
   16.7131    4.6993    0.0000 C   0  0  0  0  0  0  0  0  0  0  0  0
  1  2  1  0  0  0  0
  2  3  1  0  0  0  0
  3  4  1  0  0  0  0
  4  5  1  0  0  0  0
  5  6  1  0  0  0  0
  6  7  1  0  0  0  0
  7  8  1  0  0  0  0
  8  9  1  0  0  0  0
  9 10  2  0  0  0  0
 10 11  1  0  0  0  0
 11 12  1  0  0  0  0
 12 13  1  0  0  0  0
 13 14  1  0  0  0  0
 14 15  1  0  0  0  0
 15 16  1  0  0  0  0
 16 17  1  0  0  0  0
 17 18  1  0  0  0  0
 18 19  2  0  0  0  0
 18 20  1  0  0  0  0
 20 21  1  0  0  0  0
 21 22  1  0  0  0  0
 22 23  1  0  0  0  0
 23 24  1  0  0  0  0
 24 25  1  0  0  0  0
M  END