C1CC2CCC3CCCC4CCC(C1)C2C34
  Mrv0541 09161415342D          

 16 19  0  0  0  0            999 V2000
    4.7289   -0.8250    0.0000 C   0  0  0  0  0  0  0  0  0  0  0  0
    4.3164   -1.5395    0.0000 C   0  0  0  0  0  0  0  0  0  0  0  0
    3.4914   -1.5395    0.0000 C   0  0  0  0  0  0  0  0  0  0  0  0
    3.0789   -2.2539    0.0000 C   0  0  0  0  0  0  0  0  0  0  0  0
    2.2539   -2.2539    0.0000 C   0  0  0  0  0  0  0  0  0  0  0  0
    1.8414   -1.5395    0.0000 C   0  0  0  0  0  0  0  0  0  0  0  0
    1.0164   -1.5395    0.0000 C   0  0  0  0  0  0  0  0  0  0  0  0
    0.6039   -0.8250    0.0000 C   0  0  0  0  0  0  0  0  0  0  0  0
    1.0164   -0.1105    0.0000 C   0  0  0  0  0  0  0  0  0  0  0  0
    1.8414   -0.1105    0.0000 C   0  0  0  0  0  0  0  0  0  0  0  0
    2.2539    0.6039    0.0000 C   0  0  0  0  0  0  0  0  0  0  0  0
    3.0789    0.6039    0.0000 C   0  0  0  0  0  0  0  0  0  0  0  0
    3.4914   -0.1105    0.0000 C   0  0  0  0  0  0  0  0  0  0  0  0
    4.3164   -0.1105    0.0000 C   0  0  0  0  0  0  0  0  0  0  0  0
    3.0789   -0.8250    0.0000 C   0  0  0  0  0  0  0  0  0  0  0  0
    2.2539   -0.8250    0.0000 C   0  0  0  0  0  0  0  0  0  0  0  0
  1  2  1  0  0  0  0
  2  3  1  0  0  0  0
  3  4  1  0  0  0  0
  4  5  1  0  0  0  0
  5  6  1  0  0  0  0
  6  7  1  0  0  0  0
  7  8  1  0  0  0  0
  8  9  1  0  0  0  0
  9 10  1  0  0  0  0
 10 11  1  0  0  0  0
 11 12  1  0  0  0  0
 12 13  1  0  0  0  0
 13 14  1  0  0  0  0
  1 14  1  0  0  0  0
 13 15  1  0  0  0  0
  3 15  1  0  0  0  0
 15 16  1  0  0  0  0
  6 16  1  0  0  0  0
 10 16  1  0  0  0  0
M  END