CCCCCC[C@H](C(C)C)C1CCCCC1
  Mrv0541 09161415342D          

 16 16  0  0  1  0            999 V2000
    2.3178   -3.5014    0.0000 C   0  0  0  0  0  0  0  0  0  0  0  0
    2.8579   -4.1250    0.0000 C   0  0  0  0  0  0  0  0  0  0  0  0
    3.6680   -3.9691    0.0000 C   0  0  0  0  0  0  0  0  0  0  0  0
    4.2081   -4.5927    0.0000 C   0  0  0  0  0  0  0  0  0  0  0  0
    5.0182   -4.4368    0.0000 C   0  0  0  0  0  0  0  0  0  0  0  0
    5.5583   -5.0605    0.0000 C   0  0  0  0  0  0  0  0  0  0  0  0
    6.3685   -4.9046    0.0000 C   0  0  2  0  0  0  0  0  0  0  0  0
    6.6385   -4.1250    0.0000 C   0  0  0  0  0  0  0  0  0  0  0  0
    6.0984   -3.5014    0.0000 C   0  0  0  0  0  0  0  0  0  0  0  0
    7.4486   -3.9691    0.0000 C   0  0  0  0  0  0  0  0  0  0  0  0
    6.9086   -5.5282    0.0000 C   0  0  0  0  0  0  0  0  0  0  0  0
    7.7187   -5.3723    0.0000 C   0  0  0  0  0  0  0  0  0  0  0  0
    8.2588   -5.9959    0.0000 C   0  0  0  0  0  0  0  0  0  0  0  0
    7.9887   -6.7755    0.0000 C   0  0  0  0  0  0  0  0  0  0  0  0
    7.1786   -6.9314    0.0000 C   0  0  0  0  0  0  0  0  0  0  0  0
    6.6385   -6.3077    0.0000 C   0  0  0  0  0  0  0  0  0  0  0  0
  1  2  1  0  0  0  0
  2  3  1  0  0  0  0
  3  4  1  0  0  0  0
  4  5  1  0  0  0  0
  5  6  1  0  0  0  0
  7  6  1  6  0  0  0
  7  8  1  0  0  0  0
  8  9  1  0  0  0  0
  8 10  1  0  0  0  0
  7 11  1  0  0  0  0
 11 12  1  0  0  0  0
 12 13  1  0  0  0  0
 13 14  1  0  0  0  0
 14 15  1  0  0  0  0
 15 16  1  0  0  0  0
 11 16  1  0  0  0  0
M  END