CC1=CCC2CC1C2(C)C
  Mrv0541 09161415342D          

 10 11  0  0  0  0            999 V2000
    2.5423    1.5837    0.0000 C   0  0  0  0  0  0  0  0  0  0  0  0
    2.1267    0.8710    0.0000 C   0  0  0  0  0  0  0  0  0  0  0  0
    2.5362    0.1547    0.0000 C   0  0  0  0  0  0  0  0  0  0  0  0
    2.1206   -0.5580    0.0000 C   0  0  0  0  0  0  0  0  0  0  0  0
    1.2957   -0.5544    0.0000 C   0  0  0  0  0  0  0  0  0  0  0  0
    1.2326    0.1301    0.0000 C   0  0  0  0  0  0  0  0  0  0  0  0
    1.3017    0.8745    0.0000 C   0  0  0  0  0  0  0  0  0  0  0  0
    0.8862    0.1618    0.0000 C   0  0  0  0  0  0  0  0  0  0  0  0
    0.1594    0.5522    0.0000 C   0  0  0  0  0  0  0  0  0  0  0  0
    0.1561   -0.2224    0.0000 C   0  0  0  0  0  0  0  0  0  0  0  0
  1  2  1  0  0  0  0
  2  3  2  0  0  0  0
  3  4  1  0  0  0  0
  4  5  1  0  0  0  0
  5  6  1  0  0  0  0
  6  7  1  0  0  0  0
  2  7  1  0  0  0  0
  7  8  1  0  0  0  0
  5  8  1  0  0  0  0
  8  9  1  0  0  0  0
  8 10  1  0  0  0  0
M  END