C1CCCCCCCCC1
  Mrv0541 09161415342D          

 10 10  0  0  0  0            999 V2000
    1.4289    1.5039    0.0000 C   0  0  0  0  0  0  0  0  0  0  0  0
    2.2391    1.6598    0.0000 C   0  0  0  0  0  0  0  0  0  0  0  0
    2.7792    1.0361    0.0000 C   0  0  0  0  0  0  0  0  0  0  0  0
    2.5091    0.2566    0.0000 C   0  0  0  0  0  0  0  0  0  0  0  0
    1.6990    0.1007    0.0000 C   0  0  0  0  0  0  0  0  0  0  0  0
    1.4289   -0.6789    0.0000 C   0  0  0  0  0  0  0  0  0  0  0  0
    0.6188   -0.8348    0.0000 C   0  0  0  0  0  0  0  0  0  0  0  0
    0.0787   -0.2111    0.0000 C   0  0  0  0  0  0  0  0  0  0  0  0
    0.3488    0.5684    0.0000 C   0  0  0  0  0  0  0  0  0  0  0  0
    1.1589    0.7243    0.0000 C   0  0  0  0  0  0  0  0  0  0  0  0
  1  2  1  0  0  0  0
  2  3  1  0  0  0  0
  3  4  1  0  0  0  0
  4  5  1  0  0  0  0
  5  6  1  0  0  0  0
  6  7  1  0  0  0  0
  7  8  1  0  0  0  0
  8  9  1  0  0  0  0
  9 10  1  0  0  0  0
  1 10  1  0  0  0  0
M  END