C1CCCCCCCC1
  Mrv0541 09161415342D          

  9  9  0  0  0  0            999 V2000
    1.1333    1.6186    0.0000 C   0  0  0  0  0  0  0  0  0  0  0  0
    1.9086    1.3364    0.0000 C   0  0  0  0  0  0  0  0  0  0  0  0
    2.3211    0.6219    0.0000 C   0  0  0  0  0  0  0  0  0  0  0  0
    2.1778   -0.1905    0.0000 C   0  0  0  0  0  0  0  0  0  0  0  0
    1.5458   -0.7208    0.0000 C   0  0  0  0  0  0  0  0  0  0  0  0
    0.7208   -0.7208    0.0000 C   0  0  0  0  0  0  0  0  0  0  0  0
    0.0888   -0.1905    0.0000 C   0  0  0  0  0  0  0  0  0  0  0  0
   -0.0544    0.6219    0.0000 C   0  0  0  0  0  0  0  0  0  0  0  0
    0.3581    1.3364    0.0000 C   0  0  0  0  0  0  0  0  0  0  0  0
  1  2  1  0  0  0  0
  2  3  1  0  0  0  0
  3  4  1  0  0  0  0
  4  5  1  0  0  0  0
  5  6  1  0  0  0  0
  6  7  1  0  0  0  0
  7  8  1  0  0  0  0
  8  9  1  0  0  0  0
  1  9  1  0  0  0  0
M  END