CCCCCCCCCCCCCCCCCCCCC1CCCCC1
  Mrv0541 09161415342D          

 26 26  0  0  0  0            999 V2000
    6.4302  -12.7875    0.0000 C   0  0  0  0  0  0  0  0  0  0  0  0
    7.1447  -12.3750    0.0000 C   0  0  0  0  0  0  0  0  0  0  0  0
    7.8592  -12.7875    0.0000 C   0  0  0  0  0  0  0  0  0  0  0  0
    8.5737  -12.3750    0.0000 C   0  0  0  0  0  0  0  0  0  0  0  0
    9.2881  -12.7875    0.0000 C   0  0  0  0  0  0  0  0  0  0  0  0
   10.0026  -12.3750    0.0000 C   0  0  0  0  0  0  0  0  0  0  0  0
   10.7171  -12.7875    0.0000 C   0  0  0  0  0  0  0  0  0  0  0  0
   11.4315  -12.3750    0.0000 C   0  0  0  0  0  0  0  0  0  0  0  0
   12.1460  -12.7875    0.0000 C   0  0  0  0  0  0  0  0  0  0  0  0
   12.8605  -12.3750    0.0000 C   0  0  0  0  0  0  0  0  0  0  0  0
   13.5749  -12.7875    0.0000 C   0  0  0  0  0  0  0  0  0  0  0  0
   14.2894  -12.3750    0.0000 C   0  0  0  0  0  0  0  0  0  0  0  0
   15.0039  -12.7875    0.0000 C   0  0  0  0  0  0  0  0  0  0  0  0
   15.7184  -12.3750    0.0000 C   0  0  0  0  0  0  0  0  0  0  0  0
   16.4328  -12.7875    0.0000 C   0  0  0  0  0  0  0  0  0  0  0  0
   17.1473  -12.3750    0.0000 C   0  0  0  0  0  0  0  0  0  0  0  0
   17.8618  -12.7875    0.0000 C   0  0  0  0  0  0  0  0  0  0  0  0
   18.5762  -12.3750    0.0000 C   0  0  0  0  0  0  0  0  0  0  0  0
   19.2907  -12.7875    0.0000 C   0  0  0  0  0  0  0  0  0  0  0  0
   20.0052  -12.3750    0.0000 C   0  0  0  0  0  0  0  0  0  0  0  0
   20.7197  -12.7875    0.0000 C   0  0  0  0  0  0  0  0  0  0  0  0
   21.4341  -12.3750    0.0000 C   0  0  0  0  0  0  0  0  0  0  0  0
   22.1486  -12.7875    0.0000 C   0  0  0  0  0  0  0  0  0  0  0  0
   22.1486  -13.6125    0.0000 C   0  0  0  0  0  0  0  0  0  0  0  0
   21.4341  -14.0250    0.0000 C   0  0  0  0  0  0  0  0  0  0  0  0
   20.7197  -13.6125    0.0000 C   0  0  0  0  0  0  0  0  0  0  0  0
  1  2  1  0  0  0  0
  2  3  1  0  0  0  0
  3  4  1  0  0  0  0
  4  5  1  0  0  0  0
  5  6  1  0  0  0  0
  6  7  1  0  0  0  0
  7  8  1  0  0  0  0
  8  9  1  0  0  0  0
  9 10  1  0  0  0  0
 10 11  1  0  0  0  0
 11 12  1  0  0  0  0
 12 13  1  0  0  0  0
 13 14  1  0  0  0  0
 14 15  1  0  0  0  0
 15 16  1  0  0  0  0
 16 17  1  0  0  0  0
 17 18  1  0  0  0  0
 18 19  1  0  0  0  0
 19 20  1  0  0  0  0
 20 21  1  0  0  0  0
 21 22  1  0  0  0  0
 22 23  1  0  0  0  0
 23 24  1  0  0  0  0
 24 25  1  0  0  0  0
 25 26  1  0  0  0  0
 21 26  1  0  0  0  0
M  END