CCCCCCCCC[C@@H](C)/C=C/[C@H](C)CCCCCCCCC
  Mrv0541 09161415342D          

 24 23  0  0  1  0            999 V2000
    0.6632   10.2829    0.0000 C   0  0  0  0  0  0  0  0  0  0  0  0
    0.6632    9.4579    0.0000 C   0  0  0  0  0  0  0  0  0  0  0  0
    1.3776    9.0454    0.0000 C   0  0  0  0  0  0  0  0  0  0  0  0
    1.3776    8.2204    0.0000 C   0  0  0  0  0  0  0  0  0  0  0  0
    2.0921    7.8079    0.0000 C   0  0  0  0  0  0  0  0  0  0  0  0
    2.0921    6.9829    0.0000 C   0  0  0  0  0  0  0  0  0  0  0  0
    2.8066    6.5704    0.0000 C   0  0  0  0  0  0  0  0  0  0  0  0
    2.8066    5.7454    0.0000 C   0  0  0  0  0  0  0  0  0  0  0  0
    3.5211    5.3329    0.0000 C   0  0  0  0  0  0  0  0  0  0  0  0
    3.5211    4.5079    0.0000 C   0  0  1  0  0  0  0  0  0  0  0  0
    2.8066    4.0954    0.0000 C   0  0  0  0  0  0  0  0  0  0  0  0
    4.2355    4.0954    0.0000 C   0  0  0  0  0  0  0  0  0  0  0  0
    4.2355    3.2704    0.0000 C   0  0  0  0  0  0  0  0  0  0  0  0
    4.9500    2.8579    0.0000 C   0  0  2  0  0  0  0  0  0  0  0  0
    4.9500    2.0329    0.0000 C   0  0  0  0  0  0  0  0  0  0  0  0
    5.6645    3.2704    0.0000 C   0  0  0  0  0  0  0  0  0  0  0  0
    6.3789    2.8579    0.0000 C   0  0  0  0  0  0  0  0  0  0  0  0
    7.0934    3.2704    0.0000 C   0  0  0  0  0  0  0  0  0  0  0  0
    7.8079    2.8579    0.0000 C   0  0  0  0  0  0  0  0  0  0  0  0
    8.5224    3.2704    0.0000 C   0  0  0  0  0  0  0  0  0  0  0  0
    9.2368    2.8579    0.0000 C   0  0  0  0  0  0  0  0  0  0  0  0
    9.9513    3.2704    0.0000 C   0  0  0  0  0  0  0  0  0  0  0  0
   10.6658    2.8579    0.0000 C   0  0  0  0  0  0  0  0  0  0  0  0
   11.3802    3.2704    0.0000 C   0  0  0  0  0  0  0  0  0  0  0  0
  1  2  1  0  0  0  0
  2  3  1  0  0  0  0
  3  4  1  0  0  0  0
  4  5  1  0  0  0  0
  5  6  1  0  0  0  0
  6  7  1  0  0  0  0
  7  8  1  0  0  0  0
  8  9  1  0  0  0  0
  9 10  1  0  0  0  0
 10 11  1  6  0  0  0
 10 12  1  0  0  0  0
 12 13  2  0  0  0  0
 13 14  1  0  0  0  0
 14 15  1  1  0  0  0
 14 16  1  0  0  0  0
 16 17  1  0  0  0  0
 17 18  1  0  0  0  0
 18 19  1  0  0  0  0
 19 20  1  0  0  0  0
 20 21  1  0  0  0  0
 21 22  1  0  0  0  0
 22 23  1  0  0  0  0
 23 24  1  0  0  0  0
M  END