CCCCCCCCC[C@@H](C)/C=C\[C@@H](C)CCCCCCCCC
  Mrv0541 09161415342D          

 24 23  0  0  1  0            999 V2000
   -5.3563    4.2611    0.0000 C   0  0  0  0  0  0  0  0  0  0  0  0
   -4.5462    4.4170    0.0000 C   0  0  0  0  0  0  0  0  0  0  0  0
   -4.0061    3.7933    0.0000 C   0  0  0  0  0  0  0  0  0  0  0  0
   -3.1959    3.9493    0.0000 C   0  0  0  0  0  0  0  0  0  0  0  0
   -2.6558    3.3256    0.0000 C   0  0  0  0  0  0  0  0  0  0  0  0
   -1.8457    3.4815    0.0000 C   0  0  0  0  0  0  0  0  0  0  0  0
   -1.3056    2.8579    0.0000 C   0  0  0  0  0  0  0  0  0  0  0  0
   -0.4955    3.0138    0.0000 C   0  0  0  0  0  0  0  0  0  0  0  0
    0.0446    2.3902    0.0000 C   0  0  0  0  0  0  0  0  0  0  0  0
    0.8547    2.5461    0.0000 C   0  0  1  0  0  0  0  0  0  0  0  0
    1.1248    3.3256    0.0000 C   0  0  0  0  0  0  0  0  0  0  0  0
    1.3948    1.9224    0.0000 C   0  0  0  0  0  0  0  0  0  0  0  0
    2.2050    2.0783    0.0000 C   0  0  0  0  0  0  0  0  0  0  0  0
    2.4750    2.8579    0.0000 C   0  0  1  0  0  0  0  0  0  0  0  0
    3.2851    3.0138    0.0000 C   0  0  0  0  0  0  0  0  0  0  0  0
    1.9349    3.4815    0.0000 C   0  0  0  0  0  0  0  0  0  0  0  0
    2.2050    4.2611    0.0000 C   0  0  0  0  0  0  0  0  0  0  0  0
    3.0151    4.4170    0.0000 C   0  0  0  0  0  0  0  0  0  0  0  0
    3.5552    3.7933    0.0000 C   0  0  0  0  0  0  0  0  0  0  0  0
    4.3653    3.9493    0.0000 C   0  0  0  0  0  0  0  0  0  0  0  0
    4.9054    3.3256    0.0000 C   0  0  0  0  0  0  0  0  0  0  0  0
    5.7155    3.4815    0.0000 C   0  0  0  0  0  0  0  0  0  0  0  0
    6.2556    2.8579    0.0000 C   0  0  0  0  0  0  0  0  0  0  0  0
    7.0658    3.0138    0.0000 C   0  0  0  0  0  0  0  0  0  0  0  0
  1  2  1  0  0  0  0
  2  3  1  0  0  0  0
  3  4  1  0  0  0  0
  4  5  1  0  0  0  0
  5  6  1  0  0  0  0
  6  7  1  0  0  0  0
  7  8  1  0  0  0  0
  8  9  1  0  0  0  0
  9 10  1  0  0  0  0
 10 11  1  1  0  0  0
 10 12  1  0  0  0  0
 12 13  2  0  0  0  0
 13 14  1  0  0  0  0
 14 15  1  6  0  0  0
 14 16  1  0  0  0  0
 16 17  1  0  0  0  0
 17 18  1  0  0  0  0
 18 19  1  0  0  0  0
 19 20  1  0  0  0  0
 20 21  1  0  0  0  0
 21 22  1  0  0  0  0
 22 23  1  0  0  0  0
 23 24  1  0  0  0  0
M  END