CCCCCCC/C(=C\CCC)/CCCC
  Mrv0541 09161415342D          

 16 15  0  0  0  0            999 V2000
    1.0461   -1.4289    0.0000 C   0  0  0  0  0  0  0  0  0  0  0  0
    1.7605   -1.8414    0.0000 C   0  0  0  0  0  0  0  0  0  0  0  0
    2.4750   -1.4289    0.0000 C   0  0  0  0  0  0  0  0  0  0  0  0
    3.1895   -1.8414    0.0000 C   0  0  0  0  0  0  0  0  0  0  0  0
    3.9039   -1.4289    0.0000 C   0  0  0  0  0  0  0  0  0  0  0  0
    4.6184   -1.8414    0.0000 C   0  0  0  0  0  0  0  0  0  0  0  0
    5.3329   -1.4289    0.0000 C   0  0  0  0  0  0  0  0  0  0  0  0
    6.0474   -1.8414    0.0000 C   0  0  0  0  0  0  0  0  0  0  0  0
    6.7618   -1.4289    0.0000 C   0  0  0  0  0  0  0  0  0  0  0  0
    6.7618   -0.6039    0.0000 C   0  0  0  0  0  0  0  0  0  0  0  0
    7.4763   -0.1914    0.0000 C   0  0  0  0  0  0  0  0  0  0  0  0
    7.4763    0.6336    0.0000 C   0  0  0  0  0  0  0  0  0  0  0  0
    6.0474   -2.6664    0.0000 C   0  0  0  0  0  0  0  0  0  0  0  0
    6.7618   -3.0789    0.0000 C   0  0  0  0  0  0  0  0  0  0  0  0
    7.4763   -2.6664    0.0000 C   0  0  0  0  0  0  0  0  0  0  0  0
    8.1908   -3.0789    0.0000 C   0  0  0  0  0  0  0  0  0  0  0  0
  1  2  1  0  0  0  0
  2  3  1  0  0  0  0
  3  4  1  0  0  0  0
  4  5  1  0  0  0  0
  5  6  1  0  0  0  0
  6  7  1  0  0  0  0
  7  8  1  0  0  0  0
  8  9  2  0  0  0  0
  9 10  1  0  0  0  0
 10 11  1  0  0  0  0
 11 12  1  0  0  0  0
  8 13  1  0  0  0  0
 13 14  1  0  0  0  0
 14 15  1  0  0  0  0
 15 16  1  0  0  0  0
M  END