CCCCCCC/C(=C\CCCCCC)/CCC
  Mrv0541 09161415342D          

 18 17  0  0  0  0            999 V2000
    0.0000    1.4289    0.0000 C   0  0  0  0  0  0  0  0  0  0  0  0
    0.8250    1.4289    0.0000 C   0  0  0  0  0  0  0  0  0  0  0  0
    1.2375    2.1434    0.0000 C   0  0  0  0  0  0  0  0  0  0  0  0
    2.0625    2.1434    0.0000 C   0  0  0  0  0  0  0  0  0  0  0  0
    2.4750    2.8579    0.0000 C   0  0  0  0  0  0  0  0  0  0  0  0
    3.3000    2.8579    0.0000 C   0  0  0  0  0  0  0  0  0  0  0  0
    3.7125    2.1434    0.0000 C   0  0  0  0  0  0  0  0  0  0  0  0
    3.3000    1.4289    0.0000 C   0  0  0  0  0  0  0  0  0  0  0  0
    3.7125    0.7145    0.0000 C   0  0  0  0  0  0  0  0  0  0  0  0
    4.5375    0.7145    0.0000 C   0  0  0  0  0  0  0  0  0  0  0  0
    4.9500    1.4289    0.0000 C   0  0  0  0  0  0  0  0  0  0  0  0
    5.7750    1.4289    0.0000 C   0  0  0  0  0  0  0  0  0  0  0  0
    6.1875    2.1434    0.0000 C   0  0  0  0  0  0  0  0  0  0  0  0
    7.0125    2.1434    0.0000 C   0  0  0  0  0  0  0  0  0  0  0  0
    7.4250    2.8579    0.0000 C   0  0  0  0  0  0  0  0  0  0  0  0
    2.4750    1.4289    0.0000 C   0  0  0  0  0  0  0  0  0  0  0  0
    2.0625    0.7145    0.0000 C   0  0  0  0  0  0  0  0  0  0  0  0
    1.2375    0.7145    0.0000 C   0  0  0  0  0  0  0  0  0  0  0  0
  1  2  1  0  0  0  0
  2  3  1  0  0  0  0
  3  4  1  0  0  0  0
  4  5  1  0  0  0  0
  5  6  1  0  0  0  0
  6  7  1  0  0  0  0
  7  8  1  0  0  0  0
  8  9  2  0  0  0  0
  9 10  1  0  0  0  0
 10 11  1  0  0  0  0
 11 12  1  0  0  0  0
 12 13  1  0  0  0  0
 13 14  1  0  0  0  0
 14 15  1  0  0  0  0
  8 16  1  0  0  0  0
 16 17  1  0  0  0  0
 17 18  1  0  0  0  0
M  END