CCC(CC)CCC[C@@H](C)C[C@H](C)CC
  Mrv0541 09161415342D          

 15 14  0  0  1  0            999 V2000
    3.7610    0.2849    0.0000 C   0  0  0  0  0  0  0  0  0  0  0  0
    4.5537    0.0561    0.0000 C   0  0  0  0  0  0  0  0  0  0  0  0
    5.1482    0.6281    0.0000 C   0  0  0  0  0  0  0  0  0  0  0  0
    4.9500    1.4289    0.0000 C   0  0  0  0  0  0  0  0  0  0  0  0
    5.5445    2.0010    0.0000 C   0  0  0  0  0  0  0  0  0  0  0  0
    5.9408    0.3993    0.0000 C   0  0  0  0  0  0  0  0  0  0  0  0
    6.5353    0.9713    0.0000 C   0  0  0  0  0  0  0  0  0  0  0  0
    7.3279    0.7425    0.0000 C   0  0  0  0  0  0  0  0  0  0  0  0
    7.9224    1.3145    0.0000 C   0  0  1  0  0  0  0  0  0  0  0  0
    7.7242    2.1154    0.0000 C   0  0  0  0  0  0  0  0  0  0  0  0
    8.7150    1.0857    0.0000 C   0  0  0  0  0  0  0  0  0  0  0  0
    9.3095    1.6578    0.0000 C   0  0  2  0  0  0  0  0  0  0  0  0
    9.1113    2.4586    0.0000 C   0  0  0  0  0  0  0  0  0  0  0  0
   10.1021    1.4289    0.0000 C   0  0  0  0  0  0  0  0  0  0  0  0
   10.6966    2.0010    0.0000 C   0  0  0  0  0  0  0  0  0  0  0  0
  1  2  1  0  0  0  0
  2  3  1  0  0  0  0
  3  4  1  0  0  0  0
  4  5  1  0  0  0  0
  3  6  1  0  0  0  0
  6  7  1  0  0  0  0
  7  8  1  0  0  0  0
  8  9  1  0  0  0  0
  9 10  1  1  0  0  0
  9 11  1  0  0  0  0
 11 12  1  0  0  0  0
 12 13  1  6  0  0  0
 12 14  1  0  0  0  0
 14 15  1  0  0  0  0
M  END