CCC(CC)CCCCC[C@H](C)C[C@H](C)CC
  Mrv0541 09161415342D          

 17 16  0  0  1  0            999 V2000
    4.9402    1.0632    0.0000 C   0  0  0  0  0  0  0  0  0  0  0  0
    5.7198    0.7932    0.0000 C   0  0  0  0  0  0  0  0  0  0  0  0
    6.3434    1.3333    0.0000 C   0  0  0  0  0  0  0  0  0  0  0  0
    6.1875    2.1434    0.0000 C   0  0  0  0  0  0  0  0  0  0  0  0
    6.8111    2.6835    0.0000 C   0  0  0  0  0  0  0  0  0  0  0  0
    7.1230    1.0632    0.0000 C   0  0  0  0  0  0  0  0  0  0  0  0
    7.7466    1.6033    0.0000 C   0  0  0  0  0  0  0  0  0  0  0  0
    8.5262    1.3333    0.0000 C   0  0  0  0  0  0  0  0  0  0  0  0
    9.1498    1.8734    0.0000 C   0  0  0  0  0  0  0  0  0  0  0  0
    9.9293    1.6033    0.0000 C   0  0  0  0  0  0  0  0  0  0  0  0
   10.5530    2.1434    0.0000 C   0  0  2  0  0  0  0  0  0  0  0  0
   10.3971    2.9535    0.0000 C   0  0  0  0  0  0  0  0  0  0  0  0
   11.3325    1.8734    0.0000 C   0  0  0  0  0  0  0  0  0  0  0  0
   11.9562    2.4135    0.0000 C   0  0  2  0  0  0  0  0  0  0  0  0
   11.8003    3.2236    0.0000 C   0  0  0  0  0  0  0  0  0  0  0  0
   12.7357    2.1434    0.0000 C   0  0  0  0  0  0  0  0  0  0  0  0
   13.3594    2.6835    0.0000 C   0  0  0  0  0  0  0  0  0  0  0  0
  1  2  1  0  0  0  0
  2  3  1  0  0  0  0
  3  4  1  0  0  0  0
  4  5  1  0  0  0  0
  3  6  1  0  0  0  0
  6  7  1  0  0  0  0
  7  8  1  0  0  0  0
  8  9  1  0  0  0  0
  9 10  1  0  0  0  0
 10 11  1  0  0  0  0
 11 12  1  6  0  0  0
 11 13  1  0  0  0  0
 13 14  1  0  0  0  0
 14 15  1  6  0  0  0
 14 16  1  0  0  0  0
 16 17  1  0  0  0  0
M  END