CC(C)CCC(CCC(C)C)C(CCC(C)C)CCC(C)C
  Mrv0541 09161415342D          

 22 21  0  0  0  0            999 V2000
    3.7125    0.3316    0.0000 C   0  0  0  0  0  0  0  0  0  0  0  0
    4.4270   -0.0809    0.0000 C   0  0  0  0  0  0  0  0  0  0  0  0
    5.1414    0.3316    0.0000 C   0  0  0  0  0  0  0  0  0  0  0  0
    4.4270   -0.9059    0.0000 C   0  0  0  0  0  0  0  0  0  0  0  0
    5.1414   -1.3184    0.0000 C   0  0  0  0  0  0  0  0  0  0  0  0
    5.1414   -2.1434    0.0000 C   0  0  0  0  0  0  0  0  0  0  0  0
    4.4270   -2.5559    0.0000 C   0  0  0  0  0  0  0  0  0  0  0  0
    3.7125   -2.1434    0.0000 C   0  0  0  0  0  0  0  0  0  0  0  0
    2.9980   -2.5559    0.0000 C   0  0  0  0  0  0  0  0  0  0  0  0
    2.2836   -2.1434    0.0000 C   0  0  0  0  0  0  0  0  0  0  0  0
    2.9980   -3.3809    0.0000 C   0  0  0  0  0  0  0  0  0  0  0  0
    5.8559   -2.5559    0.0000 C   0  0  0  0  0  0  0  0  0  0  0  0
    5.8559   -3.3809    0.0000 C   0  0  0  0  0  0  0  0  0  0  0  0
    6.5704   -3.7934    0.0000 C   0  0  0  0  0  0  0  0  0  0  0  0
    6.5704   -4.6184    0.0000 C   0  0  0  0  0  0  0  0  0  0  0  0
    7.2849   -5.0309    0.0000 C   0  0  0  0  0  0  0  0  0  0  0  0
    5.8559   -5.0309    0.0000 C   0  0  0  0  0  0  0  0  0  0  0  0
    6.5704   -2.1434    0.0000 C   0  0  0  0  0  0  0  0  0  0  0  0
    7.2849   -2.5559    0.0000 C   0  0  0  0  0  0  0  0  0  0  0  0
    7.9993   -2.1434    0.0000 C   0  0  0  0  0  0  0  0  0  0  0  0
    7.9993   -1.3184    0.0000 C   0  0  0  0  0  0  0  0  0  0  0  0
    8.7138   -2.5559    0.0000 C   0  0  0  0  0  0  0  0  0  0  0  0
  1  2  1  0  0  0  0
  2  3  1  0  0  0  0
  2  4  1  0  0  0  0
  4  5  1  0  0  0  0
  5  6  1  0  0  0  0
  6  7  1  0  0  0  0
  7  8  1  0  0  0  0
  8  9  1  0  0  0  0
  9 10  1  0  0  0  0
  9 11  1  0  0  0  0
  6 12  1  0  0  0  0
 12 13  1  0  0  0  0
 13 14  1  0  0  0  0
 14 15  1  0  0  0  0
 15 16  1  0  0  0  0
 15 17  1  0  0  0  0
 12 18  1  0  0  0  0
 18 19  1  0  0  0  0
 19 20  1  0  0  0  0
 20 21  1  0  0  0  0
 20 22  1  0  0  0  0
M  END