CCCCCCCC(CC)CC
  Mrv0541 09161415342D          

 12 11  0  0  0  0            999 V2000
   -0.1127   -3.1046    0.0000 C   0  0  0  0  0  0  0  0  0  0  0  0
    0.6974   -2.9487    0.0000 C   0  0  0  0  0  0  0  0  0  0  0  0
    1.2375   -3.5724    0.0000 C   0  0  0  0  0  0  0  0  0  0  0  0
    2.0476   -3.4164    0.0000 C   0  0  0  0  0  0  0  0  0  0  0  0
    2.5877   -4.0401    0.0000 C   0  0  0  0  0  0  0  0  0  0  0  0
    3.3979   -3.8842    0.0000 C   0  0  0  0  0  0  0  0  0  0  0  0
    3.9379   -4.5078    0.0000 C   0  0  0  0  0  0  0  0  0  0  0  0
    4.7481   -4.3519    0.0000 C   0  0  0  0  0  0  0  0  0  0  0  0
    5.2882   -4.9755    0.0000 C   0  0  0  0  0  0  0  0  0  0  0  0
    6.0983   -4.8196    0.0000 C   0  0  0  0  0  0  0  0  0  0  0  0
    5.0181   -3.5724    0.0000 C   0  0  0  0  0  0  0  0  0  0  0  0
    5.8283   -3.4164    0.0000 C   0  0  0  0  0  0  0  0  0  0  0  0
  1  2  1  0  0  0  0
  2  3  1  0  0  0  0
  3  4  1  0  0  0  0
  4  5  1  0  0  0  0
  5  6  1  0  0  0  0
  6  7  1  0  0  0  0
  7  8  1  0  0  0  0
  8  9  1  0  0  0  0
  9 10  1  0  0  0  0
  8 11  1  0  0  0  0
 11 12  1  0  0  0  0
M  END