CCCCCCCCCC(CC)CC
  Mrv0541 09161415342D          

 14 13  0  0  0  0            999 V2000
   -0.1496   -4.6581    0.0000 C   0  0  0  0  0  0  0  0  0  0  0  0
    0.6430   -4.4293    0.0000 C   0  0  0  0  0  0  0  0  0  0  0  0
    1.2375   -5.0013    0.0000 C   0  0  0  0  0  0  0  0  0  0  0  0
    2.0301   -4.7725    0.0000 C   0  0  0  0  0  0  0  0  0  0  0  0
    2.6246   -5.3445    0.0000 C   0  0  0  0  0  0  0  0  0  0  0  0
    3.4172   -5.1157    0.0000 C   0  0  0  0  0  0  0  0  0  0  0  0
    4.0117   -5.6877    0.0000 C   0  0  0  0  0  0  0  0  0  0  0  0
    4.8044   -5.4589    0.0000 C   0  0  0  0  0  0  0  0  0  0  0  0
    5.3988   -6.0310    0.0000 C   0  0  0  0  0  0  0  0  0  0  0  0
    6.1915   -5.8021    0.0000 C   0  0  0  0  0  0  0  0  0  0  0  0
    6.7859   -6.3742    0.0000 C   0  0  0  0  0  0  0  0  0  0  0  0
    7.5786   -6.1454    0.0000 C   0  0  0  0  0  0  0  0  0  0  0  0
    6.3896   -5.0013    0.0000 C   0  0  0  0  0  0  0  0  0  0  0  0
    7.1823   -4.7725    0.0000 C   0  0  0  0  0  0  0  0  0  0  0  0
  1  2  1  0  0  0  0
  2  3  1  0  0  0  0
  3  4  1  0  0  0  0
  4  5  1  0  0  0  0
  5  6  1  0  0  0  0
  6  7  1  0  0  0  0
  7  8  1  0  0  0  0
  8  9  1  0  0  0  0
  9 10  1  0  0  0  0
 10 11  1  0  0  0  0
 11 12  1  0  0  0  0
 10 13  1  0  0  0  0
 13 14  1  0  0  0  0
M  END