CCCCCCCCCCCCCCCCCC(CC)CC
  Mrv0541 09161415342D          

 22 21  0  0  0  0            999 V2000
   -0.1820  -10.5532    0.0000 C   0  0  0  0  0  0  0  0  0  0  0  0
    0.5751  -10.2253    0.0000 C   0  0  0  0  0  0  0  0  0  0  0  0
    1.2375  -10.7171    0.0000 C   0  0  0  0  0  0  0  0  0  0  0  0
    1.9946  -10.3892    0.0000 C   0  0  0  0  0  0  0  0  0  0  0  0
    2.6570  -10.8810    0.0000 C   0  0  0  0  0  0  0  0  0  0  0  0
    3.4141  -10.5532    0.0000 C   0  0  0  0  0  0  0  0  0  0  0  0
    4.0765  -11.0449    0.0000 C   0  0  0  0  0  0  0  0  0  0  0  0
    4.8336  -10.7171    0.0000 C   0  0  0  0  0  0  0  0  0  0  0  0
    5.4960  -11.2088    0.0000 C   0  0  0  0  0  0  0  0  0  0  0  0
    6.2531  -10.8810    0.0000 C   0  0  0  0  0  0  0  0  0  0  0  0
    6.9155  -11.3727    0.0000 C   0  0  0  0  0  0  0  0  0  0  0  0
    7.6726  -11.0449    0.0000 C   0  0  0  0  0  0  0  0  0  0  0  0
    8.3350  -11.5366    0.0000 C   0  0  0  0  0  0  0  0  0  0  0  0
    9.0921  -11.2088    0.0000 C   0  0  0  0  0  0  0  0  0  0  0  0
    9.7546  -11.7005    0.0000 C   0  0  0  0  0  0  0  0  0  0  0  0
   10.5116  -11.3727    0.0000 C   0  0  0  0  0  0  0  0  0  0  0  0
   11.1741  -11.8644    0.0000 C   0  0  0  0  0  0  0  0  0  0  0  0
   11.9311  -11.5366    0.0000 C   0  0  0  0  0  0  0  0  0  0  0  0
   12.5936  -12.0284    0.0000 C   0  0  0  0  0  0  0  0  0  0  0  0
   13.3507  -11.7005    0.0000 C   0  0  0  0  0  0  0  0  0  0  0  0
   12.0258  -10.7171    0.0000 C   0  0  0  0  0  0  0  0  0  0  0  0
   12.7828  -10.3892    0.0000 C   0  0  0  0  0  0  0  0  0  0  0  0
  1  2  1  0  0  0  0
  2  3  1  0  0  0  0
  3  4  1  0  0  0  0
  4  5  1  0  0  0  0
  5  6  1  0  0  0  0
  6  7  1  0  0  0  0
  7  8  1  0  0  0  0
  8  9  1  0  0  0  0
  9 10  1  0  0  0  0
 10 11  1  0  0  0  0
 11 12  1  0  0  0  0
 12 13  1  0  0  0  0
 13 14  1  0  0  0  0
 14 15  1  0  0  0  0
 15 16  1  0  0  0  0
 16 17  1  0  0  0  0
 17 18  1  0  0  0  0
 18 19  1  0  0  0  0
 19 20  1  0  0  0  0
 18 21  1  0  0  0  0
 21 22  1  0  0  0  0
M  END