CCCCCCCCCCCCCCC(CC)CC
  Mrv0541 09161415342D          

 19 18  0  0  0  0            999 V2000
    0.5838   -8.7849    0.0000 C   0  0  0  0  0  0  0  0  0  0  0  0
    1.2375   -9.2881    0.0000 C   0  0  0  0  0  0  0  0  0  0  0  0
    2.0002   -8.9736    0.0000 C   0  0  0  0  0  0  0  0  0  0  0  0
    2.6539   -9.4768    0.0000 C   0  0  0  0  0  0  0  0  0  0  0  0
    3.4166   -9.1623    0.0000 C   0  0  0  0  0  0  0  0  0  0  0  0
    4.0704   -9.6656    0.0000 C   0  0  0  0  0  0  0  0  0  0  0  0
    4.8330   -9.3510    0.0000 C   0  0  0  0  0  0  0  0  0  0  0  0
    5.4868   -9.8543    0.0000 C   0  0  0  0  0  0  0  0  0  0  0  0
    6.2495   -9.5397    0.0000 C   0  0  0  0  0  0  0  0  0  0  0  0
    6.9032  -10.0430    0.0000 C   0  0  0  0  0  0  0  0  0  0  0  0
    7.6659   -9.7285    0.0000 C   0  0  0  0  0  0  0  0  0  0  0  0
    8.3196  -10.2317    0.0000 C   0  0  0  0  0  0  0  0  0  0  0  0
    9.0823   -9.9172    0.0000 C   0  0  0  0  0  0  0  0  0  0  0  0
    9.7361  -10.4204    0.0000 C   0  0  0  0  0  0  0  0  0  0  0  0
   10.4987  -10.1059    0.0000 C   0  0  0  0  0  0  0  0  0  0  0  0
   11.1525  -10.6091    0.0000 C   0  0  0  0  0  0  0  0  0  0  0  0
   11.9152  -10.2946    0.0000 C   0  0  0  0  0  0  0  0  0  0  0  0
   10.6077   -9.2881    0.0000 C   0  0  0  0  0  0  0  0  0  0  0  0
   11.3704   -8.9736    0.0000 C   0  0  0  0  0  0  0  0  0  0  0  0
  1  2  1  0  0  0  0
  2  3  1  0  0  0  0
  3  4  1  0  0  0  0
  4  5  1  0  0  0  0
  5  6  1  0  0  0  0
  6  7  1  0  0  0  0
  7  8  1  0  0  0  0
  8  9  1  0  0  0  0
  9 10  1  0  0  0  0
 10 11  1  0  0  0  0
 11 12  1  0  0  0  0
 12 13  1  0  0  0  0
 13 14  1  0  0  0  0
 14 15  1  0  0  0  0
 15 16  1  0  0  0  0
 16 17  1  0  0  0  0
 15 18  1  0  0  0  0
 18 19  1  0  0  0  0
M  END