CCCCC(CC)CC
  Mrv0541 09161415342D          

  9  8  0  0  0  0            999 V2000
    0.8250   -1.4289    0.0000 C   0  0  0  0  0  0  0  0  0  0  0  0
    1.2375   -2.1434    0.0000 C   0  0  0  0  0  0  0  0  0  0  0  0
    2.0625   -2.1434    0.0000 C   0  0  0  0  0  0  0  0  0  0  0  0
    2.4750   -2.8579    0.0000 C   0  0  0  0  0  0  0  0  0  0  0  0
    3.3000   -2.8579    0.0000 C   0  0  0  0  0  0  0  0  0  0  0  0
    3.7125   -3.5724    0.0000 C   0  0  0  0  0  0  0  0  0  0  0  0
    4.5375   -3.5724    0.0000 C   0  0  0  0  0  0  0  0  0  0  0  0
    3.7125   -2.1434    0.0000 C   0  0  0  0  0  0  0  0  0  0  0  0
    4.5375   -2.1434    0.0000 C   0  0  0  0  0  0  0  0  0  0  0  0
  1  2  1  0  0  0  0
  2  3  1  0  0  0  0
  3  4  1  0  0  0  0
  4  5  1  0  0  0  0
  5  6  1  0  0  0  0
  6  7  1  0  0  0  0
  5  8  1  0  0  0  0
  8  9  1  0  0  0  0
M  END