CCCCCCCCCCCCC(CC)CC
  Mrv0541 09161415342D          

 17 16  0  0  0  0            999 V2000
    0.5959   -7.3406    0.0000 C   0  0  0  0  0  0  0  0  0  0  0  0
    1.2375   -7.8592    0.0000 C   0  0  0  0  0  0  0  0  0  0  0  0
    2.0074   -7.5628    0.0000 C   0  0  0  0  0  0  0  0  0  0  0  0
    2.6491   -8.0814    0.0000 C   0  0  0  0  0  0  0  0  0  0  0  0
    3.4190   -7.7851    0.0000 C   0  0  0  0  0  0  0  0  0  0  0  0
    4.0606   -8.3037    0.0000 C   0  0  0  0  0  0  0  0  0  0  0  0
    4.8305   -8.0074    0.0000 C   0  0  0  0  0  0  0  0  0  0  0  0
    5.4722   -8.5260    0.0000 C   0  0  0  0  0  0  0  0  0  0  0  0
    6.2421   -8.2296    0.0000 C   0  0  0  0  0  0  0  0  0  0  0  0
    6.8837   -8.7482    0.0000 C   0  0  0  0  0  0  0  0  0  0  0  0
    7.6536   -8.4519    0.0000 C   0  0  0  0  0  0  0  0  0  0  0  0
    8.2953   -8.9705    0.0000 C   0  0  0  0  0  0  0  0  0  0  0  0
    9.0652   -8.6741    0.0000 C   0  0  0  0  0  0  0  0  0  0  0  0
    9.7068   -9.1927    0.0000 C   0  0  0  0  0  0  0  0  0  0  0  0
   10.4767   -8.8964    0.0000 C   0  0  0  0  0  0  0  0  0  0  0  0
    9.1935   -7.8592    0.0000 C   0  0  0  0  0  0  0  0  0  0  0  0
    9.9634   -7.5628    0.0000 C   0  0  0  0  0  0  0  0  0  0  0  0
  1  2  1  0  0  0  0
  2  3  1  0  0  0  0
  3  4  1  0  0  0  0
  4  5  1  0  0  0  0
  5  6  1  0  0  0  0
  6  7  1  0  0  0  0
  7  8  1  0  0  0  0
  8  9  1  0  0  0  0
  9 10  1  0  0  0  0
 10 11  1  0  0  0  0
 11 12  1  0  0  0  0
 12 13  1  0  0  0  0
 13 14  1  0  0  0  0
 14 15  1  0  0  0  0
 13 16  1  0  0  0  0
 16 17  1  0  0  0  0
M  END