CCCCCCCCCCCC(CC)CC
  Mrv0541 09161415342D          

 16 15  0  0  0  0            999 V2000
   -0.1657   -6.1602    0.0000 C   0  0  0  0  0  0  0  0  0  0  0  0
    0.6139   -5.8901    0.0000 C   0  0  0  0  0  0  0  0  0  0  0  0
    1.2375   -6.4302    0.0000 C   0  0  0  0  0  0  0  0  0  0  0  0
    2.0171   -6.1602    0.0000 C   0  0  0  0  0  0  0  0  0  0  0  0
    2.6407   -6.7003    0.0000 C   0  0  0  0  0  0  0  0  0  0  0  0
    3.4202   -6.4302    0.0000 C   0  0  0  0  0  0  0  0  0  0  0  0
    4.0439   -6.9703    0.0000 C   0  0  0  0  0  0  0  0  0  0  0  0
    4.8234   -6.7003    0.0000 C   0  0  0  0  0  0  0  0  0  0  0  0
    5.4471   -7.2404    0.0000 C   0  0  0  0  0  0  0  0  0  0  0  0
    6.2266   -6.9703    0.0000 C   0  0  0  0  0  0  0  0  0  0  0  0
    6.8503   -7.5104    0.0000 C   0  0  0  0  0  0  0  0  0  0  0  0
    7.6298   -7.2404    0.0000 C   0  0  0  0  0  0  0  0  0  0  0  0
    8.2535   -7.7805    0.0000 C   0  0  0  0  0  0  0  0  0  0  0  0
    9.0330   -7.5104    0.0000 C   0  0  0  0  0  0  0  0  0  0  0  0
    7.7857   -6.4302    0.0000 C   0  0  0  0  0  0  0  0  0  0  0  0
    8.5653   -6.1602    0.0000 C   0  0  0  0  0  0  0  0  0  0  0  0
  1  2  1  0  0  0  0
  2  3  1  0  0  0  0
  3  4  1  0  0  0  0
  4  5  1  0  0  0  0
  5  6  1  0  0  0  0
  6  7  1  0  0  0  0
  7  8  1  0  0  0  0
  8  9  1  0  0  0  0
  9 10  1  0  0  0  0
 10 11  1  0  0  0  0
 11 12  1  0  0  0  0
 12 13  1  0  0  0  0
 13 14  1  0  0  0  0
 12 15  1  0  0  0  0
 15 16  1  0  0  0  0
M  END