CCCCCCC(CCC)CCC
  Mrv0541 09161415342D          

 13 12  0  0  0  0            999 V2000
    2.3623    0.2467    0.0000 C   0  0  0  0  0  0  0  0  0  0  0  0
    2.9024    0.8704    0.0000 C   0  0  0  0  0  0  0  0  0  0  0  0
    3.7125    0.7145    0.0000 C   0  0  0  0  0  0  0  0  0  0  0  0
    4.2526    1.3381    0.0000 C   0  0  0  0  0  0  0  0  0  0  0  0
    5.0627    1.1822    0.0000 C   0  0  0  0  0  0  0  0  0  0  0  0
    5.6028    1.8058    0.0000 C   0  0  0  0  0  0  0  0  0  0  0  0
    6.4129    1.6499    0.0000 C   0  0  0  0  0  0  0  0  0  0  0  0
    6.9530    2.2736    0.0000 C   0  0  0  0  0  0  0  0  0  0  0  0
    7.7632    2.1177    0.0000 C   0  0  0  0  0  0  0  0  0  0  0  0
    8.3033    2.7413    0.0000 C   0  0  0  0  0  0  0  0  0  0  0  0
    6.6830    0.8704    0.0000 C   0  0  0  0  0  0  0  0  0  0  0  0
    7.4931    0.7145    0.0000 C   0  0  0  0  0  0  0  0  0  0  0  0
    7.7632   -0.0651    0.0000 C   0  0  0  0  0  0  0  0  0  0  0  0
  1  2  1  0  0  0  0
  2  3  1  0  0  0  0
  3  4  1  0  0  0  0
  4  5  1  0  0  0  0
  5  6  1  0  0  0  0
  6  7  1  0  0  0  0
  7  8  1  0  0  0  0
  8  9  1  0  0  0  0
  9 10  1  0  0  0  0
  7 11  1  0  0  0  0
 11 12  1  0  0  0  0
 12 13  1  0  0  0  0
M  END