CCCCCCCCC(CCC)CCC
  Mrv0541 09161415342D          

 15 14  0  0  0  0            999 V2000
    3.5629    1.0857    0.0000 C   0  0  0  0  0  0  0  0  0  0  0  0
    4.1574    1.6578    0.0000 C   0  0  0  0  0  0  0  0  0  0  0  0
    4.9500    1.4289    0.0000 C   0  0  0  0  0  0  0  0  0  0  0  0
    5.5445    2.0010    0.0000 C   0  0  0  0  0  0  0  0  0  0  0  0
    6.3371    1.7722    0.0000 C   0  0  0  0  0  0  0  0  0  0  0  0
    6.9316    2.3442    0.0000 C   0  0  0  0  0  0  0  0  0  0  0  0
    7.7242    2.1154    0.0000 C   0  0  0  0  0  0  0  0  0  0  0  0
    8.3187    2.6874    0.0000 C   0  0  0  0  0  0  0  0  0  0  0  0
    9.1113    2.4586    0.0000 C   0  0  0  0  0  0  0  0  0  0  0  0
    9.7058    3.0306    0.0000 C   0  0  0  0  0  0  0  0  0  0  0  0
   10.4984    2.8018    0.0000 C   0  0  0  0  0  0  0  0  0  0  0  0
   11.0929    3.3739    0.0000 C   0  0  0  0  0  0  0  0  0  0  0  0
    9.3095    1.6578    0.0000 C   0  0  0  0  0  0  0  0  0  0  0  0
   10.1021    1.4289    0.0000 C   0  0  0  0  0  0  0  0  0  0  0  0
   10.3003    0.6281    0.0000 C   0  0  0  0  0  0  0  0  0  0  0  0
  1  2  1  0  0  0  0
  2  3  1  0  0  0  0
  3  4  1  0  0  0  0
  4  5  1  0  0  0  0
  5  6  1  0  0  0  0
  6  7  1  0  0  0  0
  7  8  1  0  0  0  0
  8  9  1  0  0  0  0
  9 10  1  0  0  0  0
 10 11  1  0  0  0  0
 11 12  1  0  0  0  0
  9 13  1  0  0  0  0
 13 14  1  0  0  0  0
 14 15  1  0  0  0  0
M  END