CCCCCCCCCCCCCC(CCC)CCC
  Mrv0541 09161415342D          

 20 19  0  0  0  0            999 V2000
    7.8998    3.8869    0.0000 C   0  0  0  0  0  0  0  0  0  0  0  0
    8.6625    3.5724    0.0000 C   0  0  0  0  0  0  0  0  0  0  0  0
    9.3162    4.0756    0.0000 C   0  0  0  0  0  0  0  0  0  0  0  0
   10.0789    3.7611    0.0000 C   0  0  0  0  0  0  0  0  0  0  0  0
   10.7327    4.2643    0.0000 C   0  0  0  0  0  0  0  0  0  0  0  0
   11.4954    3.9498    0.0000 C   0  0  0  0  0  0  0  0  0  0  0  0
   12.1491    4.4530    0.0000 C   0  0  0  0  0  0  0  0  0  0  0  0
   12.9118    4.1385    0.0000 C   0  0  0  0  0  0  0  0  0  0  0  0
   13.5655    4.6418    0.0000 C   0  0  0  0  0  0  0  0  0  0  0  0
   14.3282    4.3272    0.0000 C   0  0  0  0  0  0  0  0  0  0  0  0
   14.9819    4.8305    0.0000 C   0  0  0  0  0  0  0  0  0  0  0  0
   15.7446    4.5159    0.0000 C   0  0  0  0  0  0  0  0  0  0  0  0
   16.3984    5.0192    0.0000 C   0  0  0  0  0  0  0  0  0  0  0  0
   17.1611    4.7047    0.0000 C   0  0  0  0  0  0  0  0  0  0  0  0
   17.8148    5.2079    0.0000 C   0  0  0  0  0  0  0  0  0  0  0  0
   18.5775    4.8934    0.0000 C   0  0  0  0  0  0  0  0  0  0  0  0
   19.2312    5.3966    0.0000 C   0  0  0  0  0  0  0  0  0  0  0  0
   17.2700    3.8869    0.0000 C   0  0  0  0  0  0  0  0  0  0  0  0
   18.0327    3.5724    0.0000 C   0  0  0  0  0  0  0  0  0  0  0  0
   18.1417    2.7546    0.0000 C   0  0  0  0  0  0  0  0  0  0  0  0
  1  2  1  0  0  0  0
  2  3  1  0  0  0  0
  3  4  1  0  0  0  0
  4  5  1  0  0  0  0
  5  6  1  0  0  0  0
  6  7  1  0  0  0  0
  7  8  1  0  0  0  0
  8  9  1  0  0  0  0
  9 10  1  0  0  0  0
 10 11  1  0  0  0  0
 11 12  1  0  0  0  0
 12 13  1  0  0  0  0
 13 14  1  0  0  0  0
 14 15  1  0  0  0  0
 15 16  1  0  0  0  0
 16 17  1  0  0  0  0
 14 18  1  0  0  0  0
 18 19  1  0  0  0  0
 19 20  1  0  0  0  0
M  END