CCCC(CCC)CCC
  Mrv0541 09161415342D          

 10  9  0  0  0  0            999 V2000
    1.4289   -4.7289    0.0000 C   0  0  0  0  0  0  0  0  0  0  0  0
    1.4289   -3.9039    0.0000 C   0  0  0  0  0  0  0  0  0  0  0  0
    0.7145   -3.4914    0.0000 C   0  0  0  0  0  0  0  0  0  0  0  0
    0.7145   -2.6664    0.0000 C   0  0  0  0  0  0  0  0  0  0  0  0
   -0.0000   -2.2539    0.0000 C   0  0  0  0  0  0  0  0  0  0  0  0
   -0.0000   -1.4289    0.0000 C   0  0  0  0  0  0  0  0  0  0  0  0
   -0.7145   -1.0164    0.0000 C   0  0  0  0  0  0  0  0  0  0  0  0
    1.4289   -2.2539    0.0000 C   0  0  0  0  0  0  0  0  0  0  0  0
    1.4289   -1.4289    0.0000 C   0  0  0  0  0  0  0  0  0  0  0  0
    2.1434   -1.0164    0.0000 C   0  0  0  0  0  0  0  0  0  0  0  0
  1  2  1  0  0  0  0
  2  3  1  0  0  0  0
  3  4  1  0  0  0  0
  4  5  1  0  0  0  0
  5  6  1  0  0  0  0
  6  7  1  0  0  0  0
  4  8  1  0  0  0  0
  8  9  1  0  0  0  0
  9 10  1  0  0  0  0
M  END