CCCCCCCCCCCCC(CCC)CCC
  Mrv0541 09161415342D          

 19 18  0  0  0  0            999 V2000
    6.0134    2.6356    0.0000 C   0  0  0  0  0  0  0  0  0  0  0  0
    6.6551    3.1542    0.0000 C   0  0  0  0  0  0  0  0  0  0  0  0
    7.4250    2.8579    0.0000 C   0  0  0  0  0  0  0  0  0  0  0  0
    8.0666    3.3765    0.0000 C   0  0  0  0  0  0  0  0  0  0  0  0
    8.8366    3.0801    0.0000 C   0  0  0  0  0  0  0  0  0  0  0  0
    9.4782    3.5988    0.0000 C   0  0  0  0  0  0  0  0  0  0  0  0
   10.2481    3.3024    0.0000 C   0  0  0  0  0  0  0  0  0  0  0  0
   10.8897    3.8210    0.0000 C   0  0  0  0  0  0  0  0  0  0  0  0
   11.6597    3.5247    0.0000 C   0  0  0  0  0  0  0  0  0  0  0  0
   12.3013    4.0433    0.0000 C   0  0  0  0  0  0  0  0  0  0  0  0
   13.0712    3.7469    0.0000 C   0  0  0  0  0  0  0  0  0  0  0  0
   13.7128    4.2655    0.0000 C   0  0  0  0  0  0  0  0  0  0  0  0
   14.4828    3.9692    0.0000 C   0  0  0  0  0  0  0  0  0  0  0  0
   15.1244    4.4878    0.0000 C   0  0  0  0  0  0  0  0  0  0  0  0
   15.8943    4.1915    0.0000 C   0  0  0  0  0  0  0  0  0  0  0  0
   16.5359    4.7101    0.0000 C   0  0  0  0  0  0  0  0  0  0  0  0
   14.6111    3.1542    0.0000 C   0  0  0  0  0  0  0  0  0  0  0  0
   15.3810    2.8579    0.0000 C   0  0  0  0  0  0  0  0  0  0  0  0
   15.5093    2.0429    0.0000 C   0  0  0  0  0  0  0  0  0  0  0  0
  1  2  1  0  0  0  0
  2  3  1  0  0  0  0
  3  4  1  0  0  0  0
  4  5  1  0  0  0  0
  5  6  1  0  0  0  0
  6  7  1  0  0  0  0
  7  8  1  0  0  0  0
  8  9  1  0  0  0  0
  9 10  1  0  0  0  0
 10 11  1  0  0  0  0
 11 12  1  0  0  0  0
 12 13  1  0  0  0  0
 13 14  1  0  0  0  0
 14 15  1  0  0  0  0
 15 16  1  0  0  0  0
 13 17  1  0  0  0  0
 17 18  1  0  0  0  0
 18 19  1  0  0  0  0
M  END