CCCCCCCCCCCCCCCC(CCC)CCC
  Mrv0541 09161415342D          

 22 21  0  0  0  0            999 V2000
    9.1429    4.6146    0.0000 C   0  0  0  0  0  0  0  0  0  0  0  0
    9.9000    4.2868    0.0000 C   0  0  0  0  0  0  0  0  0  0  0  0
   10.5624    4.7786    0.0000 C   0  0  0  0  0  0  0  0  0  0  0  0
   11.3195    4.4507    0.0000 C   0  0  0  0  0  0  0  0  0  0  0  0
   11.9819    4.9425    0.0000 C   0  0  0  0  0  0  0  0  0  0  0  0
   12.7390    4.6146    0.0000 C   0  0  0  0  0  0  0  0  0  0  0  0
   13.4015    5.1064    0.0000 C   0  0  0  0  0  0  0  0  0  0  0  0
   14.1585    4.7786    0.0000 C   0  0  0  0  0  0  0  0  0  0  0  0
   14.8210    5.2703    0.0000 C   0  0  0  0  0  0  0  0  0  0  0  0
   15.5780    4.9425    0.0000 C   0  0  0  0  0  0  0  0  0  0  0  0
   16.2405    5.4342    0.0000 C   0  0  0  0  0  0  0  0  0  0  0  0
   16.9975    5.1064    0.0000 C   0  0  0  0  0  0  0  0  0  0  0  0
   17.6600    5.5981    0.0000 C   0  0  0  0  0  0  0  0  0  0  0  0
   18.4171    5.2703    0.0000 C   0  0  0  0  0  0  0  0  0  0  0  0
   19.0795    5.7620    0.0000 C   0  0  0  0  0  0  0  0  0  0  0  0
   19.8366    5.4342    0.0000 C   0  0  0  0  0  0  0  0  0  0  0  0
   20.4990    5.9259    0.0000 C   0  0  0  0  0  0  0  0  0  0  0  0
   21.2561    5.5981    0.0000 C   0  0  0  0  0  0  0  0  0  0  0  0
   21.9185    6.0898    0.0000 C   0  0  0  0  0  0  0  0  0  0  0  0
   19.9312    4.6146    0.0000 C   0  0  0  0  0  0  0  0  0  0  0  0
   20.6883    4.2868    0.0000 C   0  0  0  0  0  0  0  0  0  0  0  0
   20.7829    3.4673    0.0000 C   0  0  0  0  0  0  0  0  0  0  0  0
  1  2  1  0  0  0  0
  2  3  1  0  0  0  0
  3  4  1  0  0  0  0
  4  5  1  0  0  0  0
  5  6  1  0  0  0  0
  6  7  1  0  0  0  0
  7  8  1  0  0  0  0
  8  9  1  0  0  0  0
  9 10  1  0  0  0  0
 10 11  1  0  0  0  0
 11 12  1  0  0  0  0
 12 13  1  0  0  0  0
 13 14  1  0  0  0  0
 14 15  1  0  0  0  0
 15 16  1  0  0  0  0
 16 17  1  0  0  0  0
 17 18  1  0  0  0  0
 18 19  1  0  0  0  0
 16 20  1  0  0  0  0
 20 21  1  0  0  0  0
 21 22  1  0  0  0  0
M  END