CCCCC(CCC)CCC
  Mrv0541 09161415342D          

 11 10  0  0  0  0            999 V2000
    1.2375   -0.7145    0.0000 C   0  0  0  0  0  0  0  0  0  0  0  0
    1.6500   -0.0000    0.0000 C   0  0  0  0  0  0  0  0  0  0  0  0
    2.4750   -0.0000    0.0000 C   0  0  0  0  0  0  0  0  0  0  0  0
    2.8875    0.7145    0.0000 C   0  0  0  0  0  0  0  0  0  0  0  0
    3.7125    0.7145    0.0000 C   0  0  0  0  0  0  0  0  0  0  0  0
    4.1250    1.4289    0.0000 C   0  0  0  0  0  0  0  0  0  0  0  0
    4.9500    1.4289    0.0000 C   0  0  0  0  0  0  0  0  0  0  0  0
    5.3625    2.1434    0.0000 C   0  0  0  0  0  0  0  0  0  0  0  0
    4.1250   -0.0000    0.0000 C   0  0  0  0  0  0  0  0  0  0  0  0
    4.9500    0.0000    0.0000 C   0  0  0  0  0  0  0  0  0  0  0  0
    5.3625   -0.7145    0.0000 C   0  0  0  0  0  0  0  0  0  0  0  0
  1  2  1  0  0  0  0
  2  3  1  0  0  0  0
  3  4  1  0  0  0  0
  4  5  1  0  0  0  0
  5  6  1  0  0  0  0
  6  7  1  0  0  0  0
  7  8  1  0  0  0  0
  5  9  1  0  0  0  0
  9 10  1  0  0  0  0
 10 11  1  0  0  0  0
M  END