CCCCCCCCCCC(CCC)CCC
  Mrv0541 09161415342D          

 17 16  0  0  0  0            999 V2000
    4.7843    1.8734    0.0000 C   0  0  0  0  0  0  0  0  0  0  0  0
    5.4079    2.4135    0.0000 C   0  0  0  0  0  0  0  0  0  0  0  0
    6.1875    2.1434    0.0000 C   0  0  0  0  0  0  0  0  0  0  0  0
    6.8111    2.6835    0.0000 C   0  0  0  0  0  0  0  0  0  0  0  0
    7.5907    2.4135    0.0000 C   0  0  0  0  0  0  0  0  0  0  0  0
    8.2143    2.9535    0.0000 C   0  0  0  0  0  0  0  0  0  0  0  0
    8.9939    2.6835    0.0000 C   0  0  0  0  0  0  0  0  0  0  0  0
    9.6175    3.2236    0.0000 C   0  0  0  0  0  0  0  0  0  0  0  0
   10.3971    2.9535    0.0000 C   0  0  0  0  0  0  0  0  0  0  0  0
   11.0207    3.4936    0.0000 C   0  0  0  0  0  0  0  0  0  0  0  0
   11.8003    3.2236    0.0000 C   0  0  0  0  0  0  0  0  0  0  0  0
   12.4239    3.7637    0.0000 C   0  0  0  0  0  0  0  0  0  0  0  0
   13.2035    3.4936    0.0000 C   0  0  0  0  0  0  0  0  0  0  0  0
   13.8271    4.0337    0.0000 C   0  0  0  0  0  0  0  0  0  0  0  0
   11.9562    2.4135    0.0000 C   0  0  0  0  0  0  0  0  0  0  0  0
   12.7357    2.1434    0.0000 C   0  0  0  0  0  0  0  0  0  0  0  0
   12.8916    1.3333    0.0000 C   0  0  0  0  0  0  0  0  0  0  0  0
  1  2  1  0  0  0  0
  2  3  1  0  0  0  0
  3  4  1  0  0  0  0
  4  5  1  0  0  0  0
  5  6  1  0  0  0  0
  6  7  1  0  0  0  0
  7  8  1  0  0  0  0
  8  9  1  0  0  0  0
  9 10  1  0  0  0  0
 10 11  1  0  0  0  0
 11 12  1  0  0  0  0
 12 13  1  0  0  0  0
 13 14  1  0  0  0  0
 11 15  1  0  0  0  0
 15 16  1  0  0  0  0
 16 17  1  0  0  0  0
M  END