CCCCCCCC(CCCC)CCCC
  Mrv0541 09161415342D          

 16 15  0  0  0  0            999 V2000
    1.2375   -3.5724    0.0000 C   0  0  0  0  0  0  0  0  0  0  0  0
    2.0625   -3.5724    0.0000 C   0  0  0  0  0  0  0  0  0  0  0  0
    2.4750   -4.2868    0.0000 C   0  0  0  0  0  0  0  0  0  0  0  0
    3.3000   -4.2868    0.0000 C   0  0  0  0  0  0  0  0  0  0  0  0
    3.7125   -5.0013    0.0000 C   0  0  0  0  0  0  0  0  0  0  0  0
    4.5375   -5.0013    0.0000 C   0  0  0  0  0  0  0  0  0  0  0  0
    4.9500   -5.7158    0.0000 C   0  0  0  0  0  0  0  0  0  0  0  0
    5.7750   -5.7158    0.0000 C   0  0  0  0  0  0  0  0  0  0  0  0
    6.1875   -6.4302    0.0000 C   0  0  0  0  0  0  0  0  0  0  0  0
    7.0125   -6.4302    0.0000 C   0  0  0  0  0  0  0  0  0  0  0  0
    7.4250   -7.1447    0.0000 C   0  0  0  0  0  0  0  0  0  0  0  0
    8.2500   -7.1447    0.0000 C   0  0  0  0  0  0  0  0  0  0  0  0
    6.1875   -5.0013    0.0000 C   0  0  0  0  0  0  0  0  0  0  0  0
    7.0125   -5.0013    0.0000 C   0  0  0  0  0  0  0  0  0  0  0  0
    7.4250   -4.2868    0.0000 C   0  0  0  0  0  0  0  0  0  0  0  0
    8.2500   -4.2868    0.0000 C   0  0  0  0  0  0  0  0  0  0  0  0
  1  2  1  0  0  0  0
  2  3  1  0  0  0  0
  3  4  1  0  0  0  0
  4  5  1  0  0  0  0
  5  6  1  0  0  0  0
  6  7  1  0  0  0  0
  7  8  1  0  0  0  0
  8  9  1  0  0  0  0
  9 10  1  0  0  0  0
 10 11  1  0  0  0  0
 11 12  1  0  0  0  0
  8 13  1  0  0  0  0
 13 14  1  0  0  0  0
 14 15  1  0  0  0  0
 15 16  1  0  0  0  0
M  END