CCCCCCCCC(CCCCCC)CCCCCC
  Mrv0541 09161415342D          

 21 20  0  0  0  0            999 V2000
    3.3000   -5.7158    0.0000 C   0  0  0  0  0  0  0  0  0  0  0  0
    3.7125   -6.4302    0.0000 C   0  0  0  0  0  0  0  0  0  0  0  0
    4.5375   -6.4302    0.0000 C   0  0  0  0  0  0  0  0  0  0  0  0
    4.9500   -7.1447    0.0000 C   0  0  0  0  0  0  0  0  0  0  0  0
    5.7750   -7.1447    0.0000 C   0  0  0  0  0  0  0  0  0  0  0  0
    6.1875   -7.8592    0.0000 C   0  0  0  0  0  0  0  0  0  0  0  0
    7.0125   -7.8592    0.0000 C   0  0  0  0  0  0  0  0  0  0  0  0
    7.4250   -8.5737    0.0000 C   0  0  0  0  0  0  0  0  0  0  0  0
    8.2500   -8.5737    0.0000 C   0  0  0  0  0  0  0  0  0  0  0  0
    8.6625   -9.2881    0.0000 C   0  0  0  0  0  0  0  0  0  0  0  0
    9.4875   -9.2881    0.0000 C   0  0  0  0  0  0  0  0  0  0  0  0
    9.9000  -10.0026    0.0000 C   0  0  0  0  0  0  0  0  0  0  0  0
   10.7250  -10.0026    0.0000 C   0  0  0  0  0  0  0  0  0  0  0  0
   11.1375  -10.7171    0.0000 C   0  0  0  0  0  0  0  0  0  0  0  0
   11.9625  -10.7171    0.0000 C   0  0  0  0  0  0  0  0  0  0  0  0
    8.6625   -7.8592    0.0000 C   0  0  0  0  0  0  0  0  0  0  0  0
    9.4875   -7.8592    0.0000 C   0  0  0  0  0  0  0  0  0  0  0  0
    9.9000   -7.1447    0.0000 C   0  0  0  0  0  0  0  0  0  0  0  0
   10.7250   -7.1447    0.0000 C   0  0  0  0  0  0  0  0  0  0  0  0
   11.1375   -6.4302    0.0000 C   0  0  0  0  0  0  0  0  0  0  0  0
   11.9625   -6.4302    0.0000 C   0  0  0  0  0  0  0  0  0  0  0  0
  1  2  1  0  0  0  0
  2  3  1  0  0  0  0
  3  4  1  0  0  0  0
  4  5  1  0  0  0  0
  5  6  1  0  0  0  0
  6  7  1  0  0  0  0
  7  8  1  0  0  0  0
  8  9  1  0  0  0  0
  9 10  1  0  0  0  0
 10 11  1  0  0  0  0
 11 12  1  0  0  0  0
 12 13  1  0  0  0  0
 13 14  1  0  0  0  0
 14 15  1  0  0  0  0
  9 16  1  0  0  0  0
 16 17  1  0  0  0  0
 17 18  1  0  0  0  0
 18 19  1  0  0  0  0
 19 20  1  0  0  0  0
 20 21  1  0  0  0  0
M  END