4-hydroxyphenylaceticacid
 OpenBabel11261423233D

 11 11  0  0  0  0  0  0  0  0999 V2000
    0.6589    4.2914    0.4777 O   0  0  0  0  0  0  0  0  0  0  0  0
   -0.5283    3.8497   -0.1022 C   0  0  0  0  0  0  0  0  0  0  0  0
   -1.3766    4.6893   -0.4232 O   0  0  0  0  0  0  0  0  0  0  0  0
   -0.8564    2.3649   -0.2996 C   0  0  0  0  0  0  0  0  0  0  0  0
    0.2616    1.3519   -0.0295 C   0  0  0  0  0  0  0  0  0  0  0  0
    1.5751    1.7347    0.2252 C   0  0  0  0  0  0  0  0  0  0  0  0
    2.5571    0.7790    0.4583 C   0  0  0  0  0  0  0  0  0  0  0  0
    2.2301   -0.5715    0.4360 C   0  0  0  0  0  0  0  0  0  0  0  0
    3.2106   -1.5298    0.6692 O   0  0  0  0  0  0  0  0  0  0  0  0
    0.9216   -0.9618    0.1793 C   0  0  0  0  0  0  0  0  0  0  0  0
   -0.0569   -0.0018   -0.0535 C   0  0  0  0  0  0  0  0  0  0  0  0
  1  2  1  0  0  0  0
  2  4  1  0  0  0  0
  2  3  2  0  0  0  0
  4  5  1  0  0  0  0
  5  6  1  0  0  0  0
  6  7  2  0  0  0  0
  7  8  1  0  0  0  0
  8 10  2  0  0  0  0
  8  9  1  0  0  0  0
 10 11  1  0  0  0  0
 11  5  2  0  0  0  0
M  END
