3-hydroxybenzylalcohol
 OpenBabel11261423233D

  9  9  0  0  0  0  0  0  0  0999 V2000
    0.3199    3.4517   -0.6801 O   0  0  0  0  0  0  0  0  0  0  0  0
   -0.2785    2.4285    0.1188 C   0  0  0  0  0  0  0  0  0  0  0  0
    0.5691    1.1925    0.0622 C   0  0  0  0  0  0  0  0  0  0  0  0
    1.7359    1.1847   -0.6938 C   0  0  0  0  0  0  0  0  0  0  0  0
    2.5221    0.0393   -0.7467 C   0  0  0  0  0  0  0  0  0  0  0  0
    2.1413   -1.0982   -0.0436 C   0  0  0  0  0  0  0  0  0  0  0  0
    0.9743   -1.0899    0.7123 C   0  0  0  0  0  0  0  0  0  0  0  0
    0.5935   -2.2276    1.4155 O   0  0  0  0  0  0  0  0  0  0  0  0
    0.1880    0.0554    0.7654 C   0  0  0  0  0  0  0  0  0  0  0  0
  1  2  1  0  0  0  0
  2  3  1  0  0  0  0
  3  4  1  0  0  0  0
  4  5  2  0  0  0  0
  5  6  1  0  0  0  0
  6  7  2  0  0  0  0
  7  9  1  0  0  0  0
  7  8  1  0  0  0  0
  9  3  2  0  0  0  0
M  END
