4-hydroxybenzoicacid(4-carboxylphenol)
 OpenBabel11261423233D

 10 10  0  0  0  0  0  0  0  0999 V2000
    3.3005    1.0277    0.9071 O   0  0  0  0  0  0  0  0  0  0  0  0
    1.9770    1.0196    0.4803 C   0  0  0  0  0  0  0  0  0  0  0  0
    1.2044    2.1704    0.5899 C   0  0  0  0  0  0  0  0  0  0  0  0
   -0.1187    2.1623    0.1632 C   0  0  0  0  0  0  0  0  0  0  0  0
   -0.6682    1.0033   -0.3729 C   0  0  0  0  0  0  0  0  0  0  0  0
   -2.0574    0.9946   -0.8209 C   0  0  0  0  0  0  0  0  0  0  0  0
   -2.7440    2.0177   -0.7233 O   0  0  0  0  0  0  0  0  0  0  0  0
   -2.6070   -0.1648   -1.3572 O   0  0  0  0  0  0  0  0  0  0  0  0
    1.4269   -0.1394   -0.0560 C   0  0  0  0  0  0  0  0  0  0  0  0
    0.1039   -0.1476   -0.4827 C   0  0  0  0  0  0  0  0  0  0  0  0
  1  2  1  0  0  0  0
  2  9  2  0  0  0  0
  2  3  1  0  0  0  0
  3  4  2  0  0  0  0
  4  5  1  0  0  0  0
  5  6  1  0  0  0  0
  6  8  1  0  0  0  0
  6  7  2  0  0  0  0
  9 10  1  0  0  0  0
 10  5  2  0  0  0  0
M  END
