3-hydroxy-4-methoxybenzylalcohol
 OpenBabel11261423233D

 11 11  0  0  0  0  0  0  0  0999 V2000
   -1.4577    3.0227   -1.7387 C   0  0  0  0  0  0  0  0  0  0  0  0
   -1.4842    1.6935   -1.1978 O   0  0  0  0  0  0  0  0  0  0  0  0
   -0.3021    1.4026   -0.4962 C   0  0  0  0  0  0  0  0  0  0  0  0
    0.7169    2.3448   -0.3884 C   0  0  0  0  0  0  0  0  0  0  0  0
    1.8796    2.0390    0.3100 C   0  0  0  0  0  0  0  0  0  0  0  0
    2.0257    0.7900    0.9022 C   0  0  0  0  0  0  0  0  0  0  0  0
    3.2797    0.4598    1.6555 C   0  0  0  0  0  0  0  0  0  0  0  0
    4.1636    1.5827    1.6217 O   0  0  0  0  0  0  0  0  0  0  0  0
    1.0096   -0.1525    0.7960 C   0  0  0  0  0  0  0  0  0  0  0  0
   -0.1525    0.1543    0.0975 C   0  0  0  0  0  0  0  0  0  0  0  0
   -1.1682   -0.7891   -0.0082 O   0  0  0  0  0  0  0  0  0  0  0  0
  1  2  1  0  0  0  0
  2  3  1  0  0  0  0
  3  4  1  0  0  0  0
  4  5  2  0  0  0  0
  5  6  1  0  0  0  0
  6  9  2  0  0  0  0
  6  7  1  0  0  0  0
  7  8  1  0  0  0  0
  9 10  1  0  0  0  0
 10 11  1  0  0  0  0
 10  3  2  0  0  0  0
M  END
