4-hydroxyphenethylalcohol
 OpenBabel11261423233D

 10 10  0  0  0  0  0  0  0  0999 V2000
    3.3848    0.3031    0.7112 O   0  0  0  0  0  0  0  0  0  0  0  0
    2.0387    0.6171    0.5581 C   0  0  0  0  0  0  0  0  0  0  0  0
    1.2804    0.9853    1.6634 C   0  0  0  0  0  0  0  0  0  0  0  0
   -0.0652    1.2993    1.5100 C   0  0  0  0  0  0  0  0  0  0  0  0
   -0.6561    1.2479    0.2523 C   0  0  0  0  0  0  0  0  0  0  0  0
   -2.1246    1.5892    0.1086 C   0  0  0  0  0  0  0  0  0  0  0  0
   -2.5755    1.5922   -1.3723 C   0  0  0  0  0  0  0  0  0  0  0  0
   -1.9082    2.6372   -2.0921 O   0  0  0  0  0  0  0  0  0  0  0  0
    1.4506    0.5623   -0.7002 C   0  0  0  0  0  0  0  0  0  0  0  0
    0.1049    0.8765   -0.8521 C   0  0  0  0  0  0  0  0  0  0  0  0
  1  2  1  0  0  0  0
  2  9  2  0  0  0  0
  2  3  1  0  0  0  0
  3  4  2  0  0  0  0
  4  5  1  0  0  0  0
  5  6  1  0  0  0  0
  6  7  1  0  0  0  0
  7  8  1  0  0  0  0
  9 10  1  0  0  0  0
 10  5  2  0  0  0  0
M  END
