2,6-dimethoxyphenol
 OpenBabel11261423233D

 11 11  0  0  0  0  0  0  0  0999 V2000
    1.9180    0.9101    0.7002 C   0  0  0  0  0  0  0  0  0  0  0  0
    1.1240    2.0345    0.8688 C   0  0  0  0  0  0  0  0  0  0  0  0
   -0.2358    1.9689    0.5874 C   0  0  0  0  0  0  0  0  0  0  0  0
   -1.0551    3.0991    0.7528 O   0  0  0  0  0  0  0  0  0  0  0  0
   -0.3033    4.2287    1.2214 C   0  0  0  0  0  0  0  0  0  0  0  0
   -0.8102    0.7838    0.1371 C   0  0  0  0  0  0  0  0  0  0  0  0
   -2.1828    0.8190   -0.1179 O   0  0  0  0  0  0  0  0  0  0  0  0
    1.3474   -0.2731    0.2512 C   0  0  0  0  0  0  0  0  0  0  0  0
   -0.0117   -0.3599   -0.0361 C   0  0  0  0  0  0  0  0  0  0  0  0
   -0.4627   -1.6596   -0.4954 O   0  0  0  0  0  0  0  0  0  0  0  0
   -1.8502   -1.8306   -0.8123 C   0  0  0  0  0  0  0  0  0  0  0  0
  1  8  2  0  0  0  0
  1  2  1  0  0  0  0
  2  3  2  0  0  0  0
  3  6  1  0  0  0  0
  3  4  1  0  0  0  0
  4  5  1  0  0  0  0
  6  7  1  0  0  0  0
  8  9  1  0  0  0  0
  9 10  1  0  0  0  0
  9  6  2  0  0  0  0
 10 11  1  0  0  0  0
M  END
