2,4,6-tris(dimethylaminomethyl)phenol
 OpenBabel11261423233D

 19 19  0  0  0  0  0  0  0  0999 V2000
   -0.1504    1.9531   -2.5537 O   0  0  0  0  0  0  0  0  0  0  0  0
    0.4115    1.6003   -1.3325 C   0  0  0  0  0  0  0  0  0  0  0  0
    1.4660    2.3519   -0.8200 C   0  0  0  0  0  0  0  0  0  0  0  0
    1.9546    3.5582   -1.6165 C   0  0  0  0  0  0  0  0  0  0  0  0
    3.2071    4.1739   -1.1038 N   0  0  0  0  0  0  0  0  0  0  0  0
    4.3834    3.3275   -1.4267 C   0  0  0  0  0  0  0  0  0  0  0  0
    3.3930    5.4692   -1.7721 C   0  0  0  0  0  0  0  0  0  0  0  0
    2.0212    2.0036    0.4055 C   0  0  0  0  0  0  0  0  0  0  0  0
    1.5315    0.9123    1.1169 C   0  0  0  0  0  0  0  0  0  0  0  0
    2.1381    0.4889    2.4506 C   0  0  0  0  0  0  0  0  0  0  0  0
    3.0066    1.5211    3.0777 N   0  0  0  0  0  0  0  0  0  0  0  0
    3.7263    0.9075    4.2023 C   0  0  0  0  0  0  0  0  0  0  0  0
    2.1858    2.6336    3.6214 C   0  0  0  0  0  0  0  0  0  0  0  0
    0.4794    0.1721    0.5920 C   0  0  0  0  0  0  0  0  0  0  0  0
   -0.0916    0.5121   -0.6346 C   0  0  0  0  0  0  0  0  0  0  0  0
   -1.2748   -0.2579   -1.2764 C   0  0  0  0  0  0  0  0  0  0  0  0
   -2.2424   -0.9863   -0.3745 N   0  0  0  0  0  0  0  0  0  0  0  0
   -2.9342   -0.0675    0.5540 C   0  0  0  0  0  0  0  0  0  0  0  0
   -1.7042   -2.1810    0.3171 C   0  0  0  0  0  0  0  0  0  0  0  0
  1  2  1  0  0  0  0
  2  3  1  0  0  0  0
  3  8  2  0  0  0  0
  3  4  1  0  0  0  0
  4  5  1  0  0  0  0
  5  7  1  0  0  0  0
  5  6  1  0  0  0  0
  8  9  1  0  0  0  0
  9 14  2  0  0  0  0
  9 10  1  0  0  0  0
 10 11  1  0  0  0  0
 11 13  1  0  0  0  0
 11 12  1  0  0  0  0
 14 15  1  0  0  0  0
 15 16  1  0  0  0  0
 15  2  2  0  0  0  0
 16 17  1  0  0  0  0
 17 19  1  0  0  0  0
 17 18  1  0  0  0  0
M  END
