2-methoxyphenol(guaiacol)
 OpenBabel11261423233D

  9  9  0  0  0  0  0  0  0  0999 V2000
   -0.2106    1.6639    1.2126 C   0  0  0  0  0  0  0  0  0  0  0  0
    0.5831    2.2873    0.2535 C   0  0  0  0  0  0  0  0  0  0  0  0
    0.5581    3.7371    0.2792 O   0  0  0  0  0  0  0  0  0  0  0  0
    1.3500    4.4523   -0.6780 C   0  0  0  0  0  0  0  0  0  0  0  0
    1.3207    1.4841   -0.6334 C   0  0  0  0  0  0  0  0  0  0  0  0
    2.1509    1.9907   -1.6362 O   0  0  0  0  0  0  0  0  0  0  0  0
    1.2415    0.0982   -0.5337 C   0  0  0  0  0  0  0  0  0  0  0  0
    0.4452   -0.5076    0.4286 C   0  0  0  0  0  0  0  0  0  0  0  0
   -0.2845    0.2803    1.3061 C   0  0  0  0  0  0  0  0  0  0  0  0
  1  2  1  0  0  0  0
  2  5  2  0  0  0  0
  2  3  1  0  0  0  0
  3  4  1  0  0  0  0
  5  7  1  0  0  0  0
  5  6  1  0  0  0  0
  7  8  2  0  0  0  0
  8  9  1  0  0  0  0
  9  1  2  0  0  0  0
M  END
