4-hydroxybenzylcyanide(4-methylcyanophenol)
 OpenBabel11261423233D

 10 10  0  0  0  0  0  0  0  0999 V2000
    3.3552    0.8344    0.8159 O   0  0  0  0  0  0  0  0  0  0  0  0
    2.0067    0.8525    0.4870 C   0  0  0  0  0  0  0  0  0  0  0  0
    1.2740    2.0234    0.6398 C   0  0  0  0  0  0  0  0  0  0  0  0
   -0.0700    2.0465    0.2915 C   0  0  0  0  0  0  0  0  0  0  0  0
   -0.6812    0.8980   -0.1979 C   0  0  0  0  0  0  0  0  0  0  0  0
   -2.1082    0.9500   -0.6111 C   0  0  0  0  0  0  0  0  0  0  0  0
   -2.3511    2.3083   -1.0822 C   0  0  0  0  0  0  0  0  0  0  0  0
   -2.5422    3.3802   -1.4542 N   0  0  0  0  0  0  0  0  0  0  0  0
    1.3938   -0.2973    0.0006 C   0  0  0  0  0  0  0  0  0  0  0  0
    0.0464   -0.2768   -0.3403 C   0  0  0  0  0  0  0  0  0  0  0  0
  1  2  1  0  0  0  0
  2  9  2  0  0  0  0
  2  3  1  0  0  0  0
  3  4  2  0  0  0  0
  4  5  1  0  0  0  0
  5  6  1  0  0  0  0
  6  7  1  0  0  0  0
  7  8  3  0  0  0  0
  9 10  1  0  0  0  0
 10  5  2  0  0  0  0
M  END
