4-hydroxyacetophenone(4-acetylphenol)
 OpenBabel11261423233D

 10 10  0  0  0  0  0  0  0  0999 V2000
    3.3058    1.0274    0.9152 O   0  0  0  0  0  0  0  0  0  0  0  0
    1.9826    1.0222    0.4874 C   0  0  0  0  0  0  0  0  0  0  0  0
    1.2105    2.1728    0.6024 C   0  0  0  0  0  0  0  0  0  0  0  0
   -0.1122    2.1677    0.1747 C   0  0  0  0  0  0  0  0  0  0  0  0
   -0.6628    1.0122   -0.3679 C   0  0  0  0  0  0  0  0  0  0  0  0
   -2.0549    1.0109   -0.8167 C   0  0  0  0  0  0  0  0  0  0  0  0
   -2.7363    2.0368   -0.7119 O   0  0  0  0  0  0  0  0  0  0  0  0
   -2.6576   -0.2333   -1.4041 C   0  0  0  0  0  0  0  0  0  0  0  0
    1.4322   -0.1335   -0.0552 C   0  0  0  0  0  0  0  0  0  0  0  0
    0.1094   -0.1385   -0.4829 C   0  0  0  0  0  0  0  0  0  0  0  0
  1  2  1  0  0  0  0
  2  9  2  0  0  0  0
  2  3  1  0  0  0  0
  3  4  2  0  0  0  0
  4  5  1  0  0  0  0
  5  6  1  0  0  0  0
  6  8  1  0  0  0  0
  6  7  2  0  0  0  0
  9 10  1  0  0  0  0
 10  5  2  0  0  0  0
M  END
