3-ethoxy-4-methoxyphenol
 OpenBabel11261423233D

 12 12  0  0  0  0  0  0  0  0999 V2000
    0.4333   -1.4124    0.8874 C   0  0  0  0  0  0  0  0  0  0  0  0
    1.7878   -1.6725    0.6961 C   0  0  0  0  0  0  0  0  0  0  0  0
    2.2511   -2.9349    1.2427 O   0  0  0  0  0  0  0  0  0  0  0  0
    3.6325   -3.2865    1.0927 C   0  0  0  0  0  0  0  0  0  0  0  0
    2.5688   -0.7235    0.0126 C   0  0  0  0  0  0  0  0  0  0  0  0
    3.9529   -0.8914   -0.2339 O   0  0  0  0  0  0  0  0  0  0  0  0
    4.5109    0.2232   -0.9500 C   0  0  0  0  0  0  0  0  0  0  0  0
    6.0126   -0.0200   -1.1856 C   0  0  0  0  0  0  0  0  0  0  0  0
    1.9668    0.4448   -0.4514 C   0  0  0  0  0  0  0  0  0  0  0  0
    0.6149    0.6884   -0.2521 C   0  0  0  0  0  0  0  0  0  0  0  0
    0.0387    1.8622   -0.7252 O   0  0  0  0  0  0  0  0  0  0  0  0
   -0.1569   -0.2454    0.4212 C   0  0  0  0  0  0  0  0  0  0  0  0
  1  2  1  0  0  0  0
  2  5  2  0  0  0  0
  2  3  1  0  0  0  0
  3  4  1  0  0  0  0
  5  9  1  0  0  0  0
  5  6  1  0  0  0  0
  6  7  1  0  0  0  0
  7  8  1  0  0  0  0
  9 10  2  0  0  0  0
 10 12  1  0  0  0  0
 10 11  1  0  0  0  0
 12  1  2  0  0  0  0
M  END
