o-cresol(2-methylphenol)
 OpenBabel11261423233D

  8  8  0  0  0  0  0  0  0  0999 V2000
    1.7961    1.2712    0.5600 C   0  0  0  0  0  0  0  0  0  0  0  0
    0.9360    2.3638    0.5629 C   0  0  0  0  0  0  0  0  0  0  0  0
   -0.4028    2.1959    0.2273 C   0  0  0  0  0  0  0  0  0  0  0  0
   -0.8814    0.9352   -0.1113 C   0  0  0  0  0  0  0  0  0  0  0  0
   -2.3263    0.7534   -0.4736 C   0  0  0  0  0  0  0  0  0  0  0  0
    1.3173    0.0105    0.2214 C   0  0  0  0  0  0  0  0  0  0  0  0
   -0.0215   -0.1573   -0.1142 C   0  0  0  0  0  0  0  0  0  0  0  0
   -0.5007   -1.4182   -0.4529 O   0  0  0  0  0  0  0  0  0  0  0  0
  1  6  2  0  0  0  0
  1  2  1  0  0  0  0
  2  3  2  0  0  0  0
  3  4  1  0  0  0  0
  4  5  1  0  0  0  0
  6  7  1  0  0  0  0
  7  8  1  0  0  0  0
  7  4  2  0  0  0  0
M  END
