salicylamide(2-hydroxybenzamide)
 OpenBabel11261423233D

 10 10  0  0  0  0  0  0  0  0999 V2000
    1.9532    1.1378    0.9059 C   0  0  0  0  0  0  0  0  0  0  0  0
    1.2221    2.3095    0.7497 C   0  0  0  0  0  0  0  0  0  0  0  0
   -0.0419    2.2672    0.1730 C   0  0  0  0  0  0  0  0  0  0  0  0
   -0.5785    1.0556   -0.2488 C   0  0  0  0  0  0  0  0  0  0  0  0
   -1.9166    1.0376   -0.8554 C   0  0  0  0  0  0  0  0  0  0  0  0
   -2.5429    2.0956   -0.9812 O   0  0  0  0  0  0  0  0  0  0  0  0
   -2.4884   -0.1592   -1.2910 N   0  0  0  0  0  0  0  0  0  0  0  0
    1.4188   -0.0744    0.4850 C   0  0  0  0  0  0  0  0  0  0  0  0
    0.1545   -0.1180   -0.0921 C   0  0  0  0  0  0  0  0  0  0  0  0
   -0.3651   -1.3390   -0.5076 O   0  0  0  0  0  0  0  0  0  0  0  0
  1  8  2  0  0  0  0
  1  2  1  0  0  0  0
  2  3  2  0  0  0  0
  3  4  1  0  0  0  0
  4  5  1  0  0  0  0
  5  7  1  0  0  0  0
  5  6  2  0  0  0  0
  8  9  1  0  0  0  0
  9 10  1  0  0  0  0
  9  4  2  0  0  0  0
M  END
