p-cresol(4-methylphenol)
 OpenBabel11261423233D

  8  8  0  0  0  0  0  0  0  0999 V2000
   -0.7565    1.3842    0.5995 C   0  0  0  0  0  0  0  0  0  0  0  0
    0.0832    2.1934   -0.1576 C   0  0  0  0  0  0  0  0  0  0  0  0
    1.2745    1.6815   -0.6595 C   0  0  0  0  0  0  0  0  0  0  0  0
    2.1809    2.5549   -1.4767 C   0  0  0  0  0  0  0  0  0  0  0  0
    1.6264    0.3608   -0.4047 C   0  0  0  0  0  0  0  0  0  0  0  0
    0.7867   -0.4484    0.3524 C   0  0  0  0  0  0  0  0  0  0  0  0
   -0.4047    0.0634    0.8544 C   0  0  0  0  0  0  0  0  0  0  0  0
   -1.2446   -0.7459    1.6117 O   0  0  0  0  0  0  0  0  0  0  0  0
  1  2  1  0  0  0  0
  2  3  2  0  0  0  0
  3  5  1  0  0  0  0
  3  4  1  0  0  0  0
  5  6  2  0  0  0  0
  6  7  1  0  0  0  0
  7  8  1  0  0  0  0
  7  1  2  0  0  0  0
M  END
