3-acetamidophenol(3-hydroxyacetanilide)
 OpenBabel11261423233D

 11 11  0  0  0  0  0  0  0  0999 V2000
    1.9040    0.2808    0.9940 C   0  0  0  0  0  0  0  0  0  0  0  0
    1.0206    1.1263    1.6542 C   0  0  0  0  0  0  0  0  0  0  0  0
   -0.1463    1.5417    1.0232 C   0  0  0  0  0  0  0  0  0  0  0  0
   -0.4398    1.1168   -0.2697 C   0  0  0  0  0  0  0  0  0  0  0  0
   -1.6245    1.5179   -0.9545 N   0  0  0  0  0  0  0  0  0  0  0  0
   -2.5741    2.3286   -0.4577 C   0  0  0  0  0  0  0  0  0  0  0  0
   -2.5007    2.8148    0.6766 O   0  0  0  0  0  0  0  0  0  0  0  0
   -3.7651    2.6550   -1.3101 C   0  0  0  0  0  0  0  0  0  0  0  0
    1.6168   -0.1469   -0.2967 C   0  0  0  0  0  0  0  0  0  0  0  0
    2.4983   -0.9931   -0.9608 O   0  0  0  0  0  0  0  0  0  0  0  0
    0.4487    0.2706   -0.9245 C   0  0  0  0  0  0  0  0  0  0  0  0
  1  9  2  0  0  0  0
  1  2  1  0  0  0  0
  2  3  2  0  0  0  0
  3  4  1  0  0  0  0
  4  5  1  0  0  0  0
  5  6  1  0  0  0  0
  6  8  1  0  0  0  0
  6  7  2  0  0  0  0
  9 11  1  0  0  0  0
  9 10  1  0  0  0  0
 11  4  2  0  0  0  0
M  END
