isovanillin(3-hydroxy-4-methoxybenzaldehyde)
 OpenBabel11261423233D

 11 11  0  0  0  0  0  0  0  0999 V2000
    2.9735    1.2280    0.0924 O   0  0  0  0  0  0  0  0  0  0  0  0
    1.6313    0.9271    0.2940 C   0  0  0  0  0  0  0  0  0  0  0  0
    0.8097    1.8304    0.9585 C   0  0  0  0  0  0  0  0  0  0  0  0
   -0.5323    1.5304    1.1605 C   0  0  0  0  0  0  0  0  0  0  0  0
   -1.0529    0.3274    0.6982 C   0  0  0  0  0  0  0  0  0  0  0  0
   -1.3948    2.4802    1.8588 C   0  0  0  0  0  0  0  0  0  0  0  0
   -0.9291    3.5492    2.2688 O   0  0  0  0  0  0  0  0  0  0  0  0
    1.1141   -0.2773   -0.1699 C   0  0  0  0  0  0  0  0  0  0  0  0
   -0.2304   -0.5753    0.0337 C   0  0  0  0  0  0  0  0  0  0  0  0
    1.9606   -1.1772   -0.8393 O   0  0  0  0  0  0  0  0  0  0  0  0
    1.2533   -2.3593   -1.2423 C   0  0  0  0  0  0  0  0  0  0  0  0
  1  2  1  0  0  0  0
  2  8  2  0  0  0  0
  2  3  1  0  0  0  0
  3  4  2  0  0  0  0
  4  6  1  0  0  0  0
  4  5  1  0  0  0  0
  6  7  2  0  0  0  0
  8 10  1  0  0  0  0
  8  9  1  0  0  0  0
  9  5  2  0  0  0  0
 10 11  1  0  0  0  0
M  END
