4-hydroxy-3-methoxyacetophenone(Acetovanillone)
 OpenBabel11261423233D

 12 12  0  0  0  0  0  0  0  0999 V2000
   -2.4717    1.0321    0.9050 C   0  0  0  0  0  0  0  0  0  0  0  0
   -1.3496    1.5487    0.0505 C   0  0  0  0  0  0  0  0  0  0  0  0
   -1.5882    2.3356   -0.8722 O   0  0  0  0  0  0  0  0  0  0  0  0
    0.0258    1.1229    0.3070 C   0  0  0  0  0  0  0  0  0  0  0  0
    1.0594    1.6033   -0.4858 C   0  0  0  0  0  0  0  0  0  0  0  0
    2.3799    1.2193   -0.2700 C   0  0  0  0  0  0  0  0  0  0  0  0
    3.3483    1.8033   -1.1777 O   0  0  0  0  0  0  0  0  0  0  0  0
    4.7302    1.4565   -1.0198 C   0  0  0  0  0  0  0  0  0  0  0  0
    2.6566    0.3245    0.7781 C   0  0  0  0  0  0  0  0  0  0  0  0
    3.9382   -0.1337    1.0928 O   0  0  0  0  0  0  0  0  0  0  0  0
    1.6152   -0.1526    1.5684 C   0  0  0  0  0  0  0  0  0  0  0  0
    0.3036    0.2402    1.3400 C   0  0  0  0  0  0  0  0  0  0  0  0
  1  2  1  0  0  0  0
  2  4  1  0  0  0  0
  2  3  2  0  0  0  0
  4  5  1  0  0  0  0
  5  6  2  0  0  0  0
  6  9  1  0  0  0  0
  6  7  1  0  0  0  0
  7  8  1  0  0  0  0
  9 11  2  0  0  0  0
  9 10  1  0  0  0  0
 11 12  1  0  0  0  0
 12  4  2  0  0  0  0
M  END
