3,5-dimethoxyphenol
 OpenBabel11261423233D

 11 11  0  0  0  0  0  0  0  0999 V2000
    3.0501    1.4432   -0.2370 O   0  0  0  0  0  0  0  0  0  0  0  0
    1.7316    1.1008    0.0425 C   0  0  0  0  0  0  0  0  0  0  0  0
    0.9739    1.8943    0.8960 C   0  0  0  0  0  0  0  0  0  0  0  0
   -0.3459    1.5540    1.1775 C   0  0  0  0  0  0  0  0  0  0  0  0
   -0.9020    0.4174    0.6012 C   0  0  0  0  0  0  0  0  0  0  0  0
   -1.1277    2.3435    2.0378 O   0  0  0  0  0  0  0  0  0  0  0  0
   -0.3862    3.4686    2.5331 C   0  0  0  0  0  0  0  0  0  0  0  0
    1.1719   -0.0347   -0.5316 C   0  0  0  0  0  0  0  0  0  0  0  0
   -0.1459   -0.3794   -0.2540 C   0  0  0  0  0  0  0  0  0  0  0  0
   -0.6960   -1.5307   -0.8430 O   0  0  0  0  0  0  0  0  0  0  0  0
   -2.0605   -1.7229   -0.4403 C   0  0  0  0  0  0  0  0  0  0  0  0
  1  2  1  0  0  0  0
  2  8  2  0  0  0  0
  2  3  1  0  0  0  0
  3  4  2  0  0  0  0
  4  6  1  0  0  0  0
  4  5  1  0  0  0  0
  6  7  1  0  0  0  0
  8  9  1  0  0  0  0
  9 10  1  0  0  0  0
  9  5  2  0  0  0  0
 10 11  1  0  0  0  0
M  END
