m-cresol(3-methylphenol)
 OpenBabel11261423233D

  8  8  0  0  0  0  0  0  0  0999 V2000
    1.6565    1.3588   -0.1896 C   0  0  0  0  0  0  0  0  0  0  0  0
    0.8751    2.1560    0.6393 C   0  0  0  0  0  0  0  0  0  0  0  0
   -0.3664    1.7024    1.0710 C   0  0  0  0  0  0  0  0  0  0  0  0
   -0.8266    0.4520    0.6740 C   0  0  0  0  0  0  0  0  0  0  0  0
   -1.1480    2.4996    1.9001 O   0  0  0  0  0  0  0  0  0  0  0  0
    1.1964    0.1083   -0.5867 C   0  0  0  0  0  0  0  0  0  0  0  0
   -0.0451   -0.3450   -0.1549 C   0  0  0  0  0  0  0  0  0  0  0  0
   -0.5417   -1.6946   -0.5834 C   0  0  0  0  0  0  0  0  0  0  0  0
  1  6  2  0  0  0  0
  1  2  1  0  0  0  0
  2  3  2  0  0  0  0
  3  5  1  0  0  0  0
  3  4  1  0  0  0  0
  6  7  1  0  0  0  0
  7  8  1  0  0  0  0
  7  4  2  0  0  0  0
M  END
