4-hydroxy-3-methoxybenzonitrile
 OpenBabel11261423233D

 11 11  0  0  0  0  0  0  0  0999 V2000
   -2.4007    1.4621   -0.9250 N   0  0  0  0  0  0  0  0  0  0  0  0
   -1.3536    1.2212   -0.5168 C   0  0  0  0  0  0  0  0  0  0  0  0
   -0.0738    0.9271   -0.0164 C   0  0  0  0  0  0  0  0  0  0  0  0
    1.0364    1.4672   -0.6457 C   0  0  0  0  0  0  0  0  0  0  0  0
    2.3115    1.3058   -0.1204 C   0  0  0  0  0  0  0  0  0  0  0  0
    3.3572    1.9639   -0.8662 O   0  0  0  0  0  0  0  0  0  0  0  0
    4.6844    1.9323   -0.3426 C   0  0  0  0  0  0  0  0  0  0  0  0
    2.4604    0.5747    1.0710 C   0  0  0  0  0  0  0  0  0  0  0  0
    3.6825    0.3771    1.7114 O   0  0  0  0  0  0  0  0  0  0  0  0
    1.3424    0.0118    1.6804 C   0  0  0  0  0  0  0  0  0  0  0  0
    0.0734    0.1884    1.1473 C   0  0  0  0  0  0  0  0  0  0  0  0
  1  2  3  0  0  0  0
  2  3  1  0  0  0  0
  3  4  1  0  0  0  0
  4  5  2  0  0  0  0
  5  8  1  0  0  0  0
  5  6  1  0  0  0  0
  6  7  1  0  0  0  0
  8 10  2  0  0  0  0
  8  9  1  0  0  0  0
 10 11  1  0  0  0  0
 11  3  2  0  0  0  0
M  END
