4-fluorophenol
 OpenBabel11261423233D

  8  8  0  0  0  0  0  0  0  0999 V2000
    3.0587    1.2162    0.4603 F   0  0  0  0  0  0  0  0  0  0  0  0
    1.7391    1.0911    0.2598 C   0  0  0  0  0  0  0  0  0  0  0  0
    0.8917    2.1615    0.5233 C   0  0  0  0  0  0  0  0  0  0  0  0
   -0.4769    2.0318    0.3154 C   0  0  0  0  0  0  0  0  0  0  0  0
   -0.9976    0.8318   -0.1559 C   0  0  0  0  0  0  0  0  0  0  0  0
   -2.3666    0.7021   -0.3638 O   0  0  0  0  0  0  0  0  0  0  0  0
    1.2184   -0.1089   -0.2115 C   0  0  0  0  0  0  0  0  0  0  0  0
   -0.1501   -0.2385   -0.4194 C   0  0  0  0  0  0  0  0  0  0  0  0
  1  2  1  0  0  0  0
  2  7  2  0  0  0  0
  2  3  1  0  0  0  0
  3  4  2  0  0  0  0
  4  5  1  0  0  0  0
  5  6  1  0  0  0  0
  7  8  1  0  0  0  0
  8  5  2  0  0  0  0
M  END
