2-cyanophenol
 OpenBabel11261423233D

  9  9  0  0  0  0  0  0  0  0999 V2000
    1.8509    1.1878    0.8468 C   0  0  0  0  0  0  0  0  0  0  0  0
    1.0686    2.3323    0.7400 C   0  0  0  0  0  0  0  0  0  0  0  0
   -0.2040    2.2555    0.1852 C   0  0  0  0  0  0  0  0  0  0  0  0
   -0.6936    1.0337   -0.2625 C   0  0  0  0  0  0  0  0  0  0  0  0
   -1.9951    0.9533   -0.8303 C   0  0  0  0  0  0  0  0  0  0  0  0
   -3.0482    0.8882   -1.2897 N   0  0  0  0  0  0  0  0  0  0  0  0
    1.3609   -0.0339    0.3989 C   0  0  0  0  0  0  0  0  0  0  0  0
    0.0884   -0.1106   -0.1558 C   0  0  0  0  0  0  0  0  0  0  0  0
   -0.4032   -1.3315   -0.6042 O   0  0  0  0  0  0  0  0  0  0  0  0
  1  7  2  0  0  0  0
  1  2  1  0  0  0  0
  2  3  2  0  0  0  0
  3  4  1  0  0  0  0
  4  5  1  0  0  0  0
  5  6  3  0  0  0  0
  7  8  1  0  0  0  0
  8  9  1  0  0  0  0
  8  4  2  0  0  0  0
M  END
