2,4-dimethylphenol
 OpenBabel11261423233D

  9  9  0  0  0  0  0  0  0  0999 V2000
    1.7564    0.7467    0.8754 C   0  0  0  0  0  0  0  0  0  0  0  0
    0.9268    1.8172    1.1894 C   0  0  0  0  0  0  0  0  0  0  0  0
   -0.3607    1.8750    0.6679 C   0  0  0  0  0  0  0  0  0  0  0  0
   -1.1908    2.9456    0.9818 O   0  0  0  0  0  0  0  0  0  0  0  0
   -0.8186    0.8623   -0.1674 C   0  0  0  0  0  0  0  0  0  0  0  0
   -2.2082    0.9250   -0.7300 C   0  0  0  0  0  0  0  0  0  0  0  0
    1.2982   -0.2659    0.0400 C   0  0  0  0  0  0  0  0  0  0  0  0
    0.0107   -0.2083   -0.4816 C   0  0  0  0  0  0  0  0  0  0  0  0
    2.1933   -1.4213   -0.2990 C   0  0  0  0  0  0  0  0  0  0  0  0
  1  7  2  0  0  0  0
  1  2  1  0  0  0  0
  2  3  2  0  0  0  0
  3  5  1  0  0  0  0
  3  4  1  0  0  0  0
  5  6  1  0  0  0  0
  7  9  1  0  0  0  0
  7  8  1  0  0  0  0
  8  5  2  0  0  0  0
M  END
