2-hydroxyacetophenone
 OpenBabel11261423233D

 13 13  0  0  0  0  0  0  0  0999 V2000
    2.8576    1.4396    0.2356 O   0  0  0  0  0  0  0  0  0  0  0  0
    1.4807    1.2436    0.1104 C   0  0  0  0  0  0  0  0  0  0  0  0
    0.6525    2.3607    0.0957 C   0  0  0  0  0  0  0  0  0  0  0  0
   -0.7236    2.2150   -0.0270 C   0  0  0  0  0  0  0  0  0  0  0  0
   -1.2760    0.9457   -0.1355 C   0  0  0  0  0  0  0  0  0  0  0  0
   -2.7608    0.7815   -0.2682 C   0  0  0  0  0  0  0  0  0  0  0  0
    1.2494    3.7317    0.2129 C   0  0  0  0  0  0  0  0  0  0  0  0
    0.9276   -0.0351    0.0014 C   0  0  0  0  0  0  0  0  0  0  0  0
   -0.4517   -0.1724   -0.1211 C   0  0  0  0  0  0  0  0  0  0  0  0
    1.7882   -1.2996    0.0116 C   0  0  0  0  0  0  0  0  0  0  0  0
    0.9065   -2.5582   -0.1238 C   0  0  0  0  0  0  0  0  0  0  0  0
    2.5988   -1.3733    1.3241 C   0  0  0  0  0  0  0  0  0  0  0  0
    2.8060   -1.2523   -1.1489 C   0  0  0  0  0  0  0  0  0  0  0  0
  1  2  1  0  0  0  0
  2  8  2  0  0  0  0
  2  3  1  0  0  0  0
  3  7  1  0  0  0  0
  3  4  2  0  0  0  0
  4  5  1  0  0  0  0
  5  6  1  0  0  0  0
  8 10  1  0  0  0  0
  8  9  1  0  0  0  0
  9  5  2  0  0  0  0
 10 13  1  0  0  0  0
 10 12  1  0  0  0  0
 10 11  1  0  0  0  0
M  END
