methyl-4-hydroxybenzoate
 OpenBabel11261423233D

 11 11  0  0  0  0  0  0  0  0999 V2000
    3.3688    0.9930    1.1243 O   0  0  0  0  0  0  0  0  0  0  0  0
    2.0724    1.0147    0.6213 C   0  0  0  0  0  0  0  0  0  0  0  0
    1.2792    2.1437    0.7931 C   0  0  0  0  0  0  0  0  0  0  0  0
   -0.0167    2.1655    0.2904 C   0  0  0  0  0  0  0  0  0  0  0  0
   -0.5184    1.0581   -0.3838 C   0  0  0  0  0  0  0  0  0  0  0  0
   -1.8783    1.0809   -0.9114 C   0  0  0  0  0  0  0  0  0  0  0  0
   -2.5822    2.0855   -0.7577 O   0  0  0  0  0  0  0  0  0  0  0  0
   -2.3790   -0.0296   -1.5865 O   0  0  0  0  0  0  0  0  0  0  0  0
   -3.7220    0.2254   -2.0076 C   0  0  0  0  0  0  0  0  0  0  0  0
    1.5701   -0.0926   -0.0531 C   0  0  0  0  0  0  0  0  0  0  0  0
    0.2742   -0.0710   -0.5559 C   0  0  0  0  0  0  0  0  0  0  0  0
  1  2  1  0  0  0  0
  2 10  2  0  0  0  0
  2  3  1  0  0  0  0
  3  4  2  0  0  0  0
  4  5  1  0  0  0  0
  5  6  1  0  0  0  0
  6  8  1  0  0  0  0
  6  7  2  0  0  0  0
  8  9  1  0  0  0  0
 10 11  1  0  0  0  0
 11  5  2  0  0  0  0
M  END
