3,5-dimethylphenol
 OpenBabel11261423233D

  9  9  0  0  0  0  0  0  0  0999 V2000
    1.6398    1.1993    0.2552 C   0  0  0  0  0  0  0  0  0  0  0  0
    0.7510    2.2672    0.2035 C   0  0  0  0  0  0  0  0  0  0  0  0
   -0.5999    2.0372   -0.0313 C   0  0  0  0  0  0  0  0  0  0  0  0
   -1.0619    0.7387   -0.2144 C   0  0  0  0  0  0  0  0  0  0  0  0
   -2.5197    0.4901   -0.4678 C   0  0  0  0  0  0  0  0  0  0  0  0
    1.2134    3.5657    0.3867 O   0  0  0  0  0  0  0  0  0  0  0  0
    1.1772   -0.0990    0.0720 C   0  0  0  0  0  0  0  0  0  0  0  0
   -0.1735   -0.3294   -0.1628 C   0  0  0  0  0  0  0  0  0  0  0  0
    2.1360   -1.2517    0.1277 C   0  0  0  0  0  0  0  0  0  0  0  0
  1  7  2  0  0  0  0
  1  2  1  0  0  0  0
  2  6  1  0  0  0  0
  2  3  2  0  0  0  0
  3  4  1  0  0  0  0
  4  5  1  0  0  0  0
  7  9  1  0  0  0  0
  7  8  1  0  0  0  0
  8  4  2  0  0  0  0
M  END
