3,4-dimethylphenol
 OpenBabel11261423233D

  9  9  0  0  0  0  0  0  0  0999 V2000
    1.8417    0.5924    0.5971 C   0  0  0  0  0  0  0  0  0  0  0  0
    0.9723    1.1066    1.5522 C   0  0  0  0  0  0  0  0  0  0  0  0
   -0.3737    1.2783    1.2488 C   0  0  0  0  0  0  0  0  0  0  0  0
   -0.8509    0.9348   -0.0127 C   0  0  0  0  0  0  0  0  0  0  0  0
   -2.3047    1.1168   -0.3503 C   0  0  0  0  0  0  0  0  0  0  0  0
   -1.3070    1.8351    2.2879 C   0  0  0  0  0  0  0  0  0  0  0  0
    1.3649    0.2494   -0.6630 C   0  0  0  0  0  0  0  0  0  0  0  0
    2.2338   -0.2650   -1.6189 O   0  0  0  0  0  0  0  0  0  0  0  0
    0.0193    0.4206   -0.9674 C   0  0  0  0  0  0  0  0  0  0  0  0
  1  7  2  0  0  0  0
  1  2  1  0  0  0  0
  2  3  2  0  0  0  0
  3  6  1  0  0  0  0
  3  4  1  0  0  0  0
  4  5  1  0  0  0  0
  7  9  1  0  0  0  0
  7  8  1  0  0  0  0
  9  4  2  0  0  0  0
M  END
