2-ethylphenol
 OpenBabel11261423233D

  9  9  0  0  0  0  0  0  0  0999 V2000
    1.8958    1.0859    0.8755 C   0  0  0  0  0  0  0  0  0  0  0  0
    1.1707    2.2558    0.6791 C   0  0  0  0  0  0  0  0  0  0  0  0
   -0.0979    2.2006    0.1129 C   0  0  0  0  0  0  0  0  0  0  0  0
   -0.6431    0.9756   -0.2578 C   0  0  0  0  0  0  0  0  0  0  0  0
   -2.0177    0.9050   -0.8725 C   0  0  0  0  0  0  0  0  0  0  0  0
   -2.6272    2.3167   -0.9921 C   0  0  0  0  0  0  0  0  0  0  0  0
    1.3517   -0.1388    0.5053 C   0  0  0  0  0  0  0  0  0  0  0  0
    0.0831   -0.1934   -0.0609 C   0  0  0  0  0  0  0  0  0  0  0  0
   -0.4605   -1.4187   -0.4309 O   0  0  0  0  0  0  0  0  0  0  0  0
  1  7  2  0  0  0  0
  1  2  1  0  0  0  0
  2  3  2  0  0  0  0
  3  4  1  0  0  0  0
  4  5  1  0  0  0  0
  5  6  1  0  0  0  0
  7  8  1  0  0  0  0
  8  9  1  0  0  0  0
  8  4  2  0  0  0  0
M  END
