syringaldehyde
 OpenBabel11261423233D

 13 13  0  0  0  0  0  0  0  0999 V2000
   -1.9012    0.7375    0.6235 C   0  0  0  0  0  0  0  0  0  0  0  0
   -2.0812    1.9603    0.6229 O   0  0  0  0  0  0  0  0  0  0  0  0
   -0.5689    0.1976    0.3665 C   0  0  0  0  0  0  0  0  0  0  0  0
   -0.3615   -1.1732    0.3661 C   0  0  0  0  0  0  0  0  0  0  0  0
    0.9099   -1.6782    0.1205 C   0  0  0  0  0  0  0  0  0  0  0  0
    1.1390   -3.0648    0.1161 O   0  0  0  0  0  0  0  0  0  0  0  0
   -0.0662   -3.7964    0.3862 C   0  0  0  0  0  0  0  0  0  0  0  0
    1.9783   -0.8204   -0.1254 C   0  0  0  0  0  0  0  0  0  0  0  0
    3.2151   -1.4245   -0.3608 O   0  0  0  0  0  0  0  0  0  0  0  0
    1.7745    0.5704   -0.1263 C   0  0  0  0  0  0  0  0  0  0  0  0
    2.7827    1.5851   -0.3647 O   0  0  0  0  0  0  0  0  0  0  0  0
    4.1279    1.1657   -0.6281 C   0  0  0  0  0  0  0  0  0  0  0  0
    0.4941    1.0559    0.1217 C   0  0  0  0  0  0  0  0  0  0  0  0
  1  3  1  0  0  0  0
  1  2  2  0  0  0  0
  3  4  1  0  0  0  0
  4  5  2  0  0  0  0
  5  8  1  0  0  0  0
  5  6  1  0  0  0  0
  6  7  1  0  0  0  0
  8 10  2  0  0  0  0
  8  9  1  0  0  0  0
 10 13  1  0  0  0  0
 10 11  1  0  0  0  0
 11 12  1  0  0  0  0
 13  3  2  0  0  0  0
M  END
