4-hydroxy-2-methylacetophenone
 OpenBabel11261423233D

 11 11  0  0  0  0  0  0  0  0999 V2000
   -0.3141    4.3243    0.8761 C   0  0  0  0  0  0  0  0  0  0  0  0
   -0.5858    2.8418    0.6961 C   0  0  0  0  0  0  0  0  0  0  0  0
   -1.7597    2.4748    0.8181 O   0  0  0  0  0  0  0  0  0  0  0  0
    0.4457    1.7488    0.3779 C   0  0  0  0  0  0  0  0  0  0  0  0
    1.8364    1.8882    0.1894 C   0  0  0  0  0  0  0  0  0  0  0  0
    2.6073    3.1878    0.2670 C   0  0  0  0  0  0  0  0  0  0  0  0
    2.6032    0.7614   -0.0940 C   0  0  0  0  0  0  0  0  0  0  0  0
    2.0299   -0.4978   -0.1954 C   0  0  0  0  0  0  0  0  0  0  0  0
    2.8201   -1.6063   -0.4795 O   0  0  0  0  0  0  0  0  0  0  0  0
    0.6645   -0.6426   -0.0114 C   0  0  0  0  0  0  0  0  0  0  0  0
   -0.1083    0.4752    0.2715 C   0  0  0  0  0  0  0  0  0  0  0  0
  1  2  1  0  0  0  0
  2  4  1  0  0  0  0
  2  3  2  0  0  0  0
  4  5  1  0  0  0  0
  5  7  2  0  0  0  0
  5  6  1  0  0  0  0
  7  8  1  0  0  0  0
  8 10  2  0  0  0  0
  8  9  1  0  0  0  0
 10 11  1  0  0  0  0
 11  4  2  0  0  0  0
M  END
