4-ethylphenol
 OpenBabel11261423233D

  9  9  0  0  0  0  0  0  0  0999 V2000
    1.7399    0.9494    0.2986 C   0  0  0  0  0  0  0  0  0  0  0  0
    0.8379    1.7012    1.0430 C   0  0  0  0  0  0  0  0  0  0  0  0
   -0.5144    1.3748    1.0363 C   0  0  0  0  0  0  0  0  0  0  0  0
   -0.9625    0.2951    0.2835 C   0  0  0  0  0  0  0  0  0  0  0  0
   -1.4999    2.1842    1.8404 C   0  0  0  0  0  0  0  0  0  0  0  0
   -0.7776    3.3232    2.5892 C   0  0  0  0  0  0  0  0  0  0  0  0
    1.2902   -0.1299   -0.4536 C   0  0  0  0  0  0  0  0  0  0  0  0
   -0.0610   -0.4570   -0.4611 C   0  0  0  0  0  0  0  0  0  0  0  0
    2.1920   -0.8823   -1.1984 O   0  0  0  0  0  0  0  0  0  0  0  0
  1  7  2  0  0  0  0
  1  2  1  0  0  0  0
  2  3  2  0  0  0  0
  3  5  1  0  0  0  0
  3  4  1  0  0  0  0
  5  6  1  0  0  0  0
  7  9  1  0  0  0  0
  7  8  1  0  0  0  0
  8  4  2  0  0  0  0
M  END
