3-ethylphenol
 OpenBabel11261423233D

  9  9  0  0  0  0  0  0  0  0999 V2000
    1.9224    1.0781    0.3668 C   0  0  0  0  0  0  0  0  0  0  0  0
    1.1183    2.1378    0.7711 C   0  0  0  0  0  0  0  0  0  0  0  0
   -0.2642    1.9923    0.7900 C   0  0  0  0  0  0  0  0  0  0  0  0
   -1.0693    3.0515    1.1942 O   0  0  0  0  0  0  0  0  0  0  0  0
   -0.8421    0.7879    0.4049 C   0  0  0  0  0  0  0  0  0  0  0  0
    1.3442   -0.1262   -0.0183 C   0  0  0  0  0  0  0  0  0  0  0  0
   -0.0384   -0.2729    0.0002 C   0  0  0  0  0  0  0  0  0  0  0  0
   -0.6560   -1.5824   -0.4191 C   0  0  0  0  0  0  0  0  0  0  0  0
   -2.1934   -1.5094   -0.3174 C   0  0  0  0  0  0  0  0  0  0  0  0
  1  6  2  0  0  0  0
  1  2  1  0  0  0  0
  2  3  2  0  0  0  0
  3  5  1  0  0  0  0
  3  4  1  0  0  0  0
  6  7  1  0  0  0  0
  7  8  1  0  0  0  0
  7  5  2  0  0  0  0
  8  9  1  0  0  0  0
M  END
