2,4,6-trimethylphenol
 OpenBabel11261423233D

 10 10  0  0  0  0  0  0  0  0999 V2000
   -0.7427    2.5257   -0.8598 O   0  0  0  0  0  0  0  0  0  0  0  0
    0.2227    1.6752   -0.3322 C   0  0  0  0  0  0  0  0  0  0  0  0
    1.5063    2.1487   -0.0855 C   0  0  0  0  0  0  0  0  0  0  0  0
    1.8495    3.5773   -0.3885 C   0  0  0  0  0  0  0  0  0  0  0  0
    2.4716    1.2986    0.4419 C   0  0  0  0  0  0  0  0  0  0  0  0
    2.1528   -0.0252    0.7225 C   0  0  0  0  0  0  0  0  0  0  0  0
    3.1943   -0.9427    1.2916 C   0  0  0  0  0  0  0  0  0  0  0  0
    0.8692   -0.4991    0.4759 C   0  0  0  0  0  0  0  0  0  0  0  0
   -0.0957    0.3514   -0.0515 C   0  0  0  0  0  0  0  0  0  0  0  0
   -1.4809   -0.1592   -0.3179 C   0  0  0  0  0  0  0  0  0  0  0  0
  1  2  1  0  0  0  0
  2  3  1  0  0  0  0
  3  5  2  0  0  0  0
  3  4  1  0  0  0  0
  5  6  1  0  0  0  0
  6  8  2  0  0  0  0
  6  7  1  0  0  0  0
  8  9  1  0  0  0  0
  9 10  1  0  0  0  0
  9  2  2  0  0  0  0
M  END
