2-hydroxy-5-methylacetophenone
 OpenBabel11261423233D

 11 11  0  0  0  0  0  0  0  0999 V2000
    0.5464    3.7740    0.2320 C   0  0  0  0  0  0  0  0  0  0  0  0
   -0.0041    2.4134    0.5768 C   0  0  0  0  0  0  0  0  0  0  0  0
   -1.1196    2.3502    1.1051 O   0  0  0  0  0  0  0  0  0  0  0  0
    0.7280    1.1311    0.3141 C   0  0  0  0  0  0  0  0  0  0  0  0
    1.9952    1.0519   -0.2763 C   0  0  0  0  0  0  0  0  0  0  0  0
    2.7054    2.1779   -0.6815 O   0  0  0  0  0  0  0  0  0  0  0  0
    2.5873   -0.1911   -0.4758 C   0  0  0  0  0  0  0  0  0  0  0  0
    1.9358   -1.3572   -0.0957 C   0  0  0  0  0  0  0  0  0  0  0  0
    0.6797   -1.2818    0.4897 C   0  0  0  0  0  0  0  0  0  0  0  0
   -0.0335   -2.5349    0.9043 C   0  0  0  0  0  0  0  0  0  0  0  0
    0.0840   -0.0432    0.6912 C   0  0  0  0  0  0  0  0  0  0  0  0
  1  2  1  0  0  0  0
  2  4  1  0  0  0  0
  2  3  2  0  0  0  0
  4  5  1  0  0  0  0
  5  7  2  0  0  0  0
  5  6  1  0  0  0  0
  7  8  1  0  0  0  0
  8  9  2  0  0  0  0
  9 11  1  0  0  0  0
  9 10  1  0  0  0  0
 11  4  2  0  0  0  0
M  END
