2-bromophenol
 OpenBabel11261423233D

  8  8  0  0  0  0  0  0  0  0999 V2000
    3.3418    1.3880    0.1019 Br  0  0  0  0  0  0  0  0  0  0  0  0
    1.4603    1.1272    0.1662 C   0  0  0  0  0  0  0  0  0  0  0  0
    0.6167    2.2048    0.4116 C   0  0  0  0  0  0  0  0  0  0  0  0
   -0.7596    2.0129    0.4584 C   0  0  0  0  0  0  0  0  0  0  0  0
   -1.2920    0.7439    0.2599 C   0  0  0  0  0  0  0  0  0  0  0  0
    0.9280   -0.1417   -0.0322 C   0  0  0  0  0  0  0  0  0  0  0  0
   -0.4482   -0.3336    0.0146 C   0  0  0  0  0  0  0  0  0  0  0  0
    1.7727   -1.2188   -0.2775 O   0  0  0  0  0  0  0  0  0  0  0  0
  1  2  1  0  0  0  0
  2  6  2  0  0  0  0
  2  3  1  0  0  0  0
  3  4  2  0  0  0  0
  4  5  1  0  0  0  0
  6  8  1  0  0  0  0
  6  7  1  0  0  0  0
  7  5  2  0  0  0  0
M  END
