2,3,5-trimethylphenol
 OpenBabel11261423233D

 10 10  0  0  0  0  0  0  0  0999 V2000
    3.0175    1.3399   -0.0682 O   0  0  0  0  0  0  0  0  0  0  0  0
    1.6717    1.0825    0.1680 C   0  0  0  0  0  0  0  0  0  0  0  0
    0.8795    2.0421    0.7877 C   0  0  0  0  0  0  0  0  0  0  0  0
   -0.4660    1.7846    1.0237 C   0  0  0  0  0  0  0  0  0  0  0  0
   -1.0187    0.5681    0.6402 C   0  0  0  0  0  0  0  0  0  0  0  0
   -1.3217    2.8196    1.6924 C   0  0  0  0  0  0  0  0  0  0  0  0
    1.1200   -0.1346   -0.2160 C   0  0  0  0  0  0  0  0  0  0  0  0
   -0.2271   -0.3921    0.0204 C   0  0  0  0  0  0  0  0  0  0  0  0
   -0.8328   -1.7049   -0.3911 C   0  0  0  0  0  0  0  0  0  0  0  0
    1.9843   -1.1665   -0.8856 C   0  0  0  0  0  0  0  0  0  0  0  0
  1  2  1  0  0  0  0
  2  7  2  0  0  0  0
  2  3  1  0  0  0  0
  3  4  2  0  0  0  0
  4  6  1  0  0  0  0
  4  5  1  0  0  0  0
  7 10  1  0  0  0  0
  7  8  1  0  0  0  0
  8  9  1  0  0  0  0
  8  5  2  0  0  0  0
M  END
