o-vanillin(3-methoxysalicylaldehyde)
 OpenBabel11261423233D

 11 11  0  0  0  0  0  0  0  0999 V2000
    2.7949   -1.2595    0.6847 C   0  0  0  0  0  0  0  0  0  0  0  0
    3.3143    0.0086    0.9038 C   0  0  0  0  0  0  0  0  0  0  0  0
    2.5687    1.1541    0.6410 C   0  0  0  0  0  0  0  0  0  0  0  0
    3.2486    2.4055    0.9207 O   0  0  0  0  0  0  0  0  0  0  0  0
    2.5539    3.6361    0.6788 C   0  0  0  0  0  0  0  0  0  0  0  0
    1.2617    1.0094    0.1429 C   0  0  0  0  0  0  0  0  0  0  0  0
    0.4304    2.0916   -0.1535 O   0  0  0  0  0  0  0  0  0  0  0  0
    1.5059   -1.3966    0.1935 C   0  0  0  0  0  0  0  0  0  0  0  0
    0.7443   -0.2671   -0.0756 C   0  0  0  0  0  0  0  0  0  0  0  0
   -0.6202   -0.4433   -0.5961 C   0  0  0  0  0  0  0  0  0  0  0  0
   -1.3378    0.5300   -0.8513 O   0  0  0  0  0  0  0  0  0  0  0  0
  1  8  2  0  0  0  0
  1  2  1  0  0  0  0
  2  3  2  0  0  0  0
  3  6  1  0  0  0  0
  3  4  1  0  0  0  0
  4  5  1  0  0  0  0
  6  7  1  0  0  0  0
  8  9  1  0  0  0  0
  9 10  1  0  0  0  0
  9  6  2  0  0  0  0
 10 11  2  0  0  0  0
M  END
