4-allyl-2-methoxyphenol(eugenol)
 OpenBabel11261423233D

 12 12  0  0  0  0  0  0  0  0999 V2000
   -0.5187    2.0054   -2.6089 O   0  0  0  0  0  0  0  0  0  0  0  0
    0.0953    1.5897   -1.4328 C   0  0  0  0  0  0  0  0  0  0  0  0
    1.2550    2.2201   -0.9966 C   0  0  0  0  0  0  0  0  0  0  0  0
    1.7932    3.2736   -1.7538 O   0  0  0  0  0  0  0  0  0  0  0  0
    2.9849    3.7959   -1.1476 C   0  0  0  0  0  0  0  0  0  0  0  0
    1.8665    1.8012    0.1813 C   0  0  0  0  0  0  0  0  0  0  0  0
    1.3210    0.7565    0.9195 C   0  0  0  0  0  0  0  0  0  0  0  0
    1.9811    0.3045    2.1920 C   0  0  0  0  0  0  0  0  0  0  0  0
    3.2051    1.1346    2.4560 C   0  0  0  0  0  0  0  0  0  0  0  0
    3.9423    0.9066    3.5406 C   0  0  0  0  0  0  0  0  0  0  0  0
    0.1615    0.1283    0.4803 C   0  0  0  0  0  0  0  0  0  0  0  0
   -0.4511    0.5450   -0.6959 C   0  0  0  0  0  0  0  0  0  0  0  0
  1  2  1  0  0  0  0
  2  3  1  0  0  0  0
  3  6  2  0  0  0  0
  3  4  1  0  0  0  0
  4  5  1  0  0  0  0
  6  7  1  0  0  0  0
  7 11  2  0  0  0  0
  7  8  1  0  0  0  0
  8  9  1  0  0  0  0
  9 10  2  0  0  0  0
 11 12  1  0  0  0  0
 12  2  2  0  0  0  0
M  END
