salicylaldehyde(2-hydroxybenzaldehyde)
 OpenBabel11261423233D

  9  9  0  0  0  0  0  0  0  0999 V2000
    1.8926    1.1280    0.8185 C   0  0  0  0  0  0  0  0  0  0  0  0
    1.1563    2.2943    0.6429 C   0  0  0  0  0  0  0  0  0  0  0  0
   -0.1242    2.2339    0.1048 C   0  0  0  0  0  0  0  0  0  0  0  0
   -0.6679    1.0068   -0.2576 C   0  0  0  0  0  0  0  0  0  0  0  0
   -2.0131    0.9430   -0.8230 C   0  0  0  0  0  0  0  0  0  0  0  0
   -2.6661    1.9808   -0.9783 O   0  0  0  0  0  0  0  0  0  0  0  0
    1.3485   -0.0991    0.4559 C   0  0  0  0  0  0  0  0  0  0  0  0
    0.0680   -0.1595   -0.0822 C   0  0  0  0  0  0  0  0  0  0  0  0
   -0.4772   -1.3860   -0.4452 O   0  0  0  0  0  0  0  0  0  0  0  0
  1  7  2  0  0  0  0
  1  2  1  0  0  0  0
  2  3  2  0  0  0  0
  3  4  1  0  0  0  0
  4  5  1  0  0  0  0
  5  6  2  0  0  0  0
  7  8  1  0  0  0  0
  8  9  1  0  0  0  0
  8  4  2  0  0  0  0
M  END
