ethyl-3-hydroxybenzoate
 OpenBabel11261423233D

 12 12  0  0  0  0  0  0  0  0999 V2000
    1.2041    5.4193    0.7960 C   0  0  0  0  0  0  0  0  0  0  0  0
    1.2191    3.8911    0.6170 C   0  0  0  0  0  0  0  0  0  0  0  0
   -0.0719    3.3568    0.9534 O   0  0  0  0  0  0  0  0  0  0  0  0
   -0.3280    1.9180    0.8692 C   0  0  0  0  0  0  0  0  0  0  0  0
   -1.4698    1.5620    1.1804 O   0  0  0  0  0  0  0  0  0  0  0  0
    0.6214    0.7895    0.4493 C   0  0  0  0  0  0  0  0  0  0  0  0
    1.9500    0.9512    0.0572 C   0  0  0  0  0  0  0  0  0  0  0  0
    2.7296   -0.1409   -0.3062 C   0  0  0  0  0  0  0  0  0  0  0  0
    2.1881   -1.4194   -0.2824 C   0  0  0  0  0  0  0  0  0  0  0  0
    0.8665   -1.5962    0.1059 C   0  0  0  0  0  0  0  0  0  0  0  0
    0.3151   -2.8726    0.1330 O   0  0  0  0  0  0  0  0  0  0  0  0
    0.0941   -0.4984    0.4675 C   0  0  0  0  0  0  0  0  0  0  0  0
  1  2  1  0  0  0  0
  2  3  1  0  0  0  0
  3  4  1  0  0  0  0
  4  6  1  0  0  0  0
  4  5  2  0  0  0  0
  6  7  1  0  0  0  0
  7  8  2  0  0  0  0
  8  9  1  0  0  0  0
  9 10  2  0  0  0  0
 10 12  1  0  0  0  0
 10 11  1  0  0  0  0
 12  6  2  0  0  0  0
M  END
