4-propyloxyphenol
 OpenBabel11261423233D

 11 11  0  0  0  0  0  0  0  0999 V2000
   -2.0764    1.1781   -1.9846 O   0  0  0  0  0  0  0  0  0  0  0  0
   -0.9503    1.1338   -1.1696 C   0  0  0  0  0  0  0  0  0  0  0  0
   -0.0756    2.2136   -1.1330 C   0  0  0  0  0  0  0  0  0  0  0  0
    1.0499    2.1685   -0.3179 C   0  0  0  0  0  0  0  0  0  0  0  0
    1.3036    1.0440    0.4625 C   0  0  0  0  0  0  0  0  0  0  0  0
    2.4358    0.9808    1.2916 O   0  0  0  0  0  0  0  0  0  0  0  0
    3.2184    2.1799    1.1996 C   0  0  0  0  0  0  0  0  0  0  0  0
    4.4460    2.0607    2.1196 C   0  0  0  0  0  0  0  0  0  0  0  0
    5.2966    0.8534    1.6844 C   0  0  0  0  0  0  0  0  0  0  0  0
    0.4266   -0.0343    0.4235 C   0  0  0  0  0  0  0  0  0  0  0  0
   -0.6991    0.0098   -0.3912 C   0  0  0  0  0  0  0  0  0  0  0  0
  1  2  1  0  0  0  0
  2  3  1  0  0  0  0
  3  4  2  0  0  0  0
  4  5  1  0  0  0  0
  5 10  2  0  0  0  0
  5  6  1  0  0  0  0
  6  7  1  0  0  0  0
  7  8  1  0  0  0  0
  8  9  1  0  0  0  0
 10 11  1  0  0  0  0
 11  2  2  0  0  0  0
M  END
