ethyl-4-hydroxybenzoate
 OpenBabel11261423233D

 12 12  0  0  0  0  0  0  0  0999 V2000
    3.5228    0.8909    1.1679 O   0  0  0  0  0  0  0  0  0  0  0  0
    2.2167    0.9582    0.6949 C   0  0  0  0  0  0  0  0  0  0  0  0
    1.4285    2.0660    0.9859 C   0  0  0  0  0  0  0  0  0  0  0  0
    0.1229    2.1333    0.5131 C   0  0  0  0  0  0  0  0  0  0  0  0
   -0.3934    1.0925   -0.2502 C   0  0  0  0  0  0  0  0  0  0  0  0
   -1.7629    1.1629   -0.7462 C   0  0  0  0  0  0  0  0  0  0  0  0
   -2.4582    2.1492   -0.4736 O   0  0  0  0  0  0  0  0  0  0  0  0
   -2.2761    0.0984   -1.5084 O   0  0  0  0  0  0  0  0  0  0  0  0
   -3.6326    0.3354   -1.9332 C   0  0  0  0  0  0  0  0  0  0  0  0
   -3.6789    1.3997   -3.0577 C   0  0  0  0  0  0  0  0  0  0  0  0
    1.6997   -0.0825   -0.0686 C   0  0  0  0  0  0  0  0  0  0  0  0
    0.3942   -0.0154   -0.5414 C   0  0  0  0  0  0  0  0  0  0  0  0
  1  2  1  0  0  0  0
  2 11  2  0  0  0  0
  2  3  1  0  0  0  0
  3  4  2  0  0  0  0
  4  5  1  0  0  0  0
  5  6  1  0  0  0  0
  6  8  1  0  0  0  0
  6  7  2  0  0  0  0
  8  9  1  0  0  0  0
  9 10  1  0  0  0  0
 11 12  1  0  0  0  0
 12  5  2  0  0  0  0
M  END
