2-bromo-4-methylphenol
 OpenBabel11261423233D

  9  9  0  0  0  0  0  0  0  0999 V2000
   -0.0759   -0.9971    1.1517 C   0  0  0  0  0  0  0  0  0  0  0  0
    0.7996   -2.0385    0.8653 C   0  0  0  0  0  0  0  0  0  0  0  0
    0.6341   -3.3660    1.5449 C   0  0  0  0  0  0  0  0  0  0  0  0
    1.8285   -1.8504   -0.0507 C   0  0  0  0  0  0  0  0  0  0  0  0
    1.9816   -0.6204   -0.6802 C   0  0  0  0  0  0  0  0  0  0  0  0
    3.3875   -0.3618   -1.9324 Br  0  0  0  0  0  0  0  0  0  0  0  0
    1.1063    0.4211   -0.3939 C   0  0  0  0  0  0  0  0  0  0  0  0
    1.2603    1.6510   -1.0242 O   0  0  0  0  0  0  0  0  0  0  0  0
    0.0774    0.2330    0.5221 C   0  0  0  0  0  0  0  0  0  0  0  0
  1  2  1  0  0  0  0
  2  4  2  0  0  0  0
  2  3  1  0  0  0  0
  4  5  1  0  0  0  0
  5  7  2  0  0  0  0
  5  6  1  0  0  0  0
  7  9  1  0  0  0  0
  7  8  1  0  0  0  0
  9  1  2  0  0  0  0
M  END
