2,4-difluorophenol
 OpenBabel11261423233D

  9  9  0  0  0  0  0  0  0  0999 V2000
   -0.2193   -1.3433   -0.6858 C   0  0  0  0  0  0  0  0  0  0  0  0
    0.7254   -2.2445   -0.2075 C   0  0  0  0  0  0  0  0  0  0  0  0
    0.4954   -3.5626   -0.2890 F   0  0  0  0  0  0  0  0  0  0  0  0
    1.9084   -1.7790    0.3554 C   0  0  0  0  0  0  0  0  0  0  0  0
    2.1465   -0.4119    0.4398 C   0  0  0  0  0  0  0  0  0  0  0  0
    3.2866    0.0378    0.9822 F   0  0  0  0  0  0  0  0  0  0  0  0
    1.2020    0.4892   -0.0385 C   0  0  0  0  0  0  0  0  0  0  0  0
    1.4412    1.8564    0.0464 O   0  0  0  0  0  0  0  0  0  0  0  0
    0.0190    0.0238   -0.6013 C   0  0  0  0  0  0  0  0  0  0  0  0
  1  2  1  0  0  0  0
  2  4  2  0  0  0  0
  2  3  1  0  0  0  0
  4  5  1  0  0  0  0
  5  7  2  0  0  0  0
  5  6  1  0  0  0  0
  7  9  1  0  0  0  0
  7  8  1  0  0  0  0
  9  1  2  0  0  0  0
M  END
