5-bromovanillin
 OpenBabel11261423233D

 12 12  0  0  0  0  0  0  0  0999 V2000
    3.4610   -0.2388    0.7781 Br  0  0  0  0  0  0  0  0  0  0  0  0
    1.6071    0.1496    0.6259 C   0  0  0  0  0  0  0  0  0  0  0  0
    0.9819    0.9406    1.5825 C   0  0  0  0  0  0  0  0  0  0  0  0
   -0.3742    1.2235    1.4692 C   0  0  0  0  0  0  0  0  0  0  0  0
   -1.1041    0.7158    0.4005 C   0  0  0  0  0  0  0  0  0  0  0  0
   -1.0320    2.0545    2.4738 C   0  0  0  0  0  0  0  0  0  0  0  0
   -0.3811    2.5047    3.4231 O   0  0  0  0  0  0  0  0  0  0  0  0
    0.8770   -0.3579   -0.4427 C   0  0  0  0  0  0  0  0  0  0  0  0
    1.5046   -1.1488   -1.3982 O   0  0  0  0  0  0  0  0  0  0  0  0
   -0.4796   -0.0766   -0.5585 C   0  0  0  0  0  0  0  0  0  0  0  0
   -1.2005   -0.5985   -1.6453 O   0  0  0  0  0  0  0  0  0  0  0  0
   -2.5794   -0.2030   -1.5958 C   0  0  0  0  0  0  0  0  0  0  0  0
  1  2  1  0  0  0  0
  2  8  2  0  0  0  0
  2  3  1  0  0  0  0
  3  4  2  0  0  0  0
  4  6  1  0  0  0  0
  4  5  1  0  0  0  0
  6  7  2  0  0  0  0
  8 10  1  0  0  0  0
  8  9  1  0  0  0  0
 10 11  1  0  0  0  0
 10  5  2  0  0  0  0
 11 12  1  0  0  0  0
M  END
