a,a,a-trifluoro-p-cresol
 OpenBabel11261423233D

 11 11  0  0  0  0  0  0  0  0999 V2000
   -0.6248    1.2556    0.0020 C   0  0  0  0  0  0  0  0  0  0  0  0
    0.2273    2.3038    0.3301 C   0  0  0  0  0  0  0  0  0  0  0  0
    1.5812    2.0614    0.5330 C   0  0  0  0  0  0  0  0  0  0  0  0
    2.4336    3.1101    0.8611 O   0  0  0  0  0  0  0  0  0  0  0  0
    2.0835    0.7709    0.4080 C   0  0  0  0  0  0  0  0  0  0  0  0
    1.2316   -0.2775    0.0800 C   0  0  0  0  0  0  0  0  0  0  0  0
   -0.1220   -0.0345   -0.1228 C   0  0  0  0  0  0  0  0  0  0  0  0
   -1.0389   -1.1644   -0.4760 C   0  0  0  0  0  0  0  0  0  0  0  0
   -2.3299   -0.7132   -0.6572 F   0  0  0  0  0  0  0  0  0  0  0  0
   -0.9849   -2.1074    0.5288 F   0  0  0  0  0  0  0  0  0  0  0  0
   -0.5654   -1.7809   -1.6152 F   0  0  0  0  0  0  0  0  0  0  0  0
  1  2  1  0  0  0  0
  2  3  2  0  0  0  0
  3  5  1  0  0  0  0
  3  4  1  0  0  0  0
  5  6  2  0  0  0  0
  6  7  1  0  0  0  0
  7  8  1  0  0  0  0
  7  1  2  0  0  0  0
  8 11  1  0  0  0  0
  8 10  1  0  0  0  0
  8  9  1  0  0  0  0
M  END
