methyl-4-methoxysalicylate
 OpenBabel11261423233D

 13 13  0  0  0  0  0  0  0  0999 V2000
   -1.6688   -2.1155    1.1541 C   0  0  0  0  0  0  0  0  0  0  0  0
   -0.5629   -2.1287    0.2388 O   0  0  0  0  0  0  0  0  0  0  0  0
    0.0305   -0.8590    0.1342 C   0  0  0  0  0  0  0  0  0  0  0  0
    1.1205   -0.6830   -0.7107 C   0  0  0  0  0  0  0  0  0  0  0  0
    1.7220    0.5648   -0.8285 C   0  0  0  0  0  0  0  0  0  0  0  0
    2.8116    0.7247   -1.6781 O   0  0  0  0  0  0  0  0  0  0  0  0
    1.2325    1.6437   -0.0985 C   0  0  0  0  0  0  0  0  0  0  0  0
    1.8536    2.9662   -0.2099 C   0  0  0  0  0  0  0  0  0  0  0  0
    2.8236    3.1419   -0.9560 O   0  0  0  0  0  0  0  0  0  0  0  0
    1.3449    4.0295    0.5314 O   0  0  0  0  0  0  0  0  0  0  0  0
    2.1037    5.2122    0.2642 C   0  0  0  0  0  0  0  0  0  0  0  0
    0.1428    1.4698    0.7469 C   0  0  0  0  0  0  0  0  0  0  0  0
   -0.4573    0.2213    0.8634 C   0  0  0  0  0  0  0  0  0  0  0  0
  1  2  1  0  0  0  0
  2  3  1  0  0  0  0
  3  4  1  0  0  0  0
  4  5  2  0  0  0  0
  5  7  1  0  0  0  0
  5  6  1  0  0  0  0
  7 12  2  0  0  0  0
  7  8  1  0  0  0  0
  8 10  1  0  0  0  0
  8  9  2  0  0  0  0
 10 11  1  0  0  0  0
 12 13  1  0  0  0  0
 13  3  2  0  0  0  0
M  END
