4-chloro-2-methylphenol
 OpenBabel11261423233D

  9  9  0  0  0  0  0  0  0  0999 V2000
    3.4477    1.3264    0.4368 Cl  0  0  0  0  0  0  0  0  0  0  0  0
    1.7374    1.1694    0.2495 C   0  0  0  0  0  0  0  0  0  0  0  0
    0.9220    2.2917    0.3431 C   0  0  0  0  0  0  0  0  0  0  0  0
   -0.4543    2.1653    0.1924 C   0  0  0  0  0  0  0  0  0  0  0  0
   -1.0148    0.9166   -0.0520 C   0  0  0  0  0  0  0  0  0  0  0  0
   -2.3914    0.7898   -0.2029 O   0  0  0  0  0  0  0  0  0  0  0  0
    1.1770   -0.0793    0.0051 C   0  0  0  0  0  0  0  0  0  0  0  0
   -0.1993   -0.2055   -0.1457 C   0  0  0  0  0  0  0  0  0  0  0  0
   -0.8047   -1.5528   -0.4094 C   0  0  0  0  0  0  0  0  0  0  0  0
  1  2  1  0  0  0  0
  2  7  2  0  0  0  0
  2  3  1  0  0  0  0
  3  4  2  0  0  0  0
  4  5  1  0  0  0  0
  5  6  1  0  0  0  0
  7  8  1  0  0  0  0
  8  9  1  0  0  0  0
  8  5  2  0  0  0  0
M  END
