3-tert-butylphenol
 OpenBabel11261423233D

 11 11  0  0  0  0  0  0  0  0999 V2000
    1.8423    0.5554    1.1187 C   0  0  0  0  0  0  0  0  0  0  0  0
    0.7943    1.1900    1.7756 C   0  0  0  0  0  0  0  0  0  0  0  0
   -0.4121    1.4011    1.1178 C   0  0  0  0  0  0  0  0  0  0  0  0
   -0.5724    0.9780   -0.1973 C   0  0  0  0  0  0  0  0  0  0  0  0
   -1.8821    1.2097   -0.9061 C   0  0  0  0  0  0  0  0  0  0  0  0
   -2.1351    2.7267   -0.9831 C   0  0  0  0  0  0  0  0  0  0  0  0
   -3.0233    0.6234   -0.0539 C   0  0  0  0  0  0  0  0  0  0  0  0
   -1.8764    0.5937   -2.3199 C   0  0  0  0  0  0  0  0  0  0  0  0
    1.6832    0.1322   -0.1960 C   0  0  0  0  0  0  0  0  0  0  0  0
    2.7310   -0.5024   -0.8537 O   0  0  0  0  0  0  0  0  0  0  0  0
    0.4768    0.3434   -0.8535 C   0  0  0  0  0  0  0  0  0  0  0  0
  1  9  2  0  0  0  0
  1  2  1  0  0  0  0
  2  3  2  0  0  0  0
  3  4  1  0  0  0  0
  4  5  1  0  0  0  0
  5  8  1  0  0  0  0
  5  7  1  0  0  0  0
  5  6  1  0  0  0  0
  9 11  1  0  0  0  0
  9 10  1  0  0  0  0
 11  4  2  0  0  0  0
M  END
