2,6-dichlorophenol
 OpenBabel11261423233D

  9  9  0  0  0  0  0  0  0  0999 V2000
    3.0025   -0.4266    1.0586 Cl  0  0  0  0  0  0  0  0  0  0  0  0
    1.3916    0.1415    0.8003 C   0  0  0  0  0  0  0  0  0  0  0  0
    0.7407    0.8634    1.7943 C   0  0  0  0  0  0  0  0  0  0  0  0
   -0.5558    1.3203    1.5855 C   0  0  0  0  0  0  0  0  0  0  0  0
   -1.2012    1.0552    0.3828 C   0  0  0  0  0  0  0  0  0  0  0  0
    0.7463   -0.1235   -0.4022 C   0  0  0  0  0  0  0  0  0  0  0  0
    1.3974   -0.8456   -1.3962 O   0  0  0  0  0  0  0  0  0  0  0  0
   -0.5500    0.3333   -0.6110 C   0  0  0  0  0  0  0  0  0  0  0  0
   -1.3510    0.0034   -2.1056 Cl  0  0  0  0  0  0  0  0  0  0  0  0
  1  2  1  0  0  0  0
  2  6  2  0  0  0  0
  2  3  1  0  0  0  0
  3  4  2  0  0  0  0
  4  5  1  0  0  0  0
  6  8  1  0  0  0  0
  6  7  1  0  0  0  0
  8  9  1  0  0  0  0
  8  5  2  0  0  0  0
M  END
