4-chloro-3-methylphenol
 OpenBabel11261423233D

  9  9  0  0  0  0  0  0  0  0999 V2000
    3.3388    1.2515    0.5499 Cl  0  0  0  0  0  0  0  0  0  0  0  0
    1.6361    1.1199    0.2875 C   0  0  0  0  0  0  0  0  0  0  0  0
    0.8206    2.2351    0.4433 C   0  0  0  0  0  0  0  0  0  0  0  0
   -0.5495    2.1290    0.2321 C   0  0  0  0  0  0  0  0  0  0  0  0
   -1.1037    0.9077   -0.1348 C   0  0  0  0  0  0  0  0  0  0  0  0
   -2.4740    0.8016   -0.3460 O   0  0  0  0  0  0  0  0  0  0  0  0
    1.0817   -0.1013   -0.0794 C   0  0  0  0  0  0  0  0  0  0  0  0
   -0.2883   -0.2075   -0.2905 C   0  0  0  0  0  0  0  0  0  0  0  0
    1.9621   -1.3048   -0.2474 C   0  0  0  0  0  0  0  0  0  0  0  0
  1  2  1  0  0  0  0
  2  7  2  0  0  0  0
  2  3  1  0  0  0  0
  3  4  2  0  0  0  0
  4  5  1  0  0  0  0
  5  6  1  0  0  0  0
  7  9  1  0  0  0  0
  7  8  1  0  0  0  0
  8  5  2  0  0  0  0
M  END
