2,6-dichloro-4-fluorophenol
 OpenBabel11261423233D

 10 10  0  0  0  0  0  0  0  0999 V2000
    1.5372   -0.9116    0.7314 C   0  0  0  0  0  0  0  0  0  0  0  0
    2.5015    0.0830    0.6145 C   0  0  0  0  0  0  0  0  0  0  0  0
    4.0902   -0.1755    1.2415 Cl  0  0  0  0  0  0  0  0  0  0  0  0
    2.1874    1.2861   -0.0071 C   0  0  0  0  0  0  0  0  0  0  0  0
    3.1520    2.2807   -0.1239 O   0  0  0  0  0  0  0  0  0  0  0  0
    0.9092    1.4951   -0.5120 C   0  0  0  0  0  0  0  0  0  0  0  0
    0.5201    2.9905   -1.2842 Cl  0  0  0  0  0  0  0  0  0  0  0  0
   -0.0555    0.5007   -0.3953 C   0  0  0  0  0  0  0  0  0  0  0  0
    0.2588   -0.7025    0.2264 C   0  0  0  0  0  0  0  0  0  0  0  0
   -0.6712   -1.6613    0.3390 F   0  0  0  0  0  0  0  0  0  0  0  0
  1  2  1  0  0  0  0
  2  4  2  0  0  0  0
  2  3  1  0  0  0  0
  4  6  1  0  0  0  0
  4  5  1  0  0  0  0
  6  8  2  0  0  0  0
  6  7  1  0  0  0  0
  8  9  1  0  0  0  0
  9 10  1  0  0  0  0
  9  1  2  0  0  0  0
M  END
