2,2'-biphenol
 OpenBabel11261423233D

 14 15  0  0  0  0  0  0  0  0999 V2000
    0.5809   -1.8149    1.4364 C   0  0  0  0  0  0  0  0  0  0  0  0
    1.8592   -1.3845    1.1098 C   0  0  0  0  0  0  0  0  0  0  0  0
    2.0574   -0.2405    0.3428 C   0  0  0  0  0  0  0  0  0  0  0  0
    3.3581    0.1047    0.0729 O   0  0  0  0  0  0  0  0  0  0  0  0
    0.9559    0.4975   -0.1131 C   0  0  0  0  0  0  0  0  0  0  0  0
    0.9884    1.7705   -0.9606 C   0  0  0  0  0  0  0  0  0  0  0  0
    2.1255    2.4325   -1.4448 C   0  0  0  0  0  0  0  0  0  0  0  0
    3.4063    1.9997   -1.2076 O   0  0  0  0  0  0  0  0  0  0  0  0
    1.9860    3.5879   -2.2075 C   0  0  0  0  0  0  0  0  0  0  0  0
    0.7319    4.1043   -2.5021 C   0  0  0  0  0  0  0  0  0  0  0  0
   -0.3985    3.4566   -2.0278 C   0  0  0  0  0  0  0  0  0  0  0  0
   -0.2618    2.3032   -1.2665 C   0  0  0  0  0  0  0  0  0  0  0  0
   -0.3194    0.0505    0.2248 C   0  0  0  0  0  0  0  0  0  0  0  0
   -0.5147   -1.0916    0.9904 C   0  0  0  0  0  0  0  0  0  0  0  0
  1  2  1  0  0  0  0
  2  3  2  0  0  0  0
  3  5  1  0  0  0  0
  3  4  1  0  0  0  0
  5 13  2  0  0  0  0
  5  6  1  0  0  0  0
  6  7  1  0  0  0  0
  7  9  2  0  0  0  0
  7  8  1  0  0  0  0
  9 10  1  0  0  0  0
 10 11  2  0  0  0  0
 11 12  1  0  0  0  0
 12  6  2  0  0  0  0
 13 14  1  0  0  0  0
 14  1  2  0  0  0  0
M  END
