3,4,5-trimethylphenol
 OpenBabel11261423233D

 10 10  0  0  0  0  0  0  0  0999 V2000
    3.2671    1.1905    0.2110 O   0  0  0  0  0  0  0  0  0  0  0  0
    1.8871    1.0207    0.2095 C   0  0  0  0  0  0  0  0  0  0  0  0
    1.0700    1.9641    0.8212 C   0  0  0  0  0  0  0  0  0  0  0  0
   -0.3099    1.7952    0.8202 C   0  0  0  0  0  0  0  0  0  0  0  0
   -0.8745    0.6808    0.2065 C   0  0  0  0  0  0  0  0  0  0  0  0
   -2.3698    0.4968    0.2049 C   0  0  0  0  0  0  0  0  0  0  0  0
   -1.1859    2.8207    1.4842 C   0  0  0  0  0  0  0  0  0  0  0  0
    1.3245   -0.0926   -0.4036 C   0  0  0  0  0  0  0  0  0  0  0  0
   -0.0552   -0.2632   -0.4056 C   0  0  0  0  0  0  0  0  0  0  0  0
   -0.6550   -1.4704   -1.0712 C   0  0  0  0  0  0  0  0  0  0  0  0
  1  2  1  0  0  0  0
  2  8  2  0  0  0  0
  2  3  1  0  0  0  0
  3  4  2  0  0  0  0
  4  7  1  0  0  0  0
  4  5  1  0  0  0  0
  5  6  1  0  0  0  0
  8  9  1  0  0  0  0
  9 10  1  0  0  0  0
  9  5  2  0  0  0  0
M  END
