4-sec-butylphenol
 OpenBabel11261423233D

 11 11  0  0  0  0  0  0  0  0999 V2000
    3.1997    0.9055    1.2561 O   0  0  0  0  0  0  0  0  0  0  0  0
    1.9535    0.9678    0.6420 C   0  0  0  0  0  0  0  0  0  0  0  0
    1.5203    2.1568    0.0669 C   0  0  0  0  0  0  0  0  0  0  0  0
    0.2744    2.2187   -0.5467 C   0  0  0  0  0  0  0  0  0  0  0  0
   -0.5434    1.0941   -0.5845 C   0  0  0  0  0  0  0  0  0  0  0  0
   -1.8979    1.1703   -1.2657 C   0  0  2  0  0  0  0  0  0  0  0  0
   -2.3824    2.6262   -1.4254 C   0  0  0  0  0  0  0  0  0  0  0  0
   -2.9710    0.2417   -0.6376 C   0  0  0  0  0  0  0  0  0  0  0  0
   -3.3503    0.7230    0.7858 C   0  0  0  0  0  0  0  0  0  0  0  0
    1.1411   -0.1594    0.6018 C   0  0  0  0  0  0  0  0  0  0  0  0
   -0.1045   -0.0965   -0.0121 C   0  0  0  0  0  0  0  0  0  0  0  0
  1  2  1  0  0  0  0
  2 10  2  0  0  0  0
  2  3  1  0  0  0  0
  3  4  2  0  0  0  0
  4  5  1  0  0  0  0
  5  6  1  0  0  0  0
  6  8  1  1  0  0  0
  6  7  1  0  0  0  0
  8  9  1  0  0  0  0
 10 11  1  0  0  0  0
 11  5  2  0  0  0  0
M  END
