3-hydroxydiphenylamine
 OpenBabel11261423233D

 14 15  0  0  0  0  0  0  0  0999 V2000
    1.1687    5.3945    0.2588 O   0  0  0  0  0  0  0  0  0  0  0  0
    1.3532    4.0195    0.3457 C   0  0  0  0  0  0  0  0  0  0  0  0
    0.2692    3.1908    0.6019 C   0  0  0  0  0  0  0  0  0  0  0  0
    0.4421    1.8120    0.6720 C   0  0  0  0  0  0  0  0  0  0  0  0
   -0.6892    0.9997    0.9264 N   0  0  0  0  0  0  0  0  0  0  0  0
   -1.0122   -0.1573    0.1704 C   0  0  0  0  0  0  0  0  0  0  0  0
   -0.4181   -0.4090   -1.0620 C   0  0  0  0  0  0  0  0  0  0  0  0
   -0.7763   -1.5291   -1.8034 C   0  0  0  0  0  0  0  0  0  0  0  0
   -1.7391   -2.4026   -1.3144 C   0  0  0  0  0  0  0  0  0  0  0  0
   -2.3413   -2.1531   -0.0860 C   0  0  0  0  0  0  0  0  0  0  0  0
   -1.9821   -1.0318    0.6523 C   0  0  0  0  0  0  0  0  0  0  0  0
    1.7126    1.2699    0.4999 C   0  0  0  0  0  0  0  0  0  0  0  0
    2.8010    2.0995    0.2512 C   0  0  0  0  0  0  0  0  0  0  0  0
    2.6208    3.4748    0.1699 C   0  0  0  0  0  0  0  0  0  0  0  0
  1  2  1  0  0  0  0
  2  3  1  0  0  0  0
  3  4  2  0  0  0  0
  4 12  1  0  0  0  0
  4  5  1  0  0  0  0
  5  6  1  0  0  0  0
  6  7  1  0  0  0  0
  7  8  2  0  0  0  0
  8  9  1  0  0  0  0
  9 10  2  0  0  0  0
 10 11  1  0  0  0  0
 11  6  2  0  0  0  0
 12 13  2  0  0  0  0
 13 14  1  0  0  0  0
 14  2  2  0  0  0  0
M  END
