4-hydroxybenzophenone
 OpenBabel11261423233D

 15 16  0  0  0  0  0  0  0  0999 V2000
   -1.6515    0.9853    0.7968 O   0  0  0  0  0  0  0  0  0  0  0  0
   -0.5219    1.4865    0.8014 C   0  0  0  0  0  0  0  0  0  0  0  0
   -0.4000    2.8855    1.3543 C   0  0  0  0  0  0  0  0  0  0  0  0
    0.7996    3.5892    1.4288 C   0  0  0  0  0  0  0  0  0  0  0  0
    0.8376    4.8769    1.9510 C   0  0  0  0  0  0  0  0  0  0  0  0
   -0.3300    5.4766    2.4062 C   0  0  0  0  0  0  0  0  0  0  0  0
   -1.5319    4.7833    2.3364 C   0  0  0  0  0  0  0  0  0  0  0  0
   -1.5631    3.4957    1.8130 C   0  0  0  0  0  0  0  0  0  0  0  0
    0.6010    0.6399    0.2538 C   0  0  0  0  0  0  0  0  0  0  0  0
    1.9281    1.0577    0.1898 C   0  0  0  0  0  0  0  0  0  0  0  0
    2.9121    0.2235   -0.3279 C   0  0  0  0  0  0  0  0  0  0  0  0
    2.5756   -1.0430   -0.7888 C   0  0  0  0  0  0  0  0  0  0  0  0
    3.5573   -1.8805   -1.3074 O   0  0  0  0  0  0  0  0  0  0  0  0
    1.2550   -1.4701   -0.7297 C   0  0  0  0  0  0  0  0  0  0  0  0
    0.2759   -0.6306   -0.2107 C   0  0  0  0  0  0  0  0  0  0  0  0
  1  2  2  0  0  0  0
  2  9  1  0  0  0  0
  2  3  1  0  0  0  0
  3  4  1  0  0  0  0
  4  5  2  0  0  0  0
  5  6  1  0  0  0  0
  6  7  2  0  0  0  0
  7  8  1  0  0  0  0
  8  3  2  0  0  0  0
  9 10  1  0  0  0  0
 10 11  2  0  0  0  0
 11 12  1  0  0  0  0
 12 14  2  0  0  0  0
 12 13  1  0  0  0  0
 14 15  1  0  0  0  0
 15  9  2  0  0  0  0
M  END
