2,4-dichlorophenol
 OpenBabel11261423233D

  9  9  0  0  0  0  0  0  0  0999 V2000
    3.4596    1.3479    0.4321 Cl  0  0  0  0  0  0  0  0  0  0  0  0
    1.7489    1.1920    0.2470 C   0  0  0  0  0  0  0  0  0  0  0  0
    0.9362    2.3177    0.3230 C   0  0  0  0  0  0  0  0  0  0  0  0
   -0.4404    2.1925    0.1740 C   0  0  0  0  0  0  0  0  0  0  0  0
   -1.0039    0.9415   -0.0509 C   0  0  0  0  0  0  0  0  0  0  0  0
   -2.3807    0.8154   -0.1999 O   0  0  0  0  0  0  0  0  0  0  0  0
    1.1854   -0.0589    0.0221 C   0  0  0  0  0  0  0  0  0  0  0  0
   -0.1912   -0.1839   -0.1268 C   0  0  0  0  0  0  0  0  0  0  0  0
   -0.8927   -1.7377   -0.4062 Cl  0  0  0  0  0  0  0  0  0  0  0  0
  1  2  1  0  0  0  0
  2  7  2  0  0  0  0
  2  3  1  0  0  0  0
  3  4  2  0  0  0  0
  4  5  1  0  0  0  0
  5  6  1  0  0  0  0
  7  8  1  0  0  0  0
  8  9  1  0  0  0  0
  8  5  2  0  0  0  0
M  END
