2,4,6-tribromoresorcinol
 OpenBabel11261423233D

 11 11  0  0  0  0  0  0  0  0999 V2000
    1.1749   -1.4146    1.7901 O   0  0  0  0  0  0  0  0  0  0  0  0
    1.1636   -0.3855    0.8553 C   0  0  0  0  0  0  0  0  0  0  0  0
    2.3088    0.3734    0.6432 C   0  0  0  0  0  0  0  0  0  0  0  0
    3.8896    0.0042    1.6308 Br  0  0  0  0  0  0  0  0  0  0  0  0
    2.2975    1.4023   -0.2914 C   0  0  0  0  0  0  0  0  0  0  0  0
    3.4429    2.1613   -0.5036 O   0  0  0  0  0  0  0  0  0  0  0  0
    1.1409    1.6724   -1.0140 C   0  0  0  0  0  0  0  0  0  0  0  0
    1.1267    3.0792   -2.2914 Br  0  0  0  0  0  0  0  0  0  0  0  0
   -0.0046    0.9136   -0.8021 C   0  0  0  0  0  0  0  0  0  0  0  0
    0.0070   -0.1154    0.1328 C   0  0  0  0  0  0  0  0  0  0  0  0
   -1.5579   -1.1535    0.4236 Br  0  0  0  0  0  0  0  0  0  0  0  0
  1  2  1  0  0  0  0
  2  3  1  0  0  0  0
  3  5  2  0  0  0  0
  3  4  1  0  0  0  0
  5  7  1  0  0  0  0
  5  6  1  0  0  0  0
  7  9  2  0  0  0  0
  7  8  1  0  0  0  0
  9 10  1  0  0  0  0
 10 11  1  0  0  0  0
 10  2  2  0  0  0  0
M  END
