2-phenylphenol
 OpenBabel11261423233D

 13 14  0  0  0  0  0  0  0  0999 V2000
   -1.6085    0.0857    1.0920 O   0  0  0  0  0  0  0  0  0  0  0  0
   -0.5840    1.0003    1.3209 C   0  0  0  0  0  0  0  0  0  0  0  0
    0.4137    1.2539    0.3742 C   0  0  0  0  0  0  0  0  0  0  0  0
    0.4760    0.5775   -0.9557 C   0  0  0  0  0  0  0  0  0  0  0  0
    1.5152    0.9084   -1.8193 C   0  0  0  0  0  0  0  0  0  0  0  0
    1.6149    0.3051   -3.0679 C   0  0  0  0  0  0  0  0  0  0  0  0
    0.6720   -0.6365   -3.4620 C   0  0  0  0  0  0  0  0  0  0  0  0
   -0.3689   -0.9721   -2.6047 C   0  0  0  0  0  0  0  0  0  0  0  0
   -0.4646   -0.3663   -1.3572 C   0  0  0  0  0  0  0  0  0  0  0  0
    1.4085    2.1812    0.6686 C   0  0  0  0  0  0  0  0  0  0  0  0
    1.4197    2.8524    1.8851 C   0  0  0  0  0  0  0  0  0  0  0  0
    0.4279    2.5985    2.8228 C   0  0  0  0  0  0  0  0  0  0  0  0
   -0.5693    1.6744    2.5376 C   0  0  0  0  0  0  0  0  0  0  0  0
  1  2  1  0  0  0  0
  2  3  1  0  0  0  0
  3 10  2  0  0  0  0
  3  4  1  0  0  0  0
  4  5  1  0  0  0  0
  5  6  2  0  0  0  0
  6  7  1  0  0  0  0
  7  8  2  0  0  0  0
  8  9  1  0  0  0  0
  9  4  2  0  0  0  0
 10 11  1  0  0  0  0
 11 12  2  0  0  0  0
 12 13  1  0  0  0  0
 13  2  2  0  0  0  0
M  END
