2,5-dichlorophenol
 OpenBabel11261423233D

  9  9  0  0  0  0  0  0  0  0999 V2000
    3.4722    1.2875    0.5337 Cl  0  0  0  0  0  0  0  0  0  0  0  0
    1.7664    1.1470    0.2974 C   0  0  0  0  0  0  0  0  0  0  0  0
    0.9580    2.2752    0.3804 C   0  0  0  0  0  0  0  0  0  0  0  0
   -0.4147    2.1624    0.1903 C   0  0  0  0  0  0  0  0  0  0  0  0
   -0.9784    0.9211   -0.0828 C   0  0  0  0  0  0  0  0  0  0  0  0
   -2.6839    0.7797   -0.3193 Cl  0  0  0  0  0  0  0  0  0  0  0  0
    1.2026   -0.0942    0.0243 C   0  0  0  0  0  0  0  0  0  0  0  0
   -0.1700   -0.2069   -0.1658 C   0  0  0  0  0  0  0  0  0  0  0  0
   -0.7348   -1.4478   -0.4390 O   0  0  0  0  0  0  0  0  0  0  0  0
  1  2  1  0  0  0  0
  2  7  2  0  0  0  0
  2  3  1  0  0  0  0
  3  4  2  0  0  0  0
  4  5  1  0  0  0  0
  5  6  1  0  0  0  0
  7  8  1  0  0  0  0
  8  9  1  0  0  0  0
  8  5  2  0  0  0  0
M  END
