3-chloro-4-fluorophenol
 OpenBabel11261423233D

  9  9  0  0  0  0  0  0  0  0999 V2000
    1.0339   -1.4067   -0.9716 C   0  0  0  0  0  0  0  0  0  0  0  0
    2.3496   -1.3763   -0.5233 C   0  0  0  0  0  0  0  0  0  0  0  0
    3.2145   -2.3210   -0.9184 F   0  0  0  0  0  0  0  0  0  0  0  0
    2.7689   -0.3661    0.3348 C   0  0  0  0  0  0  0  0  0  0  0  0
    4.4040   -0.3296    0.8909 Cl  0  0  0  0  0  0  0  0  0  0  0  0
    1.8727    0.6143    0.7452 C   0  0  0  0  0  0  0  0  0  0  0  0
    0.5569    0.5839    0.2969 C   0  0  0  0  0  0  0  0  0  0  0  0
   -0.3399    1.5644    0.7072 O   0  0  0  0  0  0  0  0  0  0  0  0
    0.1375   -0.4264   -0.5613 C   0  0  0  0  0  0  0  0  0  0  0  0
  1  2  1  0  0  0  0
  2  4  2  0  0  0  0
  2  3  1  0  0  0  0
  4  6  1  0  0  0  0
  4  5  1  0  0  0  0
  6  7  2  0  0  0  0
  7  9  1  0  0  0  0
  7  8  1  0  0  0  0
  9  1  2  0  0  0  0
M  END
