3-bromophenol
 OpenBabel11261423233D

  8  8  0  0  0  0  0  0  0  0999 V2000
    3.4281    1.4562   -0.0012 Br  0  0  0  0  0  0  0  0  0  0  0  0
    1.5517    1.1813    0.1263 C   0  0  0  0  0  0  0  0  0  0  0  0
    0.7126    2.2459    0.4360 C   0  0  0  0  0  0  0  0  0  0  0  0
   -0.6600    2.0449    0.5293 C   0  0  0  0  0  0  0  0  0  0  0  0
   -1.1934    0.7792    0.3129 C   0  0  0  0  0  0  0  0  0  0  0  0
    1.0184   -0.0844   -0.0901 C   0  0  0  0  0  0  0  0  0  0  0  0
   -0.3542   -0.2853    0.0033 C   0  0  0  0  0  0  0  0  0  0  0  0
   -0.8877   -1.5512   -0.2131 O   0  0  0  0  0  0  0  0  0  0  0  0
  1  2  1  0  0  0  0
  2  6  2  0  0  0  0
  2  3  1  0  0  0  0
  3  4  2  0  0  0  0
  4  5  1  0  0  0  0
  6  7  1  0  0  0  0
  7  8  1  0  0  0  0
  7  5  2  0  0  0  0
M  END
