2-hydroxybenzophenone
 OpenBabel11261423233D

 15 16  0  0  0  0  0  0  0  0999 V2000
    2.0551   -1.6437    2.2455 C   0  0  0  0  0  0  0  0  0  0  0  0
    2.8188   -0.5029    2.4548 C   0  0  0  0  0  0  0  0  0  0  0  0
    2.6566    0.6112    1.6384 C   0  0  0  0  0  0  0  0  0  0  0  0
    3.4373    1.7378    1.8748 O   0  0  0  0  0  0  0  0  0  0  0  0
    1.7267    0.6000    0.5992 C   0  0  0  0  0  0  0  0  0  0  0  0
    1.5874    1.8457   -0.2663 C   0  0  0  0  0  0  0  0  0  0  0  0
    2.3098    2.8119   -0.0006 O   0  0  0  0  0  0  0  0  0  0  0  0
    0.6423    2.0206   -1.4321 C   0  0  0  0  0  0  0  0  0  0  0  0
    0.6684    3.2433   -2.0957 C   0  0  0  0  0  0  0  0  0  0  0  0
   -0.1698    3.4838   -3.1784 C   0  0  0  0  0  0  0  0  0  0  0  0
   -1.0476    2.4975   -3.6106 C   0  0  0  0  0  0  0  0  0  0  0  0
   -1.0824    1.2728   -2.9559 C   0  0  0  0  0  0  0  0  0  0  0  0
   -0.2416    1.0390   -1.8739 C   0  0  0  0  0  0  0  0  0  0  0  0
    0.9674   -0.5509    0.4005 C   0  0  0  0  0  0  0  0  0  0  0  0
    1.1263   -1.6662    1.2141 C   0  0  0  0  0  0  0  0  0  0  0  0
  1  2  1  0  0  0  0
  2  3  2  0  0  0  0
  3  5  1  0  0  0  0
  3  4  1  0  0  0  0
  5 14  2  0  0  0  0
  5  6  1  0  0  0  0
  6  8  1  0  0  0  0
  6  7  2  0  0  0  0
  8  9  1  0  0  0  0
  9 10  2  0  0  0  0
 10 11  1  0  0  0  0
 11 12  2  0  0  0  0
 12 13  1  0  0  0  0
 13  8  2  0  0  0  0
 14 15  1  0  0  0  0
 15  1  2  0  0  0  0
M  END
