4-bromo-3,5-dimethylphenol
 OpenBabel11261423233D

 10 10  0  0  0  0  0  0  0  0999 V2000
    0.9381    0.8845   -0.2021 C   0  0  0  0  0  0  0  0  0  0  0  0
    0.5331    2.3041   -0.4706 C   0  0  0  0  0  0  0  0  0  0  0  0
    2.2662    0.5810    0.0752 C   0  0  0  0  0  0  0  0  0  0  0  0
    3.5694    1.9646    0.1141 Br  0  0  0  0  0  0  0  0  0  0  0  0
    2.6412   -0.7344    0.3240 C   0  0  0  0  0  0  0  0  0  0  0  0
    4.0745   -1.0622    0.6233 C   0  0  0  0  0  0  0  0  0  0  0  0
    1.6883   -1.7464    0.2956 C   0  0  0  0  0  0  0  0  0  0  0  0
    0.3603   -1.4425    0.0183 C   0  0  0  0  0  0  0  0  0  0  0  0
   -0.5929   -2.4544   -0.0101 O   0  0  0  0  0  0  0  0  0  0  0  0
   -0.0151   -0.1271   -0.2305 C   0  0  0  0  0  0  0  0  0  0  0  0
  1  3  1  0  0  0  0
  1  2  1  0  0  0  0
  3  5  2  0  0  0  0
  3  4  1  0  0  0  0
  5  7  1  0  0  0  0
  5  6  1  0  0  0  0
  7  8  2  0  0  0  0
  8 10  1  0  0  0  0
  8  9  1  0  0  0  0
 10  1  2  0  0  0  0
M  END
