4-bromo-6-chloro-o-cresol
 OpenBabel11261423233D

 10 10  0  0  0  0  0  0  0  0999 V2000
   -0.6928    0.2174    0.1411 C   0  0  0  0  0  0  0  0  0  0  0  0
   -2.4270    0.9764    0.3098 Br  0  0  0  0  0  0  0  0  0  0  0  0
   -0.5084   -1.1461    0.3408 C   0  0  0  0  0  0  0  0  0  0  0  0
    0.7604   -1.7008    0.2173 C   0  0  0  0  0  0  0  0  0  0  0  0
    0.9910   -3.3947    0.4651 Cl  0  0  0  0  0  0  0  0  0  0  0  0
    1.8442   -0.8925   -0.1058 C   0  0  0  0  0  0  0  0  0  0  0  0
    3.1130   -1.4479   -0.2292 O   0  0  0  0  0  0  0  0  0  0  0  0
    1.6597    0.4709   -0.3055 C   0  0  0  0  0  0  0  0  0  0  0  0
    2.8297    1.3429   -0.6541 C   0  0  0  0  0  0  0  0  0  0  0  0
    0.3911    1.0260   -0.1820 C   0  0  0  0  0  0  0  0  0  0  0  0
  1  3  1  0  0  0  0
  1  2  1  0  0  0  0
  3  4  2  0  0  0  0
  4  6  1  0  0  0  0
  4  5  1  0  0  0  0
  6  8  2  0  0  0  0
  6  7  1  0  0  0  0
  8 10  1  0  0  0  0
  8  9  1  0  0  0  0
 10  1  2  0  0  0  0
M  END
