p-cyclopentylphenol
 OpenBabel11261423233D

 12 13  0  0  0  0  0  0  0  0999 V2000
   -0.6055    3.5931    0.7361 C   0  0  0  0  0  0  0  0  0  0  0  0
    0.0991    3.4583    2.1189 C   0  0  0  0  0  0  0  0  0  0  0  0
   -0.5188    2.1575    2.7430 C   0  0  0  0  0  0  0  0  0  0  0  0
   -1.5261    1.6556    1.6659 C   0  0  0  0  0  0  0  0  0  0  0  0
   -0.8762    2.1335    0.3660 C   0  0  0  0  0  0  0  0  0  0  0  0
    0.3952    1.3566    0.0057 C   0  0  0  0  0  0  0  0  0  0  0  0
    1.4432    1.9927   -0.6557 C   0  0  0  0  0  0  0  0  0  0  0  0
    2.5878    1.2837   -1.0011 C   0  0  0  0  0  0  0  0  0  0  0  0
    2.6873   -0.0681   -0.6937 C   0  0  0  0  0  0  0  0  0  0  0  0
    3.8324   -0.7778   -1.0387 O   0  0  0  0  0  0  0  0  0  0  0  0
    1.6400   -0.7109   -0.0442 C   0  0  0  0  0  0  0  0  0  0  0  0
    0.4958   -0.0010    0.3008 C   0  0  0  0  0  0  0  0  0  0  0  0
  1  2  1  0  0  0  0
  2  3  1  0  0  0  0
  3  4  1  0  0  0  0
  4  5  1  0  0  0  0
  5  6  1  0  0  0  0
  5  1  1  0  0  0  0
  6  7  1  0  0  0  0
  7  8  2  0  0  0  0
  8  9  1  0  0  0  0
  9 11  2  0  0  0  0
  9 10  1  0  0  0  0
 11 12  1  0  0  0  0
 12  6  2  0  0  0  0
M  END
