2-tert-butylphenol
 OpenBabel11261423233D

 11 11  0  0  0  0  0  0  0  0999 V2000
    2.0066    1.0758    1.0664 C   0  0  0  0  0  0  0  0  0  0  0  0
    1.3358    2.2662    0.8184 C   0  0  0  0  0  0  0  0  0  0  0  0
    0.1057    2.2457    0.1724 C   0  0  0  0  0  0  0  0  0  0  0  0
   -0.4652    1.0422   -0.2310 C   0  0  0  0  0  0  0  0  0  0  0  0
   -1.8222    1.0785   -0.9385 C   0  0  0  0  0  0  0  0  0  0  0  0
   -2.3252    2.5302   -1.0760 C   0  0  0  0  0  0  0  0  0  0  0  0
   -2.8524    0.2462   -0.1437 C   0  0  0  0  0  0  0  0  0  0  0  0
   -1.7031    0.4366   -2.3383 C   0  0  0  0  0  0  0  0  0  0  0  0
    1.4435   -0.1298    0.6669 C   0  0  0  0  0  0  0  0  0  0  0  0
    0.2125   -0.1540    0.0201 C   0  0  0  0  0  0  0  0  0  0  0  0
   -0.3131   -1.3900   -0.3623 O   0  0  0  0  0  0  0  0  0  0  0  0
  1  9  2  0  0  0  0
  1  2  1  0  0  0  0
  2  3  2  0  0  0  0
  3  4  1  0  0  0  0
  4  5  1  0  0  0  0
  5  8  1  0  0  0  0
  5  7  1  0  0  0  0
  5  6  1  0  0  0  0
  9 10  1  0  0  0  0
 10 11  1  0  0  0  0
 10  4  2  0  0  0  0
M  END
