2-(tert)butyl-4-methylphenol
 OpenBabel11261423233D

 12 12  0  0  0  0  0  0  0  0999 V2000
    1.8770    0.5725    1.2522 C   0  0  0  0  0  0  0  0  0  0  0  0
    0.9833    1.5736    1.6116 C   0  0  0  0  0  0  0  0  0  0  0  0
   -0.1935    1.7604    0.8941 C   0  0  0  0  0  0  0  0  0  0  0  0
   -1.0605    2.7795    1.2933 O   0  0  0  0  0  0  0  0  0  0  0  0
   -0.4813    0.9359   -0.1971 C   0  0  0  0  0  0  0  0  0  0  0  0
   -1.7590    1.0929   -1.0243 C   0  0  0  0  0  0  0  0  0  0  0  0
   -1.8254    2.5141   -1.6252 C   0  0  0  0  0  0  0  0  0  0  0  0
   -2.9972    0.9253   -0.1165 C   0  0  0  0  0  0  0  0  0  0  0  0
   -1.8036    0.0486   -2.1587 C   0  0  0  0  0  0  0  0  0  0  0  0
    1.5933   -0.2479    0.1685 C   0  0  0  0  0  0  0  0  0  0  0  0
    0.4189   -0.0645   -0.5508 C   0  0  0  0  0  0  0  0  0  0  0  0
    2.5532   -1.3310   -0.2259 C   0  0  0  0  0  0  0  0  0  0  0  0
  1 10  2  0  0  0  0
  1  2  1  0  0  0  0
  2  3  2  0  0  0  0
  3  5  1  0  0  0  0
  3  4  1  0  0  0  0
  5  6  1  0  0  0  0
  6  9  1  0  0  0  0
  6  8  1  0  0  0  0
  6  7  1  0  0  0  0
 10 12  1  0  0  0  0
 10 11  1  0  0  0  0
 11  5  2  0  0  0  0
M  END
