2-hydroxydiphenylmethane
 OpenBabel11261423233D

 14 15  0  0  0  0  0  0  0  0999 V2000
   -1.6935    4.3393    1.1255 O   0  0  0  0  0  0  0  0  0  0  0  0
   -0.3832    4.3963    0.6637 C   0  0  0  0  0  0  0  0  0  0  0  0
    0.1984    5.6285    0.3841 C   0  0  0  0  0  0  0  0  0  0  0  0
    1.5082    5.6923   -0.0752 C   0  0  0  0  0  0  0  0  0  0  0  0
    2.2367    4.5220   -0.2510 C   0  0  0  0  0  0  0  0  0  0  0  0
    1.6531    3.2925    0.0291 C   0  0  0  0  0  0  0  0  0  0  0  0
    0.3366    3.2213    0.4815 C   0  0  0  0  0  0  0  0  0  0  0  0
   -0.3436    1.8889    0.8195 C   0  0  0  0  0  0  0  0  0  0  0  0
    0.0895    0.6545    0.0193 C   0  0  0  0  0  0  0  0  0  0  0  0
    0.5520    0.7415   -1.2923 C   0  0  0  0  0  0  0  0  0  0  0  0
    0.9129   -0.4045   -1.9909 C   0  0  0  0  0  0  0  0  0  0  0  0
    0.8071   -1.6499   -1.3835 C   0  0  0  0  0  0  0  0  0  0  0  0
    0.3362   -1.7449   -0.0795 C   0  0  0  0  0  0  0  0  0  0  0  0
   -0.0246   -0.5963    0.6162 C   0  0  0  0  0  0  0  0  0  0  0  0
  1  2  1  0  0  0  0
  2  3  1  0  0  0  0
  3  4  2  0  0  0  0
  4  5  1  0  0  0  0
  5  6  2  0  0  0  0
  6  7  1  0  0  0  0
  7  8  1  0  0  0  0
  7  2  2  0  0  0  0
  8  9  1  0  0  0  0
  9 10  1  0  0  0  0
 10 11  2  0  0  0  0
 11 12  1  0  0  0  0
 12 13  2  0  0  0  0
 13 14  1  0  0  0  0
 14  9  2  0  0  0  0
M  END
