butyl-4-hydroxybenzoate
 OpenBabel11261423233D

 14 14  0  0  0  0  0  0  0  0999 V2000
    4.1447   -0.8525   -1.7737 O   0  0  0  0  0  0  0  0  0  0  0  0
    3.1602   -0.2411   -1.0064 C   0  0  0  0  0  0  0  0  0  0  0  0
    3.3968    0.0545    0.3286 C   0  0  0  0  0  0  0  0  0  0  0  0
    2.4089    0.6705    1.0913 C   0  0  0  0  0  0  0  0  0  0  0  0
    1.1772    0.9992    0.5396 C   0  0  0  0  0  0  0  0  0  0  0  0
    0.1753    1.6968    1.4694 C   0  0  0  0  0  0  0  0  0  0  0  0
    0.5679    1.8897    2.6257 O   0  0  0  0  0  0  0  0  0  0  0  0
   -1.1584    2.2128    1.1608 O   0  0  0  0  0  0  0  0  0  0  0  0
   -1.7245    2.0135   -0.1441 C   0  0  0  0  0  0  0  0  0  0  0  0
   -2.5915    3.2207   -0.5220 C   0  0  0  0  0  0  0  0  0  0  0  0
   -1.6823    4.4666   -0.6196 C   0  0  0  0  0  0  0  0  0  0  0  0
   -0.5982    4.2377   -1.6993 C   0  0  0  0  0  0  0  0  0  0  0  0
    0.9555    0.6931   -0.8057 C   0  0  0  0  0  0  0  0  0  0  0  0
    1.9334    0.0782   -1.5745 C   0  0  0  0  0  0  0  0  0  0  0  0
  1  2  1  0  0  0  0
  2  3  1  0  0  0  0
  3  4  2  0  0  0  0
  4  5  1  0  0  0  0
  5 13  2  0  0  0  0
  5  6  1  0  0  0  0
  6  8  1  0  0  0  0
  6  7  2  0  0  0  0
  8  9  1  0  0  0  0
  9 10  1  0  0  0  0
 10 11  1  0  0  0  0
 11 12  1  0  0  0  0
 13 14  1  0  0  0  0
 14  2  2  0  0  0  0
M  END
