n-pentyloxyphenol
 OpenBabel11261423233D

 13 13  0  0  0  0  0  0  0  0999 V2000
   -1.1495   -0.8879   -2.9526 O   0  0  0  0  0  0  0  0  0  0  0  0
   -0.1492   -0.3824   -2.1299 C   0  0  0  0  0  0  0  0  0  0  0  0
    0.9874    0.1899   -2.6882 C   0  0  0  0  0  0  0  0  0  0  0  0
    1.9856    0.6997   -1.8647 C   0  0  0  0  0  0  0  0  0  0  0  0
    1.8501    0.6360   -0.4835 C   0  0  0  0  0  0  0  0  0  0  0  0
    2.8573    1.1689    0.3325 O   0  0  0  0  0  0  0  0  0  0  0  0
    2.5392    1.0027    1.7196 C   0  0  0  0  0  0  0  0  0  0  0  0
    3.5016    1.8615    2.5647 C   0  0  0  0  0  0  0  0  0  0  0  0
    3.4117    3.4064    2.2574 C   0  0  0  0  0  0  0  0  0  0  0  0
    2.1085    4.1364    2.7740 C   0  0  0  0  0  0  0  0  0  0  0  0
    0.8171    3.8355    1.9659 C   0  0  0  0  0  0  0  0  0  0  0  0
    0.7110    0.0598    0.0739 C   0  0  0  0  0  0  0  0  0  0  0  0
   -0.2872   -0.4486   -0.7478 C   0  0  0  0  0  0  0  0  0  0  0  0
  1  2  1  0  0  0  0
  2  3  1  0  0  0  0
  3  4  2  0  0  0  0
  4  5  1  0  0  0  0
  5 12  2  0  0  0  0
  5  6  1  0  0  0  0
  6  7  1  0  0  0  0
  7  8  1  0  0  0  0
  8  9  1  0  0  0  0
  9 10  1  0  0  0  0
 10 11  1  0  0  0  0
 12 13  1  0  0  0  0
 13  2  2  0  0  0  0
M  END
