2,4-dibromophenol
 OpenBabel11261423233D

  9  9  0  0  0  0  0  0  0  0999 V2000
    3.6965    0.8566    0.6090 Br  0  0  0  0  0  0  0  0  0  0  0  0
    1.8208    0.7859    0.3094 C   0  0  0  0  0  0  0  0  0  0  0  0
    0.9992    1.7906    0.8081 C   0  0  0  0  0  0  0  0  0  0  0  0
   -0.3727    1.7386    0.5888 C   0  0  0  0  0  0  0  0  0  0  0  0
   -1.4970    3.1111    1.2698 Br  0  0  0  0  0  0  0  0  0  0  0  0
   -0.9227    0.6824   -0.1288 C   0  0  0  0  0  0  0  0  0  0  0  0
   -2.2950    0.6314   -0.3475 O   0  0  0  0  0  0  0  0  0  0  0  0
    1.2709   -0.2704   -0.4082 C   0  0  0  0  0  0  0  0  0  0  0  0
   -0.1011   -0.3222   -0.6274 C   0  0  0  0  0  0  0  0  0  0  0  0
  1  2  1  0  0  0  0
  2  8  2  0  0  0  0
  2  3  1  0  0  0  0
  3  4  2  0  0  0  0
  4  6  1  0  0  0  0
  4  5  1  0  0  0  0
  6  7  1  0  0  0  0
  8  9  1  0  0  0  0
  9  6  2  0  0  0  0
M  END
