2-hydroxy-4-methoxybenzophenone
 OpenBabel11261423233D

 17 18  0  0  0  0  0  0  0  0999 V2000
   -0.6758    3.4040    2.7344 C   0  0  0  0  0  0  0  0  0  0  0  0
   -1.0018    3.4308    4.0856 C   0  0  0  0  0  0  0  0  0  0  0  0
   -0.5166    2.4466    4.9376 C   0  0  0  0  0  0  0  0  0  0  0  0
    0.2940    1.4380    4.4322 C   0  0  0  0  0  0  0  0  0  0  0  0
    0.6159    1.4170    3.0800 C   0  0  0  0  0  0  0  0  0  0  0  0
    0.1348    2.3987    2.2169 C   0  0  0  0  0  0  0  0  0  0  0  0
    0.4406    2.4487    0.7381 C   0  0  0  0  0  0  0  0  0  0  0  0
   -0.0531    3.3916    0.1109 O   0  0  0  0  0  0  0  0  0  0  0  0
    1.2962    1.4554   -0.0371 C   0  0  0  0  0  0  0  0  0  0  0  0
    1.4946    1.6682   -1.4006 C   0  0  0  0  0  0  0  0  0  0  0  0
    0.9221    2.7657   -2.0344 O   0  0  0  0  0  0  0  0  0  0  0  0
    2.2693    0.7882   -2.1486 C   0  0  0  0  0  0  0  0  0  0  0  0
    2.8575   -0.3188   -1.5476 C   0  0  0  0  0  0  0  0  0  0  0  0
    3.6433   -1.2159   -2.2908 O   0  0  0  0  0  0  0  0  0  0  0  0
    3.7268   -0.8196   -3.6681 C   0  0  0  0  0  0  0  0  0  0  0  0
    2.6646   -0.5392   -0.1906 C   0  0  0  0  0  0  0  0  0  0  0  0
    1.8906    0.3426    0.5536 C   0  0  0  0  0  0  0  0  0  0  0  0
  1  2  1  0  0  0  0
  2  3  2  0  0  0  0
  3  4  1  0  0  0  0
  4  5  2  0  0  0  0
  5  6  1  0  0  0  0
  6  7  1  0  0  0  0
  6  1  2  0  0  0  0
  7  9  1  0  0  0  0
  7  8  2  0  0  0  0
  9 10  1  0  0  0  0
 10 12  2  0  0  0  0
 10 11  1  0  0  0  0
 12 13  1  0  0  0  0
 13 16  2  0  0  0  0
 13 14  1  0  0  0  0
 14 15  1  0  0  0  0
 16 17  1  0  0  0  0
 17  9  2  0  0  0  0
M  END
