isoamyl-4-hydroxybenzoate
 OpenBabel11261423233D

 15 15  0  0  0  0  0  0  0  0999 V2000
    1.4796   -1.7799   -3.6888 O   0  0  0  0  0  0  0  0  0  0  0  0
    1.3082   -1.0550   -2.5146 C   0  0  0  0  0  0  0  0  0  0  0  0
    2.1233   -1.3076   -1.4166 C   0  0  0  0  0  0  0  0  0  0  0  0
    1.9526   -0.5826   -0.2430 C   0  0  0  0  0  0  0  0  0  0  0  0
    0.9663    0.3944   -0.1686 C   0  0  0  0  0  0  0  0  0  0  0  0
    0.7885    1.1578    1.0590 C   0  0  0  0  0  0  0  0  0  0  0  0
    1.5158    0.9275    2.0324 O   0  0  0  0  0  0  0  0  0  0  0  0
   -0.2145    2.1419    1.1190 O   0  0  0  0  0  0  0  0  0  0  0  0
   -0.2279    2.8186    2.3913 C   0  0  0  0  0  0  0  0  0  0  0  0
    0.9700    3.8135    2.5739 C   0  0  0  0  0  0  0  0  0  0  0  0
    0.8861    5.0678    1.6434 C   0  0  0  0  0  0  0  0  0  0  0  0
    0.9462    4.7010    0.1449 C   0  0  0  0  0  0  0  0  0  0  0  0
    2.0643    6.0049    1.9632 C   0  0  0  0  0  0  0  0  0  0  0  0
    0.1513    0.6474   -1.2655 C   0  0  0  0  0  0  0  0  0  0  0  0
    0.3221   -0.0778   -2.4392 C   0  0  0  0  0  0  0  0  0  0  0  0
  1  2  1  0  0  0  0
  2  3  1  0  0  0  0
  3  4  2  0  0  0  0
  4  5  1  0  0  0  0
  5 14  2  0  0  0  0
  5  6  1  0  0  0  0
  6  8  1  0  0  0  0
  6  7  2  0  0  0  0
  8  9  1  0  0  0  0
  9 10  1  0  0  0  0
 10 11  1  0  0  0  0
 11 13  1  0  0  0  0
 11 12  1  0  0  0  0
 14 15  1  0  0  0  0
 15  2  2  0  0  0  0
M  END
