3,5-dichlorosalicylaldehyde
 OpenBabel11261423233D

 11 11  0  0  0  0  0  0  0  0999 V2000
    0.7057    0.5674   -2.2333 C   0  0  0  0  0  0  0  0  0  0  0  0
   -0.3624    1.1208   -2.5169 O   0  0  0  0  0  0  0  0  0  0  0  0
    1.0447    0.3120   -0.8361 C   0  0  0  0  0  0  0  0  0  0  0  0
    2.2455   -0.3102   -0.5149 C   0  0  0  0  0  0  0  0  0  0  0  0
    3.1235   -0.6892   -1.5240 O   0  0  0  0  0  0  0  0  0  0  0  0
    2.5683   -0.5533    0.8151 C   0  0  0  0  0  0  0  0  0  0  0  0
    4.0607   -1.3266    1.2134 Cl  0  0  0  0  0  0  0  0  0  0  0  0
    1.6902   -0.1742    1.8241 C   0  0  0  0  0  0  0  0  0  0  0  0
    0.4892    0.4481    1.5024 C   0  0  0  0  0  0  0  0  0  0  0  0
   -0.6022    0.9193    2.7559 Cl  0  0  0  0  0  0  0  0  0  0  0  0
    0.1662    0.6914    0.1723 C   0  0  0  0  0  0  0  0  0  0  0  0
  1  3  1  0  0  0  0
  1  2  2  0  0  0  0
  3  4  1  0  0  0  0
  4  6  2  0  0  0  0
  4  5  1  0  0  0  0
  6  8  1  0  0  0  0
  6  7  1  0  0  0  0
  8  9  2  0  0  0  0
  9 11  1  0  0  0  0
  9 10  1  0  0  0  0
 11  3  2  0  0  0  0
M  END
