3,5-dichlorophenol
 OpenBabel11261423233D

  9  9  0  0  0  0  0  0  0  0999 V2000
    3.4459    1.1051    0.1599 Cl  0  0  0  0  0  0  0  0  0  0  0  0
    1.7307    0.9118    0.2361 C   0  0  0  0  0  0  0  0  0  0  0  0
    0.9331    1.9560    0.6905 C   0  0  0  0  0  0  0  0  0  0  0  0
   -0.4471    1.8004    0.7517 C   0  0  0  0  0  0  0  0  0  0  0  0
   -1.4383    3.0979    1.3164 Cl  0  0  0  0  0  0  0  0  0  0  0  0
   -1.0298    0.6008    0.3586 C   0  0  0  0  0  0  0  0  0  0  0  0
    1.1483   -0.2878   -0.1571 C   0  0  0  0  0  0  0  0  0  0  0  0
   -0.2320   -0.4432   -0.0957 C   0  0  0  0  0  0  0  0  0  0  0  0
   -0.8147   -1.6431   -0.4890 O   0  0  0  0  0  0  0  0  0  0  0  0
  1  2  1  0  0  0  0
  2  7  2  0  0  0  0
  2  3  1  0  0  0  0
  3  4  2  0  0  0  0
  4  6  1  0  0  0  0
  4  5  1  0  0  0  0
  7  8  1  0  0  0  0
  8  9  1  0  0  0  0
  8  6  2  0  0  0  0
M  END
