3,5-di-tert-butylphenol
 OpenBabel11261423233D

 15 15  0  0  0  0  0  0  0  0999 V2000
    1.7879    0.8727    1.5573 C   0  0  0  0  0  0  0  0  0  0  0  0
    2.0038    2.0347    0.8250 C   0  0  0  0  0  0  0  0  0  0  0  0
    2.8894    3.1191    1.3790 C   0  0  0  0  0  0  0  0  0  0  0  0
    4.3397    2.6030    1.3728 C   0  0  0  0  0  0  0  0  0  0  0  0
    2.5224    3.3795    2.8524 C   0  0  0  0  0  0  0  0  0  0  0  0
    2.7926    4.4074    0.5369 C   0  0  0  0  0  0  0  0  0  0  0  0
    1.4028    2.1913   -0.4188 C   0  0  0  0  0  0  0  0  0  0  0  0
    0.5869    1.1892   -0.9313 C   0  0  0  0  0  0  0  0  0  0  0  0
   -0.0624    1.3670   -2.2782 C   0  0  0  0  0  0  0  0  0  0  0  0
    0.9313    2.0274   -3.2534 C   0  0  0  0  0  0  0  0  0  0  0  0
   -1.2392    2.3449   -2.1109 C   0  0  0  0  0  0  0  0  0  0  0  0
   -0.5928    0.0260   -2.8241 C   0  0  0  0  0  0  0  0  0  0  0  0
    0.3712    0.0282   -0.1970 C   0  0  0  0  0  0  0  0  0  0  0  0
    0.9717   -0.1298    1.0466 C   0  0  0  0  0  0  0  0  0  0  0  0
    0.7560   -1.2910    1.7798 O   0  0  0  0  0  0  0  0  0  0  0  0
  1  2  1  0  0  0  0
  2  7  2  0  0  0  0
  2  3  1  0  0  0  0
  3  6  1  0  0  0  0
  3  5  1  0  0  0  0
  3  4  1  0  0  0  0
  7  8  1  0  0  0  0
  8 13  2  0  0  0  0
  8  9  1  0  0  0  0
  9 12  1  0  0  0  0
  9 11  1  0  0  0  0
  9 10  1  0  0  0  0
 13 14  1  0  0  0  0
 14 15  1  0  0  0  0
 14  1  2  0  0  0  0
M  END
