3,5-dibromosalicylaldehyde
 OpenBabel11261423233D

 11 11  0  0  0  0  0  0  0  0999 V2000
    0.5757    0.6861    0.6756 C   0  0  0  0  0  0  0  0  0  0  0  0
   -0.3347    1.4922    1.4842 C   0  0  0  0  0  0  0  0  0  0  0  0
    0.0728    2.0289    2.5203 O   0  0  0  0  0  0  0  0  0  0  0  0
    1.8981    0.5237    1.0720 C   0  0  0  0  0  0  0  0  0  0  0  0
    2.7646   -0.2437    0.3020 C   0  0  0  0  0  0  0  0  0  0  0  0
    4.5728   -0.4661    0.8435 Br  0  0  0  0  0  0  0  0  0  0  0  0
    2.3089   -0.8487   -0.8639 C   0  0  0  0  0  0  0  0  0  0  0  0
    0.9861   -0.6858   -1.2598 C   0  0  0  0  0  0  0  0  0  0  0  0
    0.3617   -1.5120   -2.8532 Br  0  0  0  0  0  0  0  0  0  0  0  0
    0.1196    0.0815   -0.4900 C   0  0  0  0  0  0  0  0  0  0  0  0
   -1.2032    0.2444   -0.8858 O   0  0  0  0  0  0  0  0  0  0  0  0
  1  4  1  0  0  0  0
  1  2  1  0  0  0  0
  2  3  2  0  0  0  0
  4  5  2  0  0  0  0
  5  7  1  0  0  0  0
  5  6  1  0  0  0  0
  7  8  2  0  0  0  0
  8 10  1  0  0  0  0
  8  9  1  0  0  0  0
 10 11  1  0  0  0  0
 10  1  2  0  0  0  0
M  END
