3,4-dichlorophenol
 OpenBabel11261423233D

  9  9  0  0  0  0  0  0  0  0999 V2000
    2.5603   -1.0542    1.1505 Cl  0  0  0  0  0  0  0  0  0  0  0  0
    1.1591   -0.1728    0.6563 C   0  0  0  0  0  0  0  0  0  0  0  0
    0.1099    0.0222    1.5474 C   0  0  0  0  0  0  0  0  0  0  0  0
   -1.0173    0.7317    1.1487 C   0  0  0  0  0  0  0  0  0  0  0  0
   -1.0950    1.2460   -0.1408 C   0  0  0  0  0  0  0  0  0  0  0  0
   -2.2226    1.9557   -0.5394 O   0  0  0  0  0  0  0  0  0  0  0  0
    1.0814    0.3415   -0.6330 C   0  0  0  0  0  0  0  0  0  0  0  0
    2.3859    0.0984   -1.7391 Cl  0  0  0  0  0  0  0  0  0  0  0  0
   -0.0457    1.0510   -1.0319 C   0  0  0  0  0  0  0  0  0  0  0  0
  1  2  1  0  0  0  0
  2  7  2  0  0  0  0
  2  3  1  0  0  0  0
  3  4  2  0  0  0  0
  4  5  1  0  0  0  0
  5  6  1  0  0  0  0
  7  9  1  0  0  0  0
  7  8  1  0  0  0  0
  9  5  2  0  0  0  0
M  END
