4-bromo-2,6-dichlorophenol
 OpenBabel11261423233D

 10 10  0  0  0  0  0  0  0  0999 V2000
   -0.6609    0.2094    0.1638 C   0  0  0  0  0  0  0  0  0  0  0  0
   -2.4012    0.9500    0.3520 Br  0  0  0  0  0  0  0  0  0  0  0  0
   -0.4624   -1.1544    0.3479 C   0  0  0  0  0  0  0  0  0  0  0  0
    0.8106   -1.6960    0.2102 C   0  0  0  0  0  0  0  0  0  0  0  0
    1.0584   -3.3902    0.4386 Cl  0  0  0  0  0  0  0  0  0  0  0  0
    1.8846   -0.8741   -0.1115 C   0  0  0  0  0  0  0  0  0  0  0  0
    3.1577   -1.4159   -0.2492 O   0  0  0  0  0  0  0  0  0  0  0  0
    1.6861    0.4895   -0.2955 C   0  0  0  0  0  0  0  0  0  0  0  0
    3.0214    1.5098   -0.6952 Cl  0  0  0  0  0  0  0  0  0  0  0  0
    0.4132    1.0314   -0.1579 C   0  0  0  0  0  0  0  0  0  0  0  0
  1  3  1  0  0  0  0
  1  2  1  0  0  0  0
  3  4  2  0  0  0  0
  4  6  1  0  0  0  0
  4  5  1  0  0  0  0
  6  8  2  0  0  0  0
  6  7  1  0  0  0  0
  8 10  1  0  0  0  0
  8  9  1  0  0  0  0
 10  1  2  0  0  0  0
M  END
