2,6-di(tert)butyl-4-methylphenol(BTH)
 OpenBabel11261423233D

 16 16  0  0  0  0  0  0  0  0999 V2000
    2.7740    1.1658    0.0519 O   0  0  0  0  0  0  0  0  0  0  0  0
    1.3886    0.9690   -0.0382 C   0  0  0  0  0  0  0  0  0  0  0  0
    0.5395    2.0542   -0.2799 C   0  0  0  0  0  0  0  0  0  0  0  0
   -0.8330    1.8491   -0.3676 C   0  0  0  0  0  0  0  0  0  0  0  0
   -1.3664    0.5776   -0.2172 C   0  0  0  0  0  0  0  0  0  0  0  0
   -2.8478    0.3671   -0.3135 C   0  0  0  0  0  0  0  0  0  0  0  0
    1.0672    3.4820   -0.4549 C   0  0  0  0  0  0  0  0  0  0  0  0
    1.8417    3.9181    0.8089 C   0  0  0  0  0  0  0  0  0  0  0  0
   -0.0966    4.4624   -0.7087 C   0  0  0  0  0  0  0  0  0  0  0  0
    2.0567    3.5391   -1.6401 C   0  0  0  0  0  0  0  0  0  0  0  0
    0.8503   -0.3133    0.1133 C   0  0  0  0  0  0  0  0  0  0  0  0
   -0.5248   -0.4986    0.0224 C   0  0  0  0  0  0  0  0  0  0  0  0
    1.7267   -1.5416    0.3796 C   0  0  0  0  0  0  0  0  0  0  0  0
    0.8581   -2.8108    0.5009 C   0  0  0  0  0  0  0  0  0  0  0  0
    2.5341   -1.3435    1.6819 C   0  0  0  0  0  0  0  0  0  0  0  0
    2.7460   -1.7228   -0.7674 C   0  0  0  0  0  0  0  0  0  0  0  0
  1  2  1  0  0  0  0
  2 11  2  0  0  0  0
  2  3  1  0  0  0  0
  3  7  1  0  0  0  0
  3  4  2  0  0  0  0
  4  5  1  0  0  0  0
  5  6  1  0  0  0  0
  7 10  1  0  0  0  0
  7  9  1  0  0  0  0
  7  8  1  0  0  0  0
 11 13  1  0  0  0  0
 11 12  1  0  0  0  0
 12  5  2  0  0  0  0
 13 16  1  0  0  0  0
 13 15  1  0  0  0  0
 13 14  1  0  0  0  0
M  END
