4-(4-bromophenyl)phenol
 OpenBabel11261423233D

 14 15  0  0  0  0  0  0  0  0999 V2000
    1.0487    1.1141    4.3361 O   0  0  0  0  0  0  0  0  0  0  0  0
    1.1155    1.1275    2.9471 C   0  0  0  0  0  0  0  0  0  0  0  0
    0.6903    2.2476    2.2417 C   0  0  0  0  0  0  0  0  0  0  0  0
    0.7571    2.2609    0.8532 C   0  0  0  0  0  0  0  0  0  0  0  0
    1.2490    1.1542    0.1704 C   0  0  0  0  0  0  0  0  0  0  0  0
    1.3191    1.1682   -1.2891 C   0  0  0  0  0  0  0  0  0  0  0  0
    1.8110    0.0615   -1.9719 C   0  0  0  0  0  0  0  0  0  0  0  0
    1.8778    0.0748   -3.3604 C   0  0  0  0  0  0  0  0  0  0  0  0
    1.4526    1.1949   -4.0658 C   0  0  0  0  0  0  0  0  0  0  0  0
    1.5439    1.2132   -5.9644 Br  0  0  0  0  0  0  0  0  0  0  0  0
    0.9608    2.3017   -3.3831 C   0  0  0  0  0  0  0  0  0  0  0  0
    0.8940    2.2883   -1.9946 C   0  0  0  0  0  0  0  0  0  0  0  0
    1.6741    0.0341    0.8759 C   0  0  0  0  0  0  0  0  0  0  0  0
    1.6073    0.0207    2.2644 C   0  0  0  0  0  0  0  0  0  0  0  0
  1  2  1  0  0  0  0
  2  3  1  0  0  0  0
  3  4  2  0  0  0  0
  4  5  1  0  0  0  0
  5 13  2  0  0  0  0
  5  6  1  0  0  0  0
  6  7  1  0  0  0  0
  7  8  2  0  0  0  0
  8  9  1  0  0  0  0
  9 11  2  0  0  0  0
  9 10  1  0  0  0  0
 11 12  1  0  0  0  0
 12  6  2  0  0  0  0
 13 14  1  0  0  0  0
 14  2  2  0  0  0  0
M  END
