3,5-diiododsalicylaldehyde
 OpenBabel11261423233D

 11 11  0  0  0  0  0  0  0  0999 V2000
    0.3319    0.4047   -2.1515 C   0  0  0  0  0  0  0  0  0  0  0  0
   -0.7499    0.9831   -2.3018 O   0  0  0  0  0  0  0  0  0  0  0  0
    0.8978    0.2555   -0.8137 C   0  0  0  0  0  0  0  0  0  0  0  0
    2.1143   -0.3947   -0.6423 C   0  0  0  0  0  0  0  0  0  0  0  0
    2.7922   -0.9030   -1.7447 O   0  0  0  0  0  0  0  0  0  0  0  0
    2.6530   -0.5368    0.6313 C   0  0  0  0  0  0  0  0  0  0  0  0
    4.4563   -1.5007    0.8843 I   0  0  0  0  0  0  0  0  0  0  0  0
    1.9751   -0.0285    1.7335 C   0  0  0  0  0  0  0  0  0  0  0  0
    0.7583    0.6218    1.5616 C   0  0  0  0  0  0  0  0  0  0  0  0
   -0.2468    1.3753    3.1950 I   0  0  0  0  0  0  0  0  0  0  0  0
    0.2194    0.7639    0.2880 C   0  0  0  0  0  0  0  0  0  0  0  0
  1  3  1  0  0  0  0
  1  2  2  0  0  0  0
  3  4  1  0  0  0  0
  4  6  2  0  0  0  0
  4  5  1  0  0  0  0
  6  8  1  0  0  0  0
  6  7  1  0  0  0  0
  8  9  2  0  0  0  0
  9 11  1  0  0  0  0
  9 10  1  0  0  0  0
 11  3  2  0  0  0  0
M  END
