4-nonylphenol
 OpenBabel11261423233D

 16 16  0  0  0  0  0  0  0  0999 V2000
    2.6689   -1.6400    1.8518 O   0  0  0  0  0  0  0  0  0  0  0  0
    1.4274   -1.0196    1.7641 C   0  0  0  0  0  0  0  0  0  0  0  0
    0.7405   -0.6690    2.9205 C   0  0  0  0  0  0  0  0  0  0  0  0
   -0.5006   -0.0477    2.8320 C   0  0  0  0  0  0  0  0  0  0  0  0
   -1.0549    0.2297    1.5877 C   0  0  0  0  0  0  0  0  0  0  0  0
   -2.4145    0.9000    1.5071 C   0  0  0  0  0  0  0  0  0  0  0  0
   -2.7061    1.6152    0.1428 C   0  0  0  0  0  0  0  0  0  0  0  0
   -2.2229    3.1226    0.1411 C   0  0  0  0  0  0  0  0  0  0  0  0
   -0.6767    3.3649    0.1793 C   0  0  0  0  0  0  0  0  0  0  0  0
   -0.0131    3.4920   -1.2377 C   0  0  0  0  0  0  0  0  0  0  0  0
   -0.1584    2.2319   -2.1298 C   0  0  0  0  0  0  0  0  0  0  0  0
    0.5569    2.3194   -3.5311 C   0  0  0  0  0  0  0  0  0  0  0  0
   -0.0906    3.3033   -4.5760 C   0  0  0  0  0  0  0  0  0  0  0  0
    0.1849    4.8044   -4.3047 C   0  0  0  0  0  0  0  0  0  0  0  0
    0.8714   -0.7519    0.5187 C   0  0  0  0  0  0  0  0  0  0  0  0
   -0.3683   -0.1305    0.4329 C   0  0  0  0  0  0  0  0  0  0  0  0
  1  2  1  0  0  0  0
  2 15  2  0  0  0  0
  2  3  1  0  0  0  0
  3  4  2  0  0  0  0
  4  5  1  0  0  0  0
  5  6  1  0  0  0  0
  6  7  1  0  0  0  0
  7  8  1  0  0  0  0
  8  9  1  0  0  0  0
  9 10  1  0  0  0  0
 10 11  1  0  0  0  0
 11 12  1  0  0  0  0
 12 13  1  0  0  0  0
 13 14  1  0  0  0  0
 15 16  1  0  0  0  0
 16  5  2  0  0  0  0
M  END
