nonyl-4-hydroxybenzoate
 OpenBabel11261423233D

 19 19  0  0  0  0  0  0  0  0999 V2000
    4.7280   -2.0364   -3.1406 O   0  0  0  0  0  0  0  0  0  0  0  0
    3.8068   -1.5539   -2.2178 C   0  0  0  0  0  0  0  0  0  0  0  0
    3.8894   -1.9348   -0.8856 C   0  0  0  0  0  0  0  0  0  0  0  0
    2.9654   -1.4502    0.0339 C   0  0  0  0  0  0  0  0  0  0  0  0
    1.9515   -0.5825   -0.3559 C   0  0  0  0  0  0  0  0  0  0  0  0
    0.9968   -0.1172    0.7449 C   0  0  0  0  0  0  0  0  0  0  0  0
    1.2113   -0.5869    1.8678 O   0  0  0  0  0  0  0  0  0  0  0  0
   -0.1266    0.8168    0.6575 O   0  0  0  0  0  0  0  0  0  0  0  0
   -0.4696    1.4554   -0.5876 C   0  0  0  0  0  0  0  0  0  0  0  0
   -0.3715    2.9811   -0.4048 C   0  0  0  0  0  0  0  0  0  0  0  0
    1.0926    3.3742   -0.0781 C   0  0  0  0  0  0  0  0  0  0  0  0
    1.3026    4.8901    0.2750 C   0  0  0  0  0  0  0  0  0  0  0  0
    0.8686    5.2887    1.7376 C   0  0  0  0  0  0  0  0  0  0  0  0
   -0.6616    5.3461    1.9805 C   0  0  0  0  0  0  0  0  0  0  0  0
   -1.2900    6.4446    1.0969 C   0  0  0  0  0  0  0  0  0  0  0  0
   -2.8130    6.4998    1.3332 C   0  0  0  0  0  0  0  0  0  0  0  0
   -3.4550    5.1525    0.9463 C   0  0  0  0  0  0  0  0  0  0  0  0
    1.8812   -0.2087   -1.6989 C   0  0  0  0  0  0  0  0  0  0  0  0
    2.7990   -0.6885   -2.6248 C   0  0  0  0  0  0  0  0  0  0  0  0
  1  2  1  0  0  0  0
  2  3  1  0  0  0  0
  3  4  2  0  0  0  0
  4  5  1  0  0  0  0
  5 18  2  0  0  0  0
  5  6  1  0  0  0  0
  6  8  1  0  0  0  0
  6  7  2  0  0  0  0
  8  9  1  0  0  0  0
  9 10  1  0  0  0  0
 10 11  1  0  0  0  0
 11 12  1  0  0  0  0
 12 13  1  0  0  0  0
 13 14  1  0  0  0  0
 14 15  1  0  0  0  0
 15 16  1  0  0  0  0
 16 17  1  0  0  0  0
 18 19  1  0  0  0  0
 19  2  2  0  0  0  0
M  END
