
  Mrv0541 10151410472D          

 14 15  0  0  0  0            999 V2000
    0.2838    1.9203    0.0000 C   0  0  0  0  0  0  0  0  0  0  0  0
    0.9983    1.5078    0.0000 C   0  0  0  0  0  0  0  0  0  0  0  0
    0.9983    0.6828    0.0000 C   0  0  0  0  0  0  0  0  0  0  0  0
    0.2838    0.2703    0.0000 C   0  0  0  0  0  0  0  0  0  0  0  0
   -0.4306    0.6828    0.0000 C   0  0  0  0  0  0  0  0  0  0  0  0
   -0.4306    1.5078    0.0000 C   0  0  0  0  0  0  0  0  0  0  0  0
   -1.1451    4.3953    0.0000 C   0  0  0  0  0  0  0  0  0  0  0  0
   -0.4306    3.9828    0.0000 C   0  0  0  0  0  0  0  0  0  0  0  0
   -0.4306    3.1578    0.0000 C   0  0  0  0  0  0  0  0  0  0  0  0
   -1.1451    2.7453    0.0000 C   0  0  0  0  0  0  0  0  0  0  0  0
   -1.8596    3.1578    0.0000 C   0  0  0  0  0  0  0  0  0  0  0  0
   -1.8596    3.9828    0.0000 C   0  0  0  0  0  0  0  0  0  0  0  0
    0.2838    2.7453    0.0000 O   0  0  0  0  0  0  0  0  0  0  0  0
    0.4974   -0.5266    0.0000 Br  0  0  0  0  0  0  0  0  0  0  0  0
  1  2  2  0  0  0  0
  1  6  1  0  0  0  0
  1 13  1  0  0  0  0
  2  3  1  0  0  0  0
  3  4  2  0  0  0  0
  4  5  1  0  0  0  0
  5  6  2  0  0  0  0
  7  8  1  0  0  0  0
  7 12  2  0  0  0  0
  8  9  2  0  0  0  0
  9 10  1  0  0  0  0
 13  9  1  0  0  0  0
 10 11  2  0  0  0  0
 11 12  1  0  0  0  0
  4 14  1  0  0  0  0
M  END