
  Mrv0541 10151410472D          

 15 16  0  0  0  0            999 V2000
   -0.1139    1.5446    0.0000 C   0  0  0  0  0  0  0  0  0  0  0  0
    0.6005    1.1321    0.0000 C   0  0  0  0  0  0  0  0  0  0  0  0
    0.6005    0.3071    0.0000 C   0  0  0  0  0  0  0  0  0  0  0  0
   -0.1139   -0.1054    0.0000 C   0  0  0  0  0  0  0  0  0  0  0  0
   -0.8284    0.3071    0.0000 C   0  0  0  0  0  0  0  0  0  0  0  0
   -0.8284    1.1321    0.0000 C   0  0  0  0  0  0  0  0  0  0  0  0
   -1.5429    4.0196    0.0000 C   0  0  0  0  0  0  0  0  0  0  0  0
   -0.8284    3.6071    0.0000 C   0  0  0  0  0  0  0  0  0  0  0  0
   -0.8284    2.7821    0.0000 C   0  0  0  0  0  0  0  0  0  0  0  0
   -1.5429    2.3696    0.0000 C   0  0  0  0  0  0  0  0  0  0  0  0
   -2.2573    2.7821    0.0000 C   0  0  0  0  0  0  0  0  0  0  0  0
   -2.2573    3.6071    0.0000 C   0  0  0  0  0  0  0  0  0  0  0  0
   -0.1139    2.3696    0.0000 O   0  0  0  0  0  0  0  0  0  0  0  0
    1.3150    1.5446    0.0000 Br  0  0  0  0  0  0  0  0  0  0  0  0
   -1.5429    4.8446    0.0000 Br  0  0  0  0  0  0  0  0  0  0  0  0
  1  2  2  0  0  0  0
  1  6  1  0  0  0  0
  1 13  1  0  0  0  0
  2  3  1  0  0  0  0
  3  4  2  0  0  0  0
  4  5  1  0  0  0  0
  5  6  2  0  0  0  0
  7  8  1  0  0  0  0
  7 12  2  0  0  0  0
  8  9  2  0  0  0  0
  9 10  1  0  0  0  0
 13  9  1  0  0  0  0
 10 11  2  0  0  0  0
 11 12  1  0  0  0  0
  2 14  1  0  0  0  0
  7 15  1  0  0  0  0
M  END