
  Mrv0541 10151410472D          

 16 17  0  0  0  0            999 V2000
   -0.0255    0.1524    0.0000 C   0  0  0  0  0  0  0  0  0  0  0  0
    0.6889   -0.2601    0.0000 C   0  0  0  0  0  0  0  0  0  0  0  0
    0.6889   -1.0851    0.0000 C   0  0  0  0  0  0  0  0  0  0  0  0
   -0.0255   -1.4976    0.0000 C   0  0  0  0  0  0  0  0  0  0  0  0
   -0.7400   -1.0851    0.0000 C   0  0  0  0  0  0  0  0  0  0  0  0
   -0.7400   -0.2601    0.0000 C   0  0  0  0  0  0  0  0  0  0  0  0
   -1.4545    2.6274    0.0000 C   0  0  0  0  0  0  0  0  0  0  0  0
   -0.7400    2.2149    0.0000 C   0  0  0  0  0  0  0  0  0  0  0  0
   -0.7400    1.3899    0.0000 C   0  0  0  0  0  0  0  0  0  0  0  0
   -1.4545    0.9774    0.0000 C   0  0  0  0  0  0  0  0  0  0  0  0
   -2.1689    1.3899    0.0000 C   0  0  0  0  0  0  0  0  0  0  0  0
   -2.1689    2.2149    0.0000 C   0  0  0  0  0  0  0  0  0  0  0  0
   -0.0255    0.9774    0.0000 O   0  0  0  0  0  0  0  0  0  0  0  0
    1.2723    0.3233    0.0000 Br  0  0  0  0  0  0  0  0  0  0  0  0
    1.4034   -1.4976    0.0000 Br  0  0  0  0  0  0  0  0  0  0  0  0
   -0.1566    2.7983    0.0000 Br  0  0  0  0  0  0  0  0  0  0  0  0
  1  2  2  0  0  0  0
  1  6  1  0  0  0  0
  1 13  1  0  0  0  0
  2  3  1  0  0  0  0
  3  4  2  0  0  0  0
  4  5  1  0  0  0  0
  5  6  2  0  0  0  0
  7  8  1  0  0  0  0
  7 12  2  0  0  0  0
  8  9  2  0  0  0  0
  9 10  1  0  0  0  0
 13  9  1  0  0  0  0
 10 11  2  0  0  0  0
 11 12  1  0  0  0  0
  2 14  1  0  0  0  0
  3 15  1  0  0  0  0
  8 16  1  0  0  0  0
M  END