
  Mrv0541 10151410472D          

 16 17  0  0  0  0            999 V2000
    0.3943   -0.4221    0.0000 C   0  0  0  0  0  0  0  0  0  0  0  0
    1.1088   -0.8346    0.0000 C   0  0  0  0  0  0  0  0  0  0  0  0
    1.1088   -1.6596    0.0000 C   0  0  0  0  0  0  0  0  0  0  0  0
    0.3943   -2.0721    0.0000 C   0  0  0  0  0  0  0  0  0  0  0  0
   -0.3201   -1.6596    0.0000 C   0  0  0  0  0  0  0  0  0  0  0  0
   -0.3201   -0.8346    0.0000 C   0  0  0  0  0  0  0  0  0  0  0  0
   -1.0346    2.0529    0.0000 C   0  0  0  0  0  0  0  0  0  0  0  0
   -0.3201    1.6404    0.0000 C   0  0  0  0  0  0  0  0  0  0  0  0
   -0.3201    0.8154    0.0000 C   0  0  0  0  0  0  0  0  0  0  0  0
   -1.0346    0.4029    0.0000 C   0  0  0  0  0  0  0  0  0  0  0  0
   -1.7491    0.8154    0.0000 C   0  0  0  0  0  0  0  0  0  0  0  0
   -1.7491    1.6404    0.0000 C   0  0  0  0  0  0  0  0  0  0  0  0
    0.3943    0.4029    0.0000 O   0  0  0  0  0  0  0  0  0  0  0  0
    1.8233   -0.4221    0.0000 Br  0  0  0  0  0  0  0  0  0  0  0  0
    0.3943   -2.8971    0.0000 Br  0  0  0  0  0  0  0  0  0  0  0  0
    0.3943    2.0529    0.0000 Br  0  0  0  0  0  0  0  0  0  0  0  0
  1  2  2  0  0  0  0
  1  6  1  0  0  0  0
  1 13  1  0  0  0  0
  2  3  1  0  0  0  0
  3  4  2  0  0  0  0
  4  5  1  0  0  0  0
  5  6  2  0  0  0  0
  7  8  1  0  0  0  0
  7 12  2  0  0  0  0
  8  9  2  0  0  0  0
  9 10  1  0  0  0  0
 13  9  1  0  0  0  0
 10 11  2  0  0  0  0
 11 12  1  0  0  0  0
  2 14  1  0  0  0  0
  4 15  1  0  0  0  0
  8 16  1  0  0  0  0
M  END