
  Mrv0541 10151410472D          

 15 16  0  0  0  0            999 V2000
    0.5490   -0.7757    0.0000 C   0  0  0  0  0  0  0  0  0  0  0  0
    1.2635   -1.1882    0.0000 C   0  0  0  0  0  0  0  0  0  0  0  0
    1.2635   -2.0132    0.0000 C   0  0  0  0  0  0  0  0  0  0  0  0
    0.5490   -2.4257    0.0000 C   0  0  0  0  0  0  0  0  0  0  0  0
   -0.1655   -2.0132    0.0000 C   0  0  0  0  0  0  0  0  0  0  0  0
   -0.1655   -1.1882    0.0000 C   0  0  0  0  0  0  0  0  0  0  0  0
   -0.8799    1.6993    0.0000 C   0  0  0  0  0  0  0  0  0  0  0  0
   -0.1655    1.2868    0.0000 C   0  0  0  0  0  0  0  0  0  0  0  0
   -0.1655    0.4618    0.0000 C   0  0  0  0  0  0  0  0  0  0  0  0
   -0.8799    0.0493    0.0000 C   0  0  0  0  0  0  0  0  0  0  0  0
   -1.5944    0.4618    0.0000 C   0  0  0  0  0  0  0  0  0  0  0  0
   -1.5944    1.2868    0.0000 C   0  0  0  0  0  0  0  0  0  0  0  0
    0.5490    0.0493    0.0000 O   0  0  0  0  0  0  0  0  0  0  0  0
    1.9780   -0.7757    0.0000 Br  0  0  0  0  0  0  0  0  0  0  0  0
   -0.8799   -2.4257    0.0000 Br  0  0  0  0  0  0  0  0  0  0  0  0
  1  2  2  0  0  0  0
  1  6  1  0  0  0  0
  1 13  1  0  0  0  0
  2  3  1  0  0  0  0
  3  4  2  0  0  0  0
  4  5  1  0  0  0  0
  5  6  2  0  0  0  0
  7  8  1  0  0  0  0
  7 12  2  0  0  0  0
  8  9  2  0  0  0  0
  9 10  1  0  0  0  0
 13  9  1  0  0  0  0
 10 11  2  0  0  0  0
 11 12  1  0  0  0  0
  2 14  1  0  0  0  0
  5 15  1  0  0  0  0
M  END