
  Mrv0541 10151410472D          

 18 19  0  0  0  0            999 V2000
    0.6816   -0.7094    0.0000 C   0  0  0  0  0  0  0  0  0  0  0  0
    1.3961   -1.1219    0.0000 C   0  0  0  0  0  0  0  0  0  0  0  0
    1.3961   -1.9469    0.0000 C   0  0  0  0  0  0  0  0  0  0  0  0
    0.6816   -2.3594    0.0000 C   0  0  0  0  0  0  0  0  0  0  0  0
   -0.0329   -1.9469    0.0000 C   0  0  0  0  0  0  0  0  0  0  0  0
   -0.0329   -1.1219    0.0000 C   0  0  0  0  0  0  0  0  0  0  0  0
   -0.7473    1.7656    0.0000 C   0  0  0  0  0  0  0  0  0  0  0  0
   -0.0329    1.3531    0.0000 C   0  0  0  0  0  0  0  0  0  0  0  0
   -0.0329    0.5281    0.0000 C   0  0  0  0  0  0  0  0  0  0  0  0
   -0.7473    0.1156    0.0000 C   0  0  0  0  0  0  0  0  0  0  0  0
   -1.4618    0.5281    0.0000 C   0  0  0  0  0  0  0  0  0  0  0  0
   -1.4618    1.3531    0.0000 C   0  0  0  0  0  0  0  0  0  0  0  0
    0.6816    0.1156    0.0000 O   0  0  0  0  0  0  0  0  0  0  0  0
    2.1106   -0.7094    0.0000 Br  0  0  0  0  0  0  0  0  0  0  0  0
    2.1106   -2.3594    0.0000 Br  0  0  0  0  0  0  0  0  0  0  0  0
   -0.7473   -2.3594    0.0000 Br  0  0  0  0  0  0  0  0  0  0  0  0
   -0.7473   -0.7094    0.0000 Br  0  0  0  0  0  0  0  0  0  0  0  0
    0.6816    1.7656    0.0000 Br  0  0  0  0  0  0  0  0  0  0  0  0
  1  2  2  0  0  0  0
  1  6  1  0  0  0  0
  1 13  1  0  0  0  0
  2  3  1  0  0  0  0
  3  4  2  0  0  0  0
  4  5  1  0  0  0  0
  5  6  2  0  0  0  0
  7  8  1  0  0  0  0
  7 12  2  0  0  0  0
  8  9  2  0  0  0  0
  9 10  1  0  0  0  0
 13  9  1  0  0  0  0
 10 11  2  0  0  0  0
 11 12  1  0  0  0  0
  2 14  1  0  0  0  0
  3 15  1  0  0  0  0
  5 16  1  0  0  0  0
  6 17  1  0  0  0  0
  8 18  1  0  0  0  0
M  END