
  Mrv0541 10151410472D          

 15 16  0  0  0  0            999 V2000
   -0.0918   -0.6431    0.0000 C   0  0  0  0  0  0  0  0  0  0  0  0
    0.6226   -1.0556    0.0000 C   0  0  0  0  0  0  0  0  0  0  0  0
    0.6226   -1.8806    0.0000 C   0  0  0  0  0  0  0  0  0  0  0  0
   -0.0918   -2.2931    0.0000 C   0  0  0  0  0  0  0  0  0  0  0  0
   -0.8063   -1.8806    0.0000 C   0  0  0  0  0  0  0  0  0  0  0  0
   -0.8063   -1.0556    0.0000 C   0  0  0  0  0  0  0  0  0  0  0  0
   -1.5208    1.8319    0.0000 C   0  0  0  0  0  0  0  0  0  0  0  0
   -0.8063    1.4194    0.0000 C   0  0  0  0  0  0  0  0  0  0  0  0
   -0.8063    0.5944    0.0000 C   0  0  0  0  0  0  0  0  0  0  0  0
   -1.5208    0.1819    0.0000 C   0  0  0  0  0  0  0  0  0  0  0  0
   -2.2352    0.5944    0.0000 C   0  0  0  0  0  0  0  0  0  0  0  0
   -2.2352    1.4194    0.0000 C   0  0  0  0  0  0  0  0  0  0  0  0
   -0.0918    0.1819    0.0000 O   0  0  0  0  0  0  0  0  0  0  0  0
    1.3371   -2.2931    0.0000 Br  0  0  0  0  0  0  0  0  0  0  0  0
   -1.5208    2.6569    0.0000 Br  0  0  0  0  0  0  0  0  0  0  0  0
  1  2  2  0  0  0  0
  1  6  1  0  0  0  0
  1 13  1  0  0  0  0
  2  3  1  0  0  0  0
  3  4  2  0  0  0  0
  4  5  1  0  0  0  0
  5  6  2  0  0  0  0
  7  8  1  0  0  0  0
  7 12  2  0  0  0  0
  8  9  2  0  0  0  0
  9 10  1  0  0  0  0
 13  9  1  0  0  0  0
 10 11  2  0  0  0  0
 11 12  1  0  0  0  0
  3 14  1  0  0  0  0
  7 15  1  0  0  0  0
M  END