
  Mrv0541 10151410472D          

 16 17  0  0  0  0            999 V2000
    0.0850   -0.6873    0.0000 C   0  0  0  0  0  0  0  0  0  0  0  0
    0.7994   -1.0998    0.0000 C   0  0  0  0  0  0  0  0  0  0  0  0
    0.7994   -1.9248    0.0000 C   0  0  0  0  0  0  0  0  0  0  0  0
    0.0850   -2.3373    0.0000 C   0  0  0  0  0  0  0  0  0  0  0  0
   -0.6295   -1.9248    0.0000 C   0  0  0  0  0  0  0  0  0  0  0  0
   -0.6295   -1.0998    0.0000 C   0  0  0  0  0  0  0  0  0  0  0  0
   -1.3440    1.7877    0.0000 C   0  0  0  0  0  0  0  0  0  0  0  0
   -0.6295    1.3752    0.0000 C   0  0  0  0  0  0  0  0  0  0  0  0
   -0.6295    0.5502    0.0000 C   0  0  0  0  0  0  0  0  0  0  0  0
   -1.3440    0.1377    0.0000 C   0  0  0  0  0  0  0  0  0  0  0  0
   -2.0585    0.5502    0.0000 C   0  0  0  0  0  0  0  0  0  0  0  0
   -2.0585    1.3752    0.0000 C   0  0  0  0  0  0  0  0  0  0  0  0
    0.0850    0.1377    0.0000 O   0  0  0  0  0  0  0  0  0  0  0  0
    1.5139   -0.6873    0.0000 Br  0  0  0  0  0  0  0  0  0  0  0  0
    1.5139   -2.3373    0.0000 Br  0  0  0  0  0  0  0  0  0  0  0  0
   -2.7729    1.7877    0.0000 Br  0  0  0  0  0  0  0  0  0  0  0  0
  1  2  2  0  0  0  0
  1  6  1  0  0  0  0
  1 13  1  0  0  0  0
  2  3  1  0  0  0  0
  3  4  2  0  0  0  0
  4  5  1  0  0  0  0
  5  6  2  0  0  0  0
  7  8  1  0  0  0  0
  7 12  2  0  0  0  0
  8  9  2  0  0  0  0
  9 10  1  0  0  0  0
 13  9  1  0  0  0  0
 10 11  2  0  0  0  0
 11 12  1  0  0  0  0
  2 14  1  0  0  0  0
  3 15  1  0  0  0  0
 12 16  1  0  0  0  0
M  END