
  Mrv0541 10151410472D          

 16 17  0  0  0  0            999 V2000
    0.3280   -0.8199    0.0000 C   0  0  0  0  0  0  0  0  0  0  0  0
    1.0425   -1.2324    0.0000 C   0  0  0  0  0  0  0  0  0  0  0  0
    1.0425   -2.0574    0.0000 C   0  0  0  0  0  0  0  0  0  0  0  0
    0.3280   -2.4699    0.0000 C   0  0  0  0  0  0  0  0  0  0  0  0
   -0.3864   -2.0574    0.0000 C   0  0  0  0  0  0  0  0  0  0  0  0
   -0.3864   -1.2324    0.0000 C   0  0  0  0  0  0  0  0  0  0  0  0
   -1.1009    1.6551    0.0000 C   0  0  0  0  0  0  0  0  0  0  0  0
   -0.3864    1.2426    0.0000 C   0  0  0  0  0  0  0  0  0  0  0  0
   -0.3864    0.4176    0.0000 C   0  0  0  0  0  0  0  0  0  0  0  0
   -1.1009    0.0051    0.0000 C   0  0  0  0  0  0  0  0  0  0  0  0
   -1.8154    0.4176    0.0000 C   0  0  0  0  0  0  0  0  0  0  0  0
   -1.8154    1.2426    0.0000 C   0  0  0  0  0  0  0  0  0  0  0  0
    0.3280    0.0051    0.0000 O   0  0  0  0  0  0  0  0  0  0  0  0
    1.7570   -0.8199    0.0000 Br  0  0  0  0  0  0  0  0  0  0  0  0
   -1.1009   -0.8199    0.0000 Br  0  0  0  0  0  0  0  0  0  0  0  0
    0.3280    1.6551    0.0000 Br  0  0  0  0  0  0  0  0  0  0  0  0
  1  2  2  0  0  0  0
  1  6  1  0  0  0  0
  1 13  1  0  0  0  0
  2  3  1  0  0  0  0
  3  4  2  0  0  0  0
  4  5  1  0  0  0  0
  5  6  2  0  0  0  0
  7  8  1  0  0  0  0
  7 12  2  0  0  0  0
  8  9  2  0  0  0  0
  9 10  1  0  0  0  0
 13  9  1  0  0  0  0
 10 11  2  0  0  0  0
 11 12  1  0  0  0  0
  2 14  1  0  0  0  0
  6 15  1  0  0  0  0
  8 16  1  0  0  0  0
M  END