
  Mrv0541 10151410472D          

 16 17  0  0  0  0            999 V2000
    0.0629   -0.3337    0.0000 C   0  0  0  0  0  0  0  0  0  0  0  0
    0.7773   -0.7462    0.0000 C   0  0  0  0  0  0  0  0  0  0  0  0
    0.7773   -1.5712    0.0000 C   0  0  0  0  0  0  0  0  0  0  0  0
    0.0629   -1.9837    0.0000 C   0  0  0  0  0  0  0  0  0  0  0  0
   -0.6516   -1.5712    0.0000 C   0  0  0  0  0  0  0  0  0  0  0  0
   -0.6516   -0.7462    0.0000 C   0  0  0  0  0  0  0  0  0  0  0  0
   -1.3661    2.1413    0.0000 C   0  0  0  0  0  0  0  0  0  0  0  0
   -0.6516    1.7288    0.0000 C   0  0  0  0  0  0  0  0  0  0  0  0
   -0.6516    0.9038    0.0000 C   0  0  0  0  0  0  0  0  0  0  0  0
   -1.3661    0.4913    0.0000 C   0  0  0  0  0  0  0  0  0  0  0  0
   -2.0806    0.9038    0.0000 C   0  0  0  0  0  0  0  0  0  0  0  0
   -2.0806    1.7288    0.0000 C   0  0  0  0  0  0  0  0  0  0  0  0
    0.0629    0.4913    0.0000 O   0  0  0  0  0  0  0  0  0  0  0  0
    1.4918   -0.3337    0.0000 Br  0  0  0  0  0  0  0  0  0  0  0  0
    1.4918   -1.9837    0.0000 Br  0  0  0  0  0  0  0  0  0  0  0  0
   -1.3661   -1.9837    0.0000 Br  0  0  0  0  0  0  0  0  0  0  0  0
  1  2  2  0  0  0  0
  1  6  1  0  0  0  0
  1 13  1  0  0  0  0
  2  3  1  0  0  0  0
  3  4  2  0  0  0  0
  4  5  1  0  0  0  0
  5  6  2  0  0  0  0
  7  8  1  0  0  0  0
  7 12  2  0  0  0  0
  8  9  2  0  0  0  0
  9 10  1  0  0  0  0
 13  9  1  0  0  0  0
 10 11  2  0  0  0  0
 11 12  1  0  0  0  0
  2 14  1  0  0  0  0
  3 15  1  0  0  0  0
  5 16  1  0  0  0  0
M  END