
  Mrv0541 10151410472D          

 16 17  0  0  0  0            999 V2000
   -0.6001   -0.2012    0.0000 C   0  0  0  0  0  0  0  0  0  0  0  0
    0.1144   -0.6137    0.0000 C   0  0  0  0  0  0  0  0  0  0  0  0
    0.1144   -1.4387    0.0000 C   0  0  0  0  0  0  0  0  0  0  0  0
   -0.6001   -1.8512    0.0000 C   0  0  0  0  0  0  0  0  0  0  0  0
   -1.3146   -1.4387    0.0000 C   0  0  0  0  0  0  0  0  0  0  0  0
   -1.3146   -0.6137    0.0000 C   0  0  0  0  0  0  0  0  0  0  0  0
   -2.0290    2.2738    0.0000 C   0  0  0  0  0  0  0  0  0  0  0  0
   -1.3146    1.8613    0.0000 C   0  0  0  0  0  0  0  0  0  0  0  0
   -1.3146    1.0363    0.0000 C   0  0  0  0  0  0  0  0  0  0  0  0
   -2.0290    0.6238    0.0000 C   0  0  0  0  0  0  0  0  0  0  0  0
   -2.7435    1.0363    0.0000 C   0  0  0  0  0  0  0  0  0  0  0  0
   -2.7435    1.8613    0.0000 C   0  0  0  0  0  0  0  0  0  0  0  0
   -0.6001    0.6238    0.0000 O   0  0  0  0  0  0  0  0  0  0  0  0
    0.8289   -0.2012    0.0000 Br  0  0  0  0  0  0  0  0  0  0  0  0
   -2.0290   -1.8512    0.0000 Br  0  0  0  0  0  0  0  0  0  0  0  0
   -0.6001    2.2738    0.0000 Br  0  0  0  0  0  0  0  0  0  0  0  0
  1  2  2  0  0  0  0
  1  6  1  0  0  0  0
  1 13  1  0  0  0  0
  2  3  1  0  0  0  0
  3  4  2  0  0  0  0
  4  5  1  0  0  0  0
  5  6  2  0  0  0  0
  7  8  1  0  0  0  0
  7 12  2  0  0  0  0
  8  9  2  0  0  0  0
  9 10  1  0  0  0  0
 13  9  1  0  0  0  0
 10 11  2  0  0  0  0
 11 12  1  0  0  0  0
  2 14  1  0  0  0  0
  5 15  1  0  0  0  0
  8 16  1  0  0  0  0
M  END