
  Mrv0541 10151410472D          

 15 16  0  0  0  0            999 V2000
   -0.0255   -0.4442    0.0000 C   0  0  0  0  0  0  0  0  0  0  0  0
    0.6889   -0.8567    0.0000 C   0  0  0  0  0  0  0  0  0  0  0  0
    0.6889   -1.6817    0.0000 C   0  0  0  0  0  0  0  0  0  0  0  0
   -0.0255   -2.0942    0.0000 C   0  0  0  0  0  0  0  0  0  0  0  0
   -0.7400   -1.6817    0.0000 C   0  0  0  0  0  0  0  0  0  0  0  0
   -0.7400   -0.8567    0.0000 C   0  0  0  0  0  0  0  0  0  0  0  0
   -1.4545    2.0308    0.0000 C   0  0  0  0  0  0  0  0  0  0  0  0
   -0.7400    1.6183    0.0000 C   0  0  0  0  0  0  0  0  0  0  0  0
   -0.7400    0.7933    0.0000 C   0  0  0  0  0  0  0  0  0  0  0  0
   -1.4545    0.3808    0.0000 C   0  0  0  0  0  0  0  0  0  0  0  0
   -2.1689    0.7933    0.0000 C   0  0  0  0  0  0  0  0  0  0  0  0
   -2.1689    1.6183    0.0000 C   0  0  0  0  0  0  0  0  0  0  0  0
   -0.0255    0.3808    0.0000 O   0  0  0  0  0  0  0  0  0  0  0  0
    1.4034   -2.0942    0.0000 Br  0  0  0  0  0  0  0  0  0  0  0  0
   -1.4545   -2.0942    0.0000 Br  0  0  0  0  0  0  0  0  0  0  0  0
  1  2  2  0  0  0  0
  1  6  1  0  0  0  0
  1 13  1  0  0  0  0
  2  3  1  0  0  0  0
  3  4  2  0  0  0  0
  4  5  1  0  0  0  0
  5  6  2  0  0  0  0
  7  8  1  0  0  0  0
  7 12  2  0  0  0  0
  8  9  2  0  0  0  0
  9 10  1  0  0  0  0
 13  9  1  0  0  0  0
 10 11  2  0  0  0  0
 11 12  1  0  0  0  0
  3 14  1  0  0  0  0
  5 15  1  0  0  0  0
M  END