1,2,3,8,9-Pentabromodibenzofuran
  Mrv0541 10141421182D          

 18 20  0  0  0  0            999 V2000
    3.9604    0.2410    0.0000 C   0  0  0  0  0  0  0  0  0  0  0  0
    3.7054    1.0256    0.0000 C   0  0  0  0  0  0  0  0  0  0  0  0
    2.8985    1.1971    0.0000 C   0  0  0  0  0  0  0  0  0  0  0  0
    2.3464    0.5840    0.0000 C   0  0  0  0  0  0  0  0  0  0  0  0
    2.6014   -0.2006    0.0000 C   0  0  0  0  0  0  0  0  0  0  0  0
    3.4084   -0.3721    0.0000 C   0  0  0  0  0  0  0  0  0  0  0  0
    1.9339   -0.6855    0.0000 O   0  0  0  0  0  0  0  0  0  0  0  0
    1.2665   -0.2006    0.0000 C   0  0  0  0  0  0  0  0  0  0  0  0
    0.4595   -0.3721    0.0000 C   0  0  0  0  0  0  0  0  0  0  0  0
   -0.0925    0.2410    0.0000 C   0  0  0  0  0  0  0  0  0  0  0  0
    0.1624    1.0256    0.0000 C   0  0  0  0  0  0  0  0  0  0  0  0
    0.9694    1.1971    0.0000 C   0  0  0  0  0  0  0  0  0  0  0  0
    1.5214    0.5840    0.0000 C   0  0  0  0  0  0  0  0  0  0  0  0
    1.2243    1.9817    0.0000 Br  0  0  0  0  0  0  0  0  0  0  0  0
   -0.3896    1.6387    0.0000 Br  0  0  0  0  0  0  0  0  0  0  0  0
   -0.8995    0.0694    0.0000 Br  0  0  0  0  0  0  0  0  0  0  0  0
    4.2575    1.6387    0.0000 Br  0  0  0  0  0  0  0  0  0  0  0  0
    2.6435    1.9817    0.0000 Br  0  0  0  0  0  0  0  0  0  0  0  0
  1  2  1  0  0  0  0
  2  3  2  0  0  0  0
  3  4  1  0  0  0  0
  4  5  2  0  0  0  0
  5  6  1  0  0  0  0
  1  6  2  0  0  0  0
  5  7  1  0  0  0  0
  7  8  1  0  0  0  0
  8  9  1  0  0  0  0
  9 10  2  0  0  0  0
 10 11  1  0  0  0  0
 11 12  2  0  0  0  0
 12 13  1  0  0  0  0
  4 13  1  0  0  0  0
  8 13  2  0  0  0  0
 12 14  1  0  0  0  0
 11 15  1  0  0  0  0
 10 16  1  0  0  0  0
  2 17  1  0  0  0  0
  3 18  1  0  0  0  0
M  END