2,3,6,2',3'-Pentachlorobiphenyl
  Mrv0541 09181410542D          

 17 18  0  0  0  0            999 V2000
    1.4289    2.4750    0.0000 C   0  0  0  0  0  0  0  0  0  0  0  0
    1.4289    3.3000    0.0000 C   0  0  0  0  0  0  0  0  0  0  0  0
    0.7145    2.0625    0.0000 C   0  0  0  0  0  0  0  0  0  0  0  0
    1.4289    5.7750    0.0000 C   0  0  0  0  0  0  0  0  0  0  0  0
    0.7145    6.1875    0.0000 C   0  0  0  0  0  0  0  0  0  0  0  0
    0.7145    3.7125    0.0000 C   0  0  0  0  0  0  0  0  0  0  0  0
    1.4289    4.9500    0.0000 C   0  0  0  0  0  0  0  0  0  0  0  0
    0.0000    2.4750    0.0000 C   0  0  0  0  0  0  0  0  0  0  0  0
    0.0000    5.7750    0.0000 C   0  0  0  0  0  0  0  0  0  0  0  0
    0.7145    4.5375    0.0000 C   0  0  0  0  0  0  0  0  0  0  0  0
    0.0000    3.3000    0.0000 C   0  0  0  0  0  0  0  0  0  0  0  0
    0.0000    4.9500    0.0000 C   0  0  0  0  0  0  0  0  0  0  0  0
    2.1434    4.5375    0.0000 Cl  0  0  0  0  0  0  0  0  0  0  0  0
   -0.7145    2.0625    0.0000 Cl  0  0  0  0  0  0  0  0  0  0  0  0
   -0.7145    6.1875    0.0000 Cl  0  0  0  0  0  0  0  0  0  0  0  0
   -0.7145    3.7125    0.0000 Cl  0  0  0  0  0  0  0  0  0  0  0  0
   -0.7145    4.5375    0.0000 Cl  0  0  0  0  0  0  0  0  0  0  0  0
  2  1  2  0  0  0  0
  3  1  1  0  0  0  0
  5  4  2  0  0  0  0
  6  2  1  0  0  0  0
  7  4  1  0  0  0  0
  8  3  2  0  0  0  0
  9  5  1  0  0  0  0
 10  6  1  0  0  0  0
 10  7  2  0  0  0  0
 11  6  2  0  0  0  0
 11  8  1  0  0  0  0
 12  9  2  0  0  0  0
 12 10  1  0  0  0  0
 13  7  1  0  0  0  0
 14  8  1  0  0  0  0
 15  9  1  0  0  0  0
 16 11  1  0  0  0  0
 17 12  1  0  0  0  0
M  END