2,3,4,5,6,2',6'-Heptachlorobiphenyl
  Mrv0541 09181410542D          

 19 20  0  0  0  0            999 V2000
   -0.7145   -1.2375    0.0000 C   0  0  0  0  0  0  0  0  0  0  0  0
   -0.7145   -0.4125    0.0000 C   0  0  0  0  0  0  0  0  0  0  0  0
   -1.4289   -1.6500    0.0000 C   0  0  0  0  0  0  0  0  0  0  0  0
   -1.4289    0.0000    0.0000 C   0  0  0  0  0  0  0  0  0  0  0  0
   -2.1434   -1.2375    0.0000 C   0  0  0  0  0  0  0  0  0  0  0  0
   -2.1434   -0.4125    0.0000 C   0  0  0  0  0  0  0  0  0  0  0  0
   -2.8579    0.0000    0.0000 C   0  0  0  0  0  0  0  0  0  0  0  0
   -2.8579    0.8250    0.0000 C   0  0  0  0  0  0  0  0  0  0  0  0
   -3.5724   -0.4125    0.0000 C   0  0  0  0  0  0  0  0  0  0  0  0
   -3.5724    1.2375    0.0000 C   0  0  0  0  0  0  0  0  0  0  0  0
   -4.2868    0.0000    0.0000 C   0  0  0  0  0  0  0  0  0  0  0  0
   -4.2868    0.8250    0.0000 C   0  0  0  0  0  0  0  0  0  0  0  0
   -1.4289    0.8250    0.0000 Cl  0  0  0  0  0  0  0  0  0  0  0  0
   -2.8579   -1.6500    0.0000 Cl  0  0  0  0  0  0  0  0  0  0  0  0
   -2.1434    1.2375    0.0000 Cl  0  0  0  0  0  0  0  0  0  0  0  0
   -3.5724   -1.2375    0.0000 Cl  0  0  0  0  0  0  0  0  0  0  0  0
   -3.5724    2.0625    0.0000 Cl  0  0  0  0  0  0  0  0  0  0  0  0
   -5.0013   -0.4125    0.0000 Cl  0  0  0  0  0  0  0  0  0  0  0  0
   -5.0013    1.2375    0.0000 Cl  0  0  0  0  0  0  0  0  0  0  0  0
  2  1  2  0  0  0  0
  3  1  1  0  0  0  0
  4  2  1  0  0  0  0
  5  3  2  0  0  0  0
  6  4  2  0  0  0  0
  6  5  1  0  0  0  0
  7  6  1  0  0  0  0
  8  7  2  0  0  0  0
  9  7  1  0  0  0  0
 10  8  1  0  0  0  0
 11  9  2  0  0  0  0
 12 10  2  0  0  0  0
 12 11  1  0  0  0  0
 13  4  1  0  0  0  0
 14  5  1  0  0  0  0
 15  8  1  0  0  0  0
 16  9  1  0  0  0  0
 17 10  1  0  0  0  0
 18 11  1  0  0  0  0
 19 12  1  0  0  0  0
M  END