2,3,3'-trichlorobiphenyl
  Mrv0541 09181410542D          

 15 16  0  0  0  0            999 V2000
   -0.0000    3.3000    0.0000 C   0  0  0  0  0  0  0  0  0  0  0  0
    1.4289    0.0000    0.0000 C   0  0  0  0  0  0  0  0  0  0  0  0
    0.0000    2.4750    0.0000 C   0  0  0  0  0  0  0  0  0  0  0  0
    0.7145    3.7125    0.0000 C   0  0  0  0  0  0  0  0  0  0  0  0
    1.4289    0.8250    0.0000 C   0  0  0  0  0  0  0  0  0  0  0  0
    0.7145   -0.4125    0.0000 C   0  0  0  0  0  0  0  0  0  0  0  0
    1.4289    2.4750    0.0000 C   0  0  0  0  0  0  0  0  0  0  0  0
    0.7145    2.0625    0.0000 C   0  0  0  0  0  0  0  0  0  0  0  0
    1.4289    3.3000    0.0000 C   0  0  0  0  0  0  0  0  0  0  0  0
    0.7145    1.2375    0.0000 C   0  0  0  0  0  0  0  0  0  0  0  0
   -0.0000    0.0000    0.0000 C   0  0  0  0  0  0  0  0  0  0  0  0
   -0.0000    0.8250    0.0000 C   0  0  0  0  0  0  0  0  0  0  0  0
    2.1434    3.7125    0.0000 Cl  0  0  0  0  0  0  0  0  0  0  0  0
   -0.7145   -0.4125    0.0000 Cl  0  0  0  0  0  0  0  0  0  0  0  0
   -0.7145    1.2375    0.0000 Cl  0  0  0  0  0  0  0  0  0  0  0  0
  3  1  2  0  0  0  0
  4  1  1  0  0  0  0
  5  2  2  0  0  0  0
  6  2  1  0  0  0  0
  8  3  1  0  0  0  0
  8  7  2  0  0  0  0
  9  4  2  0  0  0  0
  9  7  1  0  0  0  0
 10  5  1  0  0  0  0
 10  8  1  0  0  0  0
 11  6  2  0  0  0  0
 12 10  2  0  0  0  0
 12 11  1  0  0  0  0
 13  9  1  0  0  0  0
 14 11  1  0  0  0  0
 15 12  1  0  0  0  0
M  END