2,3,5,2',3',5'-Hexachlorobiphenyl
  Mrv0541 09181410542D          

 18 19  0  0  0  0            999 V2000
    2.1434   -1.2375    0.0000 C   0  0  0  0  0  0  0  0  0  0  0  0
    1.4289    0.8250    0.0000 C   0  0  0  0  0  0  0  0  0  0  0  0
    3.5724   -1.2375    0.0000 C   0  0  0  0  0  0  0  0  0  0  0  0
    0.0000    0.8250    0.0000 C   0  0  0  0  0  0  0  0  0  0  0  0
    2.8579   -1.6500    0.0000 C   0  0  0  0  0  0  0  0  0  0  0  0
    0.7145    1.2375    0.0000 C   0  0  0  0  0  0  0  0  0  0  0  0
    2.1434   -0.4125    0.0000 C   0  0  0  0  0  0  0  0  0  0  0  0
    1.4289    0.0000    0.0000 C   0  0  0  0  0  0  0  0  0  0  0  0
    3.5724   -0.4125    0.0000 C   0  0  0  0  0  0  0  0  0  0  0  0
    0.0000   -0.0000    0.0000 C   0  0  0  0  0  0  0  0  0  0  0  0
    2.8579    0.0000    0.0000 C   0  0  0  0  0  0  0  0  0  0  0  0
    0.7145   -0.4125    0.0000 C   0  0  0  0  0  0  0  0  0  0  0  0
    2.8579   -2.4750    0.0000 Cl  0  0  0  0  0  0  0  0  0  0  0  0
    0.7145    2.0625    0.0000 Cl  0  0  0  0  0  0  0  0  0  0  0  0
    4.2868    0.0000    0.0000 Cl  0  0  0  0  0  0  0  0  0  0  0  0
   -0.7145   -0.4125    0.0000 Cl  0  0  0  0  0  0  0  0  0  0  0  0
    2.8579    0.8250    0.0000 Cl  0  0  0  0  0  0  0  0  0  0  0  0
    0.7145   -1.2375    0.0000 Cl  0  0  0  0  0  0  0  0  0  0  0  0
  5  1  2  0  0  0  0
  5  3  1  0  0  0  0
  6  2  2  0  0  0  0
  6  4  1  0  0  0  0
  7  1  1  0  0  0  0
  8  2  1  0  0  0  0
  8  7  1  0  0  0  0
  9  3  2  0  0  0  0
 10  4  2  0  0  0  0
 11  7  2  0  0  0  0
 11  9  1  0  0  0  0
 12  8  2  0  0  0  0
 12 10  1  0  0  0  0
 13  5  1  0  0  0  0
 14  6  1  0  0  0  0
 15  9  1  0  0  0  0
 16 10  1  0  0  0  0
 17 11  1  0  0  0  0
 18 12  1  0  0  0  0
M  END