2,3,4'-trichlorobiphenyl
  Mrv0541 09181410542D          

 15 16  0  0  0  0            999 V2000
   -0.7145    1.2375    0.0000 C   0  0  0  0  0  0  0  0  0  0  0  0
   -0.7145    2.0625    0.0000 C   0  0  0  0  0  0  0  0  0  0  0  0
   -1.4289    0.8250    0.0000 C   0  0  0  0  0  0  0  0  0  0  0  0
   -0.7145    3.7125    0.0000 C   0  0  0  0  0  0  0  0  0  0  0  0
   -2.1434    3.7125    0.0000 C   0  0  0  0  0  0  0  0  0  0  0  0
   -0.7145    4.5375    0.0000 C   0  0  0  0  0  0  0  0  0  0  0  0
   -2.1434    4.5375    0.0000 C   0  0  0  0  0  0  0  0  0  0  0  0
   -1.4289    3.3000    0.0000 C   0  0  0  0  0  0  0  0  0  0  0  0
   -1.4289    4.9500    0.0000 C   0  0  0  0  0  0  0  0  0  0  0  0
   -1.4289    2.4750    0.0000 C   0  0  0  0  0  0  0  0  0  0  0  0
   -2.1434    1.2375    0.0000 C   0  0  0  0  0  0  0  0  0  0  0  0
   -2.1434    2.0625    0.0000 C   0  0  0  0  0  0  0  0  0  0  0  0
   -1.4289    5.7750    0.0000 Cl  0  0  0  0  0  0  0  0  0  0  0  0
   -2.8579    0.8250    0.0000 Cl  0  0  0  0  0  0  0  0  0  0  0  0
   -2.8579    2.4750    0.0000 Cl  0  0  0  0  0  0  0  0  0  0  0  0
  2  1  2  0  0  0  0
  3  1  1  0  0  0  0
  6  4  1  0  0  0  0
  7  5  2  0  0  0  0
  8  4  2  0  0  0  0
  8  5  1  0  0  0  0
  9  6  2  0  0  0  0
  9  7  1  0  0  0  0
 10  2  1  0  0  0  0
 10  8  1  0  0  0  0
 11  3  2  0  0  0  0
 12 10  2  0  0  0  0
 12 11  1  0  0  0  0
 13  9  1  0  0  0  0
 14 11  1  0  0  0  0
 15 12  1  0  0  0  0
M  END