2,3,4,5,2',6'-Hexachlorobiphenyl
  Mrv0541 09181410542D          

 18 19  0  0  0  0            999 V2000
    1.4289   -2.4750    0.0000 C   0  0  0  0  0  0  0  0  0  0  0  0
    1.4289   -1.6500    0.0000 C   0  0  0  0  0  0  0  0  0  0  0  0
    0.7145   -2.8875    0.0000 C   0  0  0  0  0  0  0  0  0  0  0  0
   -1.4289   -1.6500    0.0000 C   0  0  0  0  0  0  0  0  0  0  0  0
   -0.7145   -1.2375    0.0000 C   0  0  0  0  0  0  0  0  0  0  0  0
    0.7145   -1.2375    0.0000 C   0  0  0  0  0  0  0  0  0  0  0  0
   -0.0000   -2.4750    0.0000 C   0  0  0  0  0  0  0  0  0  0  0  0
   -2.1434   -1.2375    0.0000 C   0  0  0  0  0  0  0  0  0  0  0  0
   -0.0000   -1.6500    0.0000 C   0  0  0  0  0  0  0  0  0  0  0  0
   -0.7145   -0.4125    0.0000 C   0  0  0  0  0  0  0  0  0  0  0  0
   -2.1434   -0.4125    0.0000 C   0  0  0  0  0  0  0  0  0  0  0  0
   -1.4289   -0.0000    0.0000 C   0  0  0  0  0  0  0  0  0  0  0  0
    0.7145   -0.4125    0.0000 Cl  0  0  0  0  0  0  0  0  0  0  0  0
   -0.7145   -2.8875    0.0000 Cl  0  0  0  0  0  0  0  0  0  0  0  0
   -2.8579   -1.6500    0.0000 Cl  0  0  0  0  0  0  0  0  0  0  0  0
   -0.0000    0.0000    0.0000 Cl  0  0  0  0  0  0  0  0  0  0  0  0
   -2.8579   -0.0000    0.0000 Cl  0  0  0  0  0  0  0  0  0  0  0  0
   -1.4289    0.8250    0.0000 Cl  0  0  0  0  0  0  0  0  0  0  0  0
  2  1  2  0  0  0  0
  3  1  1  0  0  0  0
  5  4  2  0  0  0  0
  6  2  1  0  0  0  0
  7  3  2  0  0  0  0
  8  4  1  0  0  0  0
  9  5  1  0  0  0  0
  9  6  2  0  0  0  0
  9  7  1  0  0  0  0
 10  5  1  0  0  0  0
 11  8  2  0  0  0  0
 12 10  2  0  0  0  0
 12 11  1  0  0  0  0
 13  6  1  0  0  0  0
 14  7  1  0  0  0  0
 15  8  1  0  0  0  0
 16 10  1  0  0  0  0
 17 11  1  0  0  0  0
 18 12  1  0  0  0  0
M  END