2,3,5,6,3'-Pentachlorobiphenyl
  Mrv0541 09181410542D          

 17 18  0  0  0  0            999 V2000
    3.5724    1.2375    0.0000 C   0  0  0  0  0  0  0  0  0  0  0  0
    3.5724    2.0625    0.0000 C   0  0  0  0  0  0  0  0  0  0  0  0
    2.8579    0.8250    0.0000 C   0  0  0  0  0  0  0  0  0  0  0  0
    2.1434    2.0625    0.0000 C   0  0  0  0  0  0  0  0  0  0  0  0
    2.8579    4.9500    0.0000 C   0  0  0  0  0  0  0  0  0  0  0  0
    2.8579    2.4750    0.0000 C   0  0  0  0  0  0  0  0  0  0  0  0
    2.1434    1.2375    0.0000 C   0  0  0  0  0  0  0  0  0  0  0  0
    2.1434    4.5375    0.0000 C   0  0  0  0  0  0  0  0  0  0  0  0
    3.5724    4.5375    0.0000 C   0  0  0  0  0  0  0  0  0  0  0  0
    2.8579    3.3000    0.0000 C   0  0  0  0  0  0  0  0  0  0  0  0
    2.1434    3.7125    0.0000 C   0  0  0  0  0  0  0  0  0  0  0  0
    3.5724    3.7125    0.0000 C   0  0  0  0  0  0  0  0  0  0  0  0
    1.4289    0.8250    0.0000 Cl  0  0  0  0  0  0  0  0  0  0  0  0
    1.4289    4.9500    0.0000 Cl  0  0  0  0  0  0  0  0  0  0  0  0
    4.2868    4.9500    0.0000 Cl  0  0  0  0  0  0  0  0  0  0  0  0
    1.4289    3.3000    0.0000 Cl  0  0  0  0  0  0  0  0  0  0  0  0
    4.2868    3.3000    0.0000 Cl  0  0  0  0  0  0  0  0  0  0  0  0
  2  1  2  0  0  0  0
  3  1  1  0  0  0  0
  6  2  1  0  0  0  0
  6  4  2  0  0  0  0
  7  3  2  0  0  0  0
  7  4  1  0  0  0  0
  8  5  2  0  0  0  0
  9  5  1  0  0  0  0
 10  6  1  0  0  0  0
 11  8  1  0  0  0  0
 11 10  2  0  0  0  0
 12  9  2  0  0  0  0
 12 10  1  0  0  0  0
 13  7  1  0  0  0  0
 14  8  1  0  0  0  0
 15  9  1  0  0  0  0
 16 11  1  0  0  0  0
 17 12  1  0  0  0  0
M  END