2,3-Dichlorodibenzo-p-dioxin
  Mrv0541 09181410542D          

 16 18  0  0  0  0            999 V2000
    5.0013    1.2375    0.0000 C   0  0  0  0  0  0  0  0  0  0  0  0
    5.0013    2.0625    0.0000 C   0  0  0  0  0  0  0  0  0  0  0  0
    4.2868    0.8250    0.0000 C   0  0  0  0  0  0  0  0  0  0  0  0
    4.2868    2.4750    0.0000 C   0  0  0  0  0  0  0  0  0  0  0  0
    1.4289    0.8250    0.0000 C   0  0  0  0  0  0  0  0  0  0  0  0
    1.4289    2.4750    0.0000 C   0  0  0  0  0  0  0  0  0  0  0  0
    0.7145    1.2375    0.0000 C   0  0  0  0  0  0  0  0  0  0  0  0
    0.7145    2.0625    0.0000 C   0  0  0  0  0  0  0  0  0  0  0  0
    3.5724    1.2375    0.0000 C   0  0  0  0  0  0  0  0  0  0  0  0
    3.5724    2.0625    0.0000 C   0  0  0  0  0  0  0  0  0  0  0  0
    2.1434    1.2375    0.0000 C   0  0  0  0  0  0  0  0  0  0  0  0
    2.1434    2.0625    0.0000 C   0  0  0  0  0  0  0  0  0  0  0  0
    0.0000    0.8250    0.0000 Cl  0  0  0  0  0  0  0  0  0  0  0  0
   -0.0000    2.4750    0.0000 Cl  0  0  0  0  0  0  0  0  0  0  0  0
    2.8579    0.8250    0.0000 O   0  0  0  0  0  0  0  0  0  0  0  0
    2.8579    2.4750    0.0000 O   0  0  0  0  0  0  0  0  0  0  0  0
  2  1  2  0  0  0  0
  3  1  1  0  0  0  0
  4  2  1  0  0  0  0
  7  5  2  0  0  0  0
  8  6  2  0  0  0  0
  8  7  1  0  0  0  0
  9  3  2  0  0  0  0
 10  4  2  0  0  0  0
 10  9  1  0  0  0  0
 11  5  1  0  0  0  0
 12  6  1  0  0  0  0
 12 11  2  0  0  0  0
 13  7  1  0  0  0  0
 14  8  1  0  0  0  0
 15  9  1  0  0  0  0
 15 11  1  0  0  0  0
 16 10  1  0  0  0  0
 16 12  1  0  0  0  0
M  END