
  Mrv0541 10151410472D          

 17 18  0  0  0  0            999 V2000
    0.4827   -0.7536    0.0000 C   0  0  0  0  0  0  0  0  0  0  0  0
    1.1972   -1.1661    0.0000 C   0  0  0  0  0  0  0  0  0  0  0  0
    1.1972   -1.9911    0.0000 C   0  0  0  0  0  0  0  0  0  0  0  0
    0.4827   -2.4036    0.0000 C   0  0  0  0  0  0  0  0  0  0  0  0
   -0.2317   -1.9911    0.0000 C   0  0  0  0  0  0  0  0  0  0  0  0
   -0.2317   -1.1661    0.0000 C   0  0  0  0  0  0  0  0  0  0  0  0
   -0.9462    1.7214    0.0000 C   0  0  0  0  0  0  0  0  0  0  0  0
   -0.2317    1.3089    0.0000 C   0  0  0  0  0  0  0  0  0  0  0  0
   -0.2317    0.4839    0.0000 C   0  0  0  0  0  0  0  0  0  0  0  0
   -0.9462    0.0714    0.0000 C   0  0  0  0  0  0  0  0  0  0  0  0
   -1.6607    0.4839    0.0000 C   0  0  0  0  0  0  0  0  0  0  0  0
   -1.6607    1.3089    0.0000 C   0  0  0  0  0  0  0  0  0  0  0  0
    0.4827    0.0714    0.0000 O   0  0  0  0  0  0  0  0  0  0  0  0
    1.9117   -0.7536    0.0000 Cl  0  0  0  0  0  0  0  0  0  0  0  0
    0.4827   -3.2286    0.0000 Cl  0  0  0  0  0  0  0  0  0  0  0  0
   -0.9462   -0.7536    0.0000 Cl  0  0  0  0  0  0  0  0  0  0  0  0
   -0.9462    2.5464    0.0000 Cl  0  0  0  0  0  0  0  0  0  0  0  0
  1  2  2  0  0  0  0
  1  6  1  0  0  0  0
  1 13  1  0  0  0  0
  2  3  1  0  0  0  0
  3  4  2  0  0  0  0
  4  5  1  0  0  0  0
  5  6  2  0  0  0  0
  7  8  1  0  0  0  0
  7 12  2  0  0  0  0
  8  9  2  0  0  0  0
  9 10  1  0  0  0  0
 13  9  1  0  0  0  0
 10 11  2  0  0  0  0
 11 12  1  0  0  0  0
  2 14  1  0  0  0  0
  4 15  1  0  0  0  0
  6 16  1  0  0  0  0
  7 17  1  0  0  0  0
M  END