2-chlorodiphenyl ether
  Mrv0541 09181410542D          

 14 15  0  0  0  0            999 V2000
    2.1434    2.0625    0.0000 C   0  0  0  0  0  0  0  0  0  0  0  0
    2.8579    2.4750    0.0000 C   0  0  0  0  0  0  0  0  0  0  0  0
    1.4289    2.4750    0.0000 C   0  0  0  0  0  0  0  0  0  0  0  0
    4.2868    5.7750    0.0000 C   0  0  0  0  0  0  0  0  0  0  0  0
    3.5724    6.1875    0.0000 C   0  0  0  0  0  0  0  0  0  0  0  0
    2.8579    3.3000    0.0000 C   0  0  0  0  0  0  0  0  0  0  0  0
    1.4289    3.3000    0.0000 C   0  0  0  0  0  0  0  0  0  0  0  0
    4.2868    4.9500    0.0000 C   0  0  0  0  0  0  0  0  0  0  0  0
    2.8579    5.7750    0.0000 C   0  0  0  0  0  0  0  0  0  0  0  0
    2.1434    3.7125    0.0000 C   0  0  0  0  0  0  0  0  0  0  0  0
    3.5724    4.5375    0.0000 C   0  0  0  0  0  0  0  0  0  0  0  0
    2.8579    4.9500    0.0000 C   0  0  0  0  0  0  0  0  0  0  0  0
    3.5724    3.7125    0.0000 Cl  0  0  0  0  0  0  0  0  0  0  0  0
    2.1434    4.5375    0.0000 O   0  0  0  0  0  0  0  0  0  0  0  0
  2  1  2  0  0  0  0
  3  1  1  0  0  0  0
  5  4  2  0  0  0  0
  6  2  1  0  0  0  0
  7  3  2  0  0  0  0
  8  4  1  0  0  0  0
  9  5  1  0  0  0  0
 10  6  2  0  0  0  0
 10  7  1  0  0  0  0
 11  8  2  0  0  0  0
 12  9  2  0  0  0  0
 12 11  1  0  0  0  0
 13 11  1  0  0  0  0
 14 10  1  0  0  0  0
 14 12  1  0  0  0  0
M  END