2,3,4,5,6,3',4'-Heptachlorodiphenyl ether
  Mrv0541 09181410542D          

 20 21  0  0  0  0            999 V2000
    2.8579    2.4750    0.0000 C   0  0  0  0  0  0  0  0  0  0  0  0
    2.8579    3.3000    0.0000 C   0  0  0  0  0  0  0  0  0  0  0  0
    1.4289    2.4750    0.0000 C   0  0  0  0  0  0  0  0  0  0  0  0
    2.1434    2.0625    0.0000 C   0  0  0  0  0  0  0  0  0  0  0  0
    2.1434    3.7125    0.0000 C   0  0  0  0  0  0  0  0  0  0  0  0
    1.4289    3.3000    0.0000 C   0  0  0  0  0  0  0  0  0  0  0  0
    0.0000    0.0000    0.0000 C   0  0  0  0  0  0  0  0  0  0  0  0
    0.7145   -0.4125    0.0000 C   0  0  0  0  0  0  0  0  0  0  0  0
    0.0000    0.8250    0.0000 C   0  0  0  0  0  0  0  0  0  0  0  0
    1.4289   -0.0000    0.0000 C   0  0  0  0  0  0  0  0  0  0  0  0
    0.7145    1.2375    0.0000 C   0  0  0  0  0  0  0  0  0  0  0  0
    1.4289    0.8250    0.0000 C   0  0  0  0  0  0  0  0  0  0  0  0
    2.1434    4.5375    0.0000 Cl  0  0  0  0  0  0  0  0  0  0  0  0
    0.7145    3.7125    0.0000 Cl  0  0  0  0  0  0  0  0  0  0  0  0
   -0.7145   -0.4125    0.0000 Cl  0  0  0  0  0  0  0  0  0  0  0  0
    0.7145   -1.2375    0.0000 Cl  0  0  0  0  0  0  0  0  0  0  0  0
   -0.7145    1.2375    0.0000 Cl  0  0  0  0  0  0  0  0  0  0  0  0
    2.1434   -0.4125    0.0000 Cl  0  0  0  0  0  0  0  0  0  0  0  0
    0.7145    2.0625    0.0000 Cl  0  0  0  0  0  0  0  0  0  0  0  0
    2.1434    1.2375    0.0000 O   0  0  0  0  0  0  0  0  0  0  0  0
  2  1  2  0  0  0  0
  4  1  1  0  0  0  0
  4  3  2  0  0  0  0
  5  2  1  0  0  0  0
  6  3  1  0  0  0  0
  6  5  2  0  0  0  0
  8  7  2  0  0  0  0
  9  7  1  0  0  0  0
 10  8  1  0  0  0  0
 11  9  2  0  0  0  0
 12 10  2  0  0  0  0
 12 11  1  0  0  0  0
 13  5  1  0  0  0  0
 14  6  1  0  0  0  0
 15  7  1  0  0  0  0
 16  8  1  0  0  0  0
 17  9  1  0  0  0  0
 18 10  1  0  0  0  0
 19 11  1  0  0  0  0
 20  4  1  0  0  0  0
 20 12  1  0  0  0  0
M  END