2,3,4,5,2',3',5',6'-Octachlorodiphenyl ether
  Mrv0541 09181410542D          

 21 22  0  0  0  0            999 V2000
    4.2868    0.8250    0.0000 C   0  0  0  0  0  0  0  0  0  0  0  0
    1.4289    0.8250    0.0000 C   0  0  0  0  0  0  0  0  0  0  0  0
    3.5724    1.2375    0.0000 C   0  0  0  0  0  0  0  0  0  0  0  0
    4.2868    0.0000    0.0000 C   0  0  0  0  0  0  0  0  0  0  0  0
    0.7145    1.2375    0.0000 C   0  0  0  0  0  0  0  0  0  0  0  0
    1.4289    0.0000    0.0000 C   0  0  0  0  0  0  0  0  0  0  0  0
    0.0000    0.8250    0.0000 C   0  0  0  0  0  0  0  0  0  0  0  0
    2.8579    0.8250    0.0000 C   0  0  0  0  0  0  0  0  0  0  0  0
    3.5724   -0.4125    0.0000 C   0  0  0  0  0  0  0  0  0  0  0  0
    0.7145   -0.4125    0.0000 C   0  0  0  0  0  0  0  0  0  0  0  0
    0.0000   -0.0000    0.0000 C   0  0  0  0  0  0  0  0  0  0  0  0
    2.8579    0.0000    0.0000 C   0  0  0  0  0  0  0  0  0  0  0  0
    3.5724    2.0625    0.0000 Cl  0  0  0  0  0  0  0  0  0  0  0  0
    5.0013   -0.4125    0.0000 Cl  0  0  0  0  0  0  0  0  0  0  0  0
    0.7145    2.0625    0.0000 Cl  0  0  0  0  0  0  0  0  0  0  0  0
   -0.7145    1.2375    0.0000 Cl  0  0  0  0  0  0  0  0  0  0  0  0
    2.1434    1.2375    0.0000 Cl  0  0  0  0  0  0  0  0  0  0  0  0
    3.5724   -1.2375    0.0000 Cl  0  0  0  0  0  0  0  0  0  0  0  0
    0.7145   -1.2375    0.0000 Cl  0  0  0  0  0  0  0  0  0  0  0  0
   -0.7145   -0.4125    0.0000 Cl  0  0  0  0  0  0  0  0  0  0  0  0
    2.1434   -0.4125    0.0000 O   0  0  0  0  0  0  0  0  0  0  0  0
  3  1  2  0  0  0  0
  4  1  1  0  0  0  0
  5  2  2  0  0  0  0
  6  2  1  0  0  0  0
  7  5  1  0  0  0  0
  8  3  1  0  0  0  0
  9  4  2  0  0  0  0
 10  6  2  0  0  0  0
 11  7  2  0  0  0  0
 11 10  1  0  0  0  0
 12  8  2  0  0  0  0
 12  9  1  0  0  0  0
 13  3  1  0  0  0  0
 14  4  1  0  0  0  0
 15  5  1  0  0  0  0
 16  7  1  0  0  0  0
 17  8  1  0  0  0  0
 18  9  1  0  0  0  0
 19 10  1  0  0  0  0
 20 11  1  0  0  0  0
 21  6  1  0  0  0  0
 21 12  1  0  0  0  0
M  END