2,3,4,2',5'-Pentachlorodiphenyl ether
  Mrv0541 09181410542D          

 18 19  0  0  0  0            999 V2000
    2.8579    0.0000    0.0000 C   0  0  0  0  0  0  0  0  0  0  0  0
    2.8579    0.8250    0.0000 C   0  0  0  0  0  0  0  0  0  0  0  0
    7.1447    0.8250    0.0000 C   0  0  0  0  0  0  0  0  0  0  0  0
    6.4302    1.2375    0.0000 C   0  0  0  0  0  0  0  0  0  0  0  0
    4.2868   -0.0000    0.0000 C   0  0  0  0  0  0  0  0  0  0  0  0
    3.5724   -0.4125    0.0000 C   0  0  0  0  0  0  0  0  0  0  0  0
    3.5724    1.2375    0.0000 C   0  0  0  0  0  0  0  0  0  0  0  0
    7.1447    0.0000    0.0000 C   0  0  0  0  0  0  0  0  0  0  0  0
    5.7158    0.8250    0.0000 C   0  0  0  0  0  0  0  0  0  0  0  0
    4.2868    0.8250    0.0000 C   0  0  0  0  0  0  0  0  0  0  0  0
    6.4302   -0.4125    0.0000 C   0  0  0  0  0  0  0  0  0  0  0  0
    5.7158    0.0000    0.0000 C   0  0  0  0  0  0  0  0  0  0  0  0
    3.5724   -1.2375    0.0000 Cl  0  0  0  0  0  0  0  0  0  0  0  0
    3.5724    2.0625    0.0000 Cl  0  0  0  0  0  0  0  0  0  0  0  0
    7.8592   -0.4125    0.0000 Cl  0  0  0  0  0  0  0  0  0  0  0  0
    6.4302   -1.2375    0.0000 Cl  0  0  0  0  0  0  0  0  0  0  0  0
    5.0013   -0.4125    0.0000 Cl  0  0  0  0  0  0  0  0  0  0  0  0
    5.0013    1.2375    0.0000 O   0  0  0  0  0  0  0  0  0  0  0  0
  2  1  2  0  0  0  0
  4  3  2  0  0  0  0
  6  1  1  0  0  0  0
  6  5  2  0  0  0  0
  7  2  1  0  0  0  0
  8  3  1  0  0  0  0
  9  4  1  0  0  0  0
 10  5  1  0  0  0  0
 10  7  2  0  0  0  0
 11  8  2  0  0  0  0
 12  9  2  0  0  0  0
 12 11  1  0  0  0  0
 13  6  1  0  0  0  0
 14  7  1  0  0  0  0
 15  8  1  0  0  0  0
 16 11  1  0  0  0  0
 17 12  1  0  0  0  0
 18  9  1  0  0  0  0
 18 10  1  0  0  0  0
M  END