2,3,4,7,8-Pentachlorodibenzofuran
  Mrv0541 09181410542D          

 18 20  0  0  0  0            999 V2000
    3.4056   -1.1885    0.0000 C   0  0  0  0  0  0  0  0  0  0  0  0
    1.4765   -1.1885    0.0000 C   0  0  0  0  0  0  0  0  0  0  0  0
    3.9154   -2.7578    0.0000 C   0  0  0  0  0  0  0  0  0  0  0  0
    2.8535   -1.8016    0.0000 C   0  0  0  0  0  0  0  0  0  0  0  0
    2.0285   -1.8016    0.0000 C   0  0  0  0  0  0  0  0  0  0  0  0
    4.2125   -1.3601    0.0000 C   0  0  0  0  0  0  0  0  0  0  0  0
    4.4675   -2.1447    0.0000 C   0  0  0  0  0  0  0  0  0  0  0  0
    0.6695   -1.3601    0.0000 C   0  0  0  0  0  0  0  0  0  0  0  0
    3.1085   -2.5862    0.0000 C   0  0  0  0  0  0  0  0  0  0  0  0
    0.4146   -2.1447    0.0000 C   0  0  0  0  0  0  0  0  0  0  0  0
    0.9666   -2.7578    0.0000 C   0  0  0  0  0  0  0  0  0  0  0  0
    1.7736   -2.5862    0.0000 C   0  0  0  0  0  0  0  0  0  0  0  0
    4.7646   -0.7470    0.0000 Cl  0  0  0  0  0  0  0  0  0  0  0  0
    5.2744   -2.3162    0.0000 Cl  0  0  0  0  0  0  0  0  0  0  0  0
    0.1175   -0.7470    0.0000 Cl  0  0  0  0  0  0  0  0  0  0  0  0
   -0.3924   -2.3162    0.0000 Cl  0  0  0  0  0  0  0  0  0  0  0  0
    0.7117   -3.5424    0.0000 Cl  0  0  0  0  0  0  0  0  0  0  0  0
    2.4410   -3.0712    0.0000 O   0  0  0  0  0  0  0  0  0  0  0  0
  4  1  1  0  0  0  0
  5  2  2  0  0  0  0
  5  4  1  0  0  0  0
  6  1  2  0  0  0  0
  7  3  2  0  0  0  0
  7  6  1  0  0  0  0
  8  2  1  0  0  0  0
  9  3  1  0  0  0  0
  9  4  2  0  0  0  0
 10  8  2  0  0  0  0
 11 10  1  0  0  0  0
 12  5  1  0  0  0  0
 12 11  2  0  0  0  0
 13  6  1  0  0  0  0
 14  7  1  0  0  0  0
 15  8  1  0  0  0  0
 16 10  1  0  0  0  0
 17 11  1  0  0  0  0
 18  9  1  0  0  0  0
 18 12  1  0  0  0  0
M  END