1,2,3,4,7,8-Hexachlorodibenzofuran
  Mrv0541 09181410542D          

 19 21  0  0  0  0            999 V2000
    2.8985    1.1971    0.0000 C   0  0  0  0  0  0  0  0  0  0  0  0
    3.4084   -0.3721    0.0000 C   0  0  0  0  0  0  0  0  0  0  0  0
    2.3464    0.5840    0.0000 C   0  0  0  0  0  0  0  0  0  0  0  0
    3.7054    1.0256    0.0000 C   0  0  0  0  0  0  0  0  0  0  0  0
    3.9604    0.2410    0.0000 C   0  0  0  0  0  0  0  0  0  0  0  0
    2.6014   -0.2006    0.0000 C   0  0  0  0  0  0  0  0  0  0  0  0
    1.5214    0.5840    0.0000 C   0  0  0  0  0  0  0  0  0  0  0  0
    0.9694    1.1971    0.0000 C   0  0  0  0  0  0  0  0  0  0  0  0
    0.1624    1.0256    0.0000 C   0  0  0  0  0  0  0  0  0  0  0  0
   -0.0925    0.2410    0.0000 C   0  0  0  0  0  0  0  0  0  0  0  0
    0.4595   -0.3721    0.0000 C   0  0  0  0  0  0  0  0  0  0  0  0
    1.2665   -0.2006    0.0000 C   0  0  0  0  0  0  0  0  0  0  0  0
    4.2575    1.6387    0.0000 Cl  0  0  0  0  0  0  0  0  0  0  0  0
    4.7674    0.0694    0.0000 Cl  0  0  0  0  0  0  0  0  0  0  0  0
    1.2243    1.9817    0.0000 Cl  0  0  0  0  0  0  0  0  0  0  0  0
   -0.3896    1.6387    0.0000 Cl  0  0  0  0  0  0  0  0  0  0  0  0
   -0.8995    0.0694    0.0000 Cl  0  0  0  0  0  0  0  0  0  0  0  0
    0.2046   -1.1567    0.0000 Cl  0  0  0  0  0  0  0  0  0  0  0  0
    1.9339   -0.6855    0.0000 O   0  0  0  0  0  0  0  0  0  0  0  0
  3  1  1  0  0  0  0
  4  1  2  0  0  0  0
  5  2  2  0  0  0  0
  5  4  1  0  0  0  0
  6  2  1  0  0  0  0
  6  3  2  0  0  0  0
  7  3  1  0  0  0  0
  8  7  2  0  0  0  0
  9  8  1  0  0  0  0
 10  9  2  0  0  0  0
 11 10  1  0  0  0  0
 12  7  1  0  0  0  0
 12 11  2  0  0  0  0
 13  4  1  0  0  0  0
 14  5  1  0  0  0  0
 15  8  1  0  0  0  0
 16  9  1  0  0  0  0
 17 10  1  0  0  0  0
 18 11  1  0  0  0  0
 19  6  1  0  0  0  0
 19 12  1  0  0  0  0
M  END