Octachlorodibenzofuran
  Mrv0541 09181410542D          

 21 23  0  0  0  0            999 V2000
    0.0269   -0.5127    0.0000 C   0  0  0  0  0  0  0  0  0  0  0  0
   -0.7981   -0.5127    0.0000 C   0  0  0  0  0  0  0  0  0  0  0  0
    0.5789   -1.1258    0.0000 C   0  0  0  0  0  0  0  0  0  0  0  0
   -1.3502   -1.1258    0.0000 C   0  0  0  0  0  0  0  0  0  0  0  0
    1.3859   -0.9543    0.0000 C   0  0  0  0  0  0  0  0  0  0  0  0
   -2.1571   -0.9543    0.0000 C   0  0  0  0  0  0  0  0  0  0  0  0
    1.6408   -0.1696    0.0000 C   0  0  0  0  0  0  0  0  0  0  0  0
   -2.4121   -0.1696    0.0000 C   0  0  0  0  0  0  0  0  0  0  0  0
    1.0888    0.4434    0.0000 C   0  0  0  0  0  0  0  0  0  0  0  0
   -1.8600    0.4434    0.0000 C   0  0  0  0  0  0  0  0  0  0  0  0
    0.2818    0.2719    0.0000 C   0  0  0  0  0  0  0  0  0  0  0  0
   -1.0531    0.2719    0.0000 C   0  0  0  0  0  0  0  0  0  0  0  0
    0.3240   -1.9104    0.0000 Cl  0  0  0  0  0  0  0  0  0  0  0  0
   -1.0952   -1.9104    0.0000 Cl  0  0  0  0  0  0  0  0  0  0  0  0
    1.9379   -1.5674    0.0000 Cl  0  0  0  0  0  0  0  0  0  0  0  0
   -2.7092   -1.5674    0.0000 Cl  0  0  0  0  0  0  0  0  0  0  0  0
    2.4478    0.0019    0.0000 Cl  0  0  0  0  0  0  0  0  0  0  0  0
   -3.2190    0.0019    0.0000 Cl  0  0  0  0  0  0  0  0  0  0  0  0
    1.3437    1.2281    0.0000 Cl  0  0  0  0  0  0  0  0  0  0  0  0
   -2.1150    1.2281    0.0000 Cl  0  0  0  0  0  0  0  0  0  0  0  0
   -0.3856    0.7568    0.0000 O   0  0  0  0  0  0  0  0  0  0  0  0
  2  1  1  0  0  0  0
  3  1  1  0  0  0  0
  4  2  1  0  0  0  0
  5  3  2  0  0  0  0
  6  4  2  0  0  0  0
  7  5  1  0  0  0  0
  8  6  1  0  0  0  0
  9  7  2  0  0  0  0
 10  8  2  0  0  0  0
 11  1  2  0  0  0  0
 11  9  1  0  0  0  0
 12  2  2  0  0  0  0
 12 10  1  0  0  0  0
 13  3  1  0  0  0  0
 14  4  1  0  0  0  0
 15  5  1  0  0  0  0
 16  6  1  0  0  0  0
 17  7  1  0  0  0  0
 18  8  1  0  0  0  0
 19  9  1  0  0  0  0
 20 10  1  0  0  0  0
 21 11  1  0  0  0  0
 21 12  1  0  0  0  0
M  END