Dibenzofuran
  Mrv0541 09181410542D          

 13 15  0  0  0  0            999 V2000
    4.2125    2.1851    0.0000 C   0  0  0  0  0  0  0  0  0  0  0  0
    0.6695    2.1851    0.0000 C   0  0  0  0  0  0  0  0  0  0  0  0
    4.4675    2.9697    0.0000 C   0  0  0  0  0  0  0  0  0  0  0  0
    0.4146    2.9697    0.0000 C   0  0  0  0  0  0  0  0  0  0  0  0
    3.4056    2.0135    0.0000 C   0  0  0  0  0  0  0  0  0  0  0  0
    1.4765    2.0135    0.0000 C   0  0  0  0  0  0  0  0  0  0  0  0
    3.9154    3.5828    0.0000 C   0  0  0  0  0  0  0  0  0  0  0  0
    0.9666    3.5828    0.0000 C   0  0  0  0  0  0  0  0  0  0  0  0
    2.8535    2.6266    0.0000 C   0  0  0  0  0  0  0  0  0  0  0  0
    2.0285    2.6266    0.0000 C   0  0  0  0  0  0  0  0  0  0  0  0
    3.1085    3.4112    0.0000 C   0  0  0  0  0  0  0  0  0  0  0  0
    1.7736    3.4112    0.0000 C   0  0  0  0  0  0  0  0  0  0  0  0
    2.4410    3.8962    0.0000 O   0  0  0  0  0  0  0  0  0  0  0  0
  3  1  2  0  0  0  0
  4  2  2  0  0  0  0
  5  1  1  0  0  0  0
  6  2  1  0  0  0  0
  7  3  1  0  0  0  0
  8  4  1  0  0  0  0
  9  5  2  0  0  0  0
 10  6  2  0  0  0  0
 10  9  1  0  0  0  0
 11  7  2  0  0  0  0
 11  9  1  0  0  0  0
 12  8  2  0  0  0  0
 12 10  1  0  0  0  0
 13 11  1  0  0  0  0
 13 12  1  0  0  0  0
M  END