4-monobromodiphenyl ether
  Mrv0541 02261416282D          

 14 15  0  0  0  0            999 V2000
    0.7774   -0.4148    0.0000 C   0  0  0  0  0  0  0  0  0  0  0  0
    1.4918   -0.8273    0.0000 C   0  0  0  0  0  0  0  0  0  0  0  0
    1.4918   -1.6523    0.0000 C   0  0  0  0  0  0  0  0  0  0  0  0
    0.7774   -2.0648    0.0000 C   0  0  0  0  0  0  0  0  0  0  0  0
    0.0629   -1.6523    0.0000 C   0  0  0  0  0  0  0  0  0  0  0  0
    0.0629   -0.8273    0.0000 C   0  0  0  0  0  0  0  0  0  0  0  0
   -0.6516    2.0602    0.0000 C   0  0  0  0  0  0  0  0  0  0  0  0
    0.0629    1.6477    0.0000 C   0  0  0  0  0  0  0  0  0  0  0  0
    0.0629    0.8227    0.0000 C   0  0  0  0  0  0  0  0  0  0  0  0
   -0.6516    0.4102    0.0000 C   0  0  0  0  0  0  0  0  0  0  0  0
   -1.3660    0.8227    0.0000 C   0  0  0  0  0  0  0  0  0  0  0  0
   -1.3660    1.6477    0.0000 C   0  0  0  0  0  0  0  0  0  0  0  0
    0.7774    0.4102    0.0000 O   0  0  0  0  0  0  0  0  0  0  0  0
    0.7774   -2.8898    0.0000 Br  0  0  0  0  0  0  0  0  0  0  0  0
  1  2  2  0  0  0  0
  1  6  1  0  0  0  0
  1 13  1  0  0  0  0
  2  3  1  0  0  0  0
  3  4  2  0  0  0  0
  4  5  1  0  0  0  0
  5  6  2  0  0  0  0
  7  8  1  0  0  0  0
  7 12  2  0  0  0  0
  8  9  2  0  0  0  0
  9 10  1  0  0  0  0
 13  9  1  0  0  0  0
 10 11  2  0  0  0  0
 11 12  1  0  0  0  0
  4 14  1  0  0  0  0
M  END