2,3-dibromodiphenyl ether
  Mrv0541 02261416282D          

 15 16  0  0  0  0            999 V2000
    1.7792   -1.4166    0.0000 C   0  0  0  0  0  0  0  0  0  0  0  0
    2.4936   -1.8291    0.0000 C   0  0  0  0  0  0  0  0  0  0  0  0
    2.4936   -2.6541    0.0000 C   0  0  0  0  0  0  0  0  0  0  0  0
    1.7792   -3.0666    0.0000 C   0  0  0  0  0  0  0  0  0  0  0  0
    1.0647   -2.6541    0.0000 C   0  0  0  0  0  0  0  0  0  0  0  0
    1.0647   -1.8291    0.0000 C   0  0  0  0  0  0  0  0  0  0  0  0
    0.3502    1.0584    0.0000 C   0  0  0  0  0  0  0  0  0  0  0  0
    1.0647    0.6459    0.0000 C   0  0  0  0  0  0  0  0  0  0  0  0
    1.0647   -0.1791    0.0000 C   0  0  0  0  0  0  0  0  0  0  0  0
    0.3502   -0.5916    0.0000 C   0  0  0  0  0  0  0  0  0  0  0  0
   -0.3643   -0.1791    0.0000 C   0  0  0  0  0  0  0  0  0  0  0  0
   -0.3643    0.6459    0.0000 C   0  0  0  0  0  0  0  0  0  0  0  0
    1.7792   -0.5916    0.0000 O   0  0  0  0  0  0  0  0  0  0  0  0
    3.2905   -1.6155    0.0000 Br  0  0  0  0  0  0  0  0  0  0  0  0
    3.2081   -3.0666    0.0000 Br  0  0  0  0  0  0  0  0  0  0  0  0
  1  2  2  0  0  0  0
  1  6  1  0  0  0  0
  1 13  1  0  0  0  0
  2  3  1  0  0  0  0
  3  4  2  0  0  0  0
  4  5  1  0  0  0  0
  5  6  2  0  0  0  0
  7  8  1  0  0  0  0
  7 12  2  0  0  0  0
  8  9  2  0  0  0  0
  9 10  1  0  0  0  0
 13  9  1  0  0  0  0
 10 11  2  0  0  0  0
 11 12  1  0  0  0  0
  2 14  1  0  0  0  0
  3 15  1  0  0  0  0
M  END