2,3'-dibromodiphenyl ether
  Mrv0541 02261416282D          

 15 16  0  0  0  0            999 V2000
    0.1881   -1.2103    0.0000 C   0  0  0  0  0  0  0  0  0  0  0  0
    0.9026   -1.6228    0.0000 C   0  0  0  0  0  0  0  0  0  0  0  0
    0.9026   -2.4478    0.0000 C   0  0  0  0  0  0  0  0  0  0  0  0
    0.1881   -2.8603    0.0000 C   0  0  0  0  0  0  0  0  0  0  0  0
   -0.5264   -2.4478    0.0000 C   0  0  0  0  0  0  0  0  0  0  0  0
   -0.5264   -1.6228    0.0000 C   0  0  0  0  0  0  0  0  0  0  0  0
   -1.2409    1.2647    0.0000 C   0  0  0  0  0  0  0  0  0  0  0  0
   -0.5264    0.8522    0.0000 C   0  0  0  0  0  0  0  0  0  0  0  0
   -0.5264    0.0272    0.0000 C   0  0  0  0  0  0  0  0  0  0  0  0
   -1.2409   -0.3853    0.0000 C   0  0  0  0  0  0  0  0  0  0  0  0
   -1.9553    0.0272    0.0000 C   0  0  0  0  0  0  0  0  0  0  0  0
   -1.9553    0.8522    0.0000 C   0  0  0  0  0  0  0  0  0  0  0  0
    0.1881   -0.3853    0.0000 O   0  0  0  0  0  0  0  0  0  0  0  0
    1.6170   -1.2103    0.0000 Br  0  0  0  0  0  0  0  0  0  0  0  0
   -1.2409    2.0897    0.0000 Br  0  0  0  0  0  0  0  0  0  0  0  0
  1  2  2  0  0  0  0
  1  6  1  0  0  0  0
  1 13  1  0  0  0  0
  2  3  1  0  0  0  0
  3  4  2  0  0  0  0
  4  5  1  0  0  0  0
  5  6  2  0  0  0  0
  7  8  1  0  0  0  0
  7 12  2  0  0  0  0
  8  9  2  0  0  0  0
  9 10  1  0  0  0  0
 13  9  1  0  0  0  0
 10 11  2  0  0  0  0
 11 12  1  0  0  0  0
  2 14  1  0  0  0  0
  7 15  1  0  0  0  0
M  END