3,3'-bibromodiphenyl ether
  Mrv0541 02261416282D          

 15 16  0  0  0  0            999 V2000
    1.2488   -1.2987    0.0000 C   0  0  0  0  0  0  0  0  0  0  0  0
    1.9633   -1.7112    0.0000 C   0  0  0  0  0  0  0  0  0  0  0  0
    1.9633   -2.5362    0.0000 C   0  0  0  0  0  0  0  0  0  0  0  0
    1.2488   -2.9487    0.0000 C   0  0  0  0  0  0  0  0  0  0  0  0
    0.5343   -2.5362    0.0000 C   0  0  0  0  0  0  0  0  0  0  0  0
    0.5343   -1.7112    0.0000 C   0  0  0  0  0  0  0  0  0  0  0  0
   -0.1801    1.1763    0.0000 C   0  0  0  0  0  0  0  0  0  0  0  0
    0.5343    0.7638    0.0000 C   0  0  0  0  0  0  0  0  0  0  0  0
    0.5343   -0.0612    0.0000 C   0  0  0  0  0  0  0  0  0  0  0  0
   -0.1801   -0.4737    0.0000 C   0  0  0  0  0  0  0  0  0  0  0  0
   -0.8946   -0.0612    0.0000 C   0  0  0  0  0  0  0  0  0  0  0  0
   -0.8946    0.7638    0.0000 C   0  0  0  0  0  0  0  0  0  0  0  0
    1.2488   -0.4737    0.0000 O   0  0  0  0  0  0  0  0  0  0  0  0
    2.6777   -2.9487    0.0000 Br  0  0  0  0  0  0  0  0  0  0  0  0
   -0.1801    2.0013    0.0000 Br  0  0  0  0  0  0  0  0  0  0  0  0
  1  2  2  0  0  0  0
  1  6  1  0  0  0  0
  1 13  1  0  0  0  0
  2  3  1  0  0  0  0
  3  4  2  0  0  0  0
  4  5  1  0  0  0  0
  5  6  2  0  0  0  0
  7  8  1  0  0  0  0
  7 12  2  0  0  0  0
  8  9  2  0  0  0  0
  9 10  1  0  0  0  0
 13  9  1  0  0  0  0
 10 11  2  0  0  0  0
 11 12  1  0  0  0  0
  3 14  1  0  0  0  0
  7 15  1  0  0  0  0
M  END