3,5-dibromodiphenyl ether
  Mrv0541 02261416282D          

 15 16  0  0  0  0            999 V2000
    1.2488   -2.6541    0.0000 C   0  0  0  0  0  0  0  0  0  0  0  0
    1.9633   -3.0666    0.0000 C   0  0  0  0  0  0  0  0  0  0  0  0
    1.9633   -3.8916    0.0000 C   0  0  0  0  0  0  0  0  0  0  0  0
    1.2488   -4.3041    0.0000 C   0  0  0  0  0  0  0  0  0  0  0  0
    0.5343   -3.8916    0.0000 C   0  0  0  0  0  0  0  0  0  0  0  0
    0.5343   -3.0666    0.0000 C   0  0  0  0  0  0  0  0  0  0  0  0
   -0.1801   -0.1791    0.0000 C   0  0  0  0  0  0  0  0  0  0  0  0
    0.5343   -0.5916    0.0000 C   0  0  0  0  0  0  0  0  0  0  0  0
    0.5343   -1.4166    0.0000 C   0  0  0  0  0  0  0  0  0  0  0  0
   -0.1801   -1.8291    0.0000 C   0  0  0  0  0  0  0  0  0  0  0  0
   -0.8946   -1.4166    0.0000 C   0  0  0  0  0  0  0  0  0  0  0  0
   -0.8946   -0.5916    0.0000 C   0  0  0  0  0  0  0  0  0  0  0  0
    1.2488   -1.8291    0.0000 O   0  0  0  0  0  0  0  0  0  0  0  0
    2.6777   -4.3041    0.0000 Br  0  0  0  0  0  0  0  0  0  0  0  0
   -0.1801   -4.3041    0.0000 Br  0  0  0  0  0  0  0  0  0  0  0  0
  1  2  2  0  0  0  0
  1  6  1  0  0  0  0
  1 13  1  0  0  0  0
  2  3  1  0  0  0  0
  3  4  2  0  0  0  0
  4  5  1  0  0  0  0
  5  6  2  0  0  0  0
  7  8  1  0  0  0  0
  7 12  2  0  0  0  0
  8  9  2  0  0  0  0
  9 10  1  0  0  0  0
 13  9  1  0  0  0  0
 10 11  2  0  0  0  0
 11 12  1  0  0  0  0
  3 14  1  0  0  0  0
  5 15  1  0  0  0  0
M  END