2,2',3-tribromodiphenyl ether
  Mrv0541 02261416282D          

 16 17  0  0  0  0            999 V2000
    0.3649   -1.4460    0.0000 C   0  0  0  0  0  0  0  0  0  0  0  0
    1.0793   -1.8585    0.0000 C   0  0  0  0  0  0  0  0  0  0  0  0
    1.0793   -2.6835    0.0000 C   0  0  0  0  0  0  0  0  0  0  0  0
    0.3649   -3.0960    0.0000 C   0  0  0  0  0  0  0  0  0  0  0  0
   -0.3496   -2.6835    0.0000 C   0  0  0  0  0  0  0  0  0  0  0  0
   -0.3496   -1.8585    0.0000 C   0  0  0  0  0  0  0  0  0  0  0  0
   -1.0641    1.0290    0.0000 C   0  0  0  0  0  0  0  0  0  0  0  0
   -0.3496    0.6165    0.0000 C   0  0  0  0  0  0  0  0  0  0  0  0
   -0.3496   -0.2085    0.0000 C   0  0  0  0  0  0  0  0  0  0  0  0
   -1.0641   -0.6210    0.0000 C   0  0  0  0  0  0  0  0  0  0  0  0
   -1.7785   -0.2085    0.0000 C   0  0  0  0  0  0  0  0  0  0  0  0
   -1.7785    0.6165    0.0000 C   0  0  0  0  0  0  0  0  0  0  0  0
    0.3649   -0.6210    0.0000 O   0  0  0  0  0  0  0  0  0  0  0  0
    1.7938   -1.4460    0.0000 Br  0  0  0  0  0  0  0  0  0  0  0  0
    0.3649    1.0290    0.0000 Br  0  0  0  0  0  0  0  0  0  0  0  0
   -1.0641    1.8540    0.0000 Br  0  0  0  0  0  0  0  0  0  0  0  0
  1  2  2  0  0  0  0
  1  6  1  0  0  0  0
  1 13  1  0  0  0  0
  2  3  1  0  0  0  0
  3  4  2  0  0  0  0
  4  5  1  0  0  0  0
  5  6  2  0  0  0  0
  7  8  1  0  0  0  0
  7 12  2  0  0  0  0
  8  9  2  0  0  0  0
  9 10  1  0  0  0  0
 13  9  1  0  0  0  0
 10 11  2  0  0  0  0
 11 12  1  0  0  0  0
  2 14  1  0  0  0  0
  8 15  1  0  0  0  0
  7 16  1  0  0  0  0
M  END