2,2',4-tribromodiphenyl ether
  Mrv0541 02261416282D          

 16 17  0  0  0  0            999 V2000
    0.8952   -1.5639    0.0000 C   0  0  0  0  0  0  0  0  0  0  0  0
    1.6097   -1.9764    0.0000 C   0  0  0  0  0  0  0  0  0  0  0  0
    1.6097   -2.8014    0.0000 C   0  0  0  0  0  0  0  0  0  0  0  0
    0.8952   -3.2139    0.0000 C   0  0  0  0  0  0  0  0  0  0  0  0
    0.1808   -2.8014    0.0000 C   0  0  0  0  0  0  0  0  0  0  0  0
    0.1808   -1.9764    0.0000 C   0  0  0  0  0  0  0  0  0  0  0  0
   -0.5337    0.9111    0.0000 C   0  0  0  0  0  0  0  0  0  0  0  0
    0.1808    0.4986    0.0000 C   0  0  0  0  0  0  0  0  0  0  0  0
    0.1808   -0.3264    0.0000 C   0  0  0  0  0  0  0  0  0  0  0  0
   -0.5337   -0.7389    0.0000 C   0  0  0  0  0  0  0  0  0  0  0  0
   -1.2482   -0.3264    0.0000 C   0  0  0  0  0  0  0  0  0  0  0  0
   -1.2482    0.4986    0.0000 C   0  0  0  0  0  0  0  0  0  0  0  0
    0.8952   -0.7389    0.0000 O   0  0  0  0  0  0  0  0  0  0  0  0
    2.3242   -1.5639    0.0000 Br  0  0  0  0  0  0  0  0  0  0  0  0
    0.8952    0.9111    0.0000 Br  0  0  0  0  0  0  0  0  0  0  0  0
    0.8952   -4.0389    0.0000 Br  0  0  0  0  0  0  0  0  0  0  0  0
  1  2  2  0  0  0  0
  1  6  1  0  0  0  0
  1 13  1  0  0  0  0
  2  3  1  0  0  0  0
  3  4  2  0  0  0  0
  4  5  1  0  0  0  0
  5  6  2  0  0  0  0
  7  8  1  0  0  0  0
  7 12  2  0  0  0  0
  8  9  2  0  0  0  0
  9 10  1  0  0  0  0
 13  9  1  0  0  0  0
 10 11  2  0  0  0  0
 11 12  1  0  0  0  0
  2 14  1  0  0  0  0
  8 15  1  0  0  0  0
  4 16  1  0  0  0  0
M  END