2,2',5-tribromodiphenyl ether
  Mrv0541 02261416282D          

 16 17  0  0  0  0            999 V2000
    1.1309   -0.6505    0.0000 C   0  0  0  0  0  0  0  0  0  0  0  0
    1.8454   -1.0630    0.0000 C   0  0  0  0  0  0  0  0  0  0  0  0
    1.8454   -1.8880    0.0000 C   0  0  0  0  0  0  0  0  0  0  0  0
    1.1309   -2.3005    0.0000 C   0  0  0  0  0  0  0  0  0  0  0  0
    0.4165   -1.8880    0.0000 C   0  0  0  0  0  0  0  0  0  0  0  0
    0.4165   -1.0630    0.0000 C   0  0  0  0  0  0  0  0  0  0  0  0
   -0.2980    1.8245    0.0000 C   0  0  0  0  0  0  0  0  0  0  0  0
    0.4165    1.4120    0.0000 C   0  0  0  0  0  0  0  0  0  0  0  0
    0.4165    0.5870    0.0000 C   0  0  0  0  0  0  0  0  0  0  0  0
   -0.2980    0.1745    0.0000 C   0  0  0  0  0  0  0  0  0  0  0  0
   -1.0125    0.5870    0.0000 C   0  0  0  0  0  0  0  0  0  0  0  0
   -1.0125    1.4120    0.0000 C   0  0  0  0  0  0  0  0  0  0  0  0
    1.1309    0.1745    0.0000 O   0  0  0  0  0  0  0  0  0  0  0  0
    2.5599   -0.6505    0.0000 Br  0  0  0  0  0  0  0  0  0  0  0  0
    1.1309    1.8245    0.0000 Br  0  0  0  0  0  0  0  0  0  0  0  0
   -0.2980   -2.3005    0.0000 Br  0  0  0  0  0  0  0  0  0  0  0  0
  1  2  2  0  0  0  0
  1  6  1  0  0  0  0
  1 13  1  0  0  0  0
  2  3  1  0  0  0  0
  3  4  2  0  0  0  0
  4  5  1  0  0  0  0
  5  6  2  0  0  0  0
  7  8  1  0  0  0  0
  7 12  2  0  0  0  0
  8  9  2  0  0  0  0
  9 10  1  0  0  0  0
 13  9  1  0  0  0  0
 10 11  2  0  0  0  0
 11 12  1  0  0  0  0
  2 14  1  0  0  0  0
  8 15  1  0  0  0  0
  5 16  1  0  0  0  0
M  END