2,2',6-tribromodiphenyl ether
  Mrv0541 02261416282D          

 16 17  0  0  0  0            999 V2000
    0.1586   -0.6210    0.0000 C   0  0  0  0  0  0  0  0  0  0  0  0
    0.8731   -1.0335    0.0000 C   0  0  0  0  0  0  0  0  0  0  0  0
    0.8731   -1.8585    0.0000 C   0  0  0  0  0  0  0  0  0  0  0  0
    0.1586   -2.2710    0.0000 C   0  0  0  0  0  0  0  0  0  0  0  0
   -0.5559   -1.8585    0.0000 C   0  0  0  0  0  0  0  0  0  0  0  0
   -0.5559   -1.0335    0.0000 C   0  0  0  0  0  0  0  0  0  0  0  0
   -1.2703    1.8540    0.0000 C   0  0  0  0  0  0  0  0  0  0  0  0
   -0.5559    1.4415    0.0000 C   0  0  0  0  0  0  0  0  0  0  0  0
   -0.5559    0.6165    0.0000 C   0  0  0  0  0  0  0  0  0  0  0  0
   -1.2703    0.2040    0.0000 C   0  0  0  0  0  0  0  0  0  0  0  0
   -1.9848    0.6165    0.0000 C   0  0  0  0  0  0  0  0  0  0  0  0
   -1.9848    1.4415    0.0000 C   0  0  0  0  0  0  0  0  0  0  0  0
    0.1586    0.2040    0.0000 O   0  0  0  0  0  0  0  0  0  0  0  0
    1.5876   -0.6210    0.0000 Br  0  0  0  0  0  0  0  0  0  0  0  0
    0.1586    1.8540    0.0000 Br  0  0  0  0  0  0  0  0  0  0  0  0
   -1.2703   -0.6210    0.0000 Br  0  0  0  0  0  0  0  0  0  0  0  0
  1  2  2  0  0  0  0
  1  6  1  0  0  0  0
  1 13  1  0  0  0  0
  2  3  1  0  0  0  0
  3  4  2  0  0  0  0
  4  5  1  0  0  0  0
  5  6  2  0  0  0  0
  7  8  1  0  0  0  0
  7 12  2  0  0  0  0
  8  9  2  0  0  0  0
  9 10  1  0  0  0  0
 13  9  1  0  0  0  0
 10 11  2  0  0  0  0
 11 12  1  0  0  0  0
  2 14  1  0  0  0  0
  8 15  1  0  0  0  0
  6 16  1  0  0  0  0
M  END