2,3,4-tribromodiphenyl ether
  Mrv0541 02261416282D          

 16 17  0  0  0  0            999 V2000
    0.6890   -2.7424    0.0000 C   0  0  0  0  0  0  0  0  0  0  0  0
    1.4034   -3.1549    0.0000 C   0  0  0  0  0  0  0  0  0  0  0  0
    1.4034   -3.9799    0.0000 C   0  0  0  0  0  0  0  0  0  0  0  0
    0.6890   -4.3924    0.0000 C   0  0  0  0  0  0  0  0  0  0  0  0
   -0.0255   -3.9799    0.0000 C   0  0  0  0  0  0  0  0  0  0  0  0
   -0.0255   -3.1549    0.0000 C   0  0  0  0  0  0  0  0  0  0  0  0
   -0.7400   -0.2674    0.0000 C   0  0  0  0  0  0  0  0  0  0  0  0
   -0.0255   -0.6799    0.0000 C   0  0  0  0  0  0  0  0  0  0  0  0
   -0.0255   -1.5049    0.0000 C   0  0  0  0  0  0  0  0  0  0  0  0
   -0.7400   -1.9174    0.0000 C   0  0  0  0  0  0  0  0  0  0  0  0
   -1.4544   -1.5049    0.0000 C   0  0  0  0  0  0  0  0  0  0  0  0
   -1.4544   -0.6799    0.0000 C   0  0  0  0  0  0  0  0  0  0  0  0
    0.6890   -1.9174    0.0000 O   0  0  0  0  0  0  0  0  0  0  0  0
    2.2003   -2.9414    0.0000 Br  0  0  0  0  0  0  0  0  0  0  0  0
    2.1179   -4.3924    0.0000 Br  0  0  0  0  0  0  0  0  0  0  0  0
    0.6890   -5.2174    0.0000 Br  0  0  0  0  0  0  0  0  0  0  0  0
  1  2  2  0  0  0  0
  1  6  1  0  0  0  0
  1 13  1  0  0  0  0
  2  3  1  0  0  0  0
  3  4  2  0  0  0  0
  4  5  1  0  0  0  0
  5  6  2  0  0  0  0
  7  8  1  0  0  0  0
  7 12  2  0  0  0  0
  8  9  2  0  0  0  0
  9 10  1  0  0  0  0
 13  9  1  0  0  0  0
 10 11  2  0  0  0  0
 11 12  1  0  0  0  0
  2 14  1  0  0  0  0
  3 15  1  0  0  0  0
  4 16  1  0  0  0  0
M  END