2,3,6-tribromodiphenyl ether
  Mrv0541 02261416282D          

 16 17  0  0  0  0            999 V2000
    1.4845   -0.8273    0.0000 C   0  0  0  0  0  0  0  0  0  0  0  0
    2.1990   -1.2398    0.0000 C   0  0  0  0  0  0  0  0  0  0  0  0
    2.1990   -2.0648    0.0000 C   0  0  0  0  0  0  0  0  0  0  0  0
    1.4845   -2.4773    0.0000 C   0  0  0  0  0  0  0  0  0  0  0  0
    0.7700   -2.0648    0.0000 C   0  0  0  0  0  0  0  0  0  0  0  0
    0.7700   -1.2398    0.0000 C   0  0  0  0  0  0  0  0  0  0  0  0
    0.0556    1.6477    0.0000 C   0  0  0  0  0  0  0  0  0  0  0  0
    0.7700    1.2352    0.0000 C   0  0  0  0  0  0  0  0  0  0  0  0
    0.7700    0.4102    0.0000 C   0  0  0  0  0  0  0  0  0  0  0  0
    0.0556   -0.0023    0.0000 C   0  0  0  0  0  0  0  0  0  0  0  0
   -0.6589    0.4102    0.0000 C   0  0  0  0  0  0  0  0  0  0  0  0
   -0.6589    1.2352    0.0000 C   0  0  0  0  0  0  0  0  0  0  0  0
    1.4845   -0.0023    0.0000 O   0  0  0  0  0  0  0  0  0  0  0  0
    2.9135   -0.8273    0.0000 Br  0  0  0  0  0  0  0  0  0  0  0  0
    2.9135   -2.4773    0.0000 Br  0  0  0  0  0  0  0  0  0  0  0  0
    0.0556   -0.8273    0.0000 Br  0  0  0  0  0  0  0  0  0  0  0  0
  1  2  2  0  0  0  0
  1  6  1  0  0  0  0
  1 13  1  0  0  0  0
  2  3  1  0  0  0  0
  3  4  2  0  0  0  0
  4  5  1  0  0  0  0
  5  6  2  0  0  0  0
  7  8  1  0  0  0  0
  7 12  2  0  0  0  0
  8  9  2  0  0  0  0
  9 10  1  0  0  0  0
 13  9  1  0  0  0  0
 10 11  2  0  0  0  0
 11 12  1  0  0  0  0
  2 14  1  0  0  0  0
  3 15  1  0  0  0  0
  6 16  1  0  0  0  0
M  END