2,3',4-tribromodiphenyl ether
  Mrv0541 02261416282D          

 16 17  0  0  0  0            999 V2000
    0.4533   -2.0648    0.0000 C   0  0  0  0  0  0  0  0  0  0  0  0
    1.1677   -2.4773    0.0000 C   0  0  0  0  0  0  0  0  0  0  0  0
    1.1677   -3.3023    0.0000 C   0  0  0  0  0  0  0  0  0  0  0  0
    0.4533   -3.7148    0.0000 C   0  0  0  0  0  0  0  0  0  0  0  0
   -0.2612   -3.3023    0.0000 C   0  0  0  0  0  0  0  0  0  0  0  0
   -0.2612   -2.4773    0.0000 C   0  0  0  0  0  0  0  0  0  0  0  0
   -0.9757    0.4102    0.0000 C   0  0  0  0  0  0  0  0  0  0  0  0
   -0.2612   -0.0023    0.0000 C   0  0  0  0  0  0  0  0  0  0  0  0
   -0.2612   -0.8273    0.0000 C   0  0  0  0  0  0  0  0  0  0  0  0
   -0.9757   -1.2398    0.0000 C   0  0  0  0  0  0  0  0  0  0  0  0
   -1.6902   -0.8273    0.0000 C   0  0  0  0  0  0  0  0  0  0  0  0
   -1.6902   -0.0023    0.0000 C   0  0  0  0  0  0  0  0  0  0  0  0
    0.4533   -1.2398    0.0000 O   0  0  0  0  0  0  0  0  0  0  0  0
    1.8822   -2.0648    0.0000 Br  0  0  0  0  0  0  0  0  0  0  0  0
    0.4533   -4.5398    0.0000 Br  0  0  0  0  0  0  0  0  0  0  0  0
   -0.9757    1.2352    0.0000 Br  0  0  0  0  0  0  0  0  0  0  0  0
  1  2  2  0  0  0  0
  1  6  1  0  0  0  0
  1 13  1  0  0  0  0
  2  3  1  0  0  0  0
  3  4  2  0  0  0  0
  4  5  1  0  0  0  0
  5  6  2  0  0  0  0
  7  8  1  0  0  0  0
  7 12  2  0  0  0  0
  8  9  2  0  0  0  0
  9 10  1  0  0  0  0
 13  9  1  0  0  0  0
 10 11  2  0  0  0  0
 11 12  1  0  0  0  0
  2 14  1  0  0  0  0
  4 15  1  0  0  0  0
  7 16  1  0  0  0  0
M  END