2,3',5-tribromodiphenyl ether
  Mrv0541 02261416282D          

 16 17  0  0  0  0            999 V2000
    0.5711   -0.7683    0.0000 C   0  0  0  0  0  0  0  0  0  0  0  0
    1.2856   -1.1808    0.0000 C   0  0  0  0  0  0  0  0  0  0  0  0
    1.2856   -2.0058    0.0000 C   0  0  0  0  0  0  0  0  0  0  0  0
    0.5711   -2.4183    0.0000 C   0  0  0  0  0  0  0  0  0  0  0  0
   -0.1434   -2.0058    0.0000 C   0  0  0  0  0  0  0  0  0  0  0  0
   -0.1434   -1.1808    0.0000 C   0  0  0  0  0  0  0  0  0  0  0  0
   -0.8578    1.7067    0.0000 C   0  0  0  0  0  0  0  0  0  0  0  0
   -0.1434    1.2942    0.0000 C   0  0  0  0  0  0  0  0  0  0  0  0
   -0.1434    0.4692    0.0000 C   0  0  0  0  0  0  0  0  0  0  0  0
   -0.8578    0.0567    0.0000 C   0  0  0  0  0  0  0  0  0  0  0  0
   -1.5723    0.4692    0.0000 C   0  0  0  0  0  0  0  0  0  0  0  0
   -1.5723    1.2942    0.0000 C   0  0  0  0  0  0  0  0  0  0  0  0
    0.5711    0.0567    0.0000 O   0  0  0  0  0  0  0  0  0  0  0  0
    2.0001   -0.7683    0.0000 Br  0  0  0  0  0  0  0  0  0  0  0  0
   -0.8578   -2.4183    0.0000 Br  0  0  0  0  0  0  0  0  0  0  0  0
   -0.8578    2.5317    0.0000 Br  0  0  0  0  0  0  0  0  0  0  0  0
  1  2  2  0  0  0  0
  1  6  1  0  0  0  0
  1 13  1  0  0  0  0
  2  3  1  0  0  0  0
  3  4  2  0  0  0  0
  4  5  1  0  0  0  0
  5  6  2  0  0  0  0
  7  8  1  0  0  0  0
  7 12  2  0  0  0  0
  8  9  2  0  0  0  0
  9 10  1  0  0  0  0
 13  9  1  0  0  0  0
 10 11  2  0  0  0  0
 11 12  1  0  0  0  0
  2 14  1  0  0  0  0
  5 15  1  0  0  0  0
  7 16  1  0  0  0  0
M  END