2,4,4'-tribromodiphenyl ether
  Mrv0541 02261416282D          

 16 17  0  0  0  0            999 V2000
    0.6300   -1.2398    0.0000 C   0  0  0  0  0  0  0  0  0  0  0  0
    1.3445   -1.6523    0.0000 C   0  0  0  0  0  0  0  0  0  0  0  0
    1.3445   -2.4773    0.0000 C   0  0  0  0  0  0  0  0  0  0  0  0
    0.6300   -2.8898    0.0000 C   0  0  0  0  0  0  0  0  0  0  0  0
   -0.0844   -2.4773    0.0000 C   0  0  0  0  0  0  0  0  0  0  0  0
   -0.0844   -1.6523    0.0000 C   0  0  0  0  0  0  0  0  0  0  0  0
   -0.7989    1.2352    0.0000 C   0  0  0  0  0  0  0  0  0  0  0  0
   -0.0844    0.8227    0.0000 C   0  0  0  0  0  0  0  0  0  0  0  0
   -0.0844   -0.0023    0.0000 C   0  0  0  0  0  0  0  0  0  0  0  0
   -0.7989   -0.4148    0.0000 C   0  0  0  0  0  0  0  0  0  0  0  0
   -1.5134   -0.0023    0.0000 C   0  0  0  0  0  0  0  0  0  0  0  0
   -1.5134    0.8227    0.0000 C   0  0  0  0  0  0  0  0  0  0  0  0
    0.6300   -0.4148    0.0000 O   0  0  0  0  0  0  0  0  0  0  0  0
    2.0590   -1.2398    0.0000 Br  0  0  0  0  0  0  0  0  0  0  0  0
    0.6300   -3.7148    0.0000 Br  0  0  0  0  0  0  0  0  0  0  0  0
   -2.2278    1.2352    0.0000 Br  0  0  0  0  0  0  0  0  0  0  0  0
  1  2  2  0  0  0  0
  1  6  1  0  0  0  0
  1 13  1  0  0  0  0
  2  3  1  0  0  0  0
  3  4  2  0  0  0  0
  4  5  1  0  0  0  0
  5  6  2  0  0  0  0
  7  8  1  0  0  0  0
  7 12  2  0  0  0  0
  8  9  2  0  0  0  0
  9 10  1  0  0  0  0
 13  9  1  0  0  0  0
 10 11  2  0  0  0  0
 11 12  1  0  0  0  0
  2 14  1  0  0  0  0
  4 15  1  0  0  0  0
 12 16  1  0  0  0  0
M  END