2,4,5-tribromodiphenyl ether
  Mrv0541 02261416282D          

 16 17  0  0  0  0            999 V2000
    0.7479   -1.9174    0.0000 C   0  0  0  0  0  0  0  0  0  0  0  0
    1.4624   -2.3299    0.0000 C   0  0  0  0  0  0  0  0  0  0  0  0
    1.4624   -3.1549    0.0000 C   0  0  0  0  0  0  0  0  0  0  0  0
    0.7479   -3.5674    0.0000 C   0  0  0  0  0  0  0  0  0  0  0  0
    0.0334   -3.1549    0.0000 C   0  0  0  0  0  0  0  0  0  0  0  0
    0.0334   -2.3299    0.0000 C   0  0  0  0  0  0  0  0  0  0  0  0
   -0.6810    0.5576    0.0000 C   0  0  0  0  0  0  0  0  0  0  0  0
    0.0334    0.1451    0.0000 C   0  0  0  0  0  0  0  0  0  0  0  0
    0.0334   -0.6799    0.0000 C   0  0  0  0  0  0  0  0  0  0  0  0
   -0.6810   -1.0924    0.0000 C   0  0  0  0  0  0  0  0  0  0  0  0
   -1.3955   -0.6799    0.0000 C   0  0  0  0  0  0  0  0  0  0  0  0
   -1.3955    0.1451    0.0000 C   0  0  0  0  0  0  0  0  0  0  0  0
    0.7479   -1.0924    0.0000 O   0  0  0  0  0  0  0  0  0  0  0  0
    2.1768   -1.9174    0.0000 Br  0  0  0  0  0  0  0  0  0  0  0  0
    0.7479   -4.3924    0.0000 Br  0  0  0  0  0  0  0  0  0  0  0  0
   -0.6810   -3.5674    0.0000 Br  0  0  0  0  0  0  0  0  0  0  0  0
  1  2  2  0  0  0  0
  1  6  1  0  0  0  0
  1 13  1  0  0  0  0
  2  3  1  0  0  0  0
  3  4  2  0  0  0  0
  4  5  1  0  0  0  0
  5  6  2  0  0  0  0
  7  8  1  0  0  0  0
  7 12  2  0  0  0  0
  8  9  2  0  0  0  0
  9 10  1  0  0  0  0
 13  9  1  0  0  0  0
 10 11  2  0  0  0  0
 11 12  1  0  0  0  0
  2 14  1  0  0  0  0
  4 15  1  0  0  0  0
  5 16  1  0  0  0  0
M  END