2,4,6-tribromodiphenyl ether
  Mrv0541 02261416282D          

 16 17  0  0  0  0            999 V2000
    1.3667   -2.2121    0.0000 C   0  0  0  0  0  0  0  0  0  0  0  0
    2.0811   -2.6246    0.0000 C   0  0  0  0  0  0  0  0  0  0  0  0
    2.0811   -3.4496    0.0000 C   0  0  0  0  0  0  0  0  0  0  0  0
    1.3667   -3.8621    0.0000 C   0  0  0  0  0  0  0  0  0  0  0  0
    0.6522   -3.4496    0.0000 C   0  0  0  0  0  0  0  0  0  0  0  0
    0.6522   -2.6246    0.0000 C   0  0  0  0  0  0  0  0  0  0  0  0
   -0.0623    0.2629    0.0000 C   0  0  0  0  0  0  0  0  0  0  0  0
    0.6522   -0.1496    0.0000 C   0  0  0  0  0  0  0  0  0  0  0  0
    0.6522   -0.9746    0.0000 C   0  0  0  0  0  0  0  0  0  0  0  0
   -0.0623   -1.3871    0.0000 C   0  0  0  0  0  0  0  0  0  0  0  0
   -0.7768   -0.9746    0.0000 C   0  0  0  0  0  0  0  0  0  0  0  0
   -0.7768   -0.1496    0.0000 C   0  0  0  0  0  0  0  0  0  0  0  0
    1.3667   -1.3871    0.0000 O   0  0  0  0  0  0  0  0  0  0  0  0
    2.7956   -2.2121    0.0000 Br  0  0  0  0  0  0  0  0  0  0  0  0
    1.3667   -4.6871    0.0000 Br  0  0  0  0  0  0  0  0  0  0  0  0
   -0.0623   -2.2121    0.0000 Br  0  0  0  0  0  0  0  0  0  0  0  0
  1  2  2  0  0  0  0
  1  6  1  0  0  0  0
  1 13  1  0  0  0  0
  2  3  1  0  0  0  0
  3  4  2  0  0  0  0
  4  5  1  0  0  0  0
  5  6  2  0  0  0  0
  7  8  1  0  0  0  0
  7 12  2  0  0  0  0
  8  9  2  0  0  0  0
  9 10  1  0  0  0  0
 13  9  1  0  0  0  0
 10 11  2  0  0  0  0
 11 12  1  0  0  0  0
  2 14  1  0  0  0  0
  4 15  1  0  0  0  0
  6 16  1  0  0  0  0
M  END