2,4',5-tribromodiphenyl ether
  Mrv0541 02261416282D          

 16 17  0  0  0  0            999 V2000
    0.5122   -3.0960    0.0000 C   0  0  0  0  0  0  0  0  0  0  0  0
    1.2267   -3.5085    0.0000 C   0  0  0  0  0  0  0  0  0  0  0  0
    1.2267   -4.3335    0.0000 C   0  0  0  0  0  0  0  0  0  0  0  0
    0.5122   -4.7460    0.0000 C   0  0  0  0  0  0  0  0  0  0  0  0
   -0.2023   -4.3335    0.0000 C   0  0  0  0  0  0  0  0  0  0  0  0
   -0.2023   -3.5085    0.0000 C   0  0  0  0  0  0  0  0  0  0  0  0
   -0.9168   -0.6210    0.0000 C   0  0  0  0  0  0  0  0  0  0  0  0
   -0.2023   -1.0335    0.0000 C   0  0  0  0  0  0  0  0  0  0  0  0
   -0.2023   -1.8585    0.0000 C   0  0  0  0  0  0  0  0  0  0  0  0
   -0.9168   -2.2710    0.0000 C   0  0  0  0  0  0  0  0  0  0  0  0
   -1.6312   -1.8585    0.0000 C   0  0  0  0  0  0  0  0  0  0  0  0
   -1.6312   -1.0335    0.0000 C   0  0  0  0  0  0  0  0  0  0  0  0
    0.5122   -2.2710    0.0000 O   0  0  0  0  0  0  0  0  0  0  0  0
    1.9411   -3.0960    0.0000 Br  0  0  0  0  0  0  0  0  0  0  0  0
   -0.9168   -4.7460    0.0000 Br  0  0  0  0  0  0  0  0  0  0  0  0
   -2.3457   -0.6210    0.0000 Br  0  0  0  0  0  0  0  0  0  0  0  0
  1  2  2  0  0  0  0
  1  6  1  0  0  0  0
  1 13  1  0  0  0  0
  2  3  1  0  0  0  0
  3  4  2  0  0  0  0
  4  5  1  0  0  0  0
  5  6  2  0  0  0  0
  7  8  1  0  0  0  0
  7 12  2  0  0  0  0
  8  9  2  0  0  0  0
  9 10  1  0  0  0  0
 13  9  1  0  0  0  0
 10 11  2  0  0  0  0
 11 12  1  0  0  0  0
  2 14  1  0  0  0  0
  5 15  1  0  0  0  0
 12 16  1  0  0  0  0
M  END