2,4',6-tribromodiphenyl ether
  Mrv0541 02261416282D          

 16 17  0  0  0  0            999 V2000
    1.0131   -0.7094    0.0000 C   0  0  0  0  0  0  0  0  0  0  0  0
    1.7276   -1.1219    0.0000 C   0  0  0  0  0  0  0  0  0  0  0  0
    1.7276   -1.9469    0.0000 C   0  0  0  0  0  0  0  0  0  0  0  0
    1.0131   -2.3594    0.0000 C   0  0  0  0  0  0  0  0  0  0  0  0
    0.2986   -1.9469    0.0000 C   0  0  0  0  0  0  0  0  0  0  0  0
    0.2986   -1.1219    0.0000 C   0  0  0  0  0  0  0  0  0  0  0  0
   -0.4159    1.7656    0.0000 C   0  0  0  0  0  0  0  0  0  0  0  0
    0.2986    1.3531    0.0000 C   0  0  0  0  0  0  0  0  0  0  0  0
    0.2986    0.5281    0.0000 C   0  0  0  0  0  0  0  0  0  0  0  0
   -0.4159    0.1156    0.0000 C   0  0  0  0  0  0  0  0  0  0  0  0
   -1.1303    0.5281    0.0000 C   0  0  0  0  0  0  0  0  0  0  0  0
   -1.1303    1.3531    0.0000 C   0  0  0  0  0  0  0  0  0  0  0  0
    1.0131    0.1156    0.0000 O   0  0  0  0  0  0  0  0  0  0  0  0
    2.4420   -0.7094    0.0000 Br  0  0  0  0  0  0  0  0  0  0  0  0
   -0.4159   -0.7094    0.0000 Br  0  0  0  0  0  0  0  0  0  0  0  0
   -1.8448    1.7656    0.0000 Br  0  0  0  0  0  0  0  0  0  0  0  0
  1  2  2  0  0  0  0
  1  6  1  0  0  0  0
  1 13  1  0  0  0  0
  2  3  1  0  0  0  0
  3  4  2  0  0  0  0
  4  5  1  0  0  0  0
  5  6  2  0  0  0  0
  7  8  1  0  0  0  0
  7 12  2  0  0  0  0
  8  9  2  0  0  0  0
  9 10  1  0  0  0  0
 13  9  1  0  0  0  0
 10 11  2  0  0  0  0
 11 12  1  0  0  0  0
  2 14  1  0  0  0  0
  6 15  1  0  0  0  0
 12 16  1  0  0  0  0
M  END