2,3',4'-tribromodiphenyl ether
  Mrv0541 02261416282D          

 16 17  0  0  0  0            999 V2000
    0.6890   -2.0353    0.0000 C   0  0  0  0  0  0  0  0  0  0  0  0
    1.4034   -2.4478    0.0000 C   0  0  0  0  0  0  0  0  0  0  0  0
    1.4034   -3.2728    0.0000 C   0  0  0  0  0  0  0  0  0  0  0  0
    0.6890   -3.6853    0.0000 C   0  0  0  0  0  0  0  0  0  0  0  0
   -0.0255   -3.2728    0.0000 C   0  0  0  0  0  0  0  0  0  0  0  0
   -0.0255   -2.4478    0.0000 C   0  0  0  0  0  0  0  0  0  0  0  0
   -0.7400    0.4397    0.0000 C   0  0  0  0  0  0  0  0  0  0  0  0
   -0.0255    0.0272    0.0000 C   0  0  0  0  0  0  0  0  0  0  0  0
   -0.0255   -0.7978    0.0000 C   0  0  0  0  0  0  0  0  0  0  0  0
   -0.7400   -1.2103    0.0000 C   0  0  0  0  0  0  0  0  0  0  0  0
   -1.4544   -0.7978    0.0000 C   0  0  0  0  0  0  0  0  0  0  0  0
   -1.4544    0.0272    0.0000 C   0  0  0  0  0  0  0  0  0  0  0  0
    0.6890   -1.2103    0.0000 O   0  0  0  0  0  0  0  0  0  0  0  0
    2.1179   -2.0353    0.0000 Br  0  0  0  0  0  0  0  0  0  0  0  0
   -0.5264    1.2366    0.0000 Br  0  0  0  0  0  0  0  0  0  0  0  0
   -2.1689    0.4397    0.0000 Br  0  0  0  0  0  0  0  0  0  0  0  0
  1  2  2  0  0  0  0
  1  6  1  0  0  0  0
  1 13  1  0  0  0  0
  2  3  1  0  0  0  0
  3  4  2  0  0  0  0
  4  5  1  0  0  0  0
  5  6  2  0  0  0  0
  7  8  1  0  0  0  0
  7 12  2  0  0  0  0
  8  9  2  0  0  0  0
  9 10  1  0  0  0  0
 13  9  1  0  0  0  0
 10 11  2  0  0  0  0
 11 12  1  0  0  0  0
  2 14  1  0  0  0  0
  7 15  1  0  0  0  0
 12 16  1  0  0  0  0
M  END