2,3',5'-tribromodiphenyl ether
  Mrv0541 02261416282D          

 16 17  0  0  0  0            999 V2000
    0.9542   -1.4166    0.0000 C   0  0  0  0  0  0  0  0  0  0  0  0
    1.6686   -1.8291    0.0000 C   0  0  0  0  0  0  0  0  0  0  0  0
    1.6686   -2.6541    0.0000 C   0  0  0  0  0  0  0  0  0  0  0  0
    0.9542   -3.0666    0.0000 C   0  0  0  0  0  0  0  0  0  0  0  0
    0.2397   -2.6541    0.0000 C   0  0  0  0  0  0  0  0  0  0  0  0
    0.2397   -1.8291    0.0000 C   0  0  0  0  0  0  0  0  0  0  0  0
   -0.4748    1.0584    0.0000 C   0  0  0  0  0  0  0  0  0  0  0  0
    0.2397    0.6459    0.0000 C   0  0  0  0  0  0  0  0  0  0  0  0
    0.2397   -0.1791    0.0000 C   0  0  0  0  0  0  0  0  0  0  0  0
   -0.4748   -0.5916    0.0000 C   0  0  0  0  0  0  0  0  0  0  0  0
   -1.1893   -0.1791    0.0000 C   0  0  0  0  0  0  0  0  0  0  0  0
   -1.1893    0.6459    0.0000 C   0  0  0  0  0  0  0  0  0  0  0  0
    0.9542   -0.5916    0.0000 O   0  0  0  0  0  0  0  0  0  0  0  0
    2.3831   -1.4166    0.0000 Br  0  0  0  0  0  0  0  0  0  0  0  0
   -0.4748    1.8834    0.0000 Br  0  0  0  0  0  0  0  0  0  0  0  0
   -1.9037   -0.5916    0.0000 Br  0  0  0  0  0  0  0  0  0  0  0  0
  1  2  2  0  0  0  0
  1  6  1  0  0  0  0
  1 13  1  0  0  0  0
  2  3  1  0  0  0  0
  3  4  2  0  0  0  0
  4  5  1  0  0  0  0
  5  6  2  0  0  0  0
  7  8  1  0  0  0  0
  7 12  2  0  0  0  0
  8  9  2  0  0  0  0
  9 10  1  0  0  0  0
 13  9  1  0  0  0  0
 10 11  2  0  0  0  0
 11 12  1  0  0  0  0
  2 14  1  0  0  0  0
  7 15  1  0  0  0  0
 11 16  1  0  0  0  0
M  END