3,3',4-tribromodiphenyl ether
  Mrv0541 02261416282D          

 16 17  0  0  0  0            999 V2000
    1.9265   -1.0335    0.0000 C   0  0  0  0  0  0  0  0  0  0  0  0
    2.6409   -1.4460    0.0000 C   0  0  0  0  0  0  0  0  0  0  0  0
    2.6409   -2.2710    0.0000 C   0  0  0  0  0  0  0  0  0  0  0  0
    1.9265   -2.6835    0.0000 C   0  0  0  0  0  0  0  0  0  0  0  0
    1.2120   -2.2710    0.0000 C   0  0  0  0  0  0  0  0  0  0  0  0
    1.2120   -1.4460    0.0000 C   0  0  0  0  0  0  0  0  0  0  0  0
    0.4975    1.4415    0.0000 C   0  0  0  0  0  0  0  0  0  0  0  0
    1.2120    1.0290    0.0000 C   0  0  0  0  0  0  0  0  0  0  0  0
    1.2120    0.2040    0.0000 C   0  0  0  0  0  0  0  0  0  0  0  0
    0.4975   -0.2085    0.0000 C   0  0  0  0  0  0  0  0  0  0  0  0
   -0.2169    0.2040    0.0000 C   0  0  0  0  0  0  0  0  0  0  0  0
   -0.2169    1.0290    0.0000 C   0  0  0  0  0  0  0  0  0  0  0  0
    1.9265   -0.2085    0.0000 O   0  0  0  0  0  0  0  0  0  0  0  0
    3.3554   -2.6835    0.0000 Br  0  0  0  0  0  0  0  0  0  0  0  0
    0.4975    2.2665    0.0000 Br  0  0  0  0  0  0  0  0  0  0  0  0
    1.9265   -3.5085    0.0000 Br  0  0  0  0  0  0  0  0  0  0  0  0
  1  2  2  0  0  0  0
  1  6  1  0  0  0  0
  1 13  1  0  0  0  0
  2  3  1  0  0  0  0
  3  4  2  0  0  0  0
  4  5  1  0  0  0  0
  5  6  2  0  0  0  0
  7  8  1  0  0  0  0
  7 12  2  0  0  0  0
  8  9  2  0  0  0  0
  9 10  1  0  0  0  0
 13  9  1  0  0  0  0
 10 11  2  0  0  0  0
 11 12  1  0  0  0  0
  3 14  1  0  0  0  0
  7 15  1  0  0  0  0
  4 16  1  0  0  0  0
M  END