3,4,4'-tribromodiphenyl ether
  Mrv0541 02261416282D          

 16 17  0  0  0  0            999 V2000
    1.4256   -1.0041    0.0000 C   0  0  0  0  0  0  0  0  0  0  0  0
    2.1401   -1.4166    0.0000 C   0  0  0  0  0  0  0  0  0  0  0  0
    2.1401   -2.2416    0.0000 C   0  0  0  0  0  0  0  0  0  0  0  0
    1.4256   -2.6541    0.0000 C   0  0  0  0  0  0  0  0  0  0  0  0
    0.7111   -2.2416    0.0000 C   0  0  0  0  0  0  0  0  0  0  0  0
    0.7111   -1.4166    0.0000 C   0  0  0  0  0  0  0  0  0  0  0  0
   -0.0034    1.4709    0.0000 C   0  0  0  0  0  0  0  0  0  0  0  0
    0.7111    1.0584    0.0000 C   0  0  0  0  0  0  0  0  0  0  0  0
    0.7111    0.2334    0.0000 C   0  0  0  0  0  0  0  0  0  0  0  0
   -0.0034   -0.1791    0.0000 C   0  0  0  0  0  0  0  0  0  0  0  0
   -0.7178    0.2334    0.0000 C   0  0  0  0  0  0  0  0  0  0  0  0
   -0.7178    1.0584    0.0000 C   0  0  0  0  0  0  0  0  0  0  0  0
    1.4256   -0.1791    0.0000 O   0  0  0  0  0  0  0  0  0  0  0  0
    2.8545   -2.6541    0.0000 Br  0  0  0  0  0  0  0  0  0  0  0  0
    1.4256   -3.4791    0.0000 Br  0  0  0  0  0  0  0  0  0  0  0  0
   -1.4323    1.4709    0.0000 Br  0  0  0  0  0  0  0  0  0  0  0  0
  1  2  2  0  0  0  0
  1  6  1  0  0  0  0
  1 13  1  0  0  0  0
  2  3  1  0  0  0  0
  3  4  2  0  0  0  0
  4  5  1  0  0  0  0
  5  6  2  0  0  0  0
  7  8  1  0  0  0  0
  7 12  2  0  0  0  0
  8  9  2  0  0  0  0
  9 10  1  0  0  0  0
 13  9  1  0  0  0  0
 10 11  2  0  0  0  0
 11 12  1  0  0  0  0
  3 14  1  0  0  0  0
  4 15  1  0  0  0  0
 12 16  1  0  0  0  0
M  END