3,4',5-tribromodiphenyl ether
  Mrv0541 02261416282D          

 16 17  0  0  0  0            999 V2000
    0.9836   -1.3576    0.0000 C   0  0  0  0  0  0  0  0  0  0  0  0
    1.6981   -1.7701    0.0000 C   0  0  0  0  0  0  0  0  0  0  0  0
    1.6981   -2.5951    0.0000 C   0  0  0  0  0  0  0  0  0  0  0  0
    0.9836   -3.0076    0.0000 C   0  0  0  0  0  0  0  0  0  0  0  0
    0.2691   -2.5951    0.0000 C   0  0  0  0  0  0  0  0  0  0  0  0
    0.2691   -1.7701    0.0000 C   0  0  0  0  0  0  0  0  0  0  0  0
   -0.4453    1.1174    0.0000 C   0  0  0  0  0  0  0  0  0  0  0  0
    0.2691    0.7049    0.0000 C   0  0  0  0  0  0  0  0  0  0  0  0
    0.2691   -0.1201    0.0000 C   0  0  0  0  0  0  0  0  0  0  0  0
   -0.4453   -0.5326    0.0000 C   0  0  0  0  0  0  0  0  0  0  0  0
   -1.1598   -0.1201    0.0000 C   0  0  0  0  0  0  0  0  0  0  0  0
   -1.1598    0.7049    0.0000 C   0  0  0  0  0  0  0  0  0  0  0  0
    0.9836   -0.5326    0.0000 O   0  0  0  0  0  0  0  0  0  0  0  0
    2.4126   -3.0076    0.0000 Br  0  0  0  0  0  0  0  0  0  0  0  0
   -0.4453   -3.0076    0.0000 Br  0  0  0  0  0  0  0  0  0  0  0  0
   -1.8743    1.1174    0.0000 Br  0  0  0  0  0  0  0  0  0  0  0  0
  1  2  2  0  0  0  0
  1  6  1  0  0  0  0
  1 13  1  0  0  0  0
  2  3  1  0  0  0  0
  3  4  2  0  0  0  0
  4  5  1  0  0  0  0
  5  6  2  0  0  0  0
  7  8  1  0  0  0  0
  7 12  2  0  0  0  0
  8  9  2  0  0  0  0
  9 10  1  0  0  0  0
 13  9  1  0  0  0  0
 10 11  2  0  0  0  0
 11 12  1  0  0  0  0
  3 14  1  0  0  0  0
  5 15  1  0  0  0  0
 12 16  1  0  0  0  0
M  END