2,2',3,3'-tetrabromodiphenyl ether
  Mrv0541 02261416282D          

 17 18  0  0  0  0            999 V2000
   -0.5780   -1.7996    0.0000 C   0  0  0  0  0  0  0  0  0  0  0  0
    0.1365   -2.2121    0.0000 C   0  0  0  0  0  0  0  0  0  0  0  0
    0.1365   -3.0371    0.0000 C   0  0  0  0  0  0  0  0  0  0  0  0
   -0.5780   -3.4496    0.0000 C   0  0  0  0  0  0  0  0  0  0  0  0
   -1.2925   -3.0371    0.0000 C   0  0  0  0  0  0  0  0  0  0  0  0
   -1.2925   -2.2121    0.0000 C   0  0  0  0  0  0  0  0  0  0  0  0
   -2.0069    0.6754    0.0000 C   0  0  0  0  0  0  0  0  0  0  0  0
   -1.2925    0.2629    0.0000 C   0  0  0  0  0  0  0  0  0  0  0  0
   -1.2925   -0.5621    0.0000 C   0  0  0  0  0  0  0  0  0  0  0  0
   -2.0069   -0.9746    0.0000 C   0  0  0  0  0  0  0  0  0  0  0  0
   -2.7214   -0.5621    0.0000 C   0  0  0  0  0  0  0  0  0  0  0  0
   -2.7214    0.2629    0.0000 C   0  0  0  0  0  0  0  0  0  0  0  0
   -0.5780   -0.9746    0.0000 O   0  0  0  0  0  0  0  0  0  0  0  0
    0.8510   -1.7996    0.0000 Br  0  0  0  0  0  0  0  0  0  0  0  0
    0.8510   -3.4496    0.0000 Br  0  0  0  0  0  0  0  0  0  0  0  0
   -0.5780    0.6754    0.0000 Br  0  0  0  0  0  0  0  0  0  0  0  0
   -2.0069    1.5004    0.0000 Br  0  0  0  0  0  0  0  0  0  0  0  0
  1  2  2  0  0  0  0
  1  6  1  0  0  0  0
  1 13  1  0  0  0  0
  2  3  1  0  0  0  0
  3  4  2  0  0  0  0
  4  5  1  0  0  0  0
  5  6  2  0  0  0  0
  7  8  1  0  0  0  0
  7 12  2  0  0  0  0
  8  9  2  0  0  0  0
  9 10  1  0  0  0  0
 13  9  1  0  0  0  0
 10 11  2  0  0  0  0
 11 12  1  0  0  0  0
  2 14  1  0  0  0  0
  3 15  1  0  0  0  0
  8 16  1  0  0  0  0
  7 17  1  0  0  0  0
M  END