2,2',3,4-tetrabromodiphenyl ether
  Mrv0541 02261416282D          

 17 18  0  0  0  0            999 V2000
    0.9247   -2.0648    0.0000 C   0  0  0  0  0  0  0  0  0  0  0  0
    1.6392   -2.4773    0.0000 C   0  0  0  0  0  0  0  0  0  0  0  0
    1.6392   -3.3023    0.0000 C   0  0  0  0  0  0  0  0  0  0  0  0
    0.9247   -3.7148    0.0000 C   0  0  0  0  0  0  0  0  0  0  0  0
    0.2102   -3.3023    0.0000 C   0  0  0  0  0  0  0  0  0  0  0  0
    0.2102   -2.4773    0.0000 C   0  0  0  0  0  0  0  0  0  0  0  0
   -0.5043    0.4102    0.0000 C   0  0  0  0  0  0  0  0  0  0  0  0
    0.2102   -0.0023    0.0000 C   0  0  0  0  0  0  0  0  0  0  0  0
    0.2102   -0.8273    0.0000 C   0  0  0  0  0  0  0  0  0  0  0  0
   -0.5043   -1.2398    0.0000 C   0  0  0  0  0  0  0  0  0  0  0  0
   -1.2187   -0.8273    0.0000 C   0  0  0  0  0  0  0  0  0  0  0  0
   -1.2187   -0.0023    0.0000 C   0  0  0  0  0  0  0  0  0  0  0  0
    0.9247   -1.2398    0.0000 O   0  0  0  0  0  0  0  0  0  0  0  0
    2.3536   -2.0648    0.0000 Br  0  0  0  0  0  0  0  0  0  0  0  0
    0.7936    0.5811    0.0000 Br  0  0  0  0  0  0  0  0  0  0  0  0
    2.3536   -3.7148    0.0000 Br  0  0  0  0  0  0  0  0  0  0  0  0
    0.9247   -4.5398    0.0000 Br  0  0  0  0  0  0  0  0  0  0  0  0
  1  2  2  0  0  0  0
  1  6  1  0  0  0  0
  1 13  1  0  0  0  0
  2  3  1  0  0  0  0
  3  4  2  0  0  0  0
  4  5  1  0  0  0  0
  5  6  2  0  0  0  0
  7  8  1  0  0  0  0
  7 12  2  0  0  0  0
  8  9  2  0  0  0  0
  9 10  1  0  0  0  0
 13  9  1  0  0  0  0
 10 11  2  0  0  0  0
 11 12  1  0  0  0  0
  2 14  1  0  0  0  0
  8 15  1  0  0  0  0
  3 16  1  0  0  0  0
  4 17  1  0  0  0  0
M  END