2,2',3,4'-tetrabromodiphenyl ether
  Mrv0541 02261416282D          

 17 18  0  0  0  0            999 V2000
    0.4238   -1.0924    0.0000 C   0  0  0  0  0  0  0  0  0  0  0  0
    1.1383   -1.5049    0.0000 C   0  0  0  0  0  0  0  0  0  0  0  0
    1.1383   -2.3299    0.0000 C   0  0  0  0  0  0  0  0  0  0  0  0
    0.4238   -2.7424    0.0000 C   0  0  0  0  0  0  0  0  0  0  0  0
   -0.2907   -2.3299    0.0000 C   0  0  0  0  0  0  0  0  0  0  0  0
   -0.2907   -1.5049    0.0000 C   0  0  0  0  0  0  0  0  0  0  0  0
   -1.0051    1.3826    0.0000 C   0  0  0  0  0  0  0  0  0  0  0  0
   -0.2907    0.9701    0.0000 C   0  0  0  0  0  0  0  0  0  0  0  0
   -0.2907    0.1451    0.0000 C   0  0  0  0  0  0  0  0  0  0  0  0
   -1.0051   -0.2674    0.0000 C   0  0  0  0  0  0  0  0  0  0  0  0
   -1.7196    0.1451    0.0000 C   0  0  0  0  0  0  0  0  0  0  0  0
   -1.7196    0.9701    0.0000 C   0  0  0  0  0  0  0  0  0  0  0  0
    0.4238   -0.2674    0.0000 O   0  0  0  0  0  0  0  0  0  0  0  0
    1.8527   -1.0924    0.0000 Br  0  0  0  0  0  0  0  0  0  0  0  0
    0.2927    1.5534    0.0000 Br  0  0  0  0  0  0  0  0  0  0  0  0
    1.8527   -2.7424    0.0000 Br  0  0  0  0  0  0  0  0  0  0  0  0
   -2.4341    1.3826    0.0000 Br  0  0  0  0  0  0  0  0  0  0  0  0
  1  2  2  0  0  0  0
  1  6  1  0  0  0  0
  1 13  1  0  0  0  0
  2  3  1  0  0  0  0
  3  4  2  0  0  0  0
  4  5  1  0  0  0  0
  5  6  2  0  0  0  0
  7  8  1  0  0  0  0
  7 12  2  0  0  0  0
  8  9  2  0  0  0  0
  9 10  1  0  0  0  0
 13  9  1  0  0  0  0
 10 11  2  0  0  0  0
 11 12  1  0  0  0  0
  2 14  1  0  0  0  0
  8 15  1  0  0  0  0
  3 16  1  0  0  0  0
 12 17  1  0  0  0  0
M  END