2,2',3,5-tetrabromodiphenyl ether
  Mrv0541 02261416282D          

 17 18  0  0  0  0            999 V2000
    1.7497   -4.4219    0.0000 C   0  0  0  0  0  0  0  0  0  0  0  0
    2.4642   -4.8344    0.0000 C   0  0  0  0  0  0  0  0  0  0  0  0
    2.4642   -5.6594    0.0000 C   0  0  0  0  0  0  0  0  0  0  0  0
    1.7497   -6.0719    0.0000 C   0  0  0  0  0  0  0  0  0  0  0  0
    1.0352   -5.6594    0.0000 C   0  0  0  0  0  0  0  0  0  0  0  0
    1.0352   -4.8344    0.0000 C   0  0  0  0  0  0  0  0  0  0  0  0
    0.3207   -1.9469    0.0000 C   0  0  0  0  0  0  0  0  0  0  0  0
    1.0352   -2.3594    0.0000 C   0  0  0  0  0  0  0  0  0  0  0  0
    1.0352   -3.1844    0.0000 C   0  0  0  0  0  0  0  0  0  0  0  0
    0.3207   -3.5969    0.0000 C   0  0  0  0  0  0  0  0  0  0  0  0
   -0.3937   -3.1844    0.0000 C   0  0  0  0  0  0  0  0  0  0  0  0
   -0.3937   -2.3594    0.0000 C   0  0  0  0  0  0  0  0  0  0  0  0
    1.7497   -3.5969    0.0000 O   0  0  0  0  0  0  0  0  0  0  0  0
    1.7497   -1.9469    0.0000 Br  0  0  0  0  0  0  0  0  0  0  0  0
    3.1786   -4.4219    0.0000 Br  0  0  0  0  0  0  0  0  0  0  0  0
    0.3207   -1.1219    0.0000 Br  0  0  0  0  0  0  0  0  0  0  0  0
   -0.9771   -3.7678    0.0000 Br  0  0  0  0  0  0  0  0  0  0  0  0
  1  2  2  0  0  0  0
  1  6  1  0  0  0  0
  1 13  1  0  0  0  0
  2  3  1  0  0  0  0
  3  4  2  0  0  0  0
  4  5  1  0  0  0  0
  5  6  2  0  0  0  0
  7  8  1  0  0  0  0
  7 12  2  0  0  0  0
  8  9  2  0  0  0  0
  9 10  1  0  0  0  0
 13  9  1  0  0  0  0
 10 11  2  0  0  0  0
 11 12  1  0  0  0  0
  8 14  1  0  0  0  0
  2 15  1  0  0  0  0
  7 16  1  0  0  0  0
 11 17  1  0  0  0  0
M  END