2,2',3,5'-tetrabromodiphenyl ether
  Mrv0541 02261416282D          

 17 18  0  0  0  0            999 V2000
   -0.5191   -0.5326    0.0000 C   0  0  0  0  0  0  0  0  0  0  0  0
    0.1954   -0.9451    0.0000 C   0  0  0  0  0  0  0  0  0  0  0  0
    0.1954   -1.7701    0.0000 C   0  0  0  0  0  0  0  0  0  0  0  0
   -0.5191   -2.1826    0.0000 C   0  0  0  0  0  0  0  0  0  0  0  0
   -1.2335   -1.7701    0.0000 C   0  0  0  0  0  0  0  0  0  0  0  0
   -1.2335   -0.9451    0.0000 C   0  0  0  0  0  0  0  0  0  0  0  0
   -1.9480    1.9424    0.0000 C   0  0  0  0  0  0  0  0  0  0  0  0
   -1.2335    1.5299    0.0000 C   0  0  0  0  0  0  0  0  0  0  0  0
   -1.2335    0.7049    0.0000 C   0  0  0  0  0  0  0  0  0  0  0  0
   -1.9480    0.2924    0.0000 C   0  0  0  0  0  0  0  0  0  0  0  0
   -2.6625    0.7049    0.0000 C   0  0  0  0  0  0  0  0  0  0  0  0
   -2.6625    1.5299    0.0000 C   0  0  0  0  0  0  0  0  0  0  0  0
   -0.5191    0.2924    0.0000 O   0  0  0  0  0  0  0  0  0  0  0  0
    0.9099   -0.5326    0.0000 Br  0  0  0  0  0  0  0  0  0  0  0  0
   -0.5191    1.9424    0.0000 Br  0  0  0  0  0  0  0  0  0  0  0  0
    0.9099   -2.1826    0.0000 Br  0  0  0  0  0  0  0  0  0  0  0  0
   -3.3769    0.2924    0.0000 Br  0  0  0  0  0  0  0  0  0  0  0  0
  1  2  2  0  0  0  0
  1  6  1  0  0  0  0
  1 13  1  0  0  0  0
  2  3  1  0  0  0  0
  3  4  2  0  0  0  0
  4  5  1  0  0  0  0
  5  6  2  0  0  0  0
  7  8  1  0  0  0  0
  7 12  2  0  0  0  0
  8  9  2  0  0  0  0
  9 10  1  0  0  0  0
 13  9  1  0  0  0  0
 10 11  2  0  0  0  0
 11 12  1  0  0  0  0
  2 14  1  0  0  0  0
  8 15  1  0  0  0  0
  3 16  1  0  0  0  0
 11 17  1  0  0  0  0
M  END