2,2',4,4'-tetrabromodiphenyl ether
  Mrv0541 02261416282D          

 17 18  0  0  0  0            999 V2000
    1.4845   -1.6228    0.0000 C   0  0  0  0  0  0  0  0  0  0  0  0
    2.1990   -2.0353    0.0000 C   0  0  0  0  0  0  0  0  0  0  0  0
    2.1990   -2.8603    0.0000 C   0  0  0  0  0  0  0  0  0  0  0  0
    1.4845   -3.2728    0.0000 C   0  0  0  0  0  0  0  0  0  0  0  0
    0.7700   -2.8603    0.0000 C   0  0  0  0  0  0  0  0  0  0  0  0
    0.7700   -2.0353    0.0000 C   0  0  0  0  0  0  0  0  0  0  0  0
    0.0556    0.8522    0.0000 C   0  0  0  0  0  0  0  0  0  0  0  0
    0.7700    0.4397    0.0000 C   0  0  0  0  0  0  0  0  0  0  0  0
    0.7700   -0.3853    0.0000 C   0  0  0  0  0  0  0  0  0  0  0  0
    0.0556   -0.7978    0.0000 C   0  0  0  0  0  0  0  0  0  0  0  0
   -0.6589   -0.3853    0.0000 C   0  0  0  0  0  0  0  0  0  0  0  0
   -0.6589    0.4397    0.0000 C   0  0  0  0  0  0  0  0  0  0  0  0
    1.4845   -0.7978    0.0000 O   0  0  0  0  0  0  0  0  0  0  0  0
    2.9135   -1.6228    0.0000 Br  0  0  0  0  0  0  0  0  0  0  0  0
    1.4845   -4.0978    0.0000 Br  0  0  0  0  0  0  0  0  0  0  0  0
    1.4845    0.8522    0.0000 Br  0  0  0  0  0  0  0  0  0  0  0  0
   -1.3734    0.8522    0.0000 Br  0  0  0  0  0  0  0  0  0  0  0  0
  1  2  2  0  0  0  0
  1  6  1  0  0  0  0
  1 13  1  0  0  0  0
  2  3  1  0  0  0  0
  3  4  2  0  0  0  0
  4  5  1  0  0  0  0
  5  6  2  0  0  0  0
  7  8  1  0  0  0  0
  7 12  2  0  0  0  0
  8  9  2  0  0  0  0
  9 10  1  0  0  0  0
 13  9  1  0  0  0  0
 10 11  2  0  0  0  0
 11 12  1  0  0  0  0
  2 14  1  0  0  0  0
  4 15  1  0  0  0  0
  8 16  1  0  0  0  0
 12 17  1  0  0  0  0
M  END