2,2',4,5'-tetrabromodiphenyl ether
  Mrv0541 02261416282D          

 17 18  0  0  0  0            999 V2000
    0.3354    0.1451    0.0000 C   0  0  0  0  0  0  0  0  0  0  0  0
    1.0499   -0.2674    0.0000 C   0  0  0  0  0  0  0  0  0  0  0  0
    1.0499   -1.0924    0.0000 C   0  0  0  0  0  0  0  0  0  0  0  0
    0.3354   -1.5049    0.0000 C   0  0  0  0  0  0  0  0  0  0  0  0
   -0.3791   -1.0924    0.0000 C   0  0  0  0  0  0  0  0  0  0  0  0
   -0.3791   -0.2674    0.0000 C   0  0  0  0  0  0  0  0  0  0  0  0
   -1.0935    2.6201    0.0000 C   0  0  0  0  0  0  0  0  0  0  0  0
   -0.3791    2.2076    0.0000 C   0  0  0  0  0  0  0  0  0  0  0  0
   -0.3791    1.3826    0.0000 C   0  0  0  0  0  0  0  0  0  0  0  0
   -1.0935    0.9701    0.0000 C   0  0  0  0  0  0  0  0  0  0  0  0
   -1.8080    1.3826    0.0000 C   0  0  0  0  0  0  0  0  0  0  0  0
   -1.8080    2.2076    0.0000 C   0  0  0  0  0  0  0  0  0  0  0  0
    0.3354    0.9701    0.0000 O   0  0  0  0  0  0  0  0  0  0  0  0
    1.7643    0.1451    0.0000 Br  0  0  0  0  0  0  0  0  0  0  0  0
    0.2043    2.7909    0.0000 Br  0  0  0  0  0  0  0  0  0  0  0  0
    0.3354   -2.3299    0.0000 Br  0  0  0  0  0  0  0  0  0  0  0  0
   -2.5225    0.9701    0.0000 Br  0  0  0  0  0  0  0  0  0  0  0  0
  1  2  2  0  0  0  0
  1  6  1  0  0  0  0
  1 13  1  0  0  0  0
  2  3  1  0  0  0  0
  3  4  2  0  0  0  0
  4  5  1  0  0  0  0
  5  6  2  0  0  0  0
  7  8  1  0  0  0  0
  7 12  2  0  0  0  0
  8  9  2  0  0  0  0
  9 10  1  0  0  0  0
 13  9  1  0  0  0  0
 10 11  2  0  0  0  0
 11 12  1  0  0  0  0
  2 14  1  0  0  0  0
  8 15  1  0  0  0  0
  4 16  1  0  0  0  0
 11 17  1  0  0  0  0
M  END