2,2',4,6-tetrabromodiphenyl ether
  Mrv0541 02261416282D          

 17 18  0  0  0  0            999 V2000
    0.0997   -1.1514    0.0000 C   0  0  0  0  0  0  0  0  0  0  0  0
    0.8142   -1.5639    0.0000 C   0  0  0  0  0  0  0  0  0  0  0  0
    0.8142   -2.3889    0.0000 C   0  0  0  0  0  0  0  0  0  0  0  0
    0.0997   -2.8014    0.0000 C   0  0  0  0  0  0  0  0  0  0  0  0
   -0.6148   -2.3889    0.0000 C   0  0  0  0  0  0  0  0  0  0  0  0
   -0.6148   -1.5639    0.0000 C   0  0  0  0  0  0  0  0  0  0  0  0
   -1.3293    1.3236    0.0000 C   0  0  0  0  0  0  0  0  0  0  0  0
   -0.6148    0.9111    0.0000 C   0  0  0  0  0  0  0  0  0  0  0  0
   -0.6148    0.0861    0.0000 C   0  0  0  0  0  0  0  0  0  0  0  0
   -1.3293   -0.3264    0.0000 C   0  0  0  0  0  0  0  0  0  0  0  0
   -2.0437    0.0861    0.0000 C   0  0  0  0  0  0  0  0  0  0  0  0
   -2.0437    0.9111    0.0000 C   0  0  0  0  0  0  0  0  0  0  0  0
    0.0997   -0.3264    0.0000 O   0  0  0  0  0  0  0  0  0  0  0  0
    1.5286   -1.1514    0.0000 Br  0  0  0  0  0  0  0  0  0  0  0  0
    0.0997    1.3236    0.0000 Br  0  0  0  0  0  0  0  0  0  0  0  0
    0.0997   -3.6264    0.0000 Br  0  0  0  0  0  0  0  0  0  0  0  0
   -1.3293   -1.1514    0.0000 Br  0  0  0  0  0  0  0  0  0  0  0  0
  1  2  2  0  0  0  0
  1  6  1  0  0  0  0
  1 13  1  0  0  0  0
  2  3  1  0  0  0  0
  3  4  2  0  0  0  0
  4  5  1  0  0  0  0
  5  6  2  0  0  0  0
  7  8  1  0  0  0  0
  7 12  2  0  0  0  0
  8  9  2  0  0  0  0
  9 10  1  0  0  0  0
 13  9  1  0  0  0  0
 10 11  2  0  0  0  0
 11 12  1  0  0  0  0
  2 14  1  0  0  0  0
  8 15  1  0  0  0  0
  4 16  1  0  0  0  0
  6 17  1  0  0  0  0
M  END