2,2',4,6'-tetrabromodiphenyl ether
  Mrv0541 02261416282D          

 17 18  0  0  0  0            999 V2000
    1.1309   -1.0041    0.0000 C   0  0  0  0  0  0  0  0  0  0  0  0
    1.8454   -1.4166    0.0000 C   0  0  0  0  0  0  0  0  0  0  0  0
    1.8454   -2.2416    0.0000 C   0  0  0  0  0  0  0  0  0  0  0  0
    1.1309   -2.6541    0.0000 C   0  0  0  0  0  0  0  0  0  0  0  0
    0.4165   -2.2416    0.0000 C   0  0  0  0  0  0  0  0  0  0  0  0
    0.4165   -1.4166    0.0000 C   0  0  0  0  0  0  0  0  0  0  0  0
   -0.2980    1.4709    0.0000 C   0  0  0  0  0  0  0  0  0  0  0  0
    0.4165    1.0584    0.0000 C   0  0  0  0  0  0  0  0  0  0  0  0
    0.4165    0.2334    0.0000 C   0  0  0  0  0  0  0  0  0  0  0  0
   -0.2980   -0.1791    0.0000 C   0  0  0  0  0  0  0  0  0  0  0  0
   -1.0125    0.2334    0.0000 C   0  0  0  0  0  0  0  0  0  0  0  0
   -1.0125    1.0584    0.0000 C   0  0  0  0  0  0  0  0  0  0  0  0
    1.1309   -0.1791    0.0000 O   0  0  0  0  0  0  0  0  0  0  0  0
    2.5599   -1.0041    0.0000 Br  0  0  0  0  0  0  0  0  0  0  0  0
    1.1309    1.4709    0.0000 Br  0  0  0  0  0  0  0  0  0  0  0  0
   -1.5958    1.6418    0.0000 Br  0  0  0  0  0  0  0  0  0  0  0  0
   -0.3804   -1.2030    0.0000 Br  0  0  0  0  0  0  0  0  0  0  0  0
  1  2  2  0  0  0  0
  1  6  1  0  0  0  0
  1 13  1  0  0  0  0
  2  3  1  0  0  0  0
  3  4  2  0  0  0  0
  4  5  1  0  0  0  0
  5  6  2  0  0  0  0
  7  8  1  0  0  0  0
  7 12  2  0  0  0  0
  8  9  2  0  0  0  0
  9 10  1  0  0  0  0
 13  9  1  0  0  0  0
 10 11  2  0  0  0  0
 11 12  1  0  0  0  0
  2 14  1  0  0  0  0
  8 15  1  0  0  0  0
 12 16  1  0  0  0  0
  6 17  1  0  0  0  0
M  END