2,2',5,5'-tetrabromodiphenyl ether
  Mrv0541 02261416282D          

 17 18  0  0  0  0            999 V2000
    1.1309   -1.6817    0.0000 C   0  0  0  0  0  0  0  0  0  0  0  0
    1.8454   -2.0942    0.0000 C   0  0  0  0  0  0  0  0  0  0  0  0
    1.8454   -2.9192    0.0000 C   0  0  0  0  0  0  0  0  0  0  0  0
    1.1309   -3.3317    0.0000 C   0  0  0  0  0  0  0  0  0  0  0  0
    0.4165   -2.9192    0.0000 C   0  0  0  0  0  0  0  0  0  0  0  0
    0.4165   -2.0942    0.0000 C   0  0  0  0  0  0  0  0  0  0  0  0
   -0.2980    0.7933    0.0000 C   0  0  0  0  0  0  0  0  0  0  0  0
    0.4165    0.3808    0.0000 C   0  0  0  0  0  0  0  0  0  0  0  0
    0.4165   -0.4442    0.0000 C   0  0  0  0  0  0  0  0  0  0  0  0
   -0.2980   -0.8567    0.0000 C   0  0  0  0  0  0  0  0  0  0  0  0
   -1.0125   -0.4442    0.0000 C   0  0  0  0  0  0  0  0  0  0  0  0
   -1.0125    0.3808    0.0000 C   0  0  0  0  0  0  0  0  0  0  0  0
    1.1309   -0.8567    0.0000 O   0  0  0  0  0  0  0  0  0  0  0  0
    2.5599   -1.6817    0.0000 Br  0  0  0  0  0  0  0  0  0  0  0  0
    1.1309    0.7933    0.0000 Br  0  0  0  0  0  0  0  0  0  0  0  0
   -0.2980   -3.3317    0.0000 Br  0  0  0  0  0  0  0  0  0  0  0  0
   -1.7269   -0.8567    0.0000 Br  0  0  0  0  0  0  0  0  0  0  0  0
  1  2  2  0  0  0  0
  1  6  1  0  0  0  0
  1 13  1  0  0  0  0
  2  3  1  0  0  0  0
  3  4  2  0  0  0  0
  4  5  1  0  0  0  0
  5  6  2  0  0  0  0
  7  8  1  0  0  0  0
  7 12  2  0  0  0  0
  8  9  2  0  0  0  0
  9 10  1  0  0  0  0
 13  9  1  0  0  0  0
 10 11  2  0  0  0  0
 11 12  1  0  0  0  0
  2 14  1  0  0  0  0
  8 15  1  0  0  0  0
  5 16  1  0  0  0  0
 11 17  1  0  0  0  0
M  END