2,2',5,6'-tetrabromodiphenyl ether
  Mrv0541 02261416282D          

 17 18  0  0  0  0            999 V2000
    1.3077   -1.5639    0.0000 C   0  0  0  0  0  0  0  0  0  0  0  0
    2.0222   -1.9764    0.0000 C   0  0  0  0  0  0  0  0  0  0  0  0
    2.0222   -2.8014    0.0000 C   0  0  0  0  0  0  0  0  0  0  0  0
    1.3077   -3.2139    0.0000 C   0  0  0  0  0  0  0  0  0  0  0  0
    0.5933   -2.8014    0.0000 C   0  0  0  0  0  0  0  0  0  0  0  0
    0.5933   -1.9764    0.0000 C   0  0  0  0  0  0  0  0  0  0  0  0
   -0.1212    0.9111    0.0000 C   0  0  0  0  0  0  0  0  0  0  0  0
    0.5933    0.4986    0.0000 C   0  0  0  0  0  0  0  0  0  0  0  0
    0.5933   -0.3264    0.0000 C   0  0  0  0  0  0  0  0  0  0  0  0
   -0.1212   -0.7389    0.0000 C   0  0  0  0  0  0  0  0  0  0  0  0
   -0.8357   -0.3264    0.0000 C   0  0  0  0  0  0  0  0  0  0  0  0
   -0.8357    0.4986    0.0000 C   0  0  0  0  0  0  0  0  0  0  0  0
    1.3077   -0.7389    0.0000 O   0  0  0  0  0  0  0  0  0  0  0  0
    2.7367   -1.5639    0.0000 Br  0  0  0  0  0  0  0  0  0  0  0  0
    1.3077    0.9111    0.0000 Br  0  0  0  0  0  0  0  0  0  0  0  0
   -0.1212   -3.2139    0.0000 Br  0  0  0  0  0  0  0  0  0  0  0  0
   -0.1212   -1.5639    0.0000 Br  0  0  0  0  0  0  0  0  0  0  0  0
  1  2  2  0  0  0  0
  1  6  1  0  0  0  0
  1 13  1  0  0  0  0
  2  3  1  0  0  0  0
  3  4  2  0  0  0  0
  4  5  1  0  0  0  0
  5  6  2  0  0  0  0
  7  8  1  0  0  0  0
  7 12  2  0  0  0  0
  8  9  2  0  0  0  0
  9 10  1  0  0  0  0
 13  9  1  0  0  0  0
 10 11  2  0  0  0  0
 11 12  1  0  0  0  0
  2 14  1  0  0  0  0
  8 15  1  0  0  0  0
  5 16  1  0  0  0  0
 10 17  1  0  0  0  0
M  END