2,2',6,6'-tetrabromodiphenyl ether
  Mrv0541 02261416282D          

 17 18  0  0  0  0            999 V2000
    0.2470   -1.1808    0.0000 C   0  0  0  0  0  0  0  0  0  0  0  0
    0.9615   -1.5933    0.0000 C   0  0  0  0  0  0  0  0  0  0  0  0
    0.9615   -2.4183    0.0000 C   0  0  0  0  0  0  0  0  0  0  0  0
    0.2470   -2.8308    0.0000 C   0  0  0  0  0  0  0  0  0  0  0  0
   -0.4675   -2.4183    0.0000 C   0  0  0  0  0  0  0  0  0  0  0  0
   -0.4675   -1.5933    0.0000 C   0  0  0  0  0  0  0  0  0  0  0  0
   -1.1819    1.2942    0.0000 C   0  0  0  0  0  0  0  0  0  0  0  0
   -0.4675    0.8817    0.0000 C   0  0  0  0  0  0  0  0  0  0  0  0
   -0.4675    0.0567    0.0000 C   0  0  0  0  0  0  0  0  0  0  0  0
   -1.1819   -0.3558    0.0000 C   0  0  0  0  0  0  0  0  0  0  0  0
   -1.8964    0.0567    0.0000 C   0  0  0  0  0  0  0  0  0  0  0  0
   -1.8964    0.8817    0.0000 C   0  0  0  0  0  0  0  0  0  0  0  0
    0.2470   -0.3558    0.0000 O   0  0  0  0  0  0  0  0  0  0  0  0
    1.6760   -1.1808    0.0000 Br  0  0  0  0  0  0  0  0  0  0  0  0
    0.2470    1.2942    0.0000 Br  0  0  0  0  0  0  0  0  0  0  0  0
   -1.1819   -1.1808    0.0000 Br  0  0  0  0  0  0  0  0  0  0  0  0
   -1.2643   -1.8069    0.0000 Br  0  0  0  0  0  0  0  0  0  0  0  0
  1  2  2  0  0  0  0
  1  6  1  0  0  0  0
  1 13  1  0  0  0  0
  2  3  1  0  0  0  0
  3  4  2  0  0  0  0
  4  5  1  0  0  0  0
  5  6  2  0  0  0  0
  7  8  1  0  0  0  0
  7 12  2  0  0  0  0
  8  9  2  0  0  0  0
  9 10  1  0  0  0  0
 13  9  1  0  0  0  0
 10 11  2  0  0  0  0
 11 12  1  0  0  0  0
  2 14  1  0  0  0  0
  8 15  1  0  0  0  0
 10 16  1  0  0  0  0
  6 17  1  0  0  0  0
M  END