2,3,3',4-tetrabromodiphenyl ether
  Mrv0541 02261416282D          

 17 18  0  0  0  0            999 V2000
    0.3943   -1.9174    0.0000 C   0  0  0  0  0  0  0  0  0  0  0  0
    1.1088   -2.3299    0.0000 C   0  0  0  0  0  0  0  0  0  0  0  0
    1.1088   -3.1549    0.0000 C   0  0  0  0  0  0  0  0  0  0  0  0
    0.3943   -3.5674    0.0000 C   0  0  0  0  0  0  0  0  0  0  0  0
   -0.3201   -3.1549    0.0000 C   0  0  0  0  0  0  0  0  0  0  0  0
   -0.3201   -2.3299    0.0000 C   0  0  0  0  0  0  0  0  0  0  0  0
   -1.0346    0.5576    0.0000 C   0  0  0  0  0  0  0  0  0  0  0  0
   -0.3201    0.1451    0.0000 C   0  0  0  0  0  0  0  0  0  0  0  0
   -0.3201   -0.6799    0.0000 C   0  0  0  0  0  0  0  0  0  0  0  0
   -1.0346   -1.0924    0.0000 C   0  0  0  0  0  0  0  0  0  0  0  0
   -1.7491   -0.6799    0.0000 C   0  0  0  0  0  0  0  0  0  0  0  0
   -1.7491    0.1451    0.0000 C   0  0  0  0  0  0  0  0  0  0  0  0
    0.3943   -1.0924    0.0000 O   0  0  0  0  0  0  0  0  0  0  0  0
    1.8233   -1.9174    0.0000 Br  0  0  0  0  0  0  0  0  0  0  0  0
    1.8233   -3.5674    0.0000 Br  0  0  0  0  0  0  0  0  0  0  0  0
    0.3943   -4.3924    0.0000 Br  0  0  0  0  0  0  0  0  0  0  0  0
   -1.0346    1.3826    0.0000 Br  0  0  0  0  0  0  0  0  0  0  0  0
  1  2  2  0  0  0  0
  1  6  1  0  0  0  0
  1 13  1  0  0  0  0
  2  3  1  0  0  0  0
  3  4  2  0  0  0  0
  4  5  1  0  0  0  0
  5  6  2  0  0  0  0
  7  8  1  0  0  0  0
  7 12  2  0  0  0  0
  8  9  2  0  0  0  0
  9 10  1  0  0  0  0
 13  9  1  0  0  0  0
 10 11  2  0  0  0  0
 11 12  1  0  0  0  0
  2 14  1  0  0  0  0
  3 15  1  0  0  0  0
  4 16  1  0  0  0  0
  7 17  1  0  0  0  0
M  END