2,3,3',4'-tetrabromodiphenyl ether
  Mrv0541 02261416282D          

 17 18  0  0  0  0            999 V2000
    1.0131   -2.3005    0.0000 C   0  0  0  0  0  0  0  0  0  0  0  0
    1.7276   -2.7130    0.0000 C   0  0  0  0  0  0  0  0  0  0  0  0
    1.7276   -3.5380    0.0000 C   0  0  0  0  0  0  0  0  0  0  0  0
    1.0131   -3.9505    0.0000 C   0  0  0  0  0  0  0  0  0  0  0  0
    0.2986   -3.5380    0.0000 C   0  0  0  0  0  0  0  0  0  0  0  0
    0.2986   -2.7130    0.0000 C   0  0  0  0  0  0  0  0  0  0  0  0
   -0.4159    0.1745    0.0000 C   0  0  0  0  0  0  0  0  0  0  0  0
    0.2986   -0.2380    0.0000 C   0  0  0  0  0  0  0  0  0  0  0  0
    0.2986   -1.0630    0.0000 C   0  0  0  0  0  0  0  0  0  0  0  0
   -0.4159   -1.4755    0.0000 C   0  0  0  0  0  0  0  0  0  0  0  0
   -1.1303   -1.0630    0.0000 C   0  0  0  0  0  0  0  0  0  0  0  0
   -1.1303   -0.2380    0.0000 C   0  0  0  0  0  0  0  0  0  0  0  0
    1.0131   -1.4755    0.0000 O   0  0  0  0  0  0  0  0  0  0  0  0
    2.5244   -2.4995    0.0000 Br  0  0  0  0  0  0  0  0  0  0  0  0
    2.4420   -3.9505    0.0000 Br  0  0  0  0  0  0  0  0  0  0  0  0
   -0.4159    0.9995    0.0000 Br  0  0  0  0  0  0  0  0  0  0  0  0
   -1.8448    0.1745    0.0000 Br  0  0  0  0  0  0  0  0  0  0  0  0
  1  2  2  0  0  0  0
  1  6  1  0  0  0  0
  1 13  1  0  0  0  0
  2  3  1  0  0  0  0
  3  4  2  0  0  0  0
  4  5  1  0  0  0  0
  5  6  2  0  0  0  0
  7  8  1  0  0  0  0
  7 12  2  0  0  0  0
  8  9  2  0  0  0  0
  9 10  1  0  0  0  0
 13  9  1  0  0  0  0
 10 11  2  0  0  0  0
 11 12  1  0  0  0  0
  2 14  1  0  0  0  0
  3 15  1  0  0  0  0
  7 16  1  0  0  0  0
 12 17  1  0  0  0  0
M  END