2,3,3',5-tetrabromodiphenyl ether
  Mrv0541 02261416282D          

 17 18  0  0  0  0            999 V2000
    0.8363   -1.4460    0.0000 C   0  0  0  0  0  0  0  0  0  0  0  0
    1.5508   -1.8585    0.0000 C   0  0  0  0  0  0  0  0  0  0  0  0
    1.5508   -2.6835    0.0000 C   0  0  0  0  0  0  0  0  0  0  0  0
    0.8363   -3.0960    0.0000 C   0  0  0  0  0  0  0  0  0  0  0  0
    0.1218   -2.6835    0.0000 C   0  0  0  0  0  0  0  0  0  0  0  0
    0.1218   -1.8585    0.0000 C   0  0  0  0  0  0  0  0  0  0  0  0
   -0.5926    1.0290    0.0000 C   0  0  0  0  0  0  0  0  0  0  0  0
    0.1218    0.6165    0.0000 C   0  0  0  0  0  0  0  0  0  0  0  0
    0.1218   -0.2085    0.0000 C   0  0  0  0  0  0  0  0  0  0  0  0
   -0.5926   -0.6210    0.0000 C   0  0  0  0  0  0  0  0  0  0  0  0
   -1.3071   -0.2085    0.0000 C   0  0  0  0  0  0  0  0  0  0  0  0
   -1.3071    0.6165    0.0000 C   0  0  0  0  0  0  0  0  0  0  0  0
    0.8363   -0.6210    0.0000 O   0  0  0  0  0  0  0  0  0  0  0  0
    2.2652   -1.4460    0.0000 Br  0  0  0  0  0  0  0  0  0  0  0  0
    2.1341   -3.2669    0.0000 Br  0  0  0  0  0  0  0  0  0  0  0  0
   -0.5926   -3.0960    0.0000 Br  0  0  0  0  0  0  0  0  0  0  0  0
   -0.5926    1.8540    0.0000 Br  0  0  0  0  0  0  0  0  0  0  0  0
  1  2  2  0  0  0  0
  1  6  1  0  0  0  0
  1 13  1  0  0  0  0
  2  3  1  0  0  0  0
  3  4  2  0  0  0  0
  4  5  1  0  0  0  0
  5  6  2  0  0  0  0
  7  8  1  0  0  0  0
  7 12  2  0  0  0  0
  8  9  2  0  0  0  0
  9 10  1  0  0  0  0
 13  9  1  0  0  0  0
 10 11  2  0  0  0  0
 11 12  1  0  0  0  0
  2 14  1  0  0  0  0
  3 15  1  0  0  0  0
  5 16  1  0  0  0  0
  7 17  1  0  0  0  0
M  END