2,3,3',5'-tetrabromodiphenyl ether
  Mrv0541 02261416282D          

 17 18  0  0  0  0            999 V2000
    0.6890   -2.4773    0.0000 C   0  0  0  0  0  0  0  0  0  0  0  0
    1.4034   -2.8898    0.0000 C   0  0  0  0  0  0  0  0  0  0  0  0
    1.4034   -3.7148    0.0000 C   0  0  0  0  0  0  0  0  0  0  0  0
    0.6890   -4.1273    0.0000 C   0  0  0  0  0  0  0  0  0  0  0  0
   -0.0255   -3.7148    0.0000 C   0  0  0  0  0  0  0  0  0  0  0  0
   -0.0255   -2.8898    0.0000 C   0  0  0  0  0  0  0  0  0  0  0  0
   -0.7400   -0.0023    0.0000 C   0  0  0  0  0  0  0  0  0  0  0  0
   -0.0255   -0.4148    0.0000 C   0  0  0  0  0  0  0  0  0  0  0  0
   -0.0255   -1.2398    0.0000 C   0  0  0  0  0  0  0  0  0  0  0  0
   -0.7400   -1.6523    0.0000 C   0  0  0  0  0  0  0  0  0  0  0  0
   -1.4544   -1.2398    0.0000 C   0  0  0  0  0  0  0  0  0  0  0  0
   -1.4544   -0.4148    0.0000 C   0  0  0  0  0  0  0  0  0  0  0  0
    0.6890   -1.6523    0.0000 O   0  0  0  0  0  0  0  0  0  0  0  0
    2.1179   -2.4773    0.0000 Br  0  0  0  0  0  0  0  0  0  0  0  0
    2.1179   -4.1273    0.0000 Br  0  0  0  0  0  0  0  0  0  0  0  0
   -0.7400    0.8227    0.0000 Br  0  0  0  0  0  0  0  0  0  0  0  0
   -2.1689   -1.6523    0.0000 Br  0  0  0  0  0  0  0  0  0  0  0  0
  1  2  2  0  0  0  0
  1  6  1  0  0  0  0
  1 13  1  0  0  0  0
  2  3  1  0  0  0  0
  3  4  2  0  0  0  0
  4  5  1  0  0  0  0
  5  6  2  0  0  0  0
  7  8  1  0  0  0  0
  7 12  2  0  0  0  0
  8  9  2  0  0  0  0
  9 10  1  0  0  0  0
 13  9  1  0  0  0  0
 10 11  2  0  0  0  0
 11 12  1  0  0  0  0
  2 14  1  0  0  0  0
  3 15  1  0  0  0  0
  7 16  1  0  0  0  0
 11 17  1  0  0  0  0
M  END