2,3,3',6-tetrabromodiphenyl ether
  Mrv0541 02261416282D          

 17 18  0  0  0  0            999 V2000
    1.5140   -1.2987    0.0000 C   0  0  0  0  0  0  0  0  0  0  0  0
    2.2284   -1.7112    0.0000 C   0  0  0  0  0  0  0  0  0  0  0  0
    2.2284   -2.5362    0.0000 C   0  0  0  0  0  0  0  0  0  0  0  0
    1.5140   -2.9487    0.0000 C   0  0  0  0  0  0  0  0  0  0  0  0
    0.7995   -2.5362    0.0000 C   0  0  0  0  0  0  0  0  0  0  0  0
    0.7995   -1.7112    0.0000 C   0  0  0  0  0  0  0  0  0  0  0  0
    0.0850    1.1763    0.0000 C   0  0  0  0  0  0  0  0  0  0  0  0
    0.7995    0.7638    0.0000 C   0  0  0  0  0  0  0  0  0  0  0  0
    0.7995   -0.0612    0.0000 C   0  0  0  0  0  0  0  0  0  0  0  0
    0.0850   -0.4737    0.0000 C   0  0  0  0  0  0  0  0  0  0  0  0
   -0.6294   -0.0612    0.0000 C   0  0  0  0  0  0  0  0  0  0  0  0
   -0.6294    0.7638    0.0000 C   0  0  0  0  0  0  0  0  0  0  0  0
    1.5140   -0.4737    0.0000 O   0  0  0  0  0  0  0  0  0  0  0  0
    2.9429   -1.2987    0.0000 Br  0  0  0  0  0  0  0  0  0  0  0  0
    2.9429   -2.9487    0.0000 Br  0  0  0  0  0  0  0  0  0  0  0  0
    0.0850   -1.2987    0.0000 Br  0  0  0  0  0  0  0  0  0  0  0  0
    0.0850    2.0013    0.0000 Br  0  0  0  0  0  0  0  0  0  0  0  0
  1  2  2  0  0  0  0
  1  6  1  0  0  0  0
  1 13  1  0  0  0  0
  2  3  1  0  0  0  0
  3  4  2  0  0  0  0
  4  5  1  0  0  0  0
  5  6  2  0  0  0  0
  7  8  1  0  0  0  0
  7 12  2  0  0  0  0
  8  9  2  0  0  0  0
  9 10  1  0  0  0  0
 13  9  1  0  0  0  0
 10 11  2  0  0  0  0
 11 12  1  0  0  0  0
  2 14  1  0  0  0  0
  3 15  1  0  0  0  0
  6 16  1  0  0  0  0
  7 17  1  0  0  0  0
M  END