2,3,4,4'-tetrabromodiphenyl ether
  Mrv0541 02261416282D          

 17 18  0  0  0  0            999 V2000
    1.2783   -2.1826    0.0000 C   0  0  0  0  0  0  0  0  0  0  0  0
    1.9927   -2.5951    0.0000 C   0  0  0  0  0  0  0  0  0  0  0  0
    1.9927   -3.4201    0.0000 C   0  0  0  0  0  0  0  0  0  0  0  0
    1.2783   -3.8326    0.0000 C   0  0  0  0  0  0  0  0  0  0  0  0
    0.5638   -3.4201    0.0000 C   0  0  0  0  0  0  0  0  0  0  0  0
    0.5638   -2.5951    0.0000 C   0  0  0  0  0  0  0  0  0  0  0  0
   -0.1507    0.2924    0.0000 C   0  0  0  0  0  0  0  0  0  0  0  0
    0.5638   -0.1201    0.0000 C   0  0  0  0  0  0  0  0  0  0  0  0
    0.5638   -0.9451    0.0000 C   0  0  0  0  0  0  0  0  0  0  0  0
   -0.1507   -1.3576    0.0000 C   0  0  0  0  0  0  0  0  0  0  0  0
   -0.8652   -0.9451    0.0000 C   0  0  0  0  0  0  0  0  0  0  0  0
   -0.8652   -0.1201    0.0000 C   0  0  0  0  0  0  0  0  0  0  0  0
    1.2783   -1.3576    0.0000 O   0  0  0  0  0  0  0  0  0  0  0  0
    2.7072   -2.1826    0.0000 Br  0  0  0  0  0  0  0  0  0  0  0  0
    2.5761   -4.0035    0.0000 Br  0  0  0  0  0  0  0  0  0  0  0  0
    1.2783   -4.6576    0.0000 Br  0  0  0  0  0  0  0  0  0  0  0  0
   -1.4485    0.4632    0.0000 Br  0  0  0  0  0  0  0  0  0  0  0  0
  1  2  2  0  0  0  0
  1  6  1  0  0  0  0
  1 13  1  0  0  0  0
  2  3  1  0  0  0  0
  3  4  2  0  0  0  0
  4  5  1  0  0  0  0
  5  6  2  0  0  0  0
  7  8  1  0  0  0  0
  7 12  2  0  0  0  0
  8  9  2  0  0  0  0
  9 10  1  0  0  0  0
 13  9  1  0  0  0  0
 10 11  2  0  0  0  0
 11 12  1  0  0  0  0
  2 14  1  0  0  0  0
  3 15  1  0  0  0  0
  4 16  1  0  0  0  0
 12 17  1  0  0  0  0
M  END