2,3,4,5-tetrabromodiphenyl ether
  Mrv0541 02261416282D          

 17 18  0  0  0  0            999 V2000
    1.3667   -1.7407    0.0000 C   0  0  0  0  0  0  0  0  0  0  0  0
    2.0811   -2.1532    0.0000 C   0  0  0  0  0  0  0  0  0  0  0  0
    2.0811   -2.9782    0.0000 C   0  0  0  0  0  0  0  0  0  0  0  0
    1.3667   -3.3907    0.0000 C   0  0  0  0  0  0  0  0  0  0  0  0
    0.6522   -2.9782    0.0000 C   0  0  0  0  0  0  0  0  0  0  0  0
    0.6522   -2.1532    0.0000 C   0  0  0  0  0  0  0  0  0  0  0  0
   -0.0623    0.7343    0.0000 C   0  0  0  0  0  0  0  0  0  0  0  0
    0.6522    0.3218    0.0000 C   0  0  0  0  0  0  0  0  0  0  0  0
    0.6522   -0.5032    0.0000 C   0  0  0  0  0  0  0  0  0  0  0  0
   -0.0623   -0.9157    0.0000 C   0  0  0  0  0  0  0  0  0  0  0  0
   -0.7768   -0.5032    0.0000 C   0  0  0  0  0  0  0  0  0  0  0  0
   -0.7768    0.3218    0.0000 C   0  0  0  0  0  0  0  0  0  0  0  0
    1.3667   -0.9157    0.0000 O   0  0  0  0  0  0  0  0  0  0  0  0
    2.7956   -1.7407    0.0000 Br  0  0  0  0  0  0  0  0  0  0  0  0
    2.7956   -3.3907    0.0000 Br  0  0  0  0  0  0  0  0  0  0  0  0
    1.3667   -4.2157    0.0000 Br  0  0  0  0  0  0  0  0  0  0  0  0
   -0.0623   -3.3907    0.0000 Br  0  0  0  0  0  0  0  0  0  0  0  0
  1  2  2  0  0  0  0
  1  6  1  0  0  0  0
  1 13  1  0  0  0  0
  2  3  1  0  0  0  0
  3  4  2  0  0  0  0
  4  5  1  0  0  0  0
  5  6  2  0  0  0  0
  7  8  1  0  0  0  0
  7 12  2  0  0  0  0
  8  9  2  0  0  0  0
  9 10  1  0  0  0  0
 13  9  1  0  0  0  0
 10 11  2  0  0  0  0
 11 12  1  0  0  0  0
  2 14  1  0  0  0  0
  3 15  1  0  0  0  0
  4 16  1  0  0  0  0
  5 17  1  0  0  0  0
M  END