2,3,4,6-tetrabromodiphenyl ether
  Mrv0541 02261416282D          

 17 18  0  0  0  0            999 V2000
    1.5729   -1.5639    0.0000 C   0  0  0  0  0  0  0  0  0  0  0  0
    2.2874   -1.9764    0.0000 C   0  0  0  0  0  0  0  0  0  0  0  0
    2.2874   -2.8014    0.0000 C   0  0  0  0  0  0  0  0  0  0  0  0
    1.5729   -3.2139    0.0000 C   0  0  0  0  0  0  0  0  0  0  0  0
    0.8584   -2.8014    0.0000 C   0  0  0  0  0  0  0  0  0  0  0  0
    0.8584   -1.9764    0.0000 C   0  0  0  0  0  0  0  0  0  0  0  0
    0.1440    0.9111    0.0000 C   0  0  0  0  0  0  0  0  0  0  0  0
    0.8584    0.4986    0.0000 C   0  0  0  0  0  0  0  0  0  0  0  0
    0.8584   -0.3264    0.0000 C   0  0  0  0  0  0  0  0  0  0  0  0
    0.1440   -0.7389    0.0000 C   0  0  0  0  0  0  0  0  0  0  0  0
   -0.5705   -0.3264    0.0000 C   0  0  0  0  0  0  0  0  0  0  0  0
   -0.5705    0.4986    0.0000 C   0  0  0  0  0  0  0  0  0  0  0  0
    1.5729   -0.7389    0.0000 O   0  0  0  0  0  0  0  0  0  0  0  0
    3.0018   -1.5639    0.0000 Br  0  0  0  0  0  0  0  0  0  0  0  0
    2.8707   -3.3847    0.0000 Br  0  0  0  0  0  0  0  0  0  0  0  0
    1.5729   -4.0389    0.0000 Br  0  0  0  0  0  0  0  0  0  0  0  0
    0.0615   -1.7628    0.0000 Br  0  0  0  0  0  0  0  0  0  0  0  0
  1  2  2  0  0  0  0
  1  6  1  0  0  0  0
  1 13  1  0  0  0  0
  2  3  1  0  0  0  0
  3  4  2  0  0  0  0
  4  5  1  0  0  0  0
  5  6  2  0  0  0  0
  7  8  1  0  0  0  0
  7 12  2  0  0  0  0
  8  9  2  0  0  0  0
  9 10  1  0  0  0  0
 13  9  1  0  0  0  0
 10 11  2  0  0  0  0
 11 12  1  0  0  0  0
  2 14  1  0  0  0  0
  3 15  1  0  0  0  0
  4 16  1  0  0  0  0
  6 17  1  0  0  0  0
M  END