2,3,4',5-tetrabromodiphenyl ether
  Mrv0541 02261416282D          

 17 18  0  0  0  0            999 V2000
    1.0720   -0.8862    0.0000 C   0  0  0  0  0  0  0  0  0  0  0  0
    1.7865   -1.2987    0.0000 C   0  0  0  0  0  0  0  0  0  0  0  0
    1.7865   -2.1237    0.0000 C   0  0  0  0  0  0  0  0  0  0  0  0
    1.0720   -2.5362    0.0000 C   0  0  0  0  0  0  0  0  0  0  0  0
    0.3575   -2.1237    0.0000 C   0  0  0  0  0  0  0  0  0  0  0  0
    0.3575   -1.2987    0.0000 C   0  0  0  0  0  0  0  0  0  0  0  0
   -0.3569    1.5888    0.0000 C   0  0  0  0  0  0  0  0  0  0  0  0
    0.3575    1.1763    0.0000 C   0  0  0  0  0  0  0  0  0  0  0  0
    0.3575    0.3513    0.0000 C   0  0  0  0  0  0  0  0  0  0  0  0
   -0.3569   -0.0612    0.0000 C   0  0  0  0  0  0  0  0  0  0  0  0
   -1.0714    0.3513    0.0000 C   0  0  0  0  0  0  0  0  0  0  0  0
   -1.0714    1.1763    0.0000 C   0  0  0  0  0  0  0  0  0  0  0  0
    1.0720   -0.0612    0.0000 O   0  0  0  0  0  0  0  0  0  0  0  0
    2.5010   -0.8862    0.0000 Br  0  0  0  0  0  0  0  0  0  0  0  0
    2.3698   -2.7071    0.0000 Br  0  0  0  0  0  0  0  0  0  0  0  0
   -1.7859    1.5888    0.0000 Br  0  0  0  0  0  0  0  0  0  0  0  0
   -0.3569   -2.5362    0.0000 Br  0  0  0  0  0  0  0  0  0  0  0  0
  1  2  2  0  0  0  0
  1  6  1  0  0  0  0
  1 13  1  0  0  0  0
  2  3  1  0  0  0  0
  3  4  2  0  0  0  0
  4  5  1  0  0  0  0
  5  6  2  0  0  0  0
  7  8  1  0  0  0  0
  7 12  2  0  0  0  0
  8  9  2  0  0  0  0
  9 10  1  0  0  0  0
 13  9  1  0  0  0  0
 10 11  2  0  0  0  0
 11 12  1  0  0  0  0
  2 14  1  0  0  0  0
  3 15  1  0  0  0  0
 12 16  1  0  0  0  0
  5 17  1  0  0  0  0
M  END