2,3,4',6-tetrabromodiphenyl ether
  Mrv0541 02261416282D          

 17 18  0  0  0  0            999 V2000
    0.6890   -1.4755    0.0000 C   0  0  0  0  0  0  0  0  0  0  0  0
    1.4034   -1.8880    0.0000 C   0  0  0  0  0  0  0  0  0  0  0  0
    1.4034   -2.7130    0.0000 C   0  0  0  0  0  0  0  0  0  0  0  0
    0.6890   -3.1255    0.0000 C   0  0  0  0  0  0  0  0  0  0  0  0
   -0.0255   -2.7130    0.0000 C   0  0  0  0  0  0  0  0  0  0  0  0
   -0.0255   -1.8880    0.0000 C   0  0  0  0  0  0  0  0  0  0  0  0
   -0.7400    0.9995    0.0000 C   0  0  0  0  0  0  0  0  0  0  0  0
   -0.0255    0.5870    0.0000 C   0  0  0  0  0  0  0  0  0  0  0  0
   -0.0255   -0.2380    0.0000 C   0  0  0  0  0  0  0  0  0  0  0  0
   -0.7400   -0.6505    0.0000 C   0  0  0  0  0  0  0  0  0  0  0  0
   -1.4544   -0.2380    0.0000 C   0  0  0  0  0  0  0  0  0  0  0  0
   -1.4544    0.5870    0.0000 C   0  0  0  0  0  0  0  0  0  0  0  0
    0.6890   -0.6505    0.0000 O   0  0  0  0  0  0  0  0  0  0  0  0
    2.1179   -1.4755    0.0000 Br  0  0  0  0  0  0  0  0  0  0  0  0
    2.1179   -3.1255    0.0000 Br  0  0  0  0  0  0  0  0  0  0  0  0
   -0.8224   -1.6745    0.0000 Br  0  0  0  0  0  0  0  0  0  0  0  0
   -2.0378    1.1704    0.0000 Br  0  0  0  0  0  0  0  0  0  0  0  0
  1  2  2  0  0  0  0
  1  6  1  0  0  0  0
  1 13  1  0  0  0  0
  2  3  1  0  0  0  0
  3  4  2  0  0  0  0
  4  5  1  0  0  0  0
  5  6  2  0  0  0  0
  7  8  1  0  0  0  0
  7 12  2  0  0  0  0
  8  9  2  0  0  0  0
  9 10  1  0  0  0  0
 13  9  1  0  0  0  0
 10 11  2  0  0  0  0
 11 12  1  0  0  0  0
  2 14  1  0  0  0  0
  3 15  1  0  0  0  0
  6 16  1  0  0  0  0
 12 17  1  0  0  0  0
M  END