2,3,5,6-tetrabromodiphenyl ether
  Mrv0541 02261416282D          

 17 18  0  0  0  0            999 V2000
    0.7774   -0.9451    0.0000 C   0  0  0  0  0  0  0  0  0  0  0  0
    1.4918   -1.3576    0.0000 C   0  0  0  0  0  0  0  0  0  0  0  0
    1.4918   -2.1826    0.0000 C   0  0  0  0  0  0  0  0  0  0  0  0
    0.7774   -2.5951    0.0000 C   0  0  0  0  0  0  0  0  0  0  0  0
    0.0629   -2.1826    0.0000 C   0  0  0  0  0  0  0  0  0  0  0  0
    0.0629   -1.3576    0.0000 C   0  0  0  0  0  0  0  0  0  0  0  0
   -0.6516    1.5299    0.0000 C   0  0  0  0  0  0  0  0  0  0  0  0
    0.0629    1.1174    0.0000 C   0  0  0  0  0  0  0  0  0  0  0  0
    0.0629    0.2924    0.0000 C   0  0  0  0  0  0  0  0  0  0  0  0
   -0.6516   -0.1201    0.0000 C   0  0  0  0  0  0  0  0  0  0  0  0
   -1.3660    0.2924    0.0000 C   0  0  0  0  0  0  0  0  0  0  0  0
   -1.3660    1.1174    0.0000 C   0  0  0  0  0  0  0  0  0  0  0  0
    0.7774   -0.1201    0.0000 O   0  0  0  0  0  0  0  0  0  0  0  0
    2.2063   -0.9451    0.0000 Br  0  0  0  0  0  0  0  0  0  0  0  0
    2.2063   -2.5951    0.0000 Br  0  0  0  0  0  0  0  0  0  0  0  0
   -0.6516   -2.5951    0.0000 Br  0  0  0  0  0  0  0  0  0  0  0  0
   -0.5205   -0.7743    0.0000 Br  0  0  0  0  0  0  0  0  0  0  0  0
  1  2  2  0  0  0  0
  1  6  1  0  0  0  0
  1 13  1  0  0  0  0
  2  3  1  0  0  0  0
  3  4  2  0  0  0  0
  4  5  1  0  0  0  0
  5  6  2  0  0  0  0
  7  8  1  0  0  0  0
  7 12  2  0  0  0  0
  8  9  2  0  0  0  0
  9 10  1  0  0  0  0
 13  9  1  0  0  0  0
 10 11  2  0  0  0  0
 11 12  1  0  0  0  0
  2 14  1  0  0  0  0
  3 15  1  0  0  0  0
  5 16  1  0  0  0  0
  6 17  1  0  0  0  0
M  END