2,3',4,4'-tetrabromodiphenyl ether
  Mrv0541 02261416282D          

 17 18  0  0  0  0            999 V2000
   -0.0476    0.0272    0.0000 C   0  0  0  0  0  0  0  0  0  0  0  0
    0.6668   -0.3853    0.0000 C   0  0  0  0  0  0  0  0  0  0  0  0
    0.6668   -1.2103    0.0000 C   0  0  0  0  0  0  0  0  0  0  0  0
   -0.0476   -1.6228    0.0000 C   0  0  0  0  0  0  0  0  0  0  0  0
   -0.7621   -1.2103    0.0000 C   0  0  0  0  0  0  0  0  0  0  0  0
   -0.7621   -0.3853    0.0000 C   0  0  0  0  0  0  0  0  0  0  0  0
   -1.4766    2.5022    0.0000 C   0  0  0  0  0  0  0  0  0  0  0  0
   -0.7621    2.0897    0.0000 C   0  0  0  0  0  0  0  0  0  0  0  0
   -0.7621    1.2647    0.0000 C   0  0  0  0  0  0  0  0  0  0  0  0
   -1.4766    0.8522    0.0000 C   0  0  0  0  0  0  0  0  0  0  0  0
   -2.1910    1.2647    0.0000 C   0  0  0  0  0  0  0  0  0  0  0  0
   -2.1910    2.0897    0.0000 C   0  0  0  0  0  0  0  0  0  0  0  0
   -0.0476    0.8522    0.0000 O   0  0  0  0  0  0  0  0  0  0  0  0
    1.3813    0.0272    0.0000 Br  0  0  0  0  0  0  0  0  0  0  0  0
   -0.0476   -2.4478    0.0000 Br  0  0  0  0  0  0  0  0  0  0  0  0
   -1.4766    3.3272    0.0000 Br  0  0  0  0  0  0  0  0  0  0  0  0
   -2.9055    2.5022    0.0000 Br  0  0  0  0  0  0  0  0  0  0  0  0
  1  2  2  0  0  0  0
  1  6  1  0  0  0  0
  1 13  1  0  0  0  0
  2  3  1  0  0  0  0
  3  4  2  0  0  0  0
  4  5  1  0  0  0  0
  5  6  2  0  0  0  0
  7  8  1  0  0  0  0
  7 12  2  0  0  0  0
  8  9  2  0  0  0  0
  9 10  1  0  0  0  0
 13  9  1  0  0  0  0
 10 11  2  0  0  0  0
 11 12  1  0  0  0  0
  2 14  1  0  0  0  0
  4 15  1  0  0  0  0
  7 16  1  0  0  0  0
 12 17  1  0  0  0  0
M  END