2,3',4,5-tetrabromodiphenyl ether
  Mrv0541 02261416282D          

 17 18  0  0  0  0            999 V2000
    1.2783   -1.8291    0.0000 C   0  0  0  0  0  0  0  0  0  0  0  0
    1.9927   -2.2416    0.0000 C   0  0  0  0  0  0  0  0  0  0  0  0
    1.9927   -3.0666    0.0000 C   0  0  0  0  0  0  0  0  0  0  0  0
    1.2783   -3.4791    0.0000 C   0  0  0  0  0  0  0  0  0  0  0  0
    0.5638   -3.0666    0.0000 C   0  0  0  0  0  0  0  0  0  0  0  0
    0.5638   -2.2416    0.0000 C   0  0  0  0  0  0  0  0  0  0  0  0
   -0.1507    0.6459    0.0000 C   0  0  0  0  0  0  0  0  0  0  0  0
    0.5638    0.2334    0.0000 C   0  0  0  0  0  0  0  0  0  0  0  0
    0.5638   -0.5916    0.0000 C   0  0  0  0  0  0  0  0  0  0  0  0
   -0.1507   -1.0041    0.0000 C   0  0  0  0  0  0  0  0  0  0  0  0
   -0.8652   -0.5916    0.0000 C   0  0  0  0  0  0  0  0  0  0  0  0
   -0.8652    0.2334    0.0000 C   0  0  0  0  0  0  0  0  0  0  0  0
    1.2783   -1.0041    0.0000 O   0  0  0  0  0  0  0  0  0  0  0  0
    2.7072   -1.8291    0.0000 Br  0  0  0  0  0  0  0  0  0  0  0  0
    1.2783   -4.3041    0.0000 Br  0  0  0  0  0  0  0  0  0  0  0  0
   -0.1507   -3.4791    0.0000 Br  0  0  0  0  0  0  0  0  0  0  0  0
   -0.1507    1.4709    0.0000 Br  0  0  0  0  0  0  0  0  0  0  0  0
  1  2  2  0  0  0  0
  1  6  1  0  0  0  0
  1 13  1  0  0  0  0
  2  3  1  0  0  0  0
  3  4  2  0  0  0  0
  4  5  1  0  0  0  0
  5  6  2  0  0  0  0
  7  8  1  0  0  0  0
  7 12  2  0  0  0  0
  8  9  2  0  0  0  0
  9 10  1  0  0  0  0
 13  9  1  0  0  0  0
 10 11  2  0  0  0  0
 11 12  1  0  0  0  0
  2 14  1  0  0  0  0
  4 15  1  0  0  0  0
  5 16  1  0  0  0  0
  7 17  1  0  0  0  0
M  END