2,3',4,5'-tetrabromodiphenyl ether
  Mrv0541 02261416282D          

 17 18  0  0  0  0            999 V2000
    0.7479   -1.5933    0.0000 C   0  0  0  0  0  0  0  0  0  0  0  0
    1.4624   -2.0058    0.0000 C   0  0  0  0  0  0  0  0  0  0  0  0
    1.4624   -2.8308    0.0000 C   0  0  0  0  0  0  0  0  0  0  0  0
    0.7479   -3.2433    0.0000 C   0  0  0  0  0  0  0  0  0  0  0  0
    0.0334   -2.8308    0.0000 C   0  0  0  0  0  0  0  0  0  0  0  0
    0.0334   -2.0058    0.0000 C   0  0  0  0  0  0  0  0  0  0  0  0
   -0.6810    0.8817    0.0000 C   0  0  0  0  0  0  0  0  0  0  0  0
    0.0334    0.4692    0.0000 C   0  0  0  0  0  0  0  0  0  0  0  0
    0.0334   -0.3558    0.0000 C   0  0  0  0  0  0  0  0  0  0  0  0
   -0.6810   -0.7683    0.0000 C   0  0  0  0  0  0  0  0  0  0  0  0
   -1.3955   -0.3558    0.0000 C   0  0  0  0  0  0  0  0  0  0  0  0
   -1.3955    0.4692    0.0000 C   0  0  0  0  0  0  0  0  0  0  0  0
    0.7479   -0.7683    0.0000 O   0  0  0  0  0  0  0  0  0  0  0  0
    2.1768   -1.5933    0.0000 Br  0  0  0  0  0  0  0  0  0  0  0  0
    0.7479   -4.0683    0.0000 Br  0  0  0  0  0  0  0  0  0  0  0  0
   -0.6810    1.7067    0.0000 Br  0  0  0  0  0  0  0  0  0  0  0  0
   -2.1924   -0.5694    0.0000 Br  0  0  0  0  0  0  0  0  0  0  0  0
  1  2  2  0  0  0  0
  1  6  1  0  0  0  0
  1 13  1  0  0  0  0
  2  3  1  0  0  0  0
  3  4  2  0  0  0  0
  4  5  1  0  0  0  0
  5  6  2  0  0  0  0
  7  8  1  0  0  0  0
  7 12  2  0  0  0  0
  8  9  2  0  0  0  0
  9 10  1  0  0  0  0
 13  9  1  0  0  0  0
 10 11  2  0  0  0  0
 11 12  1  0  0  0  0
  2 14  1  0  0  0  0
  4 15  1  0  0  0  0
  7 16  1  0  0  0  0
 11 17  1  0  0  0  0
M  END