2,3',4,6-tetrabromodiphenyl ether
  Mrv0541 02261416282D          

 17 18  0  0  0  0            999 V2000
   -0.0182   -1.0630    0.0000 C   0  0  0  0  0  0  0  0  0  0  0  0
    0.6963   -1.4755    0.0000 C   0  0  0  0  0  0  0  0  0  0  0  0
    0.6963   -2.3005    0.0000 C   0  0  0  0  0  0  0  0  0  0  0  0
   -0.0182   -2.7130    0.0000 C   0  0  0  0  0  0  0  0  0  0  0  0
   -0.7326   -2.3005    0.0000 C   0  0  0  0  0  0  0  0  0  0  0  0
   -0.7326   -1.4755    0.0000 C   0  0  0  0  0  0  0  0  0  0  0  0
   -1.4471    1.4120    0.0000 C   0  0  0  0  0  0  0  0  0  0  0  0
   -0.7326    0.9995    0.0000 C   0  0  0  0  0  0  0  0  0  0  0  0
   -0.7326    0.1745    0.0000 C   0  0  0  0  0  0  0  0  0  0  0  0
   -1.4471   -0.2380    0.0000 C   0  0  0  0  0  0  0  0  0  0  0  0
   -2.1616    0.1745    0.0000 C   0  0  0  0  0  0  0  0  0  0  0  0
   -2.1616    0.9995    0.0000 C   0  0  0  0  0  0  0  0  0  0  0  0
   -0.0182   -0.2380    0.0000 O   0  0  0  0  0  0  0  0  0  0  0  0
    1.4108   -1.0630    0.0000 Br  0  0  0  0  0  0  0  0  0  0  0  0
   -0.0182   -3.5380    0.0000 Br  0  0  0  0  0  0  0  0  0  0  0  0
   -1.4471   -1.0630    0.0000 Br  0  0  0  0  0  0  0  0  0  0  0  0
   -1.4471    2.2370    0.0000 Br  0  0  0  0  0  0  0  0  0  0  0  0
  1  2  2  0  0  0  0
  1  6  1  0  0  0  0
  1 13  1  0  0  0  0
  2  3  1  0  0  0  0
  3  4  2  0  0  0  0
  4  5  1  0  0  0  0
  5  6  2  0  0  0  0
  7  8  1  0  0  0  0
  7 12  2  0  0  0  0
  8  9  2  0  0  0  0
  9 10  1  0  0  0  0
 13  9  1  0  0  0  0
 10 11  2  0  0  0  0
 11 12  1  0  0  0  0
  2 14  1  0  0  0  0
  4 15  1  0  0  0  0
  6 16  1  0  0  0  0
  7 17  1  0  0  0  0
M  END