2,3',4',5-tetrabromodiphenyl ether
  Mrv0541 02261416282D          

 17 18  0  0  0  0            999 V2000
    0.9836   -1.3282    0.0000 C   0  0  0  0  0  0  0  0  0  0  0  0
    1.6981   -1.7407    0.0000 C   0  0  0  0  0  0  0  0  0  0  0  0
    1.6981   -2.5657    0.0000 C   0  0  0  0  0  0  0  0  0  0  0  0
    0.9836   -2.9782    0.0000 C   0  0  0  0  0  0  0  0  0  0  0  0
    0.2691   -2.5657    0.0000 C   0  0  0  0  0  0  0  0  0  0  0  0
    0.2691   -1.7407    0.0000 C   0  0  0  0  0  0  0  0  0  0  0  0
   -0.4453    1.1468    0.0000 C   0  0  0  0  0  0  0  0  0  0  0  0
    0.2691    0.7343    0.0000 C   0  0  0  0  0  0  0  0  0  0  0  0
    0.2691   -0.0907    0.0000 C   0  0  0  0  0  0  0  0  0  0  0  0
   -0.4453   -0.5032    0.0000 C   0  0  0  0  0  0  0  0  0  0  0  0
   -1.1598   -0.0907    0.0000 C   0  0  0  0  0  0  0  0  0  0  0  0
   -1.1598    0.7343    0.0000 C   0  0  0  0  0  0  0  0  0  0  0  0
    0.9836   -0.5032    0.0000 O   0  0  0  0  0  0  0  0  0  0  0  0
    2.4126   -1.3282    0.0000 Br  0  0  0  0  0  0  0  0  0  0  0  0
   -0.4453   -2.9782    0.0000 Br  0  0  0  0  0  0  0  0  0  0  0  0
   -0.4453    1.9718    0.0000 Br  0  0  0  0  0  0  0  0  0  0  0  0
   -1.8743    1.1468    0.0000 Br  0  0  0  0  0  0  0  0  0  0  0  0
  1  2  2  0  0  0  0
  1  6  1  0  0  0  0
  1 13  1  0  0  0  0
  2  3  1  0  0  0  0
  3  4  2  0  0  0  0
  4  5  1  0  0  0  0
  5  6  2  0  0  0  0
  7  8  1  0  0  0  0
  7 12  2  0  0  0  0
  8  9  2  0  0  0  0
  9 10  1  0  0  0  0
 13  9  1  0  0  0  0
 10 11  2  0  0  0  0
 11 12  1  0  0  0  0
  2 14  1  0  0  0  0
  5 15  1  0  0  0  0
  7 16  1  0  0  0  0
 12 17  1  0  0  0  0
M  END