2,3',4',6-tetrabromodiphenyl ether
  Mrv0541 02261416282D          

 17 18  0  0  0  0            999 V2000
    0.9542   -1.6523    0.0000 C   0  0  0  0  0  0  0  0  0  0  0  0
    1.6686   -2.0648    0.0000 C   0  0  0  0  0  0  0  0  0  0  0  0
    1.6686   -2.8898    0.0000 C   0  0  0  0  0  0  0  0  0  0  0  0
    0.9542   -3.3023    0.0000 C   0  0  0  0  0  0  0  0  0  0  0  0
    0.2397   -2.8898    0.0000 C   0  0  0  0  0  0  0  0  0  0  0  0
    0.2397   -2.0648    0.0000 C   0  0  0  0  0  0  0  0  0  0  0  0
   -0.4748    0.8227    0.0000 C   0  0  0  0  0  0  0  0  0  0  0  0
    0.2397    0.4102    0.0000 C   0  0  0  0  0  0  0  0  0  0  0  0
    0.2397   -0.4148    0.0000 C   0  0  0  0  0  0  0  0  0  0  0  0
   -0.4748   -0.8273    0.0000 C   0  0  0  0  0  0  0  0  0  0  0  0
   -1.1893   -0.4148    0.0000 C   0  0  0  0  0  0  0  0  0  0  0  0
   -1.1893    0.4102    0.0000 C   0  0  0  0  0  0  0  0  0  0  0  0
    0.9542   -0.8273    0.0000 O   0  0  0  0  0  0  0  0  0  0  0  0
    2.2520   -1.4814    0.0000 Br  0  0  0  0  0  0  0  0  0  0  0  0
   -0.4748   -1.6523    0.0000 Br  0  0  0  0  0  0  0  0  0  0  0  0
   -0.4748    1.6477    0.0000 Br  0  0  0  0  0  0  0  0  0  0  0  0
   -1.9037    0.8227    0.0000 Br  0  0  0  0  0  0  0  0  0  0  0  0
  1  2  2  0  0  0  0
  1  6  1  0  0  0  0
  1 13  1  0  0  0  0
  2  3  1  0  0  0  0
  3  4  2  0  0  0  0
  4  5  1  0  0  0  0
  5  6  2  0  0  0  0
  7  8  1  0  0  0  0
  7 12  2  0  0  0  0
  8  9  2  0  0  0  0
  9 10  1  0  0  0  0
 13  9  1  0  0  0  0
 10 11  2  0  0  0  0
 11 12  1  0  0  0  0
  2 14  1  0  0  0  0
  6 15  1  0  0  0  0
  7 16  1  0  0  0  0
 12 17  1  0  0  0  0
M  END