2,2',3,3',4,4',6-heptabromodiphenyl ether
  Mrv0541 02261416282D          

 20 21  0  0  0  0            999 V2000
    0.7774   -1.7701    0.0000 C   0  0  0  0  0  0  0  0  0  0  0  0
    1.4918   -2.1826    0.0000 C   0  0  0  0  0  0  0  0  0  0  0  0
    1.4918   -3.0076    0.0000 C   0  0  0  0  0  0  0  0  0  0  0  0
    0.7774   -3.4201    0.0000 C   0  0  0  0  0  0  0  0  0  0  0  0
    0.0629   -3.0076    0.0000 C   0  0  0  0  0  0  0  0  0  0  0  0
    0.0629   -2.1826    0.0000 C   0  0  0  0  0  0  0  0  0  0  0  0
   -0.6516    0.7049    0.0000 C   0  0  0  0  0  0  0  0  0  0  0  0
    0.0629    0.2924    0.0000 C   0  0  0  0  0  0  0  0  0  0  0  0
    0.0629   -0.5326    0.0000 C   0  0  0  0  0  0  0  0  0  0  0  0
   -0.6516   -0.9451    0.0000 C   0  0  0  0  0  0  0  0  0  0  0  0
   -1.3660   -0.5326    0.0000 C   0  0  0  0  0  0  0  0  0  0  0  0
   -1.3660    0.2924    0.0000 C   0  0  0  0  0  0  0  0  0  0  0  0
    0.7774   -0.9451    0.0000 O   0  0  0  0  0  0  0  0  0  0  0  0
    2.2063   -1.7701    0.0000 Br  0  0  0  0  0  0  0  0  0  0  0  0
    2.0752   -3.5910    0.0000 Br  0  0  0  0  0  0  0  0  0  0  0  0
    0.7774   -4.2451    0.0000 Br  0  0  0  0  0  0  0  0  0  0  0  0
   -0.6516   -1.7701    0.0000 Br  0  0  0  0  0  0  0  0  0  0  0  0
    0.7774    0.7049    0.0000 Br  0  0  0  0  0  0  0  0  0  0  0  0
   -0.6516    1.5299    0.0000 Br  0  0  0  0  0  0  0  0  0  0  0  0
   -2.0805    0.7049    0.0000 Br  0  0  0  0  0  0  0  0  0  0  0  0
  1  2  2  0  0  0  0
  1  6  1  0  0  0  0
  1 13  1  0  0  0  0
  2  3  1  0  0  0  0
  3  4  2  0  0  0  0
  4  5  1  0  0  0  0
  5  6  2  0  0  0  0
  7  8  1  0  0  0  0
  7 12  2  0  0  0  0
  8  9  2  0  0  0  0
  9 10  1  0  0  0  0
 13  9  1  0  0  0  0
 10 11  2  0  0  0  0
 11 12  1  0  0  0  0
  2 14  1  0  0  0  0
  3 15  1  0  0  0  0
  4 16  1  0  0  0  0
  6 17  1  0  0  0  0
  8 18  1  0  0  0  0
  7 19  1  0  0  0  0
 12 20  1  0  0  0  0
M  END