mono-bromobisphenol A
  Mrv0541 02261416282D          

 18 19  0  0  0  0            999 V2000
    0.2470   -1.7112    0.0000 C   0  0  0  0  0  0  0  0  0  0  0  0
    0.9615   -2.1237    0.0000 C   0  0  0  0  0  0  0  0  0  0  0  0
    0.9615   -2.9487    0.0000 C   0  0  0  0  0  0  0  0  0  0  0  0
    0.2470   -3.3612    0.0000 C   0  0  0  0  0  0  0  0  0  0  0  0
   -0.4675   -2.9487    0.0000 C   0  0  0  0  0  0  0  0  0  0  0  0
   -0.4675   -2.1237    0.0000 C   0  0  0  0  0  0  0  0  0  0  0  0
   -1.1819    0.7638    0.0000 C   0  0  0  0  0  0  0  0  0  0  0  0
   -0.4675    0.3513    0.0000 C   0  0  0  0  0  0  0  0  0  0  0  0
   -0.4675   -0.4737    0.0000 C   0  0  0  0  0  0  0  0  0  0  0  0
   -1.1819   -0.8862    0.0000 C   0  0  0  0  0  0  0  0  0  0  0  0
   -1.8964   -0.4737    0.0000 C   0  0  0  0  0  0  0  0  0  0  0  0
   -1.8964    0.3513    0.0000 C   0  0  0  0  0  0  0  0  0  0  0  0
    0.2470   -0.8862    0.0000 C   0  0  0  0  0  0  0  0  0  0  0  0
    0.9615   -0.4737    0.0000 C   0  0  0  0  0  0  0  0  0  0  0  0
   -0.4675   -1.2987    0.0000 C   0  0  0  0  0  0  0  0  0  0  0  0
    0.2470   -4.1862    0.0000 O   0  0  0  0  0  0  0  0  0  0  0  0
   -2.6109    0.7638    0.0000 O   0  0  0  0  0  0  0  0  0  0  0  0
    1.5448   -3.5321    0.0000 Br  0  0  0  0  0  0  0  0  0  0  0  0
  1  2  2  0  0  0  0
  1  6  1  0  0  0  0
  1 13  1  0  0  0  0
  2  3  1  0  0  0  0
  3  4  2  0  0  0  0
  4  5  1  0  0  0  0
  5  6  2  0  0  0  0
  7  8  2  0  0  0  0
  7 12  1  0  0  0  0
  8  9  1  0  0  0  0
  9 10  2  0  0  0  0
 13  9  1  0  0  0  0
 10 11  1  0  0  0  0
 11 12  2  0  0  0  0
 13 14  1  0  0  0  0
 13 15  1  0  0  0  0
  4 16  1  0  0  0  0
 12 17  1  0  0  0  0
  3 18  1  0  0  0  0
M  END