2,4,6-tribromophenol
  Mrv0541 02261416282D          

 10 10  0  0  0  0            999 V2000
    0.2652   -1.1786    0.0000 C   0  0  0  0  0  0  0  0  0  0  0  0
   -0.4493   -1.5911    0.0000 C   0  0  0  0  0  0  0  0  0  0  0  0
   -0.4493   -2.4161    0.0000 C   0  0  0  0  0  0  0  0  0  0  0  0
    0.2652   -2.8286    0.0000 C   0  0  0  0  0  0  0  0  0  0  0  0
    0.9796   -2.4161    0.0000 C   0  0  0  0  0  0  0  0  0  0  0  0
    0.9796   -1.5911    0.0000 C   0  0  0  0  0  0  0  0  0  0  0  0
    0.2652   -0.3536    0.0000 O   0  0  0  0  0  0  0  0  0  0  0  0
    1.6941   -1.1786    0.0000 Br  0  0  0  0  0  0  0  0  0  0  0  0
    0.2652   -3.6536    0.0000 Br  0  0  0  0  0  0  0  0  0  0  0  0
   -1.0327   -1.0077    0.0000 Br  0  0  0  0  0  0  0  0  0  0  0  0
  1  2  1  0  0  0  0
  1  6  2  0  0  0  0
  2  3  2  0  0  0  0
  3  4  1  0  0  0  0
  4  5  2  0  0  0  0
  5  6  1  0  0  0  0
  1  7  1  0  0  0  0
  6  8  1  0  0  0  0
  4  9  1  0  0  0  0
  2 10  1  0  0  0  0
M  END