6-hydroxy-2,2',4,4'-tetrabromodiphenyl ether 
  Mrv0541 02261416282D          

 18 19  0  0  0  0            999 V2000
    1.0425   -1.3871    0.0000 C   0  0  0  0  0  0  0  0  0  0  0  0
    1.7570   -1.7996    0.0000 C   0  0  0  0  0  0  0  0  0  0  0  0
    1.7570   -2.6246    0.0000 C   0  0  0  0  0  0  0  0  0  0  0  0
    1.0425   -3.0371    0.0000 C   0  0  0  0  0  0  0  0  0  0  0  0
    0.3281   -2.6246    0.0000 C   0  0  0  0  0  0  0  0  0  0  0  0
    0.3281   -1.7996    0.0000 C   0  0  0  0  0  0  0  0  0  0  0  0
   -0.3864    1.0879    0.0000 C   0  0  0  0  0  0  0  0  0  0  0  0
    0.3281    0.6754    0.0000 C   0  0  0  0  0  0  0  0  0  0  0  0
    0.3281   -0.1496    0.0000 C   0  0  0  0  0  0  0  0  0  0  0  0
   -0.3864   -0.5621    0.0000 C   0  0  0  0  0  0  0  0  0  0  0  0
   -1.1009   -0.1496    0.0000 C   0  0  0  0  0  0  0  0  0  0  0  0
   -1.1009    0.6754    0.0000 C   0  0  0  0  0  0  0  0  0  0  0  0
    1.0425   -0.5621    0.0000 O   0  0  0  0  0  0  0  0  0  0  0  0
    2.4715   -1.3871    0.0000 Br  0  0  0  0  0  0  0  0  0  0  0  0
    1.0425   -3.8621    0.0000 Br  0  0  0  0  0  0  0  0  0  0  0  0
    1.0425    1.0879    0.0000 Br  0  0  0  0  0  0  0  0  0  0  0  0
   -1.6842    1.2588    0.0000 Br  0  0  0  0  0  0  0  0  0  0  0  0
   -0.2553   -1.2162    0.0000 O   0  0  0  0  0  0  0  0  0  0  0  0
  1  2  2  0  0  0  0
  1  6  1  0  0  0  0
  1 13  1  0  0  0  0
  2  3  1  0  0  0  0
  3  4  2  0  0  0  0
  4  5  1  0  0  0  0
  5  6  2  0  0  0  0
  7  8  1  0  0  0  0
  7 12  2  0  0  0  0
  8  9  2  0  0  0  0
  9 10  1  0  0  0  0
 13  9  1  0  0  0  0
 10 11  2  0  0  0  0
 11 12  1  0  0  0  0
  2 14  1  0  0  0  0
  4 15  1  0  0  0  0
  8 16  1  0  0  0  0
 12 17  1  0  0  0  0
  6 18  1  0  0  0  0
M  END