4'-hydroxy-2,3',4,6,-tetrabromodiphenyl ether
  Mrv0541 02261416282D          

 18 19  0  0  0  0            999 V2000
    1.3667   -1.1808    0.0000 C   0  0  0  0  0  0  0  0  0  0  0  0
    2.0811   -1.5933    0.0000 C   0  0  0  0  0  0  0  0  0  0  0  0
    2.0811   -2.4183    0.0000 C   0  0  0  0  0  0  0  0  0  0  0  0
    1.3667   -2.8308    0.0000 C   0  0  0  0  0  0  0  0  0  0  0  0
    0.6522   -2.4183    0.0000 C   0  0  0  0  0  0  0  0  0  0  0  0
    0.6522   -1.5933    0.0000 C   0  0  0  0  0  0  0  0  0  0  0  0
   -0.0623    1.2942    0.0000 C   0  0  0  0  0  0  0  0  0  0  0  0
    0.6522    0.8817    0.0000 C   0  0  0  0  0  0  0  0  0  0  0  0
    0.6522    0.0567    0.0000 C   0  0  0  0  0  0  0  0  0  0  0  0
   -0.0623   -0.3558    0.0000 C   0  0  0  0  0  0  0  0  0  0  0  0
   -0.7768    0.0567    0.0000 C   0  0  0  0  0  0  0  0  0  0  0  0
   -0.7768    0.8817    0.0000 C   0  0  0  0  0  0  0  0  0  0  0  0
    1.3667   -0.3558    0.0000 O   0  0  0  0  0  0  0  0  0  0  0  0
    2.7956   -1.1808    0.0000 Br  0  0  0  0  0  0  0  0  0  0  0  0
    1.3667   -3.6558    0.0000 Br  0  0  0  0  0  0  0  0  0  0  0  0
   -0.0623   -1.1808    0.0000 Br  0  0  0  0  0  0  0  0  0  0  0  0
   -0.0623    2.1192    0.0000 Br  0  0  0  0  0  0  0  0  0  0  0  0
   -1.4912    1.2942    0.0000 O   0  0  0  0  0  0  0  0  0  0  0  0
  1  2  2  0  0  0  0
  1  6  1  0  0  0  0
  1 13  1  0  0  0  0
  2  3  1  0  0  0  0
  3  4  2  0  0  0  0
  4  5  1  0  0  0  0
  5  6  2  0  0  0  0
  7  8  1  0  0  0  0
  7 12  2  0  0  0  0
  8  9  2  0  0  0  0
  9 10  1  0  0  0  0
 13  9  1  0  0  0  0
 10 11  2  0  0  0  0
 11 12  1  0  0  0  0
  2 14  1  0  0  0  0
  4 15  1  0  0  0  0
  6 16  1  0  0  0  0
  7 17  1  0  0  0  0
 12 18  1  0  0  0  0
M  END