4'-hydroxy-2,3',4,5',6-pentabromodiphenyl ether
  Mrv0541 02261416282D          

 19 20  0  0  0  0            999 V2000
    0.7774   -1.5639    0.0000 C   0  0  0  0  0  0  0  0  0  0  0  0
    1.4918   -1.9764    0.0000 C   0  0  0  0  0  0  0  0  0  0  0  0
    1.4918   -2.8014    0.0000 C   0  0  0  0  0  0  0  0  0  0  0  0
    0.7774   -3.2139    0.0000 C   0  0  0  0  0  0  0  0  0  0  0  0
    0.0629   -2.8014    0.0000 C   0  0  0  0  0  0  0  0  0  0  0  0
    0.0629   -1.9764    0.0000 C   0  0  0  0  0  0  0  0  0  0  0  0
   -0.6516    0.9111    0.0000 C   0  0  0  0  0  0  0  0  0  0  0  0
    0.0629    0.4986    0.0000 C   0  0  0  0  0  0  0  0  0  0  0  0
    0.0629   -0.3264    0.0000 C   0  0  0  0  0  0  0  0  0  0  0  0
   -0.6516   -0.7389    0.0000 C   0  0  0  0  0  0  0  0  0  0  0  0
   -1.3660   -0.3264    0.0000 C   0  0  0  0  0  0  0  0  0  0  0  0
   -1.3660    0.4986    0.0000 C   0  0  0  0  0  0  0  0  0  0  0  0
    0.7774   -0.7389    0.0000 O   0  0  0  0  0  0  0  0  0  0  0  0
    2.2063   -1.5639    0.0000 Br  0  0  0  0  0  0  0  0  0  0  0  0
    0.7774   -4.0389    0.0000 Br  0  0  0  0  0  0  0  0  0  0  0  0
   -0.6516   -1.5639    0.0000 Br  0  0  0  0  0  0  0  0  0  0  0  0
   -0.6516    1.7361    0.0000 Br  0  0  0  0  0  0  0  0  0  0  0  0
   -2.0805   -0.7389    0.0000 Br  0  0  0  0  0  0  0  0  0  0  0  0
   -2.0805    0.9111    0.0000 O   0  0  0  0  0  0  0  0  0  0  0  0
  1  2  2  0  0  0  0
  1  6  1  0  0  0  0
  1 13  1  0  0  0  0
  2  3  1  0  0  0  0
  3  4  2  0  0  0  0
  4  5  1  0  0  0  0
  5  6  2  0  0  0  0
  7  8  1  0  0  0  0
  7 12  2  0  0  0  0
  8  9  2  0  0  0  0
  9 10  1  0  0  0  0
 13  9  1  0  0  0  0
 10 11  2  0  0  0  0
 11 12  1  0  0  0  0
  2 14  1  0  0  0  0
  4 15  1  0  0  0  0
  6 16  1  0  0  0  0
  7 17  1  0  0  0  0
 11 18  1  0  0  0  0
 12 19  1  0  0  0  0
M  END