gamma-hexabromocyclododecane
  Mrv0541 02261416282D          

 18 18  0  0  0  0            999 V2000
    2.0867   -0.9851    0.0000 C   0  0  0  0  0  0  0  0  0  0  0  0
    2.8011   -1.3976    0.0000 C   0  0  2  0  0  0  0  0  0  0  0  0
    2.8011   -2.2226    0.0000 C   0  0  2  0  0  0  0  0  0  0  0  0
    2.0867   -2.6351    0.0000 C   0  0  0  0  0  0  0  0  0  0  0  0
    2.0867   -0.1601    0.0000 C   0  0  0  0  0  0  0  0  0  0  0  0
    1.3722   -2.2226    0.0000 C   0  0  0  0  0  0  0  0  0  0  0  0
    0.6577   -2.6351    0.0000 C   0  0  1  0  0  0  0  0  0  0  0  0
   -0.0567   -2.2226    0.0000 C   0  0  1  0  0  0  0  0  0  0  0  0
   -0.0567   -1.3976    0.0000 C   0  0  0  0  0  0  0  0  0  0  0  0
    0.6577   -0.9851    0.0000 C   0  0  0  0  0  0  0  0  0  0  0  0
    0.6577   -0.1601    0.0000 C   0  0  2  0  0  0  0  0  0  0  0  0
    1.3722    0.2524    0.0000 C   0  0  2  0  0  0  0  0  0  0  0  0
    3.5156   -2.6351    0.0000 Br  0  0  0  0  0  0  0  0  0  0  0  0
    3.5156   -0.9851    0.0000 Br  0  0  0  0  0  0  0  0  0  0  0  0
   -0.0567    0.2524    0.0000 Br  0  0  0  0  0  0  0  0  0  0  0  0
    1.3722    1.0774    0.0000 Br  0  0  0  0  0  0  0  0  0  0  0  0
   -0.7712   -2.6351    0.0000 Br  0  0  0  0  0  0  0  0  0  0  0  0
    0.6577   -3.4601    0.0000 Br  0  0  0  0  0  0  0  0  0  0  0  0
  1  2  1  0  0  0  0
  1  5  1  0  0  0  0
  2  3  1  0  0  0  0
  3  4  1  0  0  0  0
  4  6  1  0  0  0  0
  5 12  1  0  0  0  0
  6  7  1  0  0  0  0
  7  8  1  0  0  0  0
  8  9  1  0  0  0  0
  9 10  1  0  0  0  0
 10 11  1  0  0  0  0
 11 12  1  0  0  0  0
  3 13  1  1  0  0  0
  2 14  1  1  0  0  0
 11 15  1  1  0  0  0
 12 16  1  6  0  0  0
  8 17  1  6  0  0  0
  7 18  1  6  0  0  0
M  END