hexabromobenzene
  Mrv0541 02261416282D          

 12 12  0  0  0  0            999 V2000
    0.3536   -0.5009    0.0000 C   0  0  0  0  0  0  0  0  0  0  0  0
   -0.3609   -0.9134    0.0000 C   0  0  0  0  0  0  0  0  0  0  0  0
   -0.3609   -1.7384    0.0000 C   0  0  0  0  0  0  0  0  0  0  0  0
    0.3536   -2.1509    0.0000 C   0  0  0  0  0  0  0  0  0  0  0  0
    1.0680   -1.7384    0.0000 C   0  0  0  0  0  0  0  0  0  0  0  0
    1.0680   -0.9134    0.0000 C   0  0  0  0  0  0  0  0  0  0  0  0
    1.7825   -0.5009    0.0000 Br  0  0  0  0  0  0  0  0  0  0  0  0
    1.7825   -2.1509    0.0000 Br  0  0  0  0  0  0  0  0  0  0  0  0
    0.3536   -2.9759    0.0000 Br  0  0  0  0  0  0  0  0  0  0  0  0
   -1.0754   -2.1509    0.0000 Br  0  0  0  0  0  0  0  0  0  0  0  0
   -0.9443   -0.3300    0.0000 Br  0  0  0  0  0  0  0  0  0  0  0  0
    0.3536    0.3241    0.0000 Br  0  0  0  0  0  0  0  0  0  0  0  0
  1  2  1  0  0  0  0
  1  6  2  0  0  0  0
  2  3  2  0  0  0  0
  3  4  1  0  0  0  0
  4  5  2  0  0  0  0
  5  6  1  0  0  0  0
  6  7  1  0  0  0  0
  5  8  1  0  0  0  0
  4  9  1  0  0  0  0
  3 10  1  0  0  0  0
  2 11  1  0  0  0  0
  1 12  1  0  0  0  0
M  END