1-1
  Cerius2 12110213523D 1   1.00000                          
Structure written by Cerius2 SD Exporter
 51 53  0  0  0  0  0  0  0  0999 V2000
    5.1741   63.7666   67.2298 C   0  0  0  0  0  0
    4.3855   65.0953   67.1679 C   0  0  0  0  0  0
    5.2770   66.2628   67.6398 C   0  0  0  0  0  0
    4.5857   67.6253   67.4818 C   0  0  0  0  0  0
    4.1925   67.8073   66.0805 N   0  3  0  0  0  0
    3.1996   66.8221   65.6392 C   0  0  0  0  0  0
    3.8229   65.4102   65.7568 C   0  0  0  0  0  0
    4.3302   69.1509   65.5151 C   0  0  0  0  0  0
    4.2612   69.1992   64.0021 C   0  0  0  0  0  0
    3.0583   69.6122   63.4103 C   0  0  0  0  0  0
    2.9137   69.6073   62.0214 C   0  0  0  0  0  0
    3.9685   69.1928   61.2101 C   0  0  0  0  0  0
    5.1698   68.7828   61.7855 C   0  0  0  0  0  0
    5.3166   68.7866   63.1737 C   0  0  0  0  0  0
    5.6679   63.6802   68.2153 H   0  0  0  0  0  0
    5.9893   63.7965   66.4837 H   0  0  0  0  0  0
    3.5310   65.0411   67.8689 H   0  0  0  0  0  0
    5.5824   66.1197   68.6906 H   0  0  0  0  0  0
    6.2068   66.2717   67.0398 H   0  0  0  0  0  0
    3.7145   67.7004   68.1590 H   0  0  0  0  0  0
    5.2829   68.4214   67.7923 H   0  0  0  0  0  0
    2.2727   66.8895   66.2384 H   0  0  0  0  0  0
    2.9028   66.9965   64.5928 H   0  0  0  0  0  0
    4.6504   65.3441   65.0247 H   0  0  0  0  0  0
    3.0777   64.6579   65.4492 H   0  0  0  0  0  0
    3.5737   69.8400   65.9317 H   0  0  0  0  0  0
    5.3143   69.5451   65.8234 H   0  0  0  0  0  0
    2.2062   69.9310   64.0444 H   0  0  0  0  0  0
    1.9555   69.9248   61.5679 H   0  0  0  0  0  0
    3.8512   69.1849   60.1094 H   0  0  0  0  0  0
    6.0072   68.4449   61.1453 H   0  0  0  0  0  0
    6.2681   68.4425   63.6279 H   0  0  0  0  0  0
    4.3640   62.4886   66.9831 C   0  0  0  0  0  0
    3.3310   62.2808   67.9859 N   0  0  0  0  0  0
    3.5065   61.3987   69.0541 C   0  0  0  0  0  0
    4.5000   60.6868   69.1648 O   0  0  0  0  0  0
    2.3360   61.2610   69.9910 C   0  0  0  0  0  0
    2.1816   60.0574   70.7052 C   0  0  0  0  0  0
    1.0937   59.8814   71.5627 C   0  0  0  0  0  0
    0.1451   60.9030   71.7211 C   0  0  0  0  0  0
    0.3027   62.1039   71.0182 C   0  0  0  0  0  0
    1.3932   62.2913   70.1618 C   0  0  0  0  0  0
    3.8980   62.5103   65.9824 H   0  0  0  0  0  0
    5.0400   61.6176   66.9795 H   0  0  0  0  0  0
    2.4816   62.8088   67.9313 H   0  0  0  0  0  0
    2.9204   59.2427   70.5798 H   0  0  0  0  0  0
    0.9794   58.9301   72.1176 H   0  0  0  0  0  0
   -0.7170   60.7611   72.4002 H   0  0  0  0  0  0
   -0.4380   62.9164   71.1493 H   0  0  0  0  0  0
    1.5043   63.2620   69.6464 H   0  0  0  0  0  0
    4.9170   67.4352   65.6976 H   0  0  0  0  0  0
  1  2  1  0  0  0
  1 15  1  0  0  0
  1 16  1  0  0  0
  1 33  1  0  0  0
  2  3  1  0  0  0
  2  7  1  0  0  0
  2 17  1  0  0  0
  3  4  1  0  0  0
  3 18  1  0  0  0
  3 19  1  0  0  0
  4  5  1  0  0  0
  4 20  1  0  0  0
  4 21  1  0  0  0
  5  6  1  0  0  0
  5  8  1  0  0  0
  5 51  1  0  0  0
  6  7  1  0  0  0
  6 22  1  0  0  0
  6 23  1  0  0  0
  7 24  1  0  0  0
  7 25  1  0  0  0
  8  9  1  0  0  0
  8 26  1  0  0  0
  8 27  1  0  0  0
  9 10  1  0  0  0
  9 14  2  0  0  0
 10 11  2  0  0  0
 10 28  1  0  0  0
 11 12  1  0  0  0
 11 29  1  0  0  0
 12 13  2  0  0  0
 12 30  1  0  0  0
 13 14  1  0  0  0
 13 31  1  0  0  0
 14 32  1  0  0  0
 33 34  1  0  0  0
 33 43  1  0  0  0
 33 44  1  0  0  0
 34 35  1  0  0  0
 34 45  1  0  0  0
 35 36  2  0  0  0
 35 37  1  0  0  0
 37 38  2  0  0  0
 37 42  1  0  0  0
 38 39  1  0  0  0
 38 46  1  0  0  0
 39 40  2  0  0  0
 39 47  1  0  0  0
 40 41  1  0  0  0
 40 48  1  0  0  0
 41 42  2  0  0  0
 41 49  1  0  0  0
 42 50  1  0  0  0
M  CHG  1   5   1
M  END
>  <ACTIVITY>
6.25

>  <SET>
1

>  <Min_dist>
999.9

>  <Avg_dist>
999.9

$$$$
1-10
  Cerius2 12110213523D 1   1.00000                          
Structure written by Cerius2 SD Exporter
 51 54  0  0  0  0  0  0  0  0999 V2000
    4.9012   63.6570   67.1245 C   0  0  0  0  0  0
    4.3855   65.0953   67.1679 C   0  0  0  0  0  0
    5.2770   66.2628   67.6398 C   0  0  0  0  0  0
    4.5857   67.6253   67.4818 C   0  0  0  0  0  0
    4.1925   67.8073   66.0805 N   0  3  0  0  0  0
    3.1996   66.8221   65.6392 C   0  0  0  0  0  0
    3.8229   65.4102   65.7568 C   0  0  0  0  0  0
    4.3302   69.1509   65.5151 C   0  0  0  0  0  0
    4.2612   69.1992   64.0021 C   0  0  0  0  0  0
    3.0583   69.6122   63.4103 C   0  0  0  0  0  0
    2.9137   69.6073   62.0214 C   0  0  0  0  0  0
    3.9685   69.1928   61.2101 C   0  0  0  0  0  0
    5.1698   68.7828   61.7855 C   0  0  0  0  0  0
    5.3166   68.7866   63.1737 C   0  0  0  0  0  0
    5.5383   63.3911   67.9873 H   0  0  0  0  0  0
    5.5118   63.4701   66.2240 H   0  0  0  0  0  0
    3.5310   65.0411   67.8689 H   0  0  0  0  0  0
    5.5824   66.1197   68.6906 H   0  0  0  0  0  0
    6.2068   66.2717   67.0398 H   0  0  0  0  0  0
    3.7145   67.7004   68.1590 H   0  0  0  0  0  0
    5.2829   68.4214   67.7923 H   0  0  0  0  0  0
    2.2727   66.8895   66.2384 H   0  0  0  0  0  0
    2.9028   66.9965   64.5928 H   0  0  0  0  0  0
    4.6504   65.3441   65.0247 H   0  0  0  0  0  0
    3.0777   64.6579   65.4492 H   0  0  0  0  0  0
    3.5737   69.8400   65.9317 H   0  0  0  0  0  0
    5.3143   69.5451   65.8234 H   0  0  0  0  0  0
    2.2062   69.9310   64.0444 H   0  0  0  0  0  0
    1.9555   69.9248   61.5679 H   0  0  0  0  0  0
    3.8512   69.1849   60.1094 H   0  0  0  0  0  0
    6.0072   68.4449   61.1453 H   0  0  0  0  0  0
    6.2681   68.4425   63.6279 H   0  0  0  0  0  0
    3.6505   62.7522   67.1188 C   0  0  0  0  0  0
    3.0403   62.6823   68.4522 N   0  0  0  0  0  0
    3.4351   61.5249   69.0750 C   0  0  0  0  0  0
    4.4126   60.8107   68.8753 O   0  0  0  0  0  0
    2.3360   61.2610   69.9910 C   0  0  0  0  0  0
    2.1816   60.0574   70.7052 C   0  0  0  0  0  0
    1.0937   59.8814   71.5627 C   0  0  0  0  0  0
    0.1451   60.9030   71.7211 C   0  0  0  0  0  0
    0.3027   62.1039   71.0182 C   0  0  0  0  0  0
    1.3932   62.2913   70.1618 C   0  0  0  0  0  0
    2.8904   63.0298   66.3777 H   0  0  0  0  0  0
    3.9249   61.7316   66.8036 H   0  0  0  0  0  0
    2.9204   59.2427   70.5798 H   0  0  0  0  0  0
    0.9794   58.9301   72.1176 H   0  0  0  0  0  0
   -0.7170   60.7611   72.4002 H   0  0  0  0  0  0
   -0.4380   62.9164   71.1493 H   0  0  0  0  0  0
    4.9170   67.4352   65.6976 H   0  0  0  0  0  0
    1.8610   63.2931   69.0508 C   0  0  0  0  0  0
    1.3887   64.3159   68.6160 O   0  0  0  0  0  0
  1  2  1  0  0  0
  1 15  1  0  0  0
  1 16  1  0  0  0
  1 33  1  0  0  0
  2  3  1  0  0  0
  2  7  1  0  0  0
  2 17  1  0  0  0
  3  4  1  0  0  0
  3 18  1  0  0  0
  3 19  1  0  0  0
  4  5  1  0  0  0
  4 20  1  0  0  0
  4 21  1  0  0  0
  5  6  1  0  0  0
  5  8  1  0  0  0
  5 49  1  0  0  0
  6  7  1  0  0  0
  6 22  1  0  0  0
  6 23  1  0  0  0
  7 24  1  0  0  0
  7 25  1  0  0  0
  8  9  1  0  0  0
  8 26  1  0  0  0
  8 27  1  0  0  0
  9 10  1  0  0  0
  9 14  2  0  0  0
 10 11  2  0  0  0
 10 28  1  0  0  0
 11 12  1  0  0  0
 11 29  1  0  0  0
 12 13  2  0  0  0
 12 30  1  0  0  0
 13 14  1  0  0  0
 13 31  1  0  0  0
 14 32  1  0  0  0
 33 34  1  0  0  0
 33 43  1  0  0  0
 33 44  1  0  0  0
 34 35  1  0  0  0
 34 50  1  0  0  0
 35 36  2  0  0  0
 35 37  1  0  0  0
 37 38  2  0  0  0
 37 42  1  0  0  0
 38 39  1  0  0  0
 38 45  1  0  0  0
 39 40  2  0  0  0
 39 46  1  0  0  0
 40 41  1  0  0  0
 40 47  1  0  0  0
 41 42  2  0  0  0
 41 48  1  0  0  0
 42 50  1  0  0  0
 50 51  2  0  0  0
M  CHG  1   5   1
M  END
>  <ACTIVITY>
7.52

>  <SET>
1

>  <Min_dist>
999.9

>  <Avg_dist>
999.9

$$$$
1-11
  Cerius2 12110213523D 1   1.00000                          
Structure written by Cerius2 SD Exporter
 47 50  0  0  0  0  0  0  0  0999 V2000
    5.0462   59.8148   70.0852 C   0  0  0  0  0  0
    3.9556   60.0666   70.9226 C   0  0  0  0  0  0
    3.2530   61.3047   70.8671 C   0  0  0  0  0  0
    3.6950   62.2747   69.9360 C   0  0  0  0  0  0
    4.8050   62.0182   69.0823 C   0  0  0  0  0  0
    5.4972   60.7849   69.1443 C   0  0  0  0  0  0
    5.0040   63.2512   68.2183 C   0  0  0  0  0  0
    4.0181   64.1702   68.6022 N   0  0  0  0  0  0
    3.1919   63.6696   69.6142 C   0  0  0  0  0  0
    3.8096   65.5196   68.0230 C   0  0  0  0  0  0
    5.0113   66.4609   68.1933 C   0  0  0  0  0  0
    4.7431   67.8356   67.5802 C   0  0  0  0  0  0
    4.4019   67.7239   66.1508 N   0  3  0  0  0  0
    3.1944   66.8955   65.9805 C   0  0  0  0  0  0
    3.3999   65.4862   66.5449 C   0  0  0  0  0  0
    4.2023   69.0768   65.5863 C   0  0  0  0  0  0
    4.1336   69.0906   64.0719 C   0  0  0  0  0  0
    2.9764   69.5327   63.4138 C   0  0  0  0  0  0
    2.9196   69.5558   62.0188 C   0  0  0  0  0  0
    4.0176   69.1404   61.2674 C   0  0  0  0  0  0
    5.1743   68.7016   61.9090 C   0  0  0  0  0  0
    5.2333   68.6774   63.3036 C   0  0  0  0  0  0
    5.8288   63.4658   67.3502 O   0  0  0  0  0  0
    2.3871   61.5094   71.5274 H   0  0  0  0  0  0
    6.3621   60.5848   68.4809 H   0  0  0  0  0  0
    2.9750   65.9362   68.6014 H   0  0  0  0  0  0
    5.2420   66.5807   69.2588 H   0  0  0  0  0  0
    5.9013   66.0217   67.7236 H   0  0  0  0  0  0
    3.9420   68.3396   68.1367 H   0  0  0  0  0  0
    5.6514   68.4393   67.6977 H   0  0  0  0  0  0
    2.3282   67.3624   66.4680 H   0  0  0  0  0  0
    2.9506   66.7895   64.9173 H   0  0  0  0  0  0
    4.1668   64.9666   65.9558 H   0  0  0  0  0  0
    2.4674   64.9243   66.4214 H   0  0  0  0  0  0
    3.3086   69.5486   66.0164 H   0  0  0  0  0  0
    5.0485   69.7219   65.8599 H   0  0  0  0  0  0
    2.1088   69.8618   63.9847 H   0  0  0  0  0  0
    2.0162   69.8994   61.5174 H   0  0  0  0  0  0
    3.9718   69.1590   60.1799 H   0  0  0  0  0  0
    6.0325   68.3771   61.3230 H   0  0  0  0  0  0
    6.1420   68.3311   63.7950 H   0  0  0  0  0  0
    2.2605   64.2847   70.1017 O   0  0  0  0  0  0
    3.5161   59.0299   71.8881 N   0  3  0  0  0  0
    2.5604   59.2852   72.6022 O   0  0  0  0  0  0
    4.1294   57.9762   71.9218 O   0  5  0  0  0  0
    5.5790   58.8450   70.1425 H   0  0  0  0  0  0
    5.0864   67.3290   65.7202 H   0  0  0  0  0  0
  1  2  2  0  0  0
  1  6  1  0  0  0
  1 46  1  0  0  0
  2  3  1  0  0  0
  2 43  1  0  0  0
  3  4  2  0  0  0
  3 24  1  0  0  0
  4  5  1  0  0  0
  4  9  1  0  0  0
  5  6  2  0  0  0
  5  7  1  0  0  0
  6 25  1  0  0  0
  7  8  1  0  0  0
  7 23  2  0  0  0
  8  9  1  0  0  0
  8 10  1  0  0  0
  9 42  2  0  0  0
 10 11  1  0  0  0
 10 15  1  0  0  0
 10 26  1  0  0  0
 11 12  1  0  0  0
 11 27  1  0  0  0
 11 28  1  0  0  0
 12 13  1  0  0  0
 12 29  1  0  0  0
 12 30  1  0  0  0
 13 14  1  0  0  0
 13 16  1  0  0  0
 13 47  1  0  0  0
 14 15  1  0  0  0
 14 31  1  0  0  0
 14 32  1  0  0  0
 15 33  1  0  0  0
 15 34  1  0  0  0
 16 17  1  0  0  0
 16 35  1  0  0  0
 16 36  1  0  0  0
 17 18  1  0  0  0
 17 22  2  0  0  0
 18 19  2  0  0  0
 18 37  1  0  0  0
 19 20  1  0  0  0
 19 38  1  0  0  0
 20 21  2  0  0  0
 20 39  1  0  0  0
 21 22  1  0  0  0
 21 40  1  0  0  0
 22 41  1  0  0  0
 43 44  2  0  0  0
 43 45  1  0  0  0
M  CHG  3  13   1  43   1  45  -1
M  END
>  <ACTIVITY>
4.57

>  <SET>
2

>  <Min_dist>
0.17

>  <Avg_dist>
0.57

$$$$
1-12
  Cerius2 12110213523D 1   1.00000                          
Structure written by Cerius2 SD Exporter
 50 53  0  0  0  0  0  0  0  0999 V2000
    1.1840   59.8832   71.5292 C   0  0  0  0  0  0
    0.1890   60.8918   71.6610 C   0  0  0  0  0  0
    0.3161   62.1072   70.9710 C   0  0  0  0  0  0
    1.4220   62.3006   70.1561 C   0  0  0  0  0  0
    2.3811   61.3057   70.0405 C   0  0  0  0  0  0
    2.2956   60.0957   70.7075 C   0  0  0  0  0  0
    3.4174   61.7703   69.1240 C   0  0  0  0  0  0
    3.1028   63.1002   68.7795 N   0  0  0  0  0  0
    1.8414   63.4734   69.2931 C   0  0  0  0  0  0
    4.1896   64.0398   68.5015 C   0  0  0  0  0  0
    3.8424   65.4770   68.0224 C   0  0  0  0  0  0
    5.0113   66.4609   68.1933 C   0  0  0  0  0  0
    4.7431   67.8356   67.5802 C   0  0  0  0  0  0
    4.4019   67.7239   66.1508 N   0  3  0  0  0  0
    3.1944   66.8955   65.9805 C   0  0  0  0  0  0
    3.3999   65.4862   66.5449 C   0  0  0  0  0  0
    4.2023   69.0768   65.5863 C   0  0  0  0  0  0
    4.1336   69.0906   64.0719 C   0  0  0  0  0  0
    2.9764   69.5327   63.4138 C   0  0  0  0  0  0
    2.9196   69.5558   62.0188 C   0  0  0  0  0  0
    4.0176   69.1404   61.2674 C   0  0  0  0  0  0
    5.1743   68.7016   61.9090 C   0  0  0  0  0  0
    5.2333   68.6774   63.3036 C   0  0  0  0  0  0
    4.4304   61.1373   68.8649 O   0  0  0  0  0  0
   -0.4165   62.9040   71.0555 H   0  0  0  0  0  0
    3.0809   59.3614   70.5701 H   0  0  0  0  0  0
    1.2531   64.5172   69.1028 O   0  0  0  0  0  0
    4.8305   64.1208   69.4017 H   0  0  0  0  0  0
    4.8379   63.5709   67.7386 H   0  0  0  0  0  0
    3.0356   65.9103   68.6348 H   0  0  0  0  0  0
    5.2583   66.5879   69.2621 H   0  0  0  0  0  0
    5.9013   66.0217   67.7236 H   0  0  0  0  0  0
    3.9420   68.3396   68.1367 H   0  0  0  0  0  0
    5.6514   68.4393   67.6977 H   0  0  0  0  0  0
    2.3282   67.3624   66.4680 H   0  0  0  0  0  0
    2.9506   66.7895   64.9173 H   0  0  0  0  0  0
    4.1668   64.9666   65.9558 H   0  0  0  0  0  0
    2.4674   64.9243   66.4214 H   0  0  0  0  0  0
    3.3086   69.5486   66.0164 H   0  0  0  0  0  0
    5.0485   69.7219   65.8599 H   0  0  0  0  0  0
    2.1088   69.8618   63.9847 H   0  0  0  0  0  0
    2.0162   69.8994   61.5174 H   0  0  0  0  0  0
    3.9718   69.1590   60.1799 H   0  0  0  0  0  0
    6.0325   68.3771   61.3230 H   0  0  0  0  0  0
    6.1420   68.3311   63.7950 H   0  0  0  0  0  0
   -0.9817   60.6572   72.5377 N   0  3  0  0  0  0
   -1.0651   59.5846   73.1130 O   0  0  0  0  0  0
   -1.8049   61.5521   72.6398 O   0  5  0  0  0  0
    1.0787   58.9268   72.0784 H   0  0  0  0  0  0
    5.0864   67.3290   65.7202 H   0  0  0  0  0  0
  1  2  2  0  0  0
  1  6  1  0  0  0
  1 49  1  0  0  0
  2  3  1  0  0  0
  2 46  1  0  0  0
  3  4  2  0  0  0
  3 25  1  0  0  0
  4  5  1  0  0  0
  4  9  1  0  0  0
  5  6  2  0  0  0
  5  7  1  0  0  0
  6 26  1  0  0  0
  7  8  1  0  0  0
  7 24  2  0  0  0
  8  9  1  0  0  0
  8 10  1  0  0  0
  9 27  2  0  0  0
 10 11  1  0  0  0
 10 28  1  0  0  0
 10 29  1  0  0  0
 11 12  1  0  0  0
 11 16  1  0  0  0
 11 30  1  0  0  0
 12 13  1  0  0  0
 12 31  1  0  0  0
 12 32  1  0  0  0
 13 14  1  0  0  0
 13 33  1  0  0  0
 13 34  1  0  0  0
 14 15  1  0  0  0
 14 17  1  0  0  0
 14 50  1  0  0  0
 15 16  1  0  0  0
 15 35  1  0  0  0
 15 36  1  0  0  0
 16 37  1  0  0  0
 16 38  1  0  0  0
 17 18  1  0  0  0
 17 39  1  0  0  0
 17 40  1  0  0  0
 18 19  1  0  0  0
 18 23  2  0  0  0
 19 20  2  0  0  0
 19 41  1  0  0  0
 20 21  1  0  0  0
 20 42  1  0  0  0
 21 22  2  0  0  0
 21 43  1  0  0  0
 22 23  1  0  0  0
 22 44  1  0  0  0
 23 45  1  0  0  0
 46 47  2  0  0  0
 46 48  1  0  0  0
M  CHG  3  14   1  46   1  48  -1
M  END
>  <ACTIVITY>
5.52

>  <SET>
1

>  <Min_dist>
999.9

>  <Avg_dist>
999.9

$$$$
1-13
  Cerius2 12110213523D 1   1.00000                          
Structure written by Cerius2 SD Exporter
 53 56  0  0  0  0  0  0  0  0999 V2000
    4.9012   63.6570   67.1245 C   0  0  0  0  0  0
    4.3855   65.0953   67.1679 C   0  0  0  0  0  0
    5.2770   66.2628   67.6398 C   0  0  0  0  0  0
    4.5857   67.6253   67.4818 C   0  0  0  0  0  0
    4.1925   67.8073   66.0805 N   0  3  0  0  0  0
    3.1996   66.8221   65.6392 C   0  0  0  0  0  0
    3.8229   65.4102   65.7568 C   0  0  0  0  0  0
    4.3302   69.1509   65.5151 C   0  0  0  0  0  0
    4.2612   69.1992   64.0021 C   0  0  0  0  0  0
    3.0583   69.6122   63.4103 C   0  0  0  0  0  0
    2.9137   69.6073   62.0214 C   0  0  0  0  0  0
    3.9685   69.1928   61.2101 C   0  0  0  0  0  0
    5.1698   68.7828   61.7855 C   0  0  0  0  0  0
    5.3166   68.7866   63.1737 C   0  0  0  0  0  0
    5.5383   63.3911   67.9873 H   0  0  0  0  0  0
    5.5118   63.4701   66.2240 H   0  0  0  0  0  0
    3.5310   65.0411   67.8689 H   0  0  0  0  0  0
    5.5824   66.1197   68.6906 H   0  0  0  0  0  0
    6.2068   66.2717   67.0398 H   0  0  0  0  0  0
    3.7145   67.7004   68.1590 H   0  0  0  0  0  0
    5.2829   68.4214   67.7923 H   0  0  0  0  0  0
    2.2727   66.8895   66.2384 H   0  0  0  0  0  0
    2.9028   66.9965   64.5928 H   0  0  0  0  0  0
    4.6504   65.3441   65.0247 H   0  0  0  0  0  0
    3.0777   64.6579   65.4492 H   0  0  0  0  0  0
    3.5737   69.8400   65.9317 H   0  0  0  0  0  0
    5.3143   69.5451   65.8234 H   0  0  0  0  0  0
    2.2062   69.9310   64.0444 H   0  0  0  0  0  0
    1.9555   69.9248   61.5679 H   0  0  0  0  0  0
    3.8512   69.1849   60.1094 H   0  0  0  0  0  0
    6.0072   68.4449   61.1453 H   0  0  0  0  0  0
    6.2681   68.4425   63.6279 H   0  0  0  0  0  0
    3.6505   62.7522   67.1188 C   0  0  0  0  0  0
    3.0403   62.6823   68.4522 N   0  0  0  0  0  0
    3.4351   61.5249   69.0750 C   0  0  0  0  0  0
    4.4126   60.8107   68.8753 O   0  0  0  0  0  0
    2.3360   61.2610   69.9910 C   0  0  0  0  0  0
    2.1816   60.0574   70.7052 C   0  0  0  0  0  0
    1.0937   59.8814   71.5627 C   0  0  0  0  0  0
    0.1451   60.9030   71.7211 C   0  0  0  0  0  0
    0.3027   62.1039   71.0182 C   0  0  0  0  0  0
    1.3932   62.2913   70.1618 C   0  0  0  0  0  0
    2.8904   63.0298   66.3777 H   0  0  0  0  0  0
    3.9249   61.7316   66.8036 H   0  0  0  0  0  0
    2.9204   59.2427   70.5798 H   0  0  0  0  0  0
   -0.4380   62.9164   71.1493 H   0  0  0  0  0  0
    4.9170   67.4352   65.6976 H   0  0  0  0  0  0
    1.8610   63.2931   69.0508 C   0  0  0  0  0  0
    1.3887   64.3159   68.6160 O   0  0  0  0  0  0
   -1.0102   60.7237   72.6311 N   0  3  0  0  0  0
   -1.0959   59.6737   73.2412 O   0  0  0  0  0  0
   -1.8120   61.6393   72.7210 O   0  5  0  0  0  0
    0.9849   58.9249   72.1151 H   0  0  0  0  0  0
  1  2  1  0  0  0
  1 15  1  0  0  0
  1 16  1  0  0  0
  1 33  1  0  0  0
  2  3  1  0  0  0
  2  7  1  0  0  0
  2 17  1  0  0  0
  3  4  1  0  0  0
  3 18  1  0  0  0
  3 19  1  0  0  0
  4  5  1  0  0  0
  4 20  1  0  0  0
  4 21  1  0  0  0
  5  6  1  0  0  0
  5  8  1  0  0  0
  5 47  1  0  0  0
  6  7  1  0  0  0
  6 22  1  0  0  0
  6 23  1  0  0  0
  7 24  1  0  0  0
  7 25  1  0  0  0
  8  9  1  0  0  0
  8 26  1  0  0  0
  8 27  1  0  0  0
  9 10  1  0  0  0
  9 14  2  0  0  0
 10 11  2  0  0  0
 10 28  1  0  0  0
 11 12  1  0  0  0
 11 29  1  0  0  0
 12 13  2  0  0  0
 12 30  1  0  0  0
 13 14  1  0  0  0
 13 31  1  0  0  0
 14 32  1  0  0  0
 33 34  1  0  0  0
 33 43  1  0  0  0
 33 44  1  0  0  0
 34 35  1  0  0  0
 34 48  1  0  0  0
 35 36  2  0  0  0
 35 37  1  0  0  0
 37 38  2  0  0  0
 37 42  1  0  0  0
 38 39  1  0  0  0
 38 45  1  0  0  0
 39 40  2  0  0  0
 39 53  1  0  0  0
 40 41  1  0  0  0
 40 50  1  0  0  0
 41 42  2  0  0  0
 41 46  1  0  0  0
 42 48  1  0  0  0
 48 49  2  0  0  0
 50 51  2  0  0  0
 50 52  1  0  0  0
M  CHG  3   5   1  50   1  52  -1
M  END
>  <ACTIVITY>
7.9

>  <SET>
1

>  <Min_dist>
999.9

>  <Avg_dist>
999.9

$$$$
1-14
  Cerius2 12110213523D 1   1.00000                          
Structure written by Cerius2 SD Exporter
 57 60  0  0  0  0  0  0  0  0999 V2000
    4.9012   63.6570   67.1245 C   0  0  0  0  0  0
    4.3855   65.0953   67.1679 C   0  0  0  0  0  0
    5.2770   66.2628   67.6398 C   0  0  0  0  0  0
    4.5857   67.6253   67.4818 C   0  0  0  0  0  0
    4.1925   67.8073   66.0805 N   0  3  0  0  0  0
    3.1996   66.8221   65.6392 C   0  0  0  0  0  0
    3.8229   65.4102   65.7568 C   0  0  0  0  0  0
    4.3302   69.1509   65.5151 C   0  0  0  0  0  0
    4.2612   69.1992   64.0021 C   0  0  0  0  0  0
    3.0583   69.6122   63.4103 C   0  0  0  0  0  0
    2.9137   69.6073   62.0214 C   0  0  0  0  0  0
    3.9685   69.1928   61.2101 C   0  0  0  0  0  0
    5.1698   68.7828   61.7855 C   0  0  0  0  0  0
    5.3166   68.7866   63.1737 C   0  0  0  0  0  0
    5.5383   63.3911   67.9873 H   0  0  0  0  0  0
    5.5118   63.4701   66.2240 H   0  0  0  0  0  0
    3.5310   65.0411   67.8689 H   0  0  0  0  0  0
    5.5824   66.1197   68.6906 H   0  0  0  0  0  0
    6.2068   66.2717   67.0398 H   0  0  0  0  0  0
    3.7145   67.7004   68.1590 H   0  0  0  0  0  0
    5.2829   68.4214   67.7923 H   0  0  0  0  0  0
    2.2727   66.8895   66.2384 H   0  0  0  0  0  0
    2.9028   66.9965   64.5928 H   0  0  0  0  0  0
    4.6504   65.3441   65.0247 H   0  0  0  0  0  0
    3.0777   64.6579   65.4492 H   0  0  0  0  0  0
    3.5737   69.8400   65.9317 H   0  0  0  0  0  0
    5.3143   69.5451   65.8234 H   0  0  0  0  0  0
    2.2062   69.9310   64.0444 H   0  0  0  0  0  0
    1.9555   69.9248   61.5679 H   0  0  0  0  0  0
    6.0072   68.4449   61.1453 H   0  0  0  0  0  0
    6.2681   68.4425   63.6279 H   0  0  0  0  0  0
    3.6505   62.7522   67.1188 C   0  0  0  0  0  0
    3.0403   62.6823   68.4522 N   0  0  0  0  0  0
    3.4351   61.5249   69.0750 C   0  0  0  0  0  0
    4.4126   60.8107   68.8753 O   0  0  0  0  0  0
    2.3360   61.2610   69.9910 C   0  0  0  0  0  0
    2.1816   60.0574   70.7052 C   0  0  0  0  0  0
    1.0937   59.8814   71.5627 C   0  0  0  0  0  0
    0.1451   60.9030   71.7211 C   0  0  0  0  0  0
    0.3027   62.1039   71.0182 C   0  0  0  0  0  0
    1.3932   62.2913   70.1618 C   0  0  0  0  0  0
    2.8904   63.0298   66.3777 H   0  0  0  0  0  0
    3.9249   61.7316   66.8036 H   0  0  0  0  0  0
    2.9204   59.2427   70.5798 H   0  0  0  0  0  0
   -0.4380   62.9164   71.1493 H   0  0  0  0  0  0
    4.9170   67.4352   65.6976 H   0  0  0  0  0  0
    1.8610   63.2931   69.0508 C   0  0  0  0  0  0
    1.3887   64.3159   68.6160 O   0  0  0  0  0  0
   -1.0102   60.7237   72.6311 N   0  3  0  0  0  0
   -1.0959   59.6737   73.2412 O   0  0  0  0  0  0
   -1.8120   61.6393   72.7210 O   0  5  0  0  0  0
    0.9849   58.9249   72.1151 H   0  0  0  0  0  0
    2.7809   69.6527   59.1346 C   0  0  0  0  0  0
    3.9101   69.1538   59.8436 O   0  0  0  0  0  0
    2.6040   70.7189   59.3439 H   0  0  0  0  0  0
    3.0119   69.5365   58.0664 H   0  0  0  0  0  0
    1.8680   69.0826   59.3639 H   0  0  0  0  0  0
  1  2  1  0  0  0
  1 15  1  0  0  0
  1 16  1  0  0  0
  1 32  1  0  0  0
  2  3  1  0  0  0
  2  7  1  0  0  0
  2 17  1  0  0  0
  3  4  1  0  0  0
  3 18  1  0  0  0
  3 19  1  0  0  0
  4  5  1  0  0  0
  4 20  1  0  0  0
  4 21  1  0  0  0
  5  6  1  0  0  0
  5  8  1  0  0  0
  5 46  1  0  0  0
  6  7  1  0  0  0
  6 22  1  0  0  0
  6 23  1  0  0  0
  7 24  1  0  0  0
  7 25  1  0  0  0
  8  9  1  0  0  0
  8 26  1  0  0  0
  8 27  1  0  0  0
  9 10  1  0  0  0
  9 14  2  0  0  0
 10 11  2  0  0  0
 10 28  1  0  0  0
 11 12  1  0  0  0
 11 29  1  0  0  0
 12 13  2  0  0  0
 12 54  1  0  0  0
 13 14  1  0  0  0
 13 30  1  0  0  0
 14 31  1  0  0  0
 32 33  1  0  0  0
 32 42  1  0  0  0
 32 43  1  0  0  0
 33 34  1  0  0  0
 33 47  1  0  0  0
 34 35  2  0  0  0
 34 36  1  0  0  0
 36 37  2  0  0  0
 36 41  1  0  0  0
 37 38  1  0  0  0
 37 44  1  0  0  0
 38 39  2  0  0  0
 38 52  1  0  0  0
 39 40  1  0  0  0
 39 49  1  0  0  0
 40 41  2  0  0  0
 40 45  1  0  0  0
 41 47  1  0  0  0
 47 48  2  0  0  0
 49 50  2  0  0  0
 49 51  1  0  0  0
 53 54  1  0  0  0
 53 55  1  0  0  0
 53 56  1  0  0  0
 53 57  1  0  0  0
M  CHG  3   5   1  49   1  51  -1
M  END
>  <ACTIVITY>
6.36

>  <SET>
1

>  <Min_dist>
999.9

>  <Avg_dist>
999.9

$$$$
1-15
  Cerius2 12110213523D 1   1.00000                          
Structure written by Cerius2 SD Exporter
 53 56  0  0  0  0  0  0  0  0999 V2000
    4.9012   63.6570   67.1245 C   0  0  0  0  0  0
    4.3855   65.0953   67.1679 C   0  0  0  0  0  0
    5.2770   66.2628   67.6398 C   0  0  0  0  0  0
    4.5857   67.6253   67.4818 C   0  0  0  0  0  0
    4.1925   67.8073   66.0805 N   0  3  0  0  0  0
    3.1996   66.8221   65.6392 C   0  0  0  0  0  0
    3.8229   65.4102   65.7568 C   0  0  0  0  0  0
    4.3302   69.1509   65.5151 C   0  0  0  0  0  0
    4.2612   69.1992   64.0021 C   0  0  0  0  0  0
    3.0583   69.6122   63.4103 C   0  0  0  0  0  0
    2.9137   69.6073   62.0214 C   0  0  0  0  0  0
    3.9685   69.1928   61.2101 C   0  0  0  0  0  0
    5.1698   68.7828   61.7855 C   0  0  0  0  0  0
    5.3166   68.7866   63.1737 C   0  0  0  0  0  0
    5.5383   63.3911   67.9873 H   0  0  0  0  0  0
    5.5118   63.4701   66.2240 H   0  0  0  0  0  0
    3.5310   65.0411   67.8689 H   0  0  0  0  0  0
    5.5824   66.1197   68.6906 H   0  0  0  0  0  0
    6.2068   66.2717   67.0398 H   0  0  0  0  0  0
    3.7145   67.7004   68.1590 H   0  0  0  0  0  0
    5.2829   68.4214   67.7923 H   0  0  0  0  0  0
    2.2727   66.8895   66.2384 H   0  0  0  0  0  0
    2.9028   66.9965   64.5928 H   0  0  0  0  0  0
    4.6504   65.3441   65.0247 H   0  0  0  0  0  0
    3.0777   64.6579   65.4492 H   0  0  0  0  0  0
    3.5737   69.8400   65.9317 H   0  0  0  0  0  0
    5.3143   69.5451   65.8234 H   0  0  0  0  0  0
    2.2062   69.9310   64.0444 H   0  0  0  0  0  0
    1.9555   69.9248   61.5679 H   0  0  0  0  0  0
    3.7812   69.1718   59.4958 Cl  0  0  0  0  0  0
    6.0072   68.4449   61.1453 H   0  0  0  0  0  0
    6.2681   68.4425   63.6279 H   0  0  0  0  0  0
    3.6505   62.7522   67.1188 C   0  0  0  0  0  0
    3.0403   62.6823   68.4522 N   0  0  0  0  0  0
    3.4351   61.5249   69.0750 C   0  0  0  0  0  0
    4.4126   60.8107   68.8753 O   0  0  0  0  0  0
    2.3360   61.2610   69.9910 C   0  0  0  0  0  0
    2.1816   60.0574   70.7052 C   0  0  0  0  0  0
    1.0937   59.8814   71.5627 C   0  0  0  0  0  0
    0.1451   60.9030   71.7211 C   0  0  0  0  0  0
    0.3027   62.1039   71.0182 C   0  0  0  0  0  0
    1.3932   62.2913   70.1618 C   0  0  0  0  0  0
    2.8904   63.0298   66.3777 H   0  0  0  0  0  0
    3.9249   61.7316   66.8036 H   0  0  0  0  0  0
    2.9204   59.2427   70.5798 H   0  0  0  0  0  0
   -0.4380   62.9164   71.1493 H   0  0  0  0  0  0
    4.9170   67.4352   65.6976 H   0  0  0  0  0  0
    1.8610   63.2931   69.0508 C   0  0  0  0  0  0
    1.3887   64.3159   68.6160 O   0  0  0  0  0  0
   -1.0102   60.7237   72.6311 N   0  3  0  0  0  0
   -1.0959   59.6737   73.2412 O   0  0  0  0  0  0
   -1.8120   61.6393   72.7210 O   0  5  0  0  0  0
    0.9849   58.9249   72.1151 H   0  0  0  0  0  0
  1  2  1  0  0  0
  1 15  1  0  0  0
  1 16  1  0  0  0
  1 33  1  0  0  0
  2  3  1  0  0  0
  2  7  1  0  0  0
  2 17  1  0  0  0
  3  4  1  0  0  0
  3 18  1  0  0  0
  3 19  1  0  0  0
  4  5  1  0  0  0
  4 20  1  0  0  0
  4 21  1  0  0  0
  5  6  1  0  0  0
  5  8  1  0  0  0
  5 47  1  0  0  0
  6  7  1  0  0  0
  6 22  1  0  0  0
  6 23  1  0  0  0
  7 24  1  0  0  0
  7 25  1  0  0  0
  8  9  1  0  0  0
  8 26  1  0  0  0
  8 27  1  0  0  0
  9 10  1  0  0  0
  9 14  2  0  0  0
 10 11  2  0  0  0
 10 28  1  0  0  0
 11 12  1  0  0  0
 11 29  1  0  0  0
 12 13  2  0  0  0
 12 30  1  0  0  0
 13 14  1  0  0  0
 13 31  1  0  0  0
 14 32  1  0  0  0
 33 34  1  0  0  0
 33 43  1  0  0  0
 33 44  1  0  0  0
 34 35  1  0  0  0
 34 48  1  0  0  0
 35 36  2  0  0  0
 35 37  1  0  0  0
 37 38  2  0  0  0
 37 42  1  0  0  0
 38 39  1  0  0  0
 38 45  1  0  0  0
 39 40  2  0  0  0
 39 53  1  0  0  0
 40 41  1  0  0  0
 40 50  1  0  0  0
 41 42  2  0  0  0
 41 46  1  0  0  0
 42 48  1  0  0  0
 48 49  2  0  0  0
 50 51  2  0  0  0
 50 52  1  0  0  0
M  CHG  3   5   1  50   1  52  -1
M  END
>  <ACTIVITY>
6.62

>  <SET>
1

>  <Min_dist>
999.9

>  <Avg_dist>
999.9

$$$$
1-16
  Cerius2 12110213523D 1   1.00000                          
Structure written by Cerius2 SD Exporter
 43 45  0  0  0  0  0  0  0  0999 V2000
    4.9012   63.6570   67.1245 C   0  0  0  0  0  0
    4.3855   65.0953   67.1679 C   0  0  0  0  0  0
    5.2770   66.2628   67.6398 C   0  0  0  0  0  0
    4.5857   67.6253   67.4818 C   0  0  0  0  0  0
    4.1925   67.8073   66.0805 N   0  3  0  0  0  0
    3.1996   66.8221   65.6392 C   0  0  0  0  0  0
    3.8229   65.4102   65.7568 C   0  0  0  0  0  0
    4.3302   69.1509   65.5151 C   0  0  0  0  0  0
    5.5383   63.3911   67.9873 H   0  0  0  0  0  0
    5.5118   63.4701   66.2240 H   0  0  0  0  0  0
    3.5310   65.0411   67.8689 H   0  0  0  0  0  0
    5.5824   66.1197   68.6906 H   0  0  0  0  0  0
    6.2068   66.2717   67.0398 H   0  0  0  0  0  0
    3.7145   67.7004   68.1590 H   0  0  0  0  0  0
    5.2829   68.4214   67.7923 H   0  0  0  0  0  0
    2.2727   66.8895   66.2384 H   0  0  0  0  0  0
    2.9028   66.9965   64.5928 H   0  0  0  0  0  0
    4.6504   65.3441   65.0247 H   0  0  0  0  0  0
    3.0777   64.6579   65.4492 H   0  0  0  0  0  0
    3.5737   69.8400   65.9317 H   0  0  0  0  0  0
    5.3143   69.5451   65.8234 H   0  0  0  0  0  0
    3.6505   62.7522   67.1188 C   0  0  0  0  0  0
    3.0403   62.6823   68.4522 N   0  0  0  0  0  0
    3.4351   61.5249   69.0750 C   0  0  0  0  0  0
    4.4126   60.8107   68.8753 O   0  0  0  0  0  0
    2.3360   61.2610   69.9910 C   0  0  0  0  0  0
    2.1816   60.0574   70.7052 C   0  0  0  0  0  0
    1.0937   59.8814   71.5627 C   0  0  0  0  0  0
    0.1451   60.9030   71.7211 C   0  0  0  0  0  0
    0.3027   62.1039   71.0182 C   0  0  0  0  0  0
    1.3932   62.2913   70.1618 C   0  0  0  0  0  0
    2.8904   63.0298   66.3777 H   0  0  0  0  0  0
    3.9249   61.7316   66.8036 H   0  0  0  0  0  0
    2.9204   59.2427   70.5798 H   0  0  0  0  0  0
   -0.4380   62.9164   71.1493 H   0  0  0  0  0  0
    4.9170   67.4352   65.6976 H   0  0  0  0  0  0
    1.8610   63.2931   69.0508 C   0  0  0  0  0  0
    1.3887   64.3159   68.6160 O   0  0  0  0  0  0
   -1.0102   60.7237   72.6311 N   0  3  0  0  0  0
   -1.0959   59.6737   73.2412 O   0  0  0  0  0  0
   -1.8120   61.6393   72.7210 O   0  5  0  0  0  0
    0.9849   58.9249   72.1151 H   0  0  0  0  0  0
    4.2663   69.1209   64.5678 H   0  0  0  0  0  0
  1  2  1  0  0  0
  1  9  1  0  0  0
  1 10  1  0  0  0
  1 22  1  0  0  0
  2  3  1  0  0  0
  2  7  1  0  0  0
  2 11  1  0  0  0
  3  4  1  0  0  0
  3 12  1  0  0  0
  3 13  1  0  0  0
  4  5  1  0  0  0
  4 14  1  0  0  0
  4 15  1  0  0  0
  5  6  1  0  0  0
  5  8  1  0  0  0
  5 36  1  0  0  0
  6  7  1  0  0  0
  6 16  1  0  0  0
  6 17  1  0  0  0
  7 18  1  0  0  0
  7 19  1  0  0  0
  8 20  1  0  0  0
  8 21  1  0  0  0
  8 43  1  0  0  0
 22 23  1  0  0  0
 22 32  1  0  0  0
 22 33  1  0  0  0
 23 24  1  0  0  0
 23 37  1  0  0  0
 24 25  2  0  0  0
 24 26  1  0  0  0
 26 27  2  0  0  0
 26 31  1  0  0  0
 27 28  1  0  0  0
 27 34  1  0  0  0
 28 29  2  0  0  0
 28 42  1  0  0  0
 29 30  1  0  0  0
 29 39  1  0  0  0
 30 31  2  0  0  0
 30 35  1  0  0  0
 31 37  1  0  0  0
 37 38  2  0  0  0
 39 40  2  0  0  0
 39 41  1  0  0  0
M  CHG  3   5   1  39   1  41  -1
M  END
>  <ACTIVITY>
5.17

>  <SET>
1

>  <Min_dist>
999.9

>  <Avg_dist>
999.9

$$$$
1-17
  Cerius2 12110213523D 1   1.00000                          
Structure written by Cerius2 SD Exporter
 53 56  0  0  0  0  0  0  0  0999 V2000
    4.9012   63.6570   67.1245 C   0  0  0  0  0  0
    4.3855   65.0953   67.1679 C   0  0  0  0  0  0
    5.2770   66.2628   67.6398 C   0  0  0  0  0  0
    4.5857   67.6253   67.4818 C   0  0  0  0  0  0
    4.1925   67.8073   66.0805 N   0  3  0  0  0  0
    3.1996   66.8221   65.6392 C   0  0  0  0  0  0
    3.8229   65.4102   65.7568 C   0  0  0  0  0  0
    4.3302   69.1509   65.5151 C   0  0  0  0  0  0
    4.2612   69.1992   64.0021 C   0  0  0  0  0  0
    3.0583   69.6122   63.4103 C   0  0  0  0  0  0
    2.9137   69.6073   62.0214 C   0  0  0  0  0  0
    3.9685   69.1928   61.2101 C   0  0  0  0  0  0
    5.1698   68.7828   61.7855 C   0  0  0  0  0  0
    5.3166   68.7866   63.1737 C   0  0  0  0  0  0
    5.5383   63.3911   67.9873 H   0  0  0  0  0  0
    5.5118   63.4701   66.2240 H   0  0  0  0  0  0
    3.5310   65.0411   67.8689 H   0  0  0  0  0  0
    5.5824   66.1197   68.6906 H   0  0  0  0  0  0
    6.2068   66.2717   67.0398 H   0  0  0  0  0  0
    3.7145   67.7004   68.1590 H   0  0  0  0  0  0
    5.2829   68.4214   67.7923 H   0  0  0  0  0  0
    2.2727   66.8895   66.2384 H   0  0  0  0  0  0
    2.9028   66.9965   64.5928 H   0  0  0  0  0  0
    4.6504   65.3441   65.0247 H   0  0  0  0  0  0
    3.0777   64.6579   65.4492 H   0  0  0  0  0  0
    3.5737   69.8400   65.9317 H   0  0  0  0  0  0
    5.3143   69.5451   65.8234 H   0  0  0  0  0  0
    2.2062   69.9310   64.0444 H   0  0  0  0  0  0
    1.9555   69.9248   61.5679 H   0  0  0  0  0  0
    3.8512   69.1849   60.1094 H   0  0  0  0  0  0
    6.0072   68.4449   61.1453 H   0  0  0  0  0  0
    6.2681   68.4425   63.6279 H   0  0  0  0  0  0
    3.6505   62.7522   67.1188 C   0  0  0  0  0  0
    3.0403   62.6823   68.4522 N   0  0  0  0  0  0
    3.4351   61.5249   69.0750 C   0  0  0  0  0  0
    4.4126   60.8107   68.8753 O   0  0  0  0  0  0
    2.3360   61.2610   69.9910 C   0  0  0  0  0  0
    2.1816   60.0574   70.7052 C   0  0  0  0  0  0
    1.0937   59.8814   71.5627 C   0  0  0  0  0  0
    0.1451   60.9030   71.7211 C   0  0  0  0  0  0
    0.3027   62.1039   71.0182 C   0  0  0  0  0  0
    1.3932   62.2913   70.1618 C   0  0  0  0  0  0
    2.8904   63.0298   66.3777 H   0  0  0  0  0  0
    3.9249   61.7316   66.8036 H   0  0  0  0  0  0
    2.9204   59.2427   70.5798 H   0  0  0  0  0  0
   -0.4380   62.9164   71.1493 H   0  0  0  0  0  0
    4.9170   67.4352   65.6976 H   0  0  0  0  0  0
    1.8610   63.2931   69.0508 C   0  0  0  0  0  0
    1.3887   64.3159   68.6160 O   0  0  0  0  0  0
   -0.9305   60.7245   72.5878 N   0  0  0  0  0  0
   -1.1000   59.8328   73.0284 H   0  0  0  0  0  0
   -1.6876   61.3840   72.6341 H   0  0  0  0  0  0
    0.9859   58.9257   72.1178 H   0  0  0  0  0  0
  1  2  1  0  0  0
  1 15  1  0  0  0
  1 16  1  0  0  0
  1 33  1  0  0  0
  2  3  1  0  0  0
  2  7  1  0  0  0
  2 17  1  0  0  0
  3  4  1  0  0  0
  3 18  1  0  0  0
  3 19  1  0  0  0
  4  5  1  0  0  0
  4 20  1  0  0  0
  4 21  1  0  0  0
  5  6  1  0  0  0
  5  8  1  0  0  0
  5 47  1  0  0  0
  6  7  1  0  0  0
  6 22  1  0  0  0
  6 23  1  0  0  0
  7 24  1  0  0  0
  7 25  1  0  0  0
  8  9  1  0  0  0
  8 26  1  0  0  0
  8 27  1  0  0  0
  9 10  1  0  0  0
  9 14  2  0  0  0
 10 11  2  0  0  0
 10 28  1  0  0  0
 11 12  1  0  0  0
 11 29  1  0  0  0
 12 13  2  0  0  0
 12 30  1  0  0  0
 13 14  1  0  0  0
 13 31  1  0  0  0
 14 32  1  0  0  0
 33 34  1  0  0  0
 33 43  1  0  0  0
 33 44  1  0  0  0
 34 35  1  0  0  0
 34 48  1  0  0  0
 35 36  2  0  0  0
 35 37  1  0  0  0
 37 38  2  0  0  0
 37 42  1  0  0  0
 38 39  1  0  0  0
 38 45  1  0  0  0
 39 40  2  0  0  0
 39 53  1  0  0  0
 40 41  1  0  0  0
 40 50  1  0  0  0
 41 42  2  0  0  0
 41 46  1  0  0  0
 42 48  1  0  0  0
 48 49  2  0  0  0
 50 51  1  0  0  0
 50 52  1  0  0  0
M  CHG  1   5   1
M  END
>  <ACTIVITY>
8.06

>  <SET>
2

>  <Min_dist>
0.07

>  <Avg_dist>
0.47

$$$$
1-18
  Cerius2 12110213523D 1   1.00000                          
Structure written by Cerius2 SD Exporter
 58 61  0  0  0  0  0  0  0  0999 V2000
    4.9012   63.6570   67.1245 C   0  0  0  0  0  0
    4.3855   65.0953   67.1679 C   0  0  0  0  0  0
    5.2770   66.2628   67.6398 C   0  0  0  0  0  0
    4.5857   67.6253   67.4818 C   0  0  0  0  0  0
    4.1925   67.8073   66.0805 N   0  3  0  0  0  0
    3.1996   66.8221   65.6392 C   0  0  0  0  0  0
    3.8229   65.4102   65.7568 C   0  0  0  0  0  0
    4.3302   69.1509   65.5151 C   0  0  0  0  0  0
    4.2612   69.1992   64.0021 C   0  0  0  0  0  0
    3.0583   69.6122   63.4103 C   0  0  0  0  0  0
    2.9137   69.6073   62.0214 C   0  0  0  0  0  0
    3.9685   69.1928   61.2101 C   0  0  0  0  0  0
    5.1698   68.7828   61.7855 C   0  0  0  0  0  0
    5.3166   68.7866   63.1737 C   0  0  0  0  0  0
    5.5383   63.3911   67.9873 H   0  0  0  0  0  0
    5.5118   63.4701   66.2240 H   0  0  0  0  0  0
    3.5310   65.0411   67.8689 H   0  0  0  0  0  0
    5.5824   66.1197   68.6906 H   0  0  0  0  0  0
    6.2068   66.2717   67.0398 H   0  0  0  0  0  0
    3.7145   67.7004   68.1590 H   0  0  0  0  0  0
    5.2829   68.4214   67.7923 H   0  0  0  0  0  0
    2.2727   66.8895   66.2384 H   0  0  0  0  0  0
    2.9028   66.9965   64.5928 H   0  0  0  0  0  0
    4.6504   65.3441   65.0247 H   0  0  0  0  0  0
    3.0777   64.6579   65.4492 H   0  0  0  0  0  0
    3.5737   69.8400   65.9317 H   0  0  0  0  0  0
    5.3143   69.5451   65.8234 H   0  0  0  0  0  0
    2.2062   69.9310   64.0444 H   0  0  0  0  0  0
    1.9555   69.9248   61.5679 H   0  0  0  0  0  0
    3.8512   69.1849   60.1094 H   0  0  0  0  0  0
    6.0072   68.4449   61.1453 H   0  0  0  0  0  0
    6.2681   68.4425   63.6279 H   0  0  0  0  0  0
    3.6505   62.7522   67.1188 C   0  0  0  0  0  0
    3.0403   62.6823   68.4522 N   0  0  0  0  0  0
    3.4351   61.5249   69.0750 C   0  0  0  0  0  0
    4.4126   60.8107   68.8753 O   0  0  0  0  0  0
    2.3360   61.2610   69.9910 C   0  0  0  0  0  0
    2.1816   60.0574   70.7052 C   0  0  0  0  0  0
    1.0937   59.8814   71.5627 C   0  0  0  0  0  0
    0.1451   60.9030   71.7211 C   0  0  0  0  0  0
    0.3027   62.1039   71.0182 C   0  0  0  0  0  0
    1.3932   62.2913   70.1618 C   0  0  0  0  0  0
    2.8904   63.0298   66.3777 H   0  0  0  0  0  0
    3.9249   61.7316   66.8036 H   0  0  0  0  0  0
    2.9204   59.2427   70.5798 H   0  0  0  0  0  0
   -0.4380   62.9164   71.1493 H   0  0  0  0  0  0
    4.9170   67.4352   65.6976 H   0  0  0  0  0  0
    1.8610   63.2931   69.0508 C   0  0  0  0  0  0
    1.3887   64.3159   68.6160 O   0  0  0  0  0  0
   -0.9675   60.7029   72.6027 N   0  0  0  0  0  0
   -1.3017   59.7623   72.7485 H   0  0  0  0  0  0
   -1.5546   61.6250   73.4588 C   0  0  0  0  0  0
   -1.2382   62.8038   73.5415 O   0  0  0  0  0  0
   -2.6756   61.0468   74.3185 C   0  0  0  0  0  0
   -3.0940   61.8384   74.9525 H   0  0  0  0  0  0
   -3.4820   60.6418   73.6880 H   0  0  0  0  0  0
   -2.2921   60.2462   74.9697 H   0  0  0  0  0  0
    0.9934   59.0672   72.0418 H   0  0  0  0  0  0
  1  2  1  0  0  0
  1 15  1  0  0  0
  1 16  1  0  0  0
  1 33  1  0  0  0
  2  3  1  0  0  0
  2  7  1  0  0  0
  2 17  1  0  0  0
  3  4  1  0  0  0
  3 18  1  0  0  0
  3 19  1  0  0  0
  4  5  1  0  0  0
  4 20  1  0  0  0
  4 21  1  0  0  0
  5  6  1  0  0  0
  5  8  1  0  0  0
  5 47  1  0  0  0
  6  7  1  0  0  0
  6 22  1  0  0  0
  6 23  1  0  0  0
  7 24  1  0  0  0
  7 25  1  0  0  0
  8  9  1  0  0  0
  8 26  1  0  0  0
  8 27  1  0  0  0
  9 10  1  0  0  0
  9 14  2  0  0  0
 10 11  2  0  0  0
 10 28  1  0  0  0
 11 12  1  0  0  0
 11 29  1  0  0  0
 12 13  2  0  0  0
 12 30  1  0  0  0
 13 14  1  0  0  0
 13 31  1  0  0  0
 14 32  1  0  0  0
 33 34  1  0  0  0
 33 43  1  0  0  0
 33 44  1  0  0  0
 34 35  1  0  0  0
 34 48  1  0  0  0
 35 36  2  0  0  0
 35 37  1  0  0  0
 37 38  2  0  0  0
 37 42  1  0  0  0
 38 39  1  0  0  0
 38 45  1  0  0  0
 39 40  2  0  0  0
 39 58  1  0  0  0
 40 41  1  0  0  0
 40 50  1  0  0  0
 41 42  2  0  0  0
 41 46  1  0  0  0
 42 48  1  0  0  0
 48 49  2  0  0  0
 50 51  1  0  0  0
 50 52  1  0  0  0
 52 53  2  0  0  0
 52 54  1  0  0  0
 54 55  1  0  0  0
 54 56  1  0  0  0
 54 57  1  0  0  0
M  CHG  1   5   1
M  END
>  <ACTIVITY>
8.55

>  <SET>
1

>  <Min_dist>
999.9

>  <Avg_dist>
999.9

$$$$
1-19
  Cerius2 12110213523D 1   1.00000                          
Structure written by Cerius2 SD Exporter
 65 69  0  0  0  0  0  0  0  0999 V2000
    4.9012   63.6570   67.1245 C   0  0  0  0  0  0
    4.3855   65.0953   67.1679 C   0  0  0  0  0  0
    5.2770   66.2628   67.6398 C   0  0  0  0  0  0
    4.5857   67.6253   67.4818 C   0  0  0  0  0  0
    4.1925   67.8073   66.0805 N   0  3  0  0  0  0
    3.1996   66.8221   65.6392 C   0  0  0  0  0  0
    3.8229   65.4102   65.7568 C   0  0  0  0  0  0
    4.3302   69.1509   65.5151 C   0  0  0  0  0  0
    4.2612   69.1992   64.0021 C   0  0  0  0  0  0
    3.0583   69.6122   63.4103 C   0  0  0  0  0  0
    2.9137   69.6073   62.0214 C   0  0  0  0  0  0
    3.9685   69.1928   61.2101 C   0  0  0  0  0  0
    5.1698   68.7828   61.7855 C   0  0  0  0  0  0
    5.3166   68.7866   63.1737 C   0  0  0  0  0  0
    5.5383   63.3911   67.9873 H   0  0  0  0  0  0
    5.5118   63.4701   66.2240 H   0  0  0  0  0  0
    3.5310   65.0411   67.8689 H   0  0  0  0  0  0
    5.5824   66.1197   68.6906 H   0  0  0  0  0  0
    6.2068   66.2717   67.0398 H   0  0  0  0  0  0
    3.7145   67.7004   68.1590 H   0  0  0  0  0  0
    5.2829   68.4214   67.7923 H   0  0  0  0  0  0
    2.2727   66.8895   66.2384 H   0  0  0  0  0  0
    2.9028   66.9965   64.5928 H   0  0  0  0  0  0
    4.6504   65.3441   65.0247 H   0  0  0  0  0  0
    3.0777   64.6579   65.4492 H   0  0  0  0  0  0
    3.5737   69.8400   65.9317 H   0  0  0  0  0  0
    5.3143   69.5451   65.8234 H   0  0  0  0  0  0
    2.2062   69.9310   64.0444 H   0  0  0  0  0  0
    1.9555   69.9248   61.5679 H   0  0  0  0  0  0
    3.8512   69.1849   60.1094 H   0  0  0  0  0  0
    6.0072   68.4449   61.1453 H   0  0  0  0  0  0
    6.2681   68.4425   63.6279 H   0  0  0  0  0  0
    3.6505   62.7522   67.1188 C   0  0  0  0  0  0
    3.0403   62.6823   68.4522 N   0  0  0  0  0  0
    3.4351   61.5249   69.0750 C   0  0  0  0  0  0
    4.4126   60.8107   68.8753 O   0  0  0  0  0  0
    2.3360   61.2610   69.9910 C   0  0  0  0  0  0
    2.1816   60.0574   70.7052 C   0  0  0  0  0  0
    1.0937   59.8814   71.5627 C   0  0  0  0  0  0
    0.1451   60.9030   71.7211 C   0  0  0  0  0  0
    0.3027   62.1039   71.0182 C   0  0  0  0  0  0
    1.3932   62.2913   70.1618 C   0  0  0  0  0  0
    2.8904   63.0298   66.3777 H   0  0  0  0  0  0
    3.9249   61.7316   66.8036 H   0  0  0  0  0  0
    2.9204   59.2427   70.5798 H   0  0  0  0  0  0
   -0.4380   62.9164   71.1493 H   0  0  0  0  0  0
    4.9170   67.4352   65.6976 H   0  0  0  0  0  0
    1.8610   63.2931   69.0508 C   0  0  0  0  0  0
    1.3887   64.3159   68.6160 O   0  0  0  0  0  0
   -0.9675   60.7029   72.6027 N   0  0  0  0  0  0
   -0.7809   60.4854   73.5699 H   0  0  0  0  0  0
   -2.2781   61.1495   72.3802 C   0  0  0  0  0  0
   -2.6446   61.6892   71.3415 O   0  0  0  0  0  0
    0.9934   59.0672   72.0418 H   0  0  0  0  0  0
   -3.2710   60.9125   73.4917 C   0  0  0  0  0  0
   -4.4889   61.6275   73.4718 C   0  0  0  0  0  0
   -4.6999   62.3536   72.6638 H   0  0  0  0  0  0
   -5.4378   61.4421   74.4790 C   0  0  0  0  0  0
   -6.3841   62.0158   74.4521 H   0  0  0  0  0  0
   -5.1973   60.5342   75.5199 C   0  0  0  0  0  0
   -5.9502   60.3854   76.3159 H   0  0  0  0  0  0
   -3.9978   59.8126   75.5370 C   0  0  0  0  0  0
   -3.8086   59.0872   76.3521 H   0  0  0  0  0  0
   -3.0386   59.9939   74.5326 C   0  0  0  0  0  0
   -2.1203   59.3818   74.5761 H   0  0  0  0  0  0
  1  2  1  0  0  0
  1 15  1  0  0  0
  1 16  1  0  0  0
  1 33  1  0  0  0
  2  3  1  0  0  0
  2  7  1  0  0  0
  2 17  1  0  0  0
  3  4  1  0  0  0
  3 18  1  0  0  0
  3 19  1  0  0  0
  4  5  1  0  0  0
  4 20  1  0  0  0
  4 21  1  0  0  0
  5  6  1  0  0  0
  5  8  1  0  0  0
  5 47  1  0  0  0
  6  7  1  0  0  0
  6 22  1  0  0  0
  6 23  1  0  0  0
  7 24  1  0  0  0
  7 25  1  0  0  0
  8  9  1  0  0  0
  8 26  1  0  0  0
  8 27  1  0  0  0
  9 10  1  0  0  0
  9 14  2  0  0  0
 10 11  2  0  0  0
 10 28  1  0  0  0
 11 12  1  0  0  0
 11 29  1  0  0  0
 12 13  2  0  0  0
 12 30  1  0  0  0
 13 14  1  0  0  0
 13 31  1  0  0  0
 14 32  1  0  0  0
 33 34  1  0  0  0
 33 43  1  0  0  0
 33 44  1  0  0  0
 34 35  1  0  0  0
 34 48  1  0  0  0
 35 36  2  0  0  0
 35 37  1  0  0  0
 37 38  2  0  0  0
 37 42  1  0  0  0
 38 39  1  0  0  0
 38 45  1  0  0  0
 39 40  2  0  0  0
 39 54  1  0  0  0
 40 41  1  0  0  0
 40 50  1  0  0  0
 41 42  2  0  0  0
 41 46  1  0  0  0
 42 48  1  0  0  0
 48 49  2  0  0  0
 50 51  1  0  0  0
 50 52  1  0  0  0
 52 53  2  0  0  0
 52 55  1  0  0  0
 55 56  1  0  0  0
 55 64  2  0  0  0
 56 57  1  0  0  0
 56 58  2  0  0  0
 58 59  1  0  0  0
 58 60  1  0  0  0
 60 61  1  0  0  0
 60 62  2  0  0  0
 62 63  1  0  0  0
 62 64  1  0  0  0
 64 65  1  0  0  0
M  CHG  1   5   1
M  END
>  <ACTIVITY>
8.92

>  <SET>
1

>  <Min_dist>
999.9

>  <Avg_dist>
999.9

$$$$
1-2
  Cerius2 12110213523D 1   1.00000                          
Structure written by Cerius2 SD Exporter
 54 56  0  0  0  0  0  0  0  0999 V2000
    5.1741   63.7666   67.2298 C   0  0  0  0  0  0
    4.3855   65.0953   67.1679 C   0  0  0  0  0  0
    5.2770   66.2628   67.6398 C   0  0  0  0  0  0
    4.5857   67.6253   67.4818 C   0  0  0  0  0  0
    4.1925   67.8073   66.0805 N   0  3  0  0  0  0
    3.1996   66.8221   65.6392 C   0  0  0  0  0  0
    3.8229   65.4102   65.7568 C   0  0  0  0  0  0
    4.3302   69.1509   65.5151 C   0  0  0  0  0  0
    4.2612   69.1992   64.0021 C   0  0  0  0  0  0
    3.0583   69.6122   63.4103 C   0  0  0  0  0  0
    2.9137   69.6073   62.0214 C   0  0  0  0  0  0
    3.9685   69.1928   61.2101 C   0  0  0  0  0  0
    5.1698   68.7828   61.7855 C   0  0  0  0  0  0
    5.3166   68.7866   63.1737 C   0  0  0  0  0  0
    5.6679   63.6802   68.2153 H   0  0  0  0  0  0
    5.9893   63.7965   66.4837 H   0  0  0  0  0  0
    3.5310   65.0411   67.8689 H   0  0  0  0  0  0
    5.5824   66.1197   68.6906 H   0  0  0  0  0  0
    6.2068   66.2717   67.0398 H   0  0  0  0  0  0
    3.7145   67.7004   68.1590 H   0  0  0  0  0  0
    5.2829   68.4214   67.7923 H   0  0  0  0  0  0
    2.2727   66.8895   66.2384 H   0  0  0  0  0  0
    2.9028   66.9965   64.5928 H   0  0  0  0  0  0
    4.6504   65.3441   65.0247 H   0  0  0  0  0  0
    3.0777   64.6579   65.4492 H   0  0  0  0  0  0
    3.5737   69.8400   65.9317 H   0  0  0  0  0  0
    5.3143   69.5451   65.8234 H   0  0  0  0  0  0
    2.2062   69.9310   64.0444 H   0  0  0  0  0  0
    1.9555   69.9248   61.5679 H   0  0  0  0  0  0
    3.8512   69.1849   60.1094 H   0  0  0  0  0  0
    6.0072   68.4449   61.1453 H   0  0  0  0  0  0
    6.2681   68.4425   63.6279 H   0  0  0  0  0  0
    4.3640   62.4886   66.9831 C   0  0  0  0  0  0
    3.3310   62.2808   67.9859 N   0  0  0  0  0  0
    3.5065   61.3987   69.0541 C   0  0  0  0  0  0
    4.5000   60.6868   69.1648 O   0  0  0  0  0  0
    2.3360   61.2610   69.9910 C   0  0  0  0  0  0
    1.9096   59.9576   70.3099 C   0  0  0  0  0  0
    0.8496   59.7624   71.1993 C   0  0  0  0  0  0
    0.2215   60.8646   71.7988 C   0  0  0  0  0  0
    0.6746   62.1603   71.5137 C   0  0  0  0  0  0
    1.7380   62.3625   70.6245 C   0  0  0  0  0  0
    3.8980   62.5103   65.9824 H   0  0  0  0  0  0
    5.0400   61.6176   66.9795 H   0  0  0  0  0  0
    1.9927   62.7913   67.6514 C   0  0  0  0  0  0
    2.4082   59.0866   69.8424 H   0  0  0  0  0  0
    0.5097   58.7352   71.4387 H   0  0  0  0  0  0
   -0.6149   60.7075   72.5071 H   0  0  0  0  0  0
    0.1950   63.0281   72.0061 H   0  0  0  0  0  0
    2.1126   63.3853   70.4410 H   0  0  0  0  0  0
    4.9170   67.4352   65.6976 H   0  0  0  0  0  0
    1.2199   62.0533   67.9096 H   0  0  0  0  0  0
    1.7700   63.7336   68.1724 H   0  0  0  0  0  0
    1.9015   62.9633   66.5689 H   0  0  0  0  0  0
  1  2  1  0  0  0
  1 15  1  0  0  0
  1 16  1  0  0  0
  1 33  1  0  0  0
  2  3  1  0  0  0
  2  7  1  0  0  0
  2 17  1  0  0  0
  3  4  1  0  0  0
  3 18  1  0  0  0
  3 19  1  0  0  0
  4  5  1  0  0  0
  4 20  1  0  0  0
  4 21  1  0  0  0
  5  6  1  0  0  0
  5  8  1  0  0  0
  5 51  1  0  0  0
  6  7  1  0  0  0
  6 22  1  0  0  0
  6 23  1  0  0  0
  7 24  1  0  0  0
  7 25  1  0  0  0
  8  9  1  0  0  0
  8 26  1  0  0  0
  8 27  1  0  0  0
  9 10  1  0  0  0
  9 14  2  0  0  0
 10 11  2  0  0  0
 10 28  1  0  0  0
 11 12  1  0  0  0
 11 29  1  0  0  0
 12 13  2  0  0  0
 12 30  1  0  0  0
 13 14  1  0  0  0
 13 31  1  0  0  0
 14 32  1  0  0  0
 33 34  1  0  0  0
 33 43  1  0  0  0
 33 44  1  0  0  0
 34 35  1  0  0  0
 34 45  1  0  0  0
 35 36  2  0  0  0
 35 37  1  0  0  0
 37 38  2  0  0  0
 37 42  1  0  0  0
 38 39  1  0  0  0
 38 46  1  0  0  0
 39 40  2  0  0  0
 39 47  1  0  0  0
 40 41  1  0  0  0
 40 48  1  0  0  0
 41 42  2  0  0  0
 41 49  1  0  0  0
 42 50  1  0  0  0
 45 52  1  0  0  0
 45 53  1  0  0  0
 45 54  1  0  0  0
M  CHG  1   5   1
M  END
>  <ACTIVITY>
6.77

>  <SET>
1

>  <Min_dist>
999.9

>  <Avg_dist>
999.9

$$$$
1-20
  Cerius2 12110213523D 1   1.00000                          
Structure written by Cerius2 SD Exporter
 55 58  0  0  0  0  0  0  0  0999 V2000
    4.9012   63.6570   67.1245 C   0  0  0  0  0  0
    4.3855   65.0953   67.1679 C   0  0  0  0  0  0
    5.2770   66.2628   67.6398 C   0  0  0  0  0  0
    4.5857   67.6253   67.4818 C   0  0  0  0  0  0
    4.1925   67.8073   66.0805 N   0  3  0  0  0  0
    3.1996   66.8221   65.6392 C   0  0  0  0  0  0
    3.8229   65.4102   65.7568 C   0  0  0  0  0  0
    4.3302   69.1509   65.5151 C   0  0  0  0  0  0
    4.2612   69.1992   64.0021 C   0  0  0  0  0  0
    3.0583   69.6122   63.4103 C   0  0  0  0  0  0
    2.9137   69.6073   62.0214 C   0  0  0  0  0  0
    3.9685   69.1928   61.2101 C   0  0  0  0  0  0
    5.1698   68.7828   61.7855 C   0  0  0  0  0  0
    5.3166   68.7866   63.1737 C   0  0  0  0  0  0
    5.5383   63.3911   67.9873 H   0  0  0  0  0  0
    5.5118   63.4701   66.2240 H   0  0  0  0  0  0
    3.5310   65.0411   67.8689 H   0  0  0  0  0  0
    5.5824   66.1197   68.6906 H   0  0  0  0  0  0
    6.2068   66.2717   67.0398 H   0  0  0  0  0  0
    3.7145   67.7004   68.1590 H   0  0  0  0  0  0
    5.2829   68.4214   67.7923 H   0  0  0  0  0  0
    2.2727   66.8895   66.2384 H   0  0  0  0  0  0
    2.9028   66.9965   64.5928 H   0  0  0  0  0  0
    4.6504   65.3441   65.0247 H   0  0  0  0  0  0
    3.0777   64.6579   65.4492 H   0  0  0  0  0  0
    3.5737   69.8400   65.9317 H   0  0  0  0  0  0
    5.3143   69.5451   65.8234 H   0  0  0  0  0  0
    2.2062   69.9310   64.0444 H   0  0  0  0  0  0
    1.9555   69.9248   61.5679 H   0  0  0  0  0  0
    3.8512   69.1849   60.1094 H   0  0  0  0  0  0
    6.0072   68.4449   61.1453 H   0  0  0  0  0  0
    6.2681   68.4425   63.6279 H   0  0  0  0  0  0
    3.6505   62.7522   67.1188 C   0  0  0  0  0  0
    3.0403   62.6823   68.4522 N   0  0  0  0  0  0
    3.4351   61.5249   69.0750 C   0  0  0  0  0  0
    4.4126   60.8107   68.8753 O   0  0  0  0  0  0
    2.3360   61.2610   69.9910 C   0  0  0  0  0  0
    2.1816   60.0574   70.7052 C   0  0  0  0  0  0
    1.0937   59.8814   71.5627 C   0  0  0  0  0  0
    0.1451   60.9030   71.7211 C   0  0  0  0  0  0
    0.3027   62.1039   71.0182 C   0  0  0  0  0  0
    1.3932   62.2913   70.1618 C   0  0  0  0  0  0
    2.8904   63.0298   66.3777 H   0  0  0  0  0  0
    3.9249   61.7316   66.8036 H   0  0  0  0  0  0
    2.9204   59.2427   70.5798 H   0  0  0  0  0  0
    0.9794   58.9301   72.1176 H   0  0  0  0  0  0
   -0.4380   62.9164   71.1493 H   0  0  0  0  0  0
    4.9170   67.4352   65.6976 H   0  0  0  0  0  0
    1.8610   63.2931   69.0508 C   0  0  0  0  0  0
    1.3887   64.3159   68.6160 O   0  0  0  0  0  0
   -1.9247   61.5957   72.7991 C   0  0  0  0  0  0
   -0.8890   60.6462   72.5747 O   0  0  0  0  0  0
   -1.5373   62.5264   73.2402 H   0  0  0  0  0  0
   -2.4697   61.8326   71.8729 H   0  0  0  0  0  0
   -2.6203   61.1280   73.5106 H   0  0  0  0  0  0
  1  2  1  0  0  0
  1 15  1  0  0  0
  1 16  1  0  0  0
  1 33  1  0  0  0
  2  3  1  0  0  0
  2  7  1  0  0  0
  2 17  1  0  0  0
  3  4  1  0  0  0
  3 18  1  0  0  0
  3 19  1  0  0  0
  4  5  1  0  0  0
  4 20  1  0  0  0
  4 21  1  0  0  0
  5  6  1  0  0  0
  5  8  1  0  0  0
  5 48  1  0  0  0
  6  7  1  0  0  0
  6 22  1  0  0  0
  6 23  1  0  0  0
  7 24  1  0  0  0
  7 25  1  0  0  0
  8  9  1  0  0  0
  8 26  1  0  0  0
  8 27  1  0  0  0
  9 10  1  0  0  0
  9 14  2  0  0  0
 10 11  2  0  0  0
 10 28  1  0  0  0
 11 12  1  0  0  0
 11 29  1  0  0  0
 12 13  2  0  0  0
 12 30  1  0  0  0
 13 14  1  0  0  0
 13 31  1  0  0  0
 14 32  1  0  0  0
 33 34  1  0  0  0
 33 43  1  0  0  0
 33 44  1  0  0  0
 34 35  1  0  0  0
 34 49  1  0  0  0
 35 36  2  0  0  0
 35 37  1  0  0  0
 37 38  2  0  0  0
 37 42  1  0  0  0
 38 39  1  0  0  0
 38 45  1  0  0  0
 39 40  2  0  0  0
 39 46  1  0  0  0
 40 41  1  0  0  0
 40 52  1  0  0  0
 41 42  2  0  0  0
 41 47  1  0  0  0
 42 49  1  0  0  0
 49 50  2  0  0  0
 51 52  1  0  0  0
 51 53  1  0  0  0
 51 54  1  0  0  0
 51 55  1  0  0  0
M  CHG  1   5   1
M  END
>  <ACTIVITY>
8.1

>  <SET>
1

>  <Min_dist>
999.9

>  <Avg_dist>
999.9

$$$$
1-21
  Cerius2 12110213523D 1   1.00000                          
Structure written by Cerius2 SD Exporter
 68 72  0  0  0  0  0  0  0  0999 V2000
    4.9012   63.6570   67.1245 C   0  0  0  0  0  0
    4.3855   65.0953   67.1679 C   0  0  0  0  0  0
    5.2770   66.2628   67.6398 C   0  0  0  0  0  0
    4.5857   67.6253   67.4818 C   0  0  0  0  0  0
    4.1925   67.8073   66.0805 N   0  3  0  0  0  0
    3.1996   66.8221   65.6392 C   0  0  0  0  0  0
    3.8229   65.4102   65.7568 C   0  0  0  0  0  0
    4.3302   69.1509   65.5151 C   0  0  0  0  0  0
    4.2612   69.1992   64.0021 C   0  0  0  0  0  0
    3.0583   69.6122   63.4103 C   0  0  0  0  0  0
    2.9137   69.6073   62.0214 C   0  0  0  0  0  0
    3.9685   69.1928   61.2101 C   0  0  0  0  0  0
    5.1698   68.7828   61.7855 C   0  0  0  0  0  0
    5.3166   68.7866   63.1737 C   0  0  0  0  0  0
    5.5383   63.3911   67.9873 H   0  0  0  0  0  0
    5.5118   63.4701   66.2240 H   0  0  0  0  0  0
    3.5310   65.0411   67.8689 H   0  0  0  0  0  0
    5.5824   66.1197   68.6906 H   0  0  0  0  0  0
    6.2068   66.2717   67.0398 H   0  0  0  0  0  0
    3.7145   67.7004   68.1590 H   0  0  0  0  0  0
    5.2829   68.4214   67.7923 H   0  0  0  0  0  0
    2.2727   66.8895   66.2384 H   0  0  0  0  0  0
    2.9028   66.9965   64.5928 H   0  0  0  0  0  0
    4.6504   65.3441   65.0247 H   0  0  0  0  0  0
    3.0777   64.6579   65.4492 H   0  0  0  0  0  0
    3.5737   69.8400   65.9317 H   0  0  0  0  0  0
    5.3143   69.5451   65.8234 H   0  0  0  0  0  0
    2.2062   69.9310   64.0444 H   0  0  0  0  0  0
    1.9555   69.9248   61.5679 H   0  0  0  0  0  0
    3.8512   69.1849   60.1094 H   0  0  0  0  0  0
    6.0072   68.4449   61.1453 H   0  0  0  0  0  0
    6.2681   68.4425   63.6279 H   0  0  0  0  0  0
    3.6505   62.7522   67.1188 C   0  0  0  0  0  0
    3.0403   62.6823   68.4522 N   0  0  0  0  0  0
    3.4351   61.5249   69.0750 C   0  0  0  0  0  0
    4.4126   60.8107   68.8753 O   0  0  0  0  0  0
    2.3360   61.2610   69.9910 C   0  0  0  0  0  0
    2.1816   60.0574   70.7052 C   0  0  0  0  0  0
    1.0937   59.8814   71.5627 C   0  0  0  0  0  0
    0.1451   60.9030   71.7211 C   0  0  0  0  0  0
    0.3027   62.1039   71.0182 C   0  0  0  0  0  0
    1.3932   62.2913   70.1618 C   0  0  0  0  0  0
    2.8904   63.0298   66.3777 H   0  0  0  0  0  0
    3.9249   61.7316   66.8036 H   0  0  0  0  0  0
    2.9204   59.2427   70.5798 H   0  0  0  0  0  0
   -0.4380   62.9164   71.1493 H   0  0  0  0  0  0
    4.9170   67.4352   65.6976 H   0  0  0  0  0  0
    1.8610   63.2931   69.0508 C   0  0  0  0  0  0
    1.3887   64.3159   68.6160 O   0  0  0  0  0  0
   -1.0553   60.7705   72.6312 C   0  0  0  0  0  0
   -1.8307   61.7171   72.7301 O   0  0  0  0  0  0
   -1.2598   59.5630   73.3127 N   0  0  0  0  0  0
   -0.5360   58.8710   73.3649 H   0  0  0  0  0  0
   -2.2980   59.5026   74.3531 C   0  0  0  0  0  0
   -1.8249   59.2801   75.3221 H   0  0  0  0  0  0
   -2.7423   60.5069   74.4523 H   0  0  0  0  0  0
    0.9934   59.0672   72.0418 H   0  0  0  0  0  0
   -3.3969   58.4937   74.0589 C   0  0  0  0  0  0
   -3.3931   57.2248   74.6571 C   0  0  0  0  0  0
   -2.5887   56.9505   75.3705 H   0  0  0  0  0  0
   -4.3931   56.2896   74.3657 C   0  0  0  0  0  0
   -4.3707   55.2940   74.8498 H   0  0  0  0  0  0
   -5.4196   56.6077   73.4685 C   0  0  0  0  0  0
   -6.2075   55.8676   73.2339 H   0  0  0  0  0  0
   -5.4392   57.8773   72.8769 C   0  0  0  0  0  0
   -6.2512   58.1445   72.1731 H   0  0  0  0  0  0
   -4.4393   58.8106   73.1711 C   0  0  0  0  0  0
   -4.4782   59.8091   72.6908 H   0  0  0  0  0  0
  1  2  1  0  0  0
  1 15  1  0  0  0
  1 16  1  0  0  0
  1 33  1  0  0  0
  2  3  1  0  0  0
  2  7  1  0  0  0
  2 17  1  0  0  0
  3  4  1  0  0  0
  3 18  1  0  0  0
  3 19  1  0  0  0
  4  5  1  0  0  0
  4 20  1  0  0  0
  4 21  1  0  0  0
  5  6  1  0  0  0
  5  8  1  0  0  0
  5 47  1  0  0  0
  6  7  1  0  0  0
  6 22  1  0  0  0
  6 23  1  0  0  0
  7 24  1  0  0  0
  7 25  1  0  0  0
  8  9  1  0  0  0
  8 26  1  0  0  0
  8 27  1  0  0  0
  9 10  1  0  0  0
  9 14  2  0  0  0
 10 11  2  0  0  0
 10 28  1  0  0  0
 11 12  1  0  0  0
 11 29  1  0  0  0
 12 13  2  0  0  0
 12 30  1  0  0  0
 13 14  1  0  0  0
 13 31  1  0  0  0
 14 32  1  0  0  0
 33 34  1  0  0  0
 33 43  1  0  0  0
 33 44  1  0  0  0
 34 35  1  0  0  0
 34 48  1  0  0  0
 35 36  2  0  0  0
 35 37  1  0  0  0
 37 38  2  0  0  0
 37 42  1  0  0  0
 38 39  1  0  0  0
 38 45  1  0  0  0
 39 40  2  0  0  0
 39 57  1  0  0  0
 40 41  1  0  0  0
 40 50  1  0  0  0
 41 42  2  0  0  0
 41 46  1  0  0  0
 42 48  1  0  0  0
 48 49  2  0  0  0
 50 51  2  0  0  0
 50 52  1  0  0  0
 52 53  1  0  0  0
 52 54  1  0  0  0
 54 55  1  0  0  0
 54 56  1  0  0  0
 54 58  1  0  0  0
 58 59  1  0  0  0
 58 67  2  0  0  0
 59 60  1  0  0  0
 59 61  2  0  0  0
 61 62  1  0  0  0
 61 63  1  0  0  0
 63 64  1  0  0  0
 63 65  2  0  0  0
 65 66  1  0  0  0
 65 67  1  0  0  0
 67 68  1  0  0  0
M  CHG  1   5   1
M  END
>  <ACTIVITY>
8.66

>  <SET>
2

>  <Min_dist>
0.2

>  <Avg_dist>
0.45

$$$$
1-22
  Cerius2 12110213523D 1   1.00000                          
Structure written by Cerius2 SD Exporter
 63 67  0  0  0  0  0  0  0  0999 V2000
    4.9012   63.6570   67.1245 C   0  0  0  0  0  0
    4.3855   65.0953   67.1679 C   0  0  0  0  0  0
    5.2770   66.2628   67.6398 C   0  0  0  0  0  0
    4.5857   67.6253   67.4818 C   0  0  0  0  0  0
    4.1925   67.8073   66.0805 N   0  3  0  0  0  0
    3.1996   66.8221   65.6392 C   0  0  0  0  0  0
    3.8229   65.4102   65.7568 C   0  0  0  0  0  0
    4.3302   69.1509   65.5151 C   0  0  0  0  0  0
    4.2612   69.1992   64.0021 C   0  0  0  0  0  0
    3.0583   69.6122   63.4103 C   0  0  0  0  0  0
    2.9137   69.6073   62.0214 C   0  0  0  0  0  0
    3.9685   69.1928   61.2101 C   0  0  0  0  0  0
    5.1698   68.7828   61.7855 C   0  0  0  0  0  0
    5.3166   68.7866   63.1737 C   0  0  0  0  0  0
    5.5383   63.3911   67.9873 H   0  0  0  0  0  0
    5.5118   63.4701   66.2240 H   0  0  0  0  0  0
    3.5310   65.0411   67.8689 H   0  0  0  0  0  0
    5.5824   66.1197   68.6906 H   0  0  0  0  0  0
    6.2068   66.2717   67.0398 H   0  0  0  0  0  0
    3.7145   67.7004   68.1590 H   0  0  0  0  0  0
    5.2829   68.4214   67.7923 H   0  0  0  0  0  0
    2.2727   66.8895   66.2384 H   0  0  0  0  0  0
    2.9028   66.9965   64.5928 H   0  0  0  0  0  0
    4.6504   65.3441   65.0247 H   0  0  0  0  0  0
    3.0777   64.6579   65.4492 H   0  0  0  0  0  0
    3.5737   69.8400   65.9317 H   0  0  0  0  0  0
    5.3143   69.5451   65.8234 H   0  0  0  0  0  0
    2.2062   69.9310   64.0444 H   0  0  0  0  0  0
    1.9555   69.9248   61.5679 H   0  0  0  0  0  0
    3.8512   69.1849   60.1094 H   0  0  0  0  0  0
    6.0072   68.4449   61.1453 H   0  0  0  0  0  0
    6.2681   68.4425   63.6279 H   0  0  0  0  0  0
    3.6505   62.7522   67.1188 C   0  0  0  0  0  0
    3.0403   62.6823   68.4522 N   0  0  0  0  0  0
    3.4351   61.5249   69.0750 C   0  0  0  0  0  0
    4.4126   60.8107   68.8753 O   0  0  0  0  0  0
    2.3360   61.2610   69.9910 C   0  0  0  0  0  0
    2.1816   60.0574   70.7052 C   0  0  0  0  0  0
    1.0937   59.8814   71.5627 C   0  0  0  0  0  0
    0.1451   60.9030   71.7211 C   0  0  0  0  0  0
    0.3027   62.1039   71.0182 C   0  0  0  0  0  0
    1.3932   62.2913   70.1618 C   0  0  0  0  0  0
    2.8904   63.0298   66.3777 H   0  0  0  0  0  0
    3.9249   61.7316   66.8036 H   0  0  0  0  0  0
    2.9204   59.2427   70.5798 H   0  0  0  0  0  0
   -0.4380   62.9164   71.1493 H   0  0  0  0  0  0
    4.9170   67.4352   65.6976 H   0  0  0  0  0  0
    1.8610   63.2931   69.0508 C   0  0  0  0  0  0
    1.3887   64.3159   68.6160 O   0  0  0  0  0  0
   -1.0553   60.7705   72.6312 C   0  0  0  0  0  0
   -1.8307   61.7171   72.7301 O   0  0  0  0  0  0
    0.9934   59.0672   72.0418 H   0  0  0  0  0  0
   -1.4475   59.5042   73.3813 C   0  0  0  0  0  0
   -2.1550   59.7495   74.5865 C   0  0  0  0  0  0
   -2.3910   60.7788   74.9169 H   0  0  0  0  0  0
   -2.5643   58.6994   75.4085 C   0  0  0  0  0  0
   -3.1108   58.9177   76.3470 H   0  0  0  0  0  0
   -2.2885   57.3715   75.0521 C   0  0  0  0  0  0
   -2.6155   56.5367   75.7007 H   0  0  0  0  0  0
   -1.6090   57.1201   73.8580 C   0  0  0  0  0  0
   -1.4018   56.0747   73.5562 H   0  0  0  0  0  0
   -1.1875   58.1714   73.0280 C   0  0  0  0  0  0
   -0.7099   57.9045   72.0700 H   0  0  0  0  0  0
  1  2  1  0  0  0
  1 15  1  0  0  0
  1 16  1  0  0  0
  1 33  1  0  0  0
  2  3  1  0  0  0
  2  7  1  0  0  0
  2 17  1  0  0  0
  3  4  1  0  0  0
  3 18  1  0  0  0
  3 19  1  0  0  0
  4  5  1  0  0  0
  4 20  1  0  0  0
  4 21  1  0  0  0
  5  6  1  0  0  0
  5  8  1  0  0  0
  5 47  1  0  0  0
  6  7  1  0  0  0
  6 22  1  0  0  0
  6 23  1  0  0  0
  7 24  1  0  0  0
  7 25  1  0  0  0
  8  9  1  0  0  0
  8 26  1  0  0  0
  8 27  1  0  0  0
  9 10  1  0  0  0
  9 14  2  0  0  0
 10 11  2  0  0  0
 10 28  1  0  0  0
 11 12  1  0  0  0
 11 29  1  0  0  0
 12 13  2  0  0  0
 12 30  1  0  0  0
 13 14  1  0  0  0
 13 31  1  0  0  0
 14 32  1  0  0  0
 33 34  1  0  0  0
 33 43  1  0  0  0
 33 44  1  0  0  0
 34 35  1  0  0  0
 34 48  1  0  0  0
 35 36  2  0  0  0
 35 37  1  0  0  0
 37 38  2  0  0  0
 37 42  1  0  0  0
 38 39  1  0  0  0
 38 45  1  0  0  0
 39 40  2  0  0  0
 39 52  1  0  0  0
 40 41  1  0  0  0
 40 50  1  0  0  0
 41 42  2  0  0  0
 41 46  1  0  0  0
 42 48  1  0  0  0
 48 49  2  0  0  0
 50 51  2  0  0  0
 50 53  1  0  0  0
 53 54  1  0  0  0
 53 62  2  0  0  0
 54 55  1  0  0  0
 54 56  2  0  0  0
 56 57  1  0  0  0
 56 58  1  0  0  0
 58 59  1  0  0  0
 58 60  2  0  0  0
 60 61  1  0  0  0
 60 62  1  0  0  0
 62 63  1  0  0  0
M  CHG  1   5   1
M  END
>  <ACTIVITY>
8.62

>  <SET>
2

>  <Min_dist>
0.16

>  <Avg_dist>
0.48

$$$$
1-23
  Cerius2 12110213523D 1   1.00000                          
Structure written by Cerius2 SD Exporter
 53 56  0  0  0  0  0  0  0  0999 V2000
    4.9012   63.6570   67.1245 C   0  0  0  0  0  0
    4.3855   65.0953   67.1679 C   0  0  0  0  0  0
    5.2770   66.2628   67.6398 C   0  0  0  0  0  0
    4.5857   67.6253   67.4818 C   0  0  0  0  0  0
    4.1925   67.8073   66.0805 N   0  3  0  0  0  0
    3.1996   66.8221   65.6392 C   0  0  0  0  0  0
    3.8229   65.4102   65.7568 C   0  0  0  0  0  0
    4.3302   69.1509   65.5151 C   0  0  0  0  0  0
    4.2612   69.1992   64.0021 C   0  0  0  0  0  0
    3.0583   69.6122   63.4103 C   0  0  0  0  0  0
    2.9137   69.6073   62.0214 C   0  0  0  0  0  0
    3.9685   69.1928   61.2101 C   0  0  0  0  0  0
    5.1698   68.7828   61.7855 C   0  0  0  0  0  0
    5.3166   68.7866   63.1737 C   0  0  0  0  0  0
    5.5383   63.3911   67.9873 H   0  0  0  0  0  0
    5.5118   63.4701   66.2240 H   0  0  0  0  0  0
    3.5310   65.0411   67.8689 H   0  0  0  0  0  0
    5.5824   66.1197   68.6906 H   0  0  0  0  0  0
    6.2068   66.2717   67.0398 H   0  0  0  0  0  0
    3.7145   67.7004   68.1590 H   0  0  0  0  0  0
    5.2829   68.4214   67.7923 H   0  0  0  0  0  0
    2.2727   66.8895   66.2384 H   0  0  0  0  0  0
    2.9028   66.9965   64.5928 H   0  0  0  0  0  0
    4.6504   65.3441   65.0247 H   0  0  0  0  0  0
    3.0777   64.6579   65.4492 H   0  0  0  0  0  0
    3.5737   69.8400   65.9317 H   0  0  0  0  0  0
    5.3143   69.5451   65.8234 H   0  0  0  0  0  0
    2.2062   69.9310   64.0444 H   0  0  0  0  0  0
    1.9555   69.9248   61.5679 H   0  0  0  0  0  0
    3.8512   69.1849   60.1094 H   0  0  0  0  0  0
    6.0072   68.4449   61.1453 H   0  0  0  0  0  0
    6.2681   68.4425   63.6279 H   0  0  0  0  0  0
    3.6505   62.7522   67.1188 C   0  0  0  0  0  0
    3.0403   62.6823   68.4522 N   0  0  0  0  0  0
    3.4351   61.5249   69.0750 C   0  0  0  0  0  0
    4.4126   60.8107   68.8753 O   0  0  0  0  0  0
    2.3360   61.2610   69.9910 C   0  0  0  0  0  0
    2.1816   60.0574   70.7052 C   0  0  0  0  0  0
    1.0937   59.8814   71.5627 C   0  0  0  0  0  0
    0.1451   60.9030   71.7211 C   0  0  0  0  0  0
    0.3027   62.1039   71.0182 C   0  0  0  0  0  0
    1.3932   62.2913   70.1618 C   0  0  0  0  0  0
    2.8904   63.0298   66.3777 H   0  0  0  0  0  0
    3.9249   61.7316   66.8036 H   0  0  0  0  0  0
    0.9794   58.9301   72.1176 H   0  0  0  0  0  0
   -0.7170   60.7611   72.4002 H   0  0  0  0  0  0
   -0.4380   62.9164   71.1493 H   0  0  0  0  0  0
    4.9170   67.4352   65.6976 H   0  0  0  0  0  0
    1.8610   63.2931   69.0508 C   0  0  0  0  0  0
    1.3887   64.3159   68.6160 O   0  0  0  0  0  0
    3.0675   58.8778   70.5997 N   0  3  0  0  0  0
    2.9915   58.2077   69.5888 O   0  0  0  0  0  0
    3.7834   58.6339   71.5512 O   0  5  0  0  0  0
  1  2  1  0  0  0
  1 15  1  0  0  0
  1 16  1  0  0  0
  1 33  1  0  0  0
  2  3  1  0  0  0
  2  7  1  0  0  0
  2 17  1  0  0  0
  3  4  1  0  0  0
  3 18  1  0  0  0
  3 19  1  0  0  0
  4  5  1  0  0  0
  4 20  1  0  0  0
  4 21  1  0  0  0
  5  6  1  0  0  0
  5  8  1  0  0  0
  5 48  1  0  0  0
  6  7  1  0  0  0
  6 22  1  0  0  0
  6 23  1  0  0  0
  7 24  1  0  0  0
  7 25  1  0  0  0
  8  9  1  0  0  0
  8 26  1  0  0  0
  8 27  1  0  0  0
  9 10  1  0  0  0
  9 14  2  0  0  0
 10 11  2  0  0  0
 10 28  1  0  0  0
 11 12  1  0  0  0
 11 29  1  0  0  0
 12 13  2  0  0  0
 12 30  1  0  0  0
 13 14  1  0  0  0
 13 31  1  0  0  0
 14 32  1  0  0  0
 33 34  1  0  0  0
 33 43  1  0  0  0
 33 44  1  0  0  0
 34 35  1  0  0  0
 34 49  1  0  0  0
 35 36  2  0  0  0
 35 37  1  0  0  0
 37 38  2  0  0  0
 37 42  1  0  0  0
 38 39  1  0  0  0
 38 51  1  0  0  0
 39 40  2  0  0  0
 39 45  1  0  0  0
 40 41  1  0  0  0
 40 46  1  0  0  0
 41 42  2  0  0  0
 41 47  1  0  0  0
 42 49  1  0  0  0
 49 50  2  0  0  0
 51 52  2  0  0  0
 51 53  1  0  0  0
M  CHG  3   5   1  51   1  53  -1
M  END
>  <ACTIVITY>
8.05

>  <SET>
2

>  <Min_dist>
0.12

>  <Avg_dist>
0.52

$$$$
1-24
  Cerius2 12110213523D 1   1.00000                          
Structure written by Cerius2 SD Exporter
 53 56  0  0  0  0  0  0  0  0999 V2000
    4.9012   63.6570   67.1245 C   0  0  0  0  0  0
    4.3855   65.0953   67.1679 C   0  0  0  0  0  0
    5.2770   66.2628   67.6398 C   0  0  0  0  0  0
    4.5857   67.6253   67.4818 C   0  0  0  0  0  0
    4.1925   67.8073   66.0805 N   0  3  0  0  0  0
    3.1996   66.8221   65.6392 C   0  0  0  0  0  0
    3.8229   65.4102   65.7568 C   0  0  0  0  0  0
    4.3302   69.1509   65.5151 C   0  0  0  0  0  0
    4.2612   69.1992   64.0021 C   0  0  0  0  0  0
    3.0583   69.6122   63.4103 C   0  0  0  0  0  0
    2.9137   69.6073   62.0214 C   0  0  0  0  0  0
    3.9685   69.1928   61.2101 C   0  0  0  0  0  0
    5.1698   68.7828   61.7855 C   0  0  0  0  0  0
    5.3166   68.7866   63.1737 C   0  0  0  0  0  0
    5.5383   63.3911   67.9873 H   0  0  0  0  0  0
    5.5118   63.4701   66.2240 H   0  0  0  0  0  0
    3.5310   65.0411   67.8689 H   0  0  0  0  0  0
    5.5824   66.1197   68.6906 H   0  0  0  0  0  0
    6.2068   66.2717   67.0398 H   0  0  0  0  0  0
    3.7145   67.7004   68.1590 H   0  0  0  0  0  0
    5.2829   68.4214   67.7923 H   0  0  0  0  0  0
    2.2727   66.8895   66.2384 H   0  0  0  0  0  0
    2.9028   66.9965   64.5928 H   0  0  0  0  0  0
    4.6504   65.3441   65.0247 H   0  0  0  0  0  0
    3.0777   64.6579   65.4492 H   0  0  0  0  0  0
    3.5737   69.8400   65.9317 H   0  0  0  0  0  0
    5.3143   69.5451   65.8234 H   0  0  0  0  0  0
    2.2062   69.9310   64.0444 H   0  0  0  0  0  0
    1.9555   69.9248   61.5679 H   0  0  0  0  0  0
    3.8512   69.1849   60.1094 H   0  0  0  0  0  0
    6.0072   68.4449   61.1453 H   0  0  0  0  0  0
    6.2681   68.4425   63.6279 H   0  0  0  0  0  0
    3.6505   62.7522   67.1188 C   0  0  0  0  0  0
    3.0403   62.6823   68.4522 N   0  0  0  0  0  0
    3.4351   61.5249   69.0750 C   0  0  0  0  0  0
    4.4126   60.8107   68.8753 O   0  0  0  0  0  0
    2.3360   61.2610   69.9910 C   0  0  0  0  0  0
    2.1816   60.0574   70.7052 C   0  0  0  0  0  0
    1.0937   59.8814   71.5627 C   0  0  0  0  0  0
    0.1451   60.9030   71.7211 C   0  0  0  0  0  0
    0.3027   62.1039   71.0182 C   0  0  0  0  0  0
    1.3932   62.2913   70.1618 C   0  0  0  0  0  0
    2.8904   63.0298   66.3777 H   0  0  0  0  0  0
    3.9249   61.7316   66.8036 H   0  0  0  0  0  0
    0.9794   58.9301   72.1176 H   0  0  0  0  0  0
   -0.7170   60.7611   72.4002 H   0  0  0  0  0  0
   -0.4380   62.9164   71.1493 H   0  0  0  0  0  0
    4.9170   67.4352   65.6976 H   0  0  0  0  0  0
    1.8610   63.2931   69.0508 C   0  0  0  0  0  0
    1.3887   64.3159   68.6160 O   0  0  0  0  0  0
    3.0804   59.0066   70.5646 N   0  0  0  0  0  0
    3.9227   59.1229   70.0188 H   0  0  0  0  0  0
    3.0419   58.1997   71.1652 H   0  0  0  0  0  0
  1  2  1  0  0  0
  1 15  1  0  0  0
  1 16  1  0  0  0
  1 33  1  0  0  0
  2  3  1  0  0  0
  2  7  1  0  0  0
  2 17  1  0  0  0
  3  4  1  0  0  0
  3 18  1  0  0  0
  3 19  1  0  0  0
  4  5  1  0  0  0
  4 20  1  0  0  0
  4 21  1  0  0  0
  5  6  1  0  0  0
  5  8  1  0  0  0
  5 48  1  0  0  0
  6  7  1  0  0  0
  6 22  1  0  0  0
  6 23  1  0  0  0
  7 24  1  0  0  0
  7 25  1  0  0  0
  8  9  1  0  0  0
  8 26  1  0  0  0
  8 27  1  0  0  0
  9 10  1  0  0  0
  9 14  2  0  0  0
 10 11  2  0  0  0
 10 28  1  0  0  0
 11 12  1  0  0  0
 11 29  1  0  0  0
 12 13  2  0  0  0
 12 30  1  0  0  0
 13 14  1  0  0  0
 13 31  1  0  0  0
 14 32  1  0  0  0
 33 34  1  0  0  0
 33 43  1  0  0  0
 33 44  1  0  0  0
 34 35  1  0  0  0
 34 49  1  0  0  0
 35 36  2  0  0  0
 35 37  1  0  0  0
 37 38  2  0  0  0
 37 42  1  0  0  0
 38 39  1  0  0  0
 38 51  1  0  0  0
 39 40  2  0  0  0
 39 45  1  0  0  0
 40 41  1  0  0  0
 40 46  1  0  0  0
 41 42  2  0  0  0
 41 47  1  0  0  0
 42 49  1  0  0  0
 49 50  2  0  0  0
 51 52  1  0  0  0
 51 53  1  0  0  0
M  CHG  1   5   1
M  END
>  <ACTIVITY>
7.96

>  <SET>
1

>  <Min_dist>
999.9

>  <Avg_dist>
999.9

$$$$
1-25
  Cerius2 12110213523D 1   1.00000                          
Structure written by Cerius2 SD Exporter
 65 69  0  0  0  0  0  0  0  0999 V2000
    4.9012   63.6570   67.1245 C   0  0  0  0  0  0
    4.3855   65.0953   67.1679 C   0  0  0  0  0  0
    5.2770   66.2628   67.6398 C   0  0  0  0  0  0
    4.5857   67.6253   67.4818 C   0  0  0  0  0  0
    4.1925   67.8073   66.0805 N   0  3  0  0  0  0
    3.1996   66.8221   65.6392 C   0  0  0  0  0  0
    3.8229   65.4102   65.7568 C   0  0  0  0  0  0
    4.3302   69.1509   65.5151 C   0  0  0  0  0  0
    4.2612   69.1992   64.0021 C   0  0  0  0  0  0
    3.0583   69.6122   63.4103 C   0  0  0  0  0  0
    2.9137   69.6073   62.0214 C   0  0  0  0  0  0
    3.9685   69.1928   61.2101 C   0  0  0  0  0  0
    5.1698   68.7828   61.7855 C   0  0  0  0  0  0
    5.3166   68.7866   63.1737 C   0  0  0  0  0  0
    5.5383   63.3911   67.9873 H   0  0  0  0  0  0
    5.5118   63.4701   66.2240 H   0  0  0  0  0  0
    3.5310   65.0411   67.8689 H   0  0  0  0  0  0
    5.5824   66.1197   68.6906 H   0  0  0  0  0  0
    6.2068   66.2717   67.0398 H   0  0  0  0  0  0
    3.7145   67.7004   68.1590 H   0  0  0  0  0  0
    5.2829   68.4214   67.7923 H   0  0  0  0  0  0
    2.2727   66.8895   66.2384 H   0  0  0  0  0  0
    2.9028   66.9965   64.5928 H   0  0  0  0  0  0
    4.6504   65.3441   65.0247 H   0  0  0  0  0  0
    3.0777   64.6579   65.4492 H   0  0  0  0  0  0
    3.5737   69.8400   65.9317 H   0  0  0  0  0  0
    5.3143   69.5451   65.8234 H   0  0  0  0  0  0
    2.2062   69.9310   64.0444 H   0  0  0  0  0  0
    1.9555   69.9248   61.5679 H   0  0  0  0  0  0
    3.8512   69.1849   60.1094 H   0  0  0  0  0  0
    6.0072   68.4449   61.1453 H   0  0  0  0  0  0
    6.2681   68.4425   63.6279 H   0  0  0  0  0  0
    3.6505   62.7522   67.1188 C   0  0  0  0  0  0
    3.0403   62.6823   68.4522 N   0  0  0  0  0  0
    3.4351   61.5249   69.0750 C   0  0  0  0  0  0
    4.4126   60.8107   68.8753 O   0  0  0  0  0  0
    2.3360   61.2610   69.9910 C   0  0  0  0  0  0
    2.1816   60.0574   70.7052 C   0  0  0  0  0  0
    1.0937   59.8814   71.5627 C   0  0  0  0  0  0
    0.1451   60.9030   71.7211 C   0  0  0  0  0  0
    0.3027   62.1039   71.0182 C   0  0  0  0  0  0
    1.3932   62.2913   70.1618 C   0  0  0  0  0  0
    2.8904   63.0298   66.3777 H   0  0  0  0  0  0
    3.9249   61.7316   66.8036 H   0  0  0  0  0  0
    0.9794   58.9301   72.1176 H   0  0  0  0  0  0
   -0.7170   60.7611   72.4002 H   0  0  0  0  0  0
   -0.4380   62.9164   71.1493 H   0  0  0  0  0  0
    4.9170   67.4352   65.6976 H   0  0  0  0  0  0
    1.8610   63.2931   69.0508 C   0  0  0  0  0  0
    1.3887   64.3159   68.6160 O   0  0  0  0  0  0
    3.1105   58.9857   70.6029 N   0  0  0  0  0  0
    3.1947   58.4925   69.7240 H   0  0  0  0  0  0
    4.1125   58.4996   71.4073 C   0  0  0  0  0  0
    4.7754   57.5424   71.0185 O   0  0  0  0  0  0
    4.3738   59.1241   72.7472 C   0  0  0  0  0  0
    4.2414   60.4992   73.0062 C   0  0  0  0  0  0
    3.9458   61.2008   72.2085 H   0  0  0  0  0  0
    4.5132   61.0044   74.2847 C   0  0  0  0  0  0
    4.3965   62.0863   74.4855 H   0  0  0  0  0  0
    4.9360   60.1519   75.3118 C   0  0  0  0  0  0
    5.1473   60.5467   76.3245 H   0  0  0  0  0  0
    5.1010   58.7845   75.0467 C   0  0  0  0  0  0
    5.4457   58.1035   75.8496 H   0  0  0  0  0  0
    4.8315   58.2739   73.7756 C   0  0  0  0  0  0
    4.9622   57.1897   73.5875 H   0  0  0  0  0  0
  1  2  1  0  0  0
  1 15  1  0  0  0
  1 16  1  0  0  0
  1 33  1  0  0  0
  2  3  1  0  0  0
  2  7  1  0  0  0
  2 17  1  0  0  0
  3  4  1  0  0  0
  3 18  1  0  0  0
  3 19  1  0  0  0
  4  5  1  0  0  0
  4 20  1  0  0  0
  4 21  1  0  0  0
  5  6  1  0  0  0
  5  8  1  0  0  0
  5 48  1  0  0  0
  6  7  1  0  0  0
  6 22  1  0  0  0
  6 23  1  0  0  0
  7 24  1  0  0  0
  7 25  1  0  0  0
  8  9  1  0  0  0
  8 26  1  0  0  0
  8 27  1  0  0  0
  9 10  1  0  0  0
  9 14  2  0  0  0
 10 11  2  0  0  0
 10 28  1  0  0  0
 11 12  1  0  0  0
 11 29  1  0  0  0
 12 13  2  0  0  0
 12 30  1  0  0  0
 13 14  1  0  0  0
 13 31  1  0  0  0
 14 32  1  0  0  0
 33 34  1  0  0  0
 33 43  1  0  0  0
 33 44  1  0  0  0
 34 35  1  0  0  0
 34 49  1  0  0  0
 35 36  2  0  0  0
 35 37  1  0  0  0
 37 38  2  0  0  0
 37 42  1  0  0  0
 38 39  1  0  0  0
 38 51  1  0  0  0
 39 40  2  0  0  0
 39 45  1  0  0  0
 40 41  1  0  0  0
 40 46  1  0  0  0
 41 42  2  0  0  0
 41 47  1  0  0  0
 42 49  1  0  0  0
 49 50  2  0  0  0
 51 52  1  0  0  0
 51 53  1  0  0  0
 53 54  2  0  0  0
 53 55  1  0  0  0
 55 56  1  0  0  0
 55 64  2  0  0  0
 56 57  1  0  0  0
 56 58  2  0  0  0
 58 59  1  0  0  0
 58 60  1  0  0  0
 60 61  1  0  0  0
 60 62  2  0  0  0
 62 63  1  0  0  0
 62 64  1  0  0  0
 64 65  1  0  0  0
M  CHG  1   5   1
M  END
>  <ACTIVITY>
6.47

>  <SET>
2

>  <Min_dist>
0.08

>  <Avg_dist>
0.49

$$$$
1-26
  Cerius2 12110213523D 1   1.00000                          
Structure written by Cerius2 SD Exporter
 50 53  0  0  0  0  0  0  0  0999 V2000
    4.9012   63.6570   67.1245 C   0  0  0  0  0  0
    4.3855   65.0953   67.1679 C   0  0  0  0  0  0
    5.2770   66.2628   67.6398 C   0  0  0  0  0  0
    4.5857   67.6253   67.4818 C   0  0  0  0  0  0
    4.1925   67.8073   66.0805 N   0  3  0  0  0  0
    3.1996   66.8221   65.6392 C   0  0  0  0  0  0
    3.8229   65.4102   65.7568 C   0  0  0  0  0  0
    4.3302   69.1509   65.5151 C   0  0  0  0  0  0
    4.2612   69.1992   64.0021 C   0  0  0  0  0  0
    3.0583   69.6122   63.4103 C   0  0  0  0  0  0
    2.9137   69.6073   62.0214 C   0  0  0  0  0  0
    3.9685   69.1928   61.2101 C   0  0  0  0  0  0
    5.1698   68.7828   61.7855 C   0  0  0  0  0  0
    5.3166   68.7866   63.1737 C   0  0  0  0  0  0
    5.5383   63.3911   67.9873 H   0  0  0  0  0  0
    5.5118   63.4701   66.2240 H   0  0  0  0  0  0
    3.5310   65.0411   67.8689 H   0  0  0  0  0  0
    5.5824   66.1197   68.6906 H   0  0  0  0  0  0
    6.2068   66.2717   67.0398 H   0  0  0  0  0  0
    3.7145   67.7004   68.1590 H   0  0  0  0  0  0
    5.2829   68.4214   67.7923 H   0  0  0  0  0  0
    2.2727   66.8895   66.2384 H   0  0  0  0  0  0
    2.9028   66.9965   64.5928 H   0  0  0  0  0  0
    4.6504   65.3441   65.0247 H   0  0  0  0  0  0
    3.0777   64.6579   65.4492 H   0  0  0  0  0  0
    3.5737   69.8400   65.9317 H   0  0  0  0  0  0
    5.3143   69.5451   65.8234 H   0  0  0  0  0  0
    2.2062   69.9310   64.0444 H   0  0  0  0  0  0
    1.9555   69.9248   61.5679 H   0  0  0  0  0  0
    3.8512   69.1849   60.1094 H   0  0  0  0  0  0
    6.0072   68.4449   61.1453 H   0  0  0  0  0  0
    6.2681   68.4425   63.6279 H   0  0  0  0  0  0
    3.6505   62.7522   67.1188 C   0  0  0  0  0  0
    3.0403   62.6823   68.4522 N   0  0  0  0  0  0
    3.4351   61.5249   69.0750 C   0  0  0  0  0  0
    4.4126   60.8107   68.8753 O   0  0  0  0  0  0
    2.3360   61.2610   69.9910 C   0  0  0  0  0  0
    2.1816   60.0574   70.7052 N   0  0  0  0  0  0
    1.0937   59.8814   71.5627 C   0  0  0  0  0  0
    0.1451   60.9030   71.7211 C   0  0  0  0  0  0
    0.3027   62.1039   71.0182 C   0  0  0  0  0  0
    1.3932   62.2913   70.1618 C   0  0  0  0  0  0
    2.8904   63.0298   66.3777 H   0  0  0  0  0  0
    3.9249   61.7316   66.8036 H   0  0  0  0  0  0
    0.9794   58.9301   72.1176 H   0  0  0  0  0  0
   -0.7170   60.7611   72.4002 H   0  0  0  0  0  0
   -0.4380   62.9164   71.1493 H   0  0  0  0  0  0
    4.9170   67.4352   65.6976 H   0  0  0  0  0  0
    1.8610   63.2931   69.0508 C   0  0  0  0  0  0
    1.3887   64.3159   68.6160 O   0  0  0  0  0  0
  1  2  1  0  0  0
  1 15  1  0  0  0
  1 16  1  0  0  0
  1 33  1  0  0  0
  2  3  1  0  0  0
  2  7  1  0  0  0
  2 17  1  0  0  0
  3  4  1  0  0  0
  3 18  1  0  0  0
  3 19  1  0  0  0
  4  5  1  0  0  0
  4 20  1  0  0  0
  4 21  1  0  0  0
  5  6  1  0  0  0
  5  8  1  0  0  0
  5 48  1  0  0  0
  6  7  1  0  0  0
  6 22  1  0  0  0
  6 23  1  0  0  0
  7 24  1  0  0  0
  7 25  1  0  0  0
  8  9  1  0  0  0
  8 26  1  0  0  0
  8 27  1  0  0  0
  9 10  1  0  0  0
  9 14  2  0  0  0
 10 11  2  0  0  0
 10 28  1  0  0  0
 11 12  1  0  0  0
 11 29  1  0  0  0
 12 13  2  0  0  0
 12 30  1  0  0  0
 13 14  1  0  0  0
 13 31  1  0  0  0
 14 32  1  0  0  0
 33 34  1  0  0  0
 33 43  1  0  0  0
 33 44  1  0  0  0
 34 35  1  0  0  0
 34 49  1  0  0  0
 35 36  2  0  0  0
 35 37  1  0  0  0
 37 38  2  0  0  0
 37 42  1  0  0  0
 38 39  1  0  0  0
 39 40  2  0  0  0
 39 45  1  0  0  0
 40 41  1  0  0  0
 40 46  1  0  0  0
 41 42  2  0  0  0
 41 47  1  0  0  0
 42 49  1  0  0  0
 49 50  2  0  0  0
M  CHG  1   5   1
M  END
>  <ACTIVITY>
7.89

>  <SET>
2

>  <Min_dist>
0.17

>  <Avg_dist>
0.52

$$$$
1-29
  Cerius2 12110213523D 1   1.00000                          
Structure written by Cerius2 SD Exporter
 53 56  0  0  0  0  0  0  0  0999 V2000
    4.9012   63.6570   67.1245 C   0  0  0  0  0  0
    4.3855   65.0953   67.1679 C   0  0  0  0  0  0
    5.2770   66.2628   67.6398 C   0  0  0  0  0  0
    4.5857   67.6253   67.4818 C   0  0  0  0  0  0
    4.1925   67.8073   66.0805 N   0  3  0  0  0  0
    3.1996   66.8221   65.6392 C   0  0  0  0  0  0
    3.8229   65.4102   65.7568 C   0  0  0  0  0  0
    4.3302   69.1509   65.5151 C   0  0  0  0  0  0
    4.2612   69.1992   64.0021 C   0  0  0  0  0  0
    3.0583   69.6122   63.4103 C   0  0  0  0  0  0
    2.9137   69.6073   62.0214 C   0  0  0  0  0  0
    3.9685   69.1928   61.2101 C   0  0  0  0  0  0
    5.1698   68.7828   61.7855 C   0  0  0  0  0  0
    5.3166   68.7866   63.1737 C   0  0  0  0  0  0
    5.5383   63.3911   67.9873 H   0  0  0  0  0  0
    5.5118   63.4701   66.2240 H   0  0  0  0  0  0
    3.5310   65.0411   67.8689 H   0  0  0  0  0  0
    5.5824   66.1197   68.6906 H   0  0  0  0  0  0
    6.2068   66.2717   67.0398 H   0  0  0  0  0  0
    3.7145   67.7004   68.1590 H   0  0  0  0  0  0
    5.2829   68.4214   67.7923 H   0  0  0  0  0  0
    2.2727   66.8895   66.2384 H   0  0  0  0  0  0
    2.9028   66.9965   64.5928 H   0  0  0  0  0  0
    4.6504   65.3441   65.0247 H   0  0  0  0  0  0
    3.0777   64.6579   65.4492 H   0  0  0  0  0  0
    3.5737   69.8400   65.9317 H   0  0  0  0  0  0
    5.3143   69.5451   65.8234 H   0  0  0  0  0  0
    2.2062   69.9310   64.0444 H   0  0  0  0  0  0
    1.9555   69.9248   61.5679 H   0  0  0  0  0  0
    3.8512   69.1849   60.1094 H   0  0  0  0  0  0
    6.0072   68.4449   61.1453 H   0  0  0  0  0  0
    6.2681   68.4425   63.6279 H   0  0  0  0  0  0
    3.6505   62.7522   67.1188 C   0  0  0  0  0  0
    3.1076   62.6810   68.3724 N   0  0  0  0  0  0
    3.4351   61.5249   69.0750 C   0  0  0  0  0  0
    4.4126   60.8107   68.8753 O   0  0  0  0  0  0
    2.6135   61.1662   70.3028 C   0  0  0  0  0  0
    2.9895   60.0379   71.0483 C   0  0  0  0  0  0
    2.2196   59.6800   72.1903 C   0  0  0  0  0  0
    1.0877   60.4295   72.5754 C   0  0  0  0  0  0
    0.7103   61.5299   71.8351 C   0  0  0  0  0  0
    1.4686   61.9237   70.6754 C   0  0  0  0  0  0
    2.8904   63.0298   66.3777 H   0  0  0  0  0  0
    3.9249   61.7316   66.8036 H   0  0  0  0  0  0
    3.8682   59.4204   70.7715 H   0  0  0  0  0  0
    2.5102   58.7914   72.7852 H   0  0  0  0  0  0
    0.5067   60.1188   73.4671 H   0  0  0  0  0  0
   -0.1837   62.1187   72.1186 H   0  0  0  0  0  0
    4.9170   67.4352   65.6976 H   0  0  0  0  0  0
    1.1391   63.0239   69.8061 C   0  0  0  0  0  0
    1.9036   63.3186   68.7235 C   0  0  0  0  0  0
    0.2317   63.6288   69.9910 H   0  0  0  0  0  0
    1.5969   64.1279   68.0390 H   0  0  0  0  0  0
  1  2  1  0  0  0
  1 15  1  0  0  0
  1 16  1  0  0  0
  1 33  1  0  0  0
  2  3  1  0  0  0
  2  7  1  0  0  0
  2 17  1  0  0  0
  3  4  1  0  0  0
  3 18  1  0  0  0
  3 19  1  0  0  0
  4  5  1  0  0  0
  4 20  1  0  0  0
  4 21  1  0  0  0
  5  6  1  0  0  0
  5  8  1  0  0  0
  5 49  1  0  0  0
  6  7  1  0  0  0
  6 22  1  0  0  0
  6 23  1  0  0  0
  7 24  1  0  0  0
  7 25  1  0  0  0
  8  9  1  0  0  0
  8 26  1  0  0  0
  8 27  1  0  0  0
  9 10  1  0  0  0
  9 14  2  0  0  0
 10 11  2  0  0  0
 10 28  1  0  0  0
 11 12  1  0  0  0
 11 29  1  0  0  0
 12 13  2  0  0  0
 12 30  1  0  0  0
 13 14  1  0  0  0
 13 31  1  0  0  0
 14 32  1  0  0  0
 33 34  1  0  0  0
 33 43  1  0  0  0
 33 44  1  0  0  0
 34 35  1  0  0  0
 34 51  1  0  0  0
 35 36  2  0  0  0
 35 37  1  0  0  0
 37 38  2  0  0  0
 37 42  1  0  0  0
 38 39  1  0  0  0
 38 45  1  0  0  0
 39 40  2  0  0  0
 39 46  1  0  0  0
 40 41  1  0  0  0
 40 47  1  0  0  0
 41 42  2  0  0  0
 41 48  1  0  0  0
 42 50  1  0  0  0
 50 51  2  0  0  0
 50 52  1  0  0  0
 51 53  1  0  0  0
M  CHG  1   5   1
M  END
>  <ACTIVITY>
5.96

>  <SET>
1

>  <Min_dist>
999.9

>  <Avg_dist>
999.9

$$$$
1-31a
  Cerius2 12110213523D 1   1.00000                          
Structure written by Cerius2 SD Exporter
 55 58  0  0  0  0  0  0  0  0999 V2000
    4.9012   63.6570   67.1245 C   0  0  0  0  0  0
    4.3855   65.0953   67.1679 C   0  0  0  0  0  0
    5.2770   66.2628   67.6398 C   0  0  0  0  0  0
    4.5857   67.6253   67.4818 C   0  0  0  0  0  0
    4.1925   67.8073   66.0805 N   0  3  0  0  0  0
    3.1996   66.8221   65.6392 C   0  0  0  0  0  0
    3.8229   65.4102   65.7568 C   0  0  0  0  0  0
    4.3302   69.1509   65.5151 C   0  0  0  0  0  0
    4.2612   69.1992   64.0021 C   0  0  0  0  0  0
    3.0583   69.6122   63.4103 C   0  0  0  0  0  0
    2.9137   69.6073   62.0214 C   0  0  0  0  0  0
    3.9685   69.1928   61.2101 C   0  0  0  0  0  0
    5.1698   68.7828   61.7855 C   0  0  0  0  0  0
    5.3166   68.7866   63.1737 C   0  0  0  0  0  0
    5.5383   63.3911   67.9873 H   0  0  0  0  0  0
    5.5118   63.4701   66.2240 H   0  0  0  0  0  0
    3.5310   65.0411   67.8689 H   0  0  0  0  0  0
    5.5824   66.1197   68.6906 H   0  0  0  0  0  0
    6.2068   66.2717   67.0398 H   0  0  0  0  0  0
    3.7145   67.7004   68.1590 H   0  0  0  0  0  0
    5.2829   68.4214   67.7923 H   0  0  0  0  0  0
    2.2727   66.8895   66.2384 H   0  0  0  0  0  0
    2.9028   66.9965   64.5928 H   0  0  0  0  0  0
    4.6504   65.3441   65.0247 H   0  0  0  0  0  0
    3.0777   64.6579   65.4492 H   0  0  0  0  0  0
    3.5737   69.8400   65.9317 H   0  0  0  0  0  0
    5.3143   69.5451   65.8234 H   0  0  0  0  0  0
    2.2062   69.9310   64.0444 H   0  0  0  0  0  0
    1.9555   69.9248   61.5679 H   0  0  0  0  0  0
    3.8512   69.1849   60.1094 H   0  0  0  0  0  0
    6.0072   68.4449   61.1453 H   0  0  0  0  0  0
    6.2681   68.4425   63.6279 H   0  0  0  0  0  0
    3.6505   62.7522   67.1188 C   0  0  0  0  0  0
    3.1076   62.6810   68.3724 N   0  0  0  0  0  0
    3.4351   61.5249   69.0750 C   0  0  0  0  0  0
    4.4126   60.8107   68.8753 O   0  0  0  0  0  0
    2.5357   61.1218   70.2239 C   0  0  0  0  0  0
    3.0195   60.2512   71.2219 C   0  0  0  0  0  0
    2.1930   59.8555   72.2714 C   0  0  0  0  0  0
    0.8721   60.3184   72.3258 C   0  0  0  0  0  0
    0.3899   61.1673   71.3269 C   0  0  0  0  0  0
    1.2103   61.5672   70.2666 C   0  0  0  0  0  0
    2.8904   63.0298   66.3777 H   0  0  0  0  0  0
    3.9249   61.7316   66.8036 H   0  0  0  0  0  0
    4.0627   59.8829   71.1794 H   0  0  0  0  0  0
    2.5743   59.1717   73.0555 H   0  0  0  0  0  0
    0.2090   60.0008   73.1551 H   0  0  0  0  0  0
   -0.6617   61.5173   71.3735 H   0  0  0  0  0  0
    4.9170   67.4352   65.6976 H   0  0  0  0  0  0
    0.7262   62.4746   69.1470 C   0  0  0  0  0  0
    1.8740   63.4025   68.7416 C   0  0  0  0  0  0
    0.3846   61.8637   68.2942 H   0  0  0  0  0  0
    1.5593   64.0510   67.9098 H   0  0  0  0  0  0
   -0.1303   63.0808   69.4820 H   0  0  0  0  0  0
    2.1095   64.0649   69.5935 H   0  0  0  0  0  0
  1  2  1  0  0  0
  1 15  1  0  0  0
  1 16  1  0  0  0
  1 33  1  0  0  0
  2  3  1  0  0  0
  2  7  1  0  0  0
  2 17  1  0  0  0
  3  4  1  0  0  0
  3 18  1  0  0  0
  3 19  1  0  0  0
  4  5  1  0  0  0
  4 20  1  0  0  0
  4 21  1  0  0  0
  5  6  1  0  0  0
  5  8  1  0  0  0
  5 49  1  0  0  0
  6  7  1  0  0  0
  6 22  1  0  0  0
  6 23  1  0  0  0
  7 24  1  0  0  0
  7 25  1  0  0  0
  8  9  1  0  0  0
  8 26  1  0  0  0
  8 27  1  0  0  0
  9 10  1  0  0  0
  9 14  2  0  0  0
 10 11  2  0  0  0
 10 28  1  0  0  0
 11 12  1  0  0  0
 11 29  1  0  0  0
 12 13  2  0  0  0
 12 30  1  0  0  0
 13 14  1  0  0  0
 13 31  1  0  0  0
 14 32  1  0  0  0
 33 34  1  0  0  0
 33 43  1  0  0  0
 33 44  1  0  0  0
 34 35  1  0  0  0
 34 51  1  0  0  0
 35 36  2  0  0  0
 35 37  1  0  0  0
 37 38  2  0  0  0
 37 42  1  0  0  0
 38 39  1  0  0  0
 38 45  1  0  0  0
 39 40  2  0  0  0
 39 46  1  0  0  0
 40 41  1  0  0  0
 40 47  1  0  0  0
 41 42  2  0  0  0
 41 48  1  0  0  0
 42 50  1  0  0  0
 50 51  1  0  0  0
 50 52  1  0  0  0
 50 54  1  0  0  0
 51 53  1  0  0  0
 51 55  1  0  0  0
M  CHG  1   5   1
M  END
>  <ACTIVITY>
6

>  <SET>
1

>  <Min_dist>
999.9

>  <Avg_dist>
999.9

$$$$
1-31b
  Cerius2 12110213523D 1   1.00000                          
Structure written by Cerius2 SD Exporter
 55 58  0  0  0  0  0  0  0  0999 V2000
    4.9012   63.6570   67.1245 C   0  0  0  0  0  0
    4.3855   65.0953   67.1679 C   0  0  0  0  0  0
    5.2770   66.2628   67.6398 C   0  0  0  0  0  0
    4.5857   67.6253   67.4818 C   0  0  0  0  0  0
    4.1925   67.8073   66.0805 N   0  3  0  0  0  0
    3.1996   66.8221   65.6392 C   0  0  0  0  0  0
    3.8229   65.4102   65.7568 C   0  0  0  0  0  0
    4.3302   69.1509   65.5151 C   0  0  0  0  0  0
    4.2612   69.1992   64.0021 C   0  0  0  0  0  0
    3.0583   69.6122   63.4103 C   0  0  0  0  0  0
    2.9137   69.6073   62.0214 C   0  0  0  0  0  0
    3.9685   69.1928   61.2101 C   0  0  0  0  0  0
    5.1698   68.7828   61.7855 C   0  0  0  0  0  0
    5.3166   68.7866   63.1737 C   0  0  0  0  0  0
    5.5383   63.3911   67.9873 H   0  0  0  0  0  0
    5.5118   63.4701   66.2240 H   0  0  0  0  0  0
    3.5310   65.0411   67.8689 H   0  0  0  0  0  0
    5.5824   66.1197   68.6906 H   0  0  0  0  0  0
    6.2068   66.2717   67.0398 H   0  0  0  0  0  0
    3.7145   67.7004   68.1590 H   0  0  0  0  0  0
    5.2829   68.4214   67.7923 H   0  0  0  0  0  0
    2.2727   66.8895   66.2384 H   0  0  0  0  0  0
    2.9028   66.9965   64.5928 H   0  0  0  0  0  0
    4.6504   65.3441   65.0247 H   0  0  0  0  0  0
    3.0777   64.6579   65.4492 H   0  0  0  0  0  0
    3.5737   69.8400   65.9317 H   0  0  0  0  0  0
    5.3143   69.5451   65.8234 H   0  0  0  0  0  0
    2.2062   69.9310   64.0444 H   0  0  0  0  0  0
    1.9555   69.9248   61.5679 H   0  0  0  0  0  0
    3.8512   69.1849   60.1094 H   0  0  0  0  0  0
    6.0072   68.4449   61.1453 H   0  0  0  0  0  0
    6.2681   68.4425   63.6279 H   0  0  0  0  0  0
    3.6505   62.7522   67.1188 C   0  0  0  0  0  0
    3.1076   62.6810   68.3724 N   0  0  0  0  0  0
    3.4351   61.5249   69.0750 C   0  0  0  0  0  0
    4.4126   60.8107   68.8753 O   0  0  0  0  0  0
    2.4558   61.1890   70.2444 C   0  0  0  0  0  0
    0.6242   62.2902   71.6624 C   0  0  0  0  0  0
    1.2694   62.1593   70.4254 C   0  0  0  0  0  0
    2.8904   63.0298   66.3777 H   0  0  0  0  0  0
    3.9249   61.7316   66.8036 H   0  0  0  0  0  0
    0.9645   61.6830   72.5267 H   0  0  0  0  0  0
    4.9170   67.4352   65.6976 H   0  0  0  0  0  0
    0.8375   62.9228   69.3505 C   0  0  0  0  0  0
    1.6009   62.7079   68.0668 C   0  0  0  0  0  0
   -0.2345   63.8115   69.5002 C   0  0  0  0  0  0
   -0.8781   63.9378   70.7316 C   0  0  0  0  0  0
   -0.4446   63.1719   71.8203 C   0  0  0  0  0  0
   -0.5851   64.4135   68.6376 H   0  0  0  0  0  0
   -1.7305   64.6348   70.8502 H   0  0  0  0  0  0
   -0.9487   63.2627   72.8021 H   0  0  0  0  0  0
    2.0843   60.1661   70.0663 H   0  0  0  0  0  0
    3.0647   61.1702   71.1619 H   0  0  0  0  0  0
    1.2971   63.3621   67.1015 H   0  0  0  0  0  0
    1.3185   61.6914   67.7136 H   0  0  0  0  0  0
  1  2  1  0  0  0
  1 15  1  0  0  0
  1 16  1  0  0  0
  1 33  1  0  0  0
  2  3  1  0  0  0
  2  7  1  0  0  0
  2 17  1  0  0  0
  3  4  1  0  0  0
  3 18  1  0  0  0
  3 19  1  0  0  0
  4  5  1  0  0  0
  4 20  1  0  0  0
  4 21  1  0  0  0
  5  6  1  0  0  0
  5  8  1  0  0  0
  5 43  1  0  0  0
  6  7  1  0  0  0
  6 22  1  0  0  0
  6 23  1  0  0  0
  7 24  1  0  0  0
  7 25  1  0  0  0
  8  9  1  0  0  0
  8 26  1  0  0  0
  8 27  1  0  0  0
  9 10  1  0  0  0
  9 14  2  0  0  0
 10 11  2  0  0  0
 10 28  1  0  0  0
 11 12  1  0  0  0
 11 29  1  0  0  0
 12 13  2  0  0  0
 12 30  1  0  0  0
 13 14  1  0  0  0
 13 31  1  0  0  0
 14 32  1  0  0  0
 33 34  1  0  0  0
 33 40  1  0  0  0
 33 41  1  0  0  0
 34 35  1  0  0  0
 34 45  1  0  0  0
 35 36  2  0  0  0
 35 37  1  0  0  0
 37 39  1  0  0  0
 37 52  1  0  0  0
 37 53  1  0  0  0
 38 39  1  0  0  0
 38 42  1  0  0  0
 38 48  2  0  0  0
 39 44  2  0  0  0
 44 45  1  0  0  0
 44 46  1  0  0  0
 45 54  1  0  0  0
 45 55  1  0  0  0
 46 47  2  0  0  0
 46 49  1  0  0  0
 47 48  1  0  0  0
 47 50  1  0  0  0
 48 51  1  0  0  0
M  CHG  1   5   1
M  END
>  <ACTIVITY>
7.77

>  <SET>
1

>  <Min_dist>
999.9

>  <Avg_dist>
999.9

$$$$
1-31c
  Cerius2 12110213523D 1   1.00000                          
Structure written by Cerius2 SD Exporter
 57 60  0  0  0  0  0  0  0  0999 V2000
    4.9012   63.6570   67.1245 C   0  0  0  0  0  0
    4.3855   65.0954   67.1679 C   0  0  0  0  0  0
    5.2770   66.2628   67.6398 C   0  0  0  0  0  0
    4.5857   67.6253   67.4818 C   0  0  0  0  0  0
    4.1925   67.8073   66.0804 N   0  3  0  0  0  0
    3.1997   66.8221   65.6392 C   0  0  0  0  0  0
    3.8229   65.4102   65.7567 C   0  0  0  0  0  0
    4.3302   69.1509   65.5151 C   0  0  0  0  0  0
    4.2612   69.1991   64.0020 C   0  0  0  0  0  0
    3.0584   69.6121   63.4101 C   0  0  0  0  0  0
    2.9137   69.6072   62.0213 C   0  0  0  0  0  0
    3.9686   69.1927   61.2100 C   0  0  0  0  0  0
    5.1699   68.7827   61.7854 C   0  0  0  0  0  0
    5.3166   68.7865   63.1737 C   0  0  0  0  0  0
    5.5383   63.3912   67.9873 H   0  0  0  0  0  0
    5.5118   63.4701   66.2241 H   0  0  0  0  0  0
    3.5310   65.0411   67.8689 H   0  0  0  0  0  0
    5.5823   66.1198   68.6906 H   0  0  0  0  0  0
    6.2068   66.2717   67.0398 H   0  0  0  0  0  0
    3.7145   67.7004   68.1590 H   0  0  0  0  0  0
    5.2829   68.4215   67.7922 H   0  0  0  0  0  0
    2.2727   66.8894   66.2383 H   0  0  0  0  0  0
    2.9028   66.9965   64.5928 H   0  0  0  0  0  0
    4.6505   65.3441   65.0247 H   0  0  0  0  0  0
    3.0777   64.6579   65.4491 H   0  0  0  0  0  0
    3.5737   69.8400   65.9316 H   0  0  0  0  0  0
    5.3143   69.5451   65.8234 H   0  0  0  0  0  0
    2.2062   69.9309   64.0443 H   0  0  0  0  0  0
    1.9555   69.9247   61.5678 H   0  0  0  0  0  0
    3.8513   69.1848   60.1093 H   0  0  0  0  0  0
    6.0072   68.4449   61.1453 H   0  0  0  0  0  0
    6.2682   68.4425   63.6278 H   0  0  0  0  0  0
    3.6505   62.7522   67.1188 C   0  0  0  0  0  0
    3.1076   62.6810   68.3724 N   0  3  0  0  0  0
    1.7076   62.2464   68.1365 C   0  0  0  0  0  0
    1.0204   61.4739   69.2766 C   0  0  0  0  0  0
   -0.3728   61.2633   69.2458 C   0  0  0  0  0  0
   -1.0193   60.5516   70.2505 C   0  0  0  0  0  0
   -0.2702   60.0337   71.3163 C   0  0  0  0  0  0
    1.1039   60.2454   71.3472 C   0  0  0  0  0  0
    1.7550   60.9642   70.3270 C   0  0  0  0  0  0
    2.8905   63.0298   66.3777 H   0  0  0  0  0  0
    3.9249   61.7316   66.8037 H   0  0  0  0  0  0
   -0.9655   61.6709   68.4010 H   0  0  0  0  0  0
   -2.1148   60.3906   70.2099 H   0  0  0  0  0  0
   -0.7682   59.4620   72.1248 H   0  0  0  0  0  0
    1.6981   59.8393   72.1921 H   0  0  0  0  0  0
    4.9170   67.4352   65.6975 H   0  0  0  0  0  0
    3.2636   61.1889   70.3906 C   0  0  0  0  0  0
    3.8348   61.5863   69.0143 C   0  0  0  0  0  0
    3.4737   61.9768   71.1364 H   0  0  0  0  0  0
    4.9062   61.8351   69.1015 H   0  0  0  0  0  0
    3.7664   60.2753   70.7472 H   0  0  0  0  0  0
    3.7855   60.7102   68.3395 H   0  0  0  0  0  0
    1.0645   63.0971   67.8641 H   0  0  0  0  0  0
    1.7131   61.5817   67.2521 H   0  0  0  0  0  0
    3.2298   63.5056   68.7117 H   0  0  0  0  0  0
  1  2  1  0  0  0
  1 15  1  0  0  0
  1 16  1  0  0  0
  1 33  1  0  0  0
  2  3  1  0  0  0
  2  7  1  0  0  0
  2 17  1  0  0  0
  3  4  1  0  0  0
  3 18  1  0  0  0
  3 19  1  0  0  0
  4  5  1  0  0  0
  4 20  1  0  0  0
  4 21  1  0  0  0
  5  6  1  0  0  0
  5  8  1  0  0  0
  5 48  1  0  0  0
  6  7  1  0  0  0
  6 22  1  0  0  0
  6 23  1  0  0  0
  7 24  1  0  0  0
  7 25  1  0  0  0
  8  9  1  0  0  0
  8 26  1  0  0  0
  8 27  1  0  0  0
  9 10  1  0  0  0
  9 14  2  0  0  0
 10 11  2  0  0  0
 10 28  1  0  0  0
 11 12  1  0  0  0
 11 29  1  0  0  0
 12 13  2  0  0  0
 12 30  1  0  0  0
 13 14  1  0  0  0
 13 31  1  0  0  0
 14 32  1  0  0  0
 33 34  1  0  0  0
 33 42  1  0  0  0
 33 43  1  0  0  0
 34 35  1  0  0  0
 34 50  1  0  0  0
 34 57  1  0  0  0
 35 36  1  0  0  0
 35 55  1  0  0  0
 35 56  1  0  0  0
 36 37  2  0  0  0
 36 41  1  0  0  0
 37 38  1  0  0  0
 37 44  1  0  0  0
 38 39  2  0  0  0
 38 45  1  0  0  0
 39 40  1  0  0  0
 39 46  1  0  0  0
 40 41  2  0  0  0
 40 47  1  0  0  0
 41 49  1  0  0  0
 49 50  1  0  0  0
 49 51  1  0  0  0
 49 53  1  0  0  0
 50 52  1  0  0  0
 50 54  1  0  0  0
M  CHG  2   5   1  34   1
M  END
>  <ACTIVITY>
5.8

>  <SET>
2

>  <Min_dist>
0.17

>  <Avg_dist>
0.49

$$$$
1-31d
  Cerius2 12110213523D 1   1.00000                          
Structure written by Cerius2 SD Exporter
 54 57  0  0  0  0  0  0  0  0999 V2000
    4.9012   63.6570   67.1245 C   0  0  0  0  0  0
    4.3855   65.0953   67.1679 C   0  0  0  0  0  0
    5.2770   66.2628   67.6398 C   0  0  0  0  0  0
    4.5857   67.6253   67.4818 C   0  0  0  0  0  0
    4.1925   67.8073   66.0805 N   0  3  0  0  0  0
    3.1996   66.8221   65.6392 C   0  0  0  0  0  0
    3.8229   65.4102   65.7568 C   0  0  0  0  0  0
    4.3302   69.1509   65.5151 C   0  0  0  0  0  0
    4.2612   69.1992   64.0021 C   0  0  0  0  0  0
    3.0583   69.6122   63.4103 C   0  0  0  0  0  0
    2.9137   69.6073   62.0214 C   0  0  0  0  0  0
    3.9685   69.1928   61.2101 C   0  0  0  0  0  0
    5.1698   68.7828   61.7855 C   0  0  0  0  0  0
    5.3166   68.7866   63.1737 C   0  0  0  0  0  0
    5.5383   63.3911   67.9873 H   0  0  0  0  0  0
    5.5118   63.4701   66.2240 H   0  0  0  0  0  0
    3.5310   65.0411   67.8689 H   0  0  0  0  0  0
    5.5824   66.1197   68.6906 H   0  0  0  0  0  0
    6.2068   66.2717   67.0398 H   0  0  0  0  0  0
    3.7145   67.7004   68.1590 H   0  0  0  0  0  0
    5.2829   68.4214   67.7923 H   0  0  0  0  0  0
    2.2727   66.8895   66.2384 H   0  0  0  0  0  0
    2.9028   66.9965   64.5928 H   0  0  0  0  0  0
    4.6504   65.3441   65.0247 H   0  0  0  0  0  0
    3.0777   64.6579   65.4492 H   0  0  0  0  0  0
    3.5737   69.8400   65.9317 H   0  0  0  0  0  0
    5.3143   69.5451   65.8234 H   0  0  0  0  0  0
    2.2062   69.9310   64.0444 H   0  0  0  0  0  0
    1.9555   69.9248   61.5679 H   0  0  0  0  0  0
    3.8512   69.1849   60.1094 H   0  0  0  0  0  0
    6.0072   68.4449   61.1453 H   0  0  0  0  0  0
    6.2681   68.4425   63.6279 H   0  0  0  0  0  0
    3.6505   62.7522   67.1188 C   0  0  0  0  0  0
    3.1076   62.6810   68.3724 N   0  0  0  0  0  0
    3.4351   61.5249   69.0750 C   0  0  0  0  0  0
    4.4126   60.8107   68.8753 O   0  0  0  0  0  0
    2.5271   61.0972   70.2053 C   0  0  0  0  0  0
    2.7052   59.8180   70.7857 C   0  0  0  0  0  0
    1.8772   59.3821   71.8139 C   0  0  0  0  0  0
    0.8551   60.2189   72.2824 C   0  0  0  0  0  0
    0.6847   61.4807   71.7166 C   0  0  0  0  0  0
    1.5164   61.9318   70.6804 C   0  0  0  0  0  0
    2.8904   63.0298   66.3777 H   0  0  0  0  0  0
    3.9249   61.7316   66.8036 H   0  0  0  0  0  0
    3.5031   59.1421   70.4206 H   0  0  0  0  0  0
    2.0206   58.3772   72.2594 H   0  0  0  0  0  0
    0.1892   59.8765   73.0998 H   0  0  0  0  0  0
   -0.1240   62.1396   72.0959 H   0  0  0  0  0  0
    4.9170   67.4352   65.6976 H   0  0  0  0  0  0
    1.3456   63.3117   70.0768 C   0  0  0  0  0  0
    1.9377   63.4150   68.6739 C   0  0  0  0  0  0
    0.2798   63.5729   70.0134 H   0  0  0  0  0  0
    1.3896   64.1555   67.8629 O   0  0  0  0  0  0
    1.8401   64.0699   70.7090 H   0  0  0  0  0  0
  1  2  1  0  0  0
  1 15  1  0  0  0
  1 16  1  0  0  0
  1 33  1  0  0  0
  2  3  1  0  0  0
  2  7  1  0  0  0
  2 17  1  0  0  0
  3  4  1  0  0  0
  3 18  1  0  0  0
  3 19  1  0  0  0
  4  5  1  0  0  0
  4 20  1  0  0  0
  4 21  1  0  0  0
  5  6  1  0  0  0
  5  8  1  0  0  0
  5 49  1  0  0  0
  6  7  1  0  0  0
  6 22  1  0  0  0
  6 23  1  0  0  0
  7 24  1  0  0  0
  7 25  1  0  0  0
  8  9  1  0  0  0
  8 26  1  0  0  0
  8 27  1  0  0  0
  9 10  1  0  0  0
  9 14  2  0  0  0
 10 11  2  0  0  0
 10 28  1  0  0  0
 11 12  1  0  0  0
 11 29  1  0  0  0
 12 13  2  0  0  0
 12 30  1  0  0  0
 13 14  1  0  0  0
 13 31  1  0  0  0
 14 32  1  0  0  0
 33 34  1  0  0  0
 33 43  1  0  0  0
 33 44  1  0  0  0
 34 35  1  0  0  0
 34 51  1  0  0  0
 35 36  2  0  0  0
 35 37  1  0  0  0
 37 38  2  0  0  0
 37 42  1  0  0  0
 38 39  1  0  0  0
 38 45  1  0  0  0
 39 40  2  0  0  0
 39 46  1  0  0  0
 40 41  1  0  0  0
 40 47  1  0  0  0
 41 42  2  0  0  0
 41 48  1  0  0  0
 42 50  1  0  0  0
 50 51  1  0  0  0
 50 52  1  0  0  0
 50 54  1  0  0  0
 51 53  2  0  0  0
M  CHG  1   5   1
M  END
>  <ACTIVITY>
7.64

>  <SET>
2

>  <Min_dist>
0.09

>  <Avg_dist>
0.45

$$$$
1-34
  Cerius2 12110213523D 1   1.00000                          
Structure written by Cerius2 SD Exporter
 52 55  0  0  0  0  0  0  0  0999 V2000
    4.9012   63.6570   67.1245 C   0  0  0  0  0  0
    4.3855   65.0953   67.1679 C   0  0  0  0  0  0
    5.2770   66.2628   67.6398 C   0  0  0  0  0  0
    4.5857   67.6253   67.4818 C   0  0  0  0  0  0
    4.1925   67.8073   66.0805 N   0  3  0  0  0  0
    3.1996   66.8221   65.6392 C   0  0  0  0  0  0
    3.8229   65.4102   65.7568 C   0  0  0  0  0  0
    4.3302   69.1509   65.5151 C   0  0  0  0  0  0
    4.2612   69.1992   64.0021 C   0  0  0  0  0  0
    3.0583   69.6122   63.4103 C   0  0  0  0  0  0
    2.9137   69.6073   62.0214 C   0  0  0  0  0  0
    3.9685   69.1928   61.2101 C   0  0  0  0  0  0
    5.1698   68.7828   61.7855 C   0  0  0  0  0  0
    5.3166   68.7866   63.1737 C   0  0  0  0  0  0
    5.5383   63.3911   67.9873 H   0  0  0  0  0  0
    5.5118   63.4701   66.2240 H   0  0  0  0  0  0
    3.5310   65.0411   67.8689 H   0  0  0  0  0  0
    5.5824   66.1197   68.6906 H   0  0  0  0  0  0
    6.2068   66.2717   67.0398 H   0  0  0  0  0  0
    3.7145   67.7004   68.1590 H   0  0  0  0  0  0
    5.2829   68.4214   67.7923 H   0  0  0  0  0  0
    2.2727   66.8895   66.2384 H   0  0  0  0  0  0
    2.9028   66.9965   64.5928 H   0  0  0  0  0  0
    4.6504   65.3441   65.0247 H   0  0  0  0  0  0
    3.0777   64.6579   65.4492 H   0  0  0  0  0  0
    3.5737   69.8400   65.9317 H   0  0  0  0  0  0
    5.3143   69.5451   65.8234 H   0  0  0  0  0  0
    2.2062   69.9310   64.0444 H   0  0  0  0  0  0
    1.9555   69.9248   61.5679 H   0  0  0  0  0  0
    3.8512   69.1849   60.1094 H   0  0  0  0  0  0
    6.0072   68.4449   61.1453 H   0  0  0  0  0  0
    6.2681   68.4425   63.6279 H   0  0  0  0  0  0
    3.6505   62.7522   67.1188 C   0  0  0  0  0  0
    3.1076   62.6810   68.3724 N   0  0  0  0  0  0
    3.4351   61.5249   69.0750 C   0  0  0  0  0  0
    4.4126   60.8107   68.8753 O   0  0  0  0  0  0
    2.6135   61.1662   70.3028 C   0  0  0  0  0  0
    2.9895   60.0379   71.0483 C   0  0  0  0  0  0
    2.2196   59.6800   72.1903 C   0  0  0  0  0  0
    1.0877   60.4295   72.5754 C   0  0  0  0  0  0
    0.7103   61.5299   71.8351 C   0  0  0  0  0  0
    1.4686   61.9237   70.6754 C   0  0  0  0  0  0
    2.8904   63.0298   66.3777 H   0  0  0  0  0  0
    3.9249   61.7316   66.8036 H   0  0  0  0  0  0
    3.8682   59.4204   70.7715 H   0  0  0  0  0  0
    2.5102   58.7914   72.7852 H   0  0  0  0  0  0
    0.5067   60.1188   73.4671 H   0  0  0  0  0  0
   -0.1837   62.1187   72.1186 H   0  0  0  0  0  0
    4.9170   67.4352   65.6976 H   0  0  0  0  0  0
    1.1391   63.0239   69.8061 N   0  0  0  0  0  0
    1.9036   63.3186   68.7235 C   0  0  0  0  0  0
    1.5969   64.1279   68.0390 H   0  0  0  0  0  0
  1  2  1  0  0  0
  1 15  1  0  0  0
  1 16  1  0  0  0
  1 33  1  0  0  0
  2  3  1  0  0  0
  2  7  1  0  0  0
  2 17  1  0  0  0
  3  4  1  0  0  0
  3 18  1  0  0  0
  3 19  1  0  0  0
  4  5  1  0  0  0
  4 20  1  0  0  0
  4 21  1  0  0  0
  5  6  1  0  0  0
  5  8  1  0  0  0
  5 49  1  0  0  0
  6  7  1  0  0  0
  6 22  1  0  0  0
  6 23  1  0  0  0
  7 24  1  0  0  0
  7 25  1  0  0  0
  8  9  1  0  0  0
  8 26  1  0  0  0
  8 27  1  0  0  0
  9 10  1  0  0  0
  9 14  2  0  0  0
 10 11  2  0  0  0
 10 28  1  0  0  0
 11 12  1  0  0  0
 11 29  1  0  0  0
 12 13  2  0  0  0
 12 30  1  0  0  0
 13 14  1  0  0  0
 13 31  1  0  0  0
 14 32  1  0  0  0
 33 34  1  0  0  0
 33 43  1  0  0  0
 33 44  1  0  0  0
 34 35  1  0  0  0
 34 51  1  0  0  0
 35 36  2  0  0  0
 35 37  1  0  0  0
 37 38  2  0  0  0
 37 42  1  0  0  0
 38 39  1  0  0  0
 38 45  1  0  0  0
 39 40  2  0  0  0
 39 46  1  0  0  0
 40 41  1  0  0  0
 40 47  1  0  0  0
 41 42  2  0  0  0
 41 48  1  0  0  0
 42 50  1  0  0  0
 50 51  2  0  0  0
 51 52  1  0  0  0
M  CHG  1   5   1
M  END
>  <ACTIVITY>
5.92

>  <SET>
2

>  <Min_dist>
0.18

>  <Avg_dist>
0.55

$$$$
1-35
  Cerius2 12110213523D 1   1.00000                          
Structure written by Cerius2 SD Exporter
 55 58  0  0  0  0  0  0  0  0999 V2000
    4.9012   63.6570   67.1245 C   0  0  0  0  0  0
    4.3855   65.0953   67.1679 C   0  0  0  0  0  0
    5.2770   66.2628   67.6398 C   0  0  0  0  0  0
    4.5857   67.6253   67.4818 C   0  0  0  0  0  0
    4.1925   67.8073   66.0805 N   0  3  0  0  0  0
    3.1996   66.8221   65.6392 C   0  0  0  0  0  0
    3.8229   65.4102   65.7568 C   0  0  0  0  0  0
    4.3302   69.1509   65.5151 C   0  0  0  0  0  0
    4.2612   69.1992   64.0021 C   0  0  0  0  0  0
    3.0583   69.6122   63.4103 C   0  0  0  0  0  0
    2.9137   69.6073   62.0214 C   0  0  0  0  0  0
    3.9685   69.1928   61.2101 C   0  0  0  0  0  0
    5.1698   68.7828   61.7855 C   0  0  0  0  0  0
    5.3166   68.7866   63.1737 C   0  0  0  0  0  0
    5.5383   63.3911   67.9873 H   0  0  0  0  0  0
    5.5118   63.4701   66.2240 H   0  0  0  0  0  0
    3.5310   65.0411   67.8689 H   0  0  0  0  0  0
    5.5824   66.1197   68.6906 H   0  0  0  0  0  0
    6.2068   66.2717   67.0398 H   0  0  0  0  0  0
    3.7145   67.7004   68.1590 H   0  0  0  0  0  0
    5.2829   68.4214   67.7923 H   0  0  0  0  0  0
    2.2727   66.8895   66.2384 H   0  0  0  0  0  0
    2.9028   66.9965   64.5928 H   0  0  0  0  0  0
    4.6504   65.3441   65.0247 H   0  0  0  0  0  0
    3.0777   64.6579   65.4492 H   0  0  0  0  0  0
    3.5737   69.8400   65.9317 H   0  0  0  0  0  0
    5.3143   69.5451   65.8234 H   0  0  0  0  0  0
    2.2062   69.9310   64.0444 H   0  0  0  0  0  0
    1.9555   69.9248   61.5679 H   0  0  0  0  0  0
    3.8512   69.1849   60.1094 H   0  0  0  0  0  0
    6.0072   68.4449   61.1453 H   0  0  0  0  0  0
    6.2681   68.4425   63.6279 H   0  0  0  0  0  0
    3.6505   62.7522   67.1188 C   0  0  0  0  0  0
    3.1076   62.6810   68.3724 N   0  0  0  0  0  0
    3.4351   61.5249   69.0750 C   0  0  0  0  0  0
    4.4126   60.8107   68.8753 O   0  0  0  0  0  0
    2.5357   61.1218   70.2239 C   0  0  0  0  0  0
    3.0195   60.2512   71.2219 C   0  0  0  0  0  0
    2.1930   59.8555   72.2714 C   0  0  0  0  0  0
    0.8721   60.3184   72.3258 C   0  0  0  0  0  0
    0.3899   61.1673   71.3269 C   0  0  0  0  0  0
    1.2103   61.5672   70.2666 C   0  0  0  0  0  0
    2.8904   63.0298   66.3777 H   0  0  0  0  0  0
    3.9249   61.7316   66.8036 H   0  0  0  0  0  0
    4.0627   59.8829   71.1794 H   0  0  0  0  0  0
    2.5743   59.1717   73.0555 H   0  0  0  0  0  0
    0.2090   60.0008   73.1551 H   0  0  0  0  0  0
   -0.6617   61.5173   71.3735 H   0  0  0  0  0  0
    4.9170   67.4352   65.6976 H   0  0  0  0  0  0
    0.7614   62.4735   69.1766 N   0  3  0  0  0  0
    1.8740   63.4025   68.7416 C   0  0  0  0  0  0
    0.4588   61.9262   68.3819 H   0  0  0  0  0  0
    1.5593   64.0510   67.9098 H   0  0  0  0  0  0
   -0.0478   63.0006   69.4668 H   0  0  0  0  0  0
    2.1095   64.0649   69.5935 H   0  0  0  0  0  0
  1  2  1  0  0  0
  1 15  1  0  0  0
  1 16  1  0  0  0
  1 33  1  0  0  0
  2  3  1  0  0  0
  2  7  1  0  0  0
  2 17  1  0  0  0
  3  4  1  0  0  0
  3 18  1  0  0  0
  3 19  1  0  0  0
  4  5  1  0  0  0
  4 20  1  0  0  0
  4 21  1  0  0  0
  5  6  1  0  0  0
  5  8  1  0  0  0
  5 49  1  0  0  0
  6  7  1  0  0  0
  6 22  1  0  0  0
  6 23  1  0  0  0
  7 24  1  0  0  0
  7 25  1  0  0  0
  8  9  1  0  0  0
  8 26  1  0  0  0
  8 27  1  0  0  0
  9 10  1  0  0  0
  9 14  2  0  0  0
 10 11  2  0  0  0
 10 28  1  0  0  0
 11 12  1  0  0  0
 11 29  1  0  0  0
 12 13  2  0  0  0
 12 30  1  0  0  0
 13 14  1  0  0  0
 13 31  1  0  0  0
 14 32  1  0  0  0
 33 34  1  0  0  0
 33 43  1  0  0  0
 33 44  1  0  0  0
 34 35  1  0  0  0
 34 51  1  0  0  0
 35 36  2  0  0  0
 35 37  1  0  0  0
 37 38  2  0  0  0
 37 42  1  0  0  0
 38 39  1  0  0  0
 38 45  1  0  0  0
 39 40  2  0  0  0
 39 46  1  0  0  0
 40 41  1  0  0  0
 40 47  1  0  0  0
 41 42  2  0  0  0
 41 48  1  0  0  0
 42 50  1  0  0  0
 50 51  1  0  0  0
 50 52  1  0  0  0
 50 54  1  0  0  0
 51 53  1  0  0  0
 51 55  1  0  0  0
M  CHG  2   5   1  50   1
M  END
>  <ACTIVITY>
6.1

>  <SET>
1

>  <Min_dist>
999.9

>  <Avg_dist>
999.9

$$$$
1-37
  Cerius2 12110213523D 1   1.00000                          
Structure written by Cerius2 SD Exporter
 53 56  0  0  0  0  0  0  0  0999 V2000
    4.9012   63.6570   67.1245 C   0  0  0  0  0  0
    4.3855   65.0953   67.1679 C   0  0  0  0  0  0
    5.2770   66.2628   67.6398 C   0  0  0  0  0  0
    4.5857   67.6253   67.4818 C   0  0  0  0  0  0
    4.1925   67.8073   66.0805 N   0  3  0  0  0  0
    3.1996   66.8221   65.6392 C   0  0  0  0  0  0
    3.8229   65.4102   65.7568 C   0  0  0  0  0  0
    4.3302   69.1509   65.5151 C   0  0  0  0  0  0
    4.2612   69.1992   64.0021 C   0  0  0  0  0  0
    3.0583   69.6122   63.4103 C   0  0  0  0  0  0
    2.9137   69.6073   62.0214 C   0  0  0  0  0  0
    3.9685   69.1928   61.2101 C   0  0  0  0  0  0
    5.1698   68.7828   61.7855 C   0  0  0  0  0  0
    5.3166   68.7866   63.1737 C   0  0  0  0  0  0
    5.5383   63.3911   67.9873 H   0  0  0  0  0  0
    5.5118   63.4701   66.2240 H   0  0  0  0  0  0
    3.5310   65.0411   67.8689 H   0  0  0  0  0  0
    5.5824   66.1197   68.6906 H   0  0  0  0  0  0
    6.2068   66.2717   67.0398 H   0  0  0  0  0  0
    3.7145   67.7004   68.1590 H   0  0  0  0  0  0
    5.2829   68.4214   67.7923 H   0  0  0  0  0  0
    2.2727   66.8895   66.2384 H   0  0  0  0  0  0
    2.9028   66.9965   64.5928 H   0  0  0  0  0  0
    4.6504   65.3441   65.0247 H   0  0  0  0  0  0
    3.0777   64.6579   65.4492 H   0  0  0  0  0  0
    3.5737   69.8400   65.9317 H   0  0  0  0  0  0
    5.3143   69.5451   65.8234 H   0  0  0  0  0  0
    2.2062   69.9310   64.0444 H   0  0  0  0  0  0
    1.9555   69.9248   61.5679 H   0  0  0  0  0  0
    3.8512   69.1849   60.1094 H   0  0  0  0  0  0
    6.0072   68.4449   61.1453 H   0  0  0  0  0  0
    6.2681   68.4425   63.6279 H   0  0  0  0  0  0
    3.6505   62.7522   67.1188 C   0  0  0  0  0  0
    3.1076   62.6810   68.3724 N   0  0  0  0  0  0
    3.4351   61.5249   69.0750 C   0  0  0  0  0  0
    4.4126   60.8107   68.8753 O   0  0  0  0  0  0
    2.5271   61.0972   70.2053 C   0  0  0  0  0  0
    2.7052   59.8180   70.7857 C   0  0  0  0  0  0
    1.8772   59.3821   71.8139 C   0  0  0  0  0  0
    0.8551   60.2189   72.2824 C   0  0  0  0  0  0
    0.6847   61.4807   71.7166 C   0  0  0  0  0  0
    1.5164   61.9318   70.6804 C   0  0  0  0  0  0
    2.8904   63.0298   66.3777 H   0  0  0  0  0  0
    3.9249   61.7316   66.8036 H   0  0  0  0  0  0
    3.5031   59.1421   70.4206 H   0  0  0  0  0  0
    2.0206   58.3772   72.2594 H   0  0  0  0  0  0
    0.1892   59.8765   73.0998 H   0  0  0  0  0  0
   -0.1240   62.1396   72.0959 H   0  0  0  0  0  0
    4.9170   67.4352   65.6976 H   0  0  0  0  0  0
    1.3348   63.1118   69.9074 N   0  0  0  0  0  0
    1.9377   63.4150   68.6739 C   0  0  0  0  0  0
    0.4511   63.6174   70.0216 H   0  0  0  0  0  0
    1.3896   64.1555   67.8629 O   0  0  0  0  0  0
  1  2  1  0  0  0
  1 15  1  0  0  0
  1 16  1  0  0  0
  1 33  1  0  0  0
  2  3  1  0  0  0
  2  7  1  0  0  0
  2 17  1  0  0  0
  3  4  1  0  0  0
  3 18  1  0  0  0
  3 19  1  0  0  0
  4  5  1  0  0  0
  4 20  1  0  0  0
  4 21  1  0  0  0
  5  6  1  0  0  0
  5  8  1  0  0  0
  5 49  1  0  0  0
  6  7  1  0  0  0
  6 22  1  0  0  0
  6 23  1  0  0  0
  7 24  1  0  0  0
  7 25  1  0  0  0
  8  9  1  0  0  0
  8 26  1  0  0  0
  8 27  1  0  0  0
  9 10  1  0  0  0
  9 14  2  0  0  0
 10 11  2  0  0  0
 10 28  1  0  0  0
 11 12  1  0  0  0
 11 29  1  0  0  0
 12 13  2  0  0  0
 12 30  1  0  0  0
 13 14  1  0  0  0
 13 31  1  0  0  0
 14 32  1  0  0  0
 33 34  1  0  0  0
 33 43  1  0  0  0
 33 44  1  0  0  0
 34 35  1  0  0  0
 34 51  1  0  0  0
 35 36  2  0  0  0
 35 37  1  0  0  0
 37 38  2  0  0  0
 37 42  1  0  0  0
 38 39  1  0  0  0
 38 45  1  0  0  0
 39 40  2  0  0  0
 39 46  1  0  0  0
 40 41  1  0  0  0
 40 47  1  0  0  0
 41 42  2  0  0  0
 41 48  1  0  0  0
 42 50  1  0  0  0
 50 51  1  0  0  0
 50 52  1  0  0  0
 51 53  2  0  0  0
M  CHG  1   5   1
M  END
>  <ACTIVITY>
8.38

>  <SET>
1

>  <Min_dist>
999.9

>  <Avg_dist>
999.9

$$$$
1-38
  Cerius2 12110213523D 1   1.00000                          
Structure written by Cerius2 SD Exporter
 54 57  0  0  0  0  0  0  0  0999 V2000
    4.9012   63.6570   67.1245 C   0  0  0  0  0  0
    4.3855   65.0953   67.1679 C   0  0  0  0  0  0
    5.2770   66.2628   67.6398 C   0  0  0  0  0  0
    4.5857   67.6253   67.4818 C   0  0  0  0  0  0
    4.1925   67.8073   66.0805 N   0  3  0  0  0  0
    3.1996   66.8221   65.6392 C   0  0  0  0  0  0
    3.8229   65.4102   65.7568 C   0  0  0  0  0  0
    4.3302   69.1509   65.5151 C   0  0  0  0  0  0
    4.2612   69.1992   64.0021 C   0  0  0  0  0  0
    3.0583   69.6122   63.4103 C   0  0  0  0  0  0
    2.9137   69.6073   62.0214 C   0  0  0  0  0  0
    3.9685   69.1928   61.2101 C   0  0  0  0  0  0
    5.1698   68.7828   61.7855 C   0  0  0  0  0  0
    5.3166   68.7866   63.1737 C   0  0  0  0  0  0
    5.5383   63.3911   67.9873 H   0  0  0  0  0  0
    5.5118   63.4701   66.2240 H   0  0  0  0  0  0
    3.5310   65.0411   67.8689 H   0  0  0  0  0  0
    5.5824   66.1197   68.6906 H   0  0  0  0  0  0
    6.2068   66.2717   67.0398 H   0  0  0  0  0  0
    3.7145   67.7004   68.1590 H   0  0  0  0  0  0
    5.2829   68.4214   67.7923 H   0  0  0  0  0  0
    2.2727   66.8895   66.2384 H   0  0  0  0  0  0
    2.9028   66.9965   64.5928 H   0  0  0  0  0  0
    4.6504   65.3441   65.0247 H   0  0  0  0  0  0
    3.0777   64.6579   65.4492 H   0  0  0  0  0  0
    3.5737   69.8400   65.9317 H   0  0  0  0  0  0
    5.3143   69.5451   65.8234 H   0  0  0  0  0  0
    2.2062   69.9310   64.0444 H   0  0  0  0  0  0
    1.9555   69.9248   61.5679 H   0  0  0  0  0  0
    3.8512   69.1849   60.1094 H   0  0  0  0  0  0
    6.0072   68.4449   61.1453 H   0  0  0  0  0  0
    6.2681   68.4425   63.6279 H   0  0  0  0  0  0
    3.6505   62.7522   67.1188 C   0  0  0  0  0  0
    3.1076   62.6810   68.3724 N   0  0  0  0  0  0
    3.4351   61.5249   69.0750 C   0  0  0  0  0  0
    4.4126   60.8107   68.8753 O   0  0  0  0  0  0
    2.4621   61.2936   70.1594 N   0  0  0  0  0  0
    0.6242   62.2902   71.6624 C   0  0  0  0  0  0
    1.2694   62.1593   70.4254 C   0  0  0  0  0  0
    2.8904   63.0298   66.3777 H   0  0  0  0  0  0
    3.9249   61.7316   66.8036 H   0  0  0  0  0  0
    0.9645   61.6830   72.5267 H   0  0  0  0  0  0
    4.9170   67.4352   65.6976 H   0  0  0  0  0  0
    0.8375   62.9228   69.3505 C   0  0  0  0  0  0
    1.6009   62.7079   68.0668 C   0  0  0  0  0  0
   -0.2345   63.8115   69.5002 C   0  0  0  0  0  0
   -0.8781   63.9378   70.7316 C   0  0  0  0  0  0
   -0.4446   63.1719   71.8203 C   0  0  0  0  0  0
   -0.5851   64.4135   68.6376 H   0  0  0  0  0  0
   -1.7305   64.6348   70.8502 H   0  0  0  0  0  0
   -0.9487   63.2627   72.8021 H   0  0  0  0  0  0
    2.6894   60.5279   70.7686 H   0  0  0  0  0  0
    1.2971   63.3621   67.1015 H   0  0  0  0  0  0
    1.3185   61.6914   67.7136 H   0  0  0  0  0  0
  1  2  1  0  0  0
  1 15  1  0  0  0
  1 16  1  0  0  0
  1 33  1  0  0  0
  2  3  1  0  0  0
  2  7  1  0  0  0
  2 17  1  0  0  0
  3  4  1  0  0  0
  3 18  1  0  0  0
  3 19  1  0  0  0
  4  5  1  0  0  0
  4 20  1  0  0  0
  4 21  1  0  0  0
  5  6  1  0  0  0
  5  8  1  0  0  0
  5 43  1  0  0  0
  6  7  1  0  0  0
  6 22  1  0  0  0
  6 23  1  0  0  0
  7 24  1  0  0  0
  7 25  1  0  0  0
  8  9  1  0  0  0
  8 26  1  0  0  0
  8 27  1  0  0  0
  9 10  1  0  0  0
  9 14  2  0  0  0
 10 11  2  0  0  0
 10 28  1  0  0  0
 11 12  1  0  0  0
 11 29  1  0  0  0
 12 13  2  0  0  0
 12 30  1  0  0  0
 13 14  1  0  0  0
 13 31  1  0  0  0
 14 32  1  0  0  0
 33 34  1  0  0  0
 33 40  1  0  0  0
 33 41  1  0  0  0
 34 35  1  0  0  0
 34 45  1  0  0  0
 35 36  2  0  0  0
 35 37  1  0  0  0
 37 39  1  0  0  0
 37 52  1  0  0  0
 38 39  1  0  0  0
 38 42  1  0  0  0
 38 48  2  0  0  0
 39 44  2  0  0  0
 44 45  1  0  0  0
 44 46  1  0  0  0
 45 53  1  0  0  0
 45 54  1  0  0  0
 46 47  2  0  0  0
 46 49  1  0  0  0
 47 48  1  0  0  0
 47 50  1  0  0  0
 48 51  1  0  0  0
M  CHG  1   5   1
M  END
>  <ACTIVITY>
7.89

>  <SET>
2

>  <Min_dist>
0.13

>  <Avg_dist>
0.51

$$$$
1-39
  Cerius2 12110213523D 1   1.00000                          
Structure written by Cerius2 SD Exporter
 53 56  0  0  0  0  0  0  0  0999 V2000
    4.9012   63.6570   67.1245 C   0  0  0  0  0  0
    4.3855   65.0953   67.1679 C   0  0  0  0  0  0
    5.2770   66.2628   67.6398 C   0  0  0  0  0  0
    4.5857   67.6253   67.4818 C   0  0  0  0  0  0
    4.1925   67.8073   66.0805 N   0  3  0  0  0  0
    3.1996   66.8221   65.6392 C   0  0  0  0  0  0
    3.8229   65.4102   65.7568 C   0  0  0  0  0  0
    4.3302   69.1509   65.5151 C   0  0  0  0  0  0
    4.2612   69.1992   64.0021 C   0  0  0  0  0  0
    3.0583   69.6122   63.4103 C   0  0  0  0  0  0
    2.9137   69.6073   62.0214 C   0  0  0  0  0  0
    3.9685   69.1928   61.2101 C   0  0  0  0  0  0
    5.1698   68.7828   61.7855 C   0  0  0  0  0  0
    5.3166   68.7866   63.1737 C   0  0  0  0  0  0
    5.5383   63.3911   67.9873 H   0  0  0  0  0  0
    5.5118   63.4701   66.2240 H   0  0  0  0  0  0
    3.5310   65.0411   67.8689 H   0  0  0  0  0  0
    5.5824   66.1197   68.6906 H   0  0  0  0  0  0
    6.2068   66.2717   67.0398 H   0  0  0  0  0  0
    3.7145   67.7004   68.1590 H   0  0  0  0  0  0
    5.2829   68.4214   67.7923 H   0  0  0  0  0  0
    2.2727   66.8895   66.2384 H   0  0  0  0  0  0
    2.9028   66.9965   64.5928 H   0  0  0  0  0  0
    4.6504   65.3441   65.0247 H   0  0  0  0  0  0
    3.0777   64.6579   65.4492 H   0  0  0  0  0  0
    3.5737   69.8400   65.9317 H   0  0  0  0  0  0
    5.3143   69.5451   65.8234 H   0  0  0  0  0  0
    2.2062   69.9310   64.0444 H   0  0  0  0  0  0
    1.9555   69.9248   61.5679 H   0  0  0  0  0  0
    3.8512   69.1849   60.1094 H   0  0  0  0  0  0
    6.0072   68.4449   61.1453 H   0  0  0  0  0  0
    6.2681   68.4425   63.6279 H   0  0  0  0  0  0
    3.6505   62.7522   67.1188 C   0  0  0  0  0  0
    3.1076   62.6810   68.3724 N   0  0  0  0  0  0
    3.4351   61.5249   69.0750 C   0  0  0  0  0  0
    4.4126   60.8107   68.8753 O   0  0  0  0  0  0
    2.5271   61.0972   70.2053 C   0  0  0  0  0  0
    2.7052   59.8180   70.7857 C   0  0  0  0  0  0
    1.8772   59.3821   71.8139 C   0  0  0  0  0  0
    0.8551   60.2189   72.2824 C   0  0  0  0  0  0
    0.6847   61.4807   71.7166 C   0  0  0  0  0  0
    1.5164   61.9318   70.6804 C   0  0  0  0  0  0
    2.8904   63.0298   66.3777 H   0  0  0  0  0  0
    3.9249   61.7316   66.8036 H   0  0  0  0  0  0
    3.5031   59.1421   70.4206 H   0  0  0  0  0  0
    2.0206   58.3772   72.2594 H   0  0  0  0  0  0
   -0.1831   59.6982   73.5551 Cl  0  0  0  0  0  0
   -0.1240   62.1396   72.0959 H   0  0  0  0  0  0
    4.9170   67.4352   65.6976 H   0  0  0  0  0  0
    1.3348   63.1118   69.9074 N   0  0  0  0  0  0
    1.9377   63.4150   68.6739 C   0  0  0  0  0  0
    0.4511   63.6174   70.0216 H   0  0  0  0  0  0
    1.3896   64.1555   67.8629 O   0  0  0  0  0  0
  1  2  1  0  0  0
  1 15  1  0  0  0
  1 16  1  0  0  0
  1 33  1  0  0  0
  2  3  1  0  0  0
  2  7  1  0  0  0
  2 17  1  0  0  0
  3  4  1  0  0  0
  3 18  1  0  0  0
  3 19  1  0  0  0
  4  5  1  0  0  0
  4 20  1  0  0  0
  4 21  1  0  0  0
  5  6  1  0  0  0
  5  8  1  0  0  0
  5 49  1  0  0  0
  6  7  1  0  0  0
  6 22  1  0  0  0
  6 23  1  0  0  0
  7 24  1  0  0  0
  7 25  1  0  0  0
  8  9  1  0  0  0
  8 26  1  0  0  0
  8 27  1  0  0  0
  9 10  1  0  0  0
  9 14  2  0  0  0
 10 11  2  0  0  0
 10 28  1  0  0  0
 11 12  1  0  0  0
 11 29  1  0  0  0
 12 13  2  0  0  0
 12 30  1  0  0  0
 13 14  1  0  0  0
 13 31  1  0  0  0
 14 32  1  0  0  0
 33 34  1  0  0  0
 33 43  1  0  0  0
 33 44  1  0  0  0
 34 35  1  0  0  0
 34 51  1  0  0  0
 35 36  2  0  0  0
 35 37  1  0  0  0
 37 38  2  0  0  0
 37 42  1  0  0  0
 38 39  1  0  0  0
 38 45  1  0  0  0
 39 40  2  0  0  0
 39 46  1  0  0  0
 40 41  1  0  0  0
 40 47  1  0  0  0
 41 42  2  0  0  0
 41 48  1  0  0  0
 42 50  1  0  0  0
 50 51  1  0  0  0
 50 52  1  0  0  0
 51 53  2  0  0  0
M  CHG  1   5   1
M  END
>  <ACTIVITY>
8.35

>  <SET>
2

>  <Min_dist>
0.07

>  <Avg_dist>
0.53

$$$$
1-3a
  Cerius2 12110213523D 1   1.00000                          
Structure written by Cerius2 SD Exporter
 61 64  0  0  0  0  0  0  0  0999 V2000
    5.1741   63.7666   67.2298 C   0  0  0  0  0  0
    4.3855   65.0953   67.1679 C   0  0  0  0  0  0
    5.2770   66.2628   67.6398 C   0  0  0  0  0  0
    4.5857   67.6253   67.4818 C   0  0  0  0  0  0
    4.1925   67.8073   66.0805 N   0  3  0  0  0  0
    3.1996   66.8221   65.6392 C   0  0  0  0  0  0
    3.8229   65.4102   65.7568 C   0  0  0  0  0  0
    4.3302   69.1509   65.5151 C   0  0  0  0  0  0
    4.2612   69.1992   64.0021 C   0  0  0  0  0  0
    3.0583   69.6122   63.4103 C   0  0  0  0  0  0
    2.9137   69.6073   62.0214 C   0  0  0  0  0  0
    3.9685   69.1928   61.2101 C   0  0  0  0  0  0
    5.1698   68.7828   61.7855 C   0  0  0  0  0  0
    5.3166   68.7866   63.1737 C   0  0  0  0  0  0
    5.6679   63.6802   68.2153 H   0  0  0  0  0  0
    5.9893   63.7965   66.4837 H   0  0  0  0  0  0
    3.5310   65.0411   67.8689 H   0  0  0  0  0  0
    5.5824   66.1197   68.6906 H   0  0  0  0  0  0
    6.2068   66.2717   67.0398 H   0  0  0  0  0  0
    3.7145   67.7004   68.1590 H   0  0  0  0  0  0
    5.2829   68.4214   67.7923 H   0  0  0  0  0  0
    2.2727   66.8895   66.2384 H   0  0  0  0  0  0
    2.9028   66.9965   64.5928 H   0  0  0  0  0  0
    4.6504   65.3441   65.0247 H   0  0  0  0  0  0
    3.0777   64.6579   65.4492 H   0  0  0  0  0  0
    3.5737   69.8400   65.9317 H   0  0  0  0  0  0
    5.3143   69.5451   65.8234 H   0  0  0  0  0  0
    2.2062   69.9310   64.0444 H   0  0  0  0  0  0
    1.9555   69.9248   61.5679 H   0  0  0  0  0  0
    3.8512   69.1849   60.1094 H   0  0  0  0  0  0
    6.0072   68.4449   61.1453 H   0  0  0  0  0  0
    6.2681   68.4425   63.6279 H   0  0  0  0  0  0
    4.3640   62.4886   66.9831 C   0  0  0  0  0  0
    3.3310   62.2808   67.9859 N   0  0  0  0  0  0
    3.5065   61.3987   69.0541 C   0  0  0  0  0  0
    4.5000   60.6868   69.1648 O   0  0  0  0  0  0
    2.3360   61.2610   69.9910 C   0  0  0  0  0  0
    1.6635   62.3620   70.5477 C   0  0  0  0  0  0
    0.5511   62.1510   71.3717 C   0  0  0  0  0  0
    0.0779   60.8542   71.6144 C   0  0  0  0  0  0
    0.7186   59.7598   71.0147 C   0  0  0  0  0  0
    1.8345   59.9629   70.1974 C   0  0  0  0  0  0
    3.8980   62.5103   65.9824 H   0  0  0  0  0  0
    5.0400   61.6176   66.9795 H   0  0  0  0  0  0
    1.9908   63.3965   70.3365 H   0  0  0  0  0  0
    0.0324   63.0186   71.8235 H   0  0  0  0  0  0
   -0.8105   60.6972   72.2562 H   0  0  0  0  0  0
    0.3312   58.7358   71.1801 H   0  0  0  0  0  0
    2.3313   59.0997   69.7146 H   0  0  0  0  0  0
    4.9170   67.4352   65.6976 H   0  0  0  0  0  0
    2.1042   62.9814   67.6870 C   0  0  0  0  0  0
    1.8528   64.2567   68.2543 C   0  0  0  0  0  0
    2.5775   64.7082   68.9631 H   0  0  0  0  0  0
    0.6840   64.9680   67.9645 C   0  0  0  0  0  0
    0.5083   65.9542   68.4393 H   0  0  0  0  0  0
   -0.2705   64.4289   67.0940 C   0  0  0  0  0  0
   -1.2049   64.9815   66.8771 H   0  0  0  0  0  0
   -0.0553   63.1639   66.5409 C   0  0  0  0  0  0
   -0.8215   62.7141   65.8773 H   0  0  0  0  0  0
    1.1155   62.4477   66.8318 C   0  0  0  0  0  0
    1.2206   61.4326   66.3976 H   0  0  0  0  0  0
  1  2  1  0  0  0
  1 15  1  0  0  0
  1 16  1  0  0  0
  1 33  1  0  0  0
  2  3  1  0  0  0
  2  7  1  0  0  0
  2 17  1  0  0  0
  3  4  1  0  0  0
  3 18  1  0  0  0
  3 19  1  0  0  0
  4  5  1  0  0  0
  4 20  1  0  0  0
  4 21  1  0  0  0
  5  6  1  0  0  0
  5  8  1  0  0  0
  5 50  1  0  0  0
  6  7  1  0  0  0
  6 22  1  0  0  0
  6 23  1  0  0  0
  7 24  1  0  0  0
  7 25  1  0  0  0
  8  9  1  0  0  0
  8 26  1  0  0  0
  8 27  1  0  0  0
  9 10  1  0  0  0
  9 14  2  0  0  0
 10 11  2  0  0  0
 10 28  1  0  0  0
 11 12  1  0  0  0
 11 29  1  0  0  0
 12 13  2  0  0  0
 12 30  1  0  0  0
 13 14  1  0  0  0
 13 31  1  0  0  0
 14 32  1  0  0  0
 33 34  1  0  0  0
 33 43  1  0  0  0
 33 44  1  0  0  0
 34 35  1  0  0  0
 34 51  1  0  0  0
 35 36  2  0  0  0
 35 37  1  0  0  0
 37 38  2  0  0  0
 37 42  1  0  0  0
 38 39  1  0  0  0
 38 45  1  0  0  0
 39 40  2  0  0  0
 39 46  1  0  0  0
 40 41  1  0  0  0
 40 47  1  0  0  0
 41 42  2  0  0  0
 41 48  1  0  0  0
 42 49  1  0  0  0
 51 52  1  0  0  0
 51 60  2  0  0  0
 52 53  1  0  0  0
 52 54  2  0  0  0
 54 55  1  0  0  0
 54 56  1  0  0  0
 56 57  1  0  0  0
 56 58  2  0  0  0
 58 59  1  0  0  0
 58 60  1  0  0  0
 60 61  1  0  0  0
M  CHG  1   5   1
M  END
>  <ACTIVITY>
7.46

>  <SET>
1

>  <Min_dist>
999.9

>  <Avg_dist>
999.9

$$$$
1-3b
  Cerius2 12110213523D 1   1.00000                          
Structure written by Cerius2 SD Exporter
 65 68  0  0  0  0  0  0  0  0999 V2000
    5.1741   63.7666   67.2298 C   0  0  0  0  0  0
    4.3855   65.0953   67.1679 C   0  0  0  0  0  0
    5.2770   66.2628   67.6398 C   0  0  0  0  0  0
    4.5857   67.6253   67.4818 C   0  0  0  0  0  0
    4.1925   67.8073   66.0805 N   0  3  0  0  0  0
    3.1996   66.8221   65.6392 C   0  0  0  0  0  0
    3.8229   65.4102   65.7568 C   0  0  0  0  0  0
    4.3302   69.1509   65.5151 C   0  0  0  0  0  0
    4.2612   69.1992   64.0021 C   0  0  0  0  0  0
    3.0583   69.6122   63.4103 C   0  0  0  0  0  0
    2.9137   69.6073   62.0214 C   0  0  0  0  0  0
    3.9685   69.1928   61.2101 C   0  0  0  0  0  0
    5.1698   68.7828   61.7855 C   0  0  0  0  0  0
    5.3166   68.7866   63.1737 C   0  0  0  0  0  0
    5.6679   63.6802   68.2153 H   0  0  0  0  0  0
    5.9893   63.7965   66.4837 H   0  0  0  0  0  0
    3.5310   65.0411   67.8689 H   0  0  0  0  0  0
    5.5824   66.1197   68.6906 H   0  0  0  0  0  0
    6.2068   66.2717   67.0398 H   0  0  0  0  0  0
    3.7145   67.7004   68.1590 H   0  0  0  0  0  0
    5.2829   68.4214   67.7923 H   0  0  0  0  0  0
    2.2727   66.8895   66.2384 H   0  0  0  0  0  0
    2.9028   66.9965   64.5928 H   0  0  0  0  0  0
    4.6504   65.3441   65.0247 H   0  0  0  0  0  0
    3.0777   64.6579   65.4492 H   0  0  0  0  0  0
    3.5737   69.8400   65.9317 H   0  0  0  0  0  0
    5.3143   69.5451   65.8234 H   0  0  0  0  0  0
    2.2062   69.9310   64.0444 H   0  0  0  0  0  0
    1.9555   69.9248   61.5679 H   0  0  0  0  0  0
    3.8512   69.1849   60.1094 H   0  0  0  0  0  0
    6.0072   68.4449   61.1453 H   0  0  0  0  0  0
    6.2681   68.4425   63.6279 H   0  0  0  0  0  0
    4.3640   62.4886   66.9831 C   0  0  0  0  0  0
    3.3310   62.2808   67.9859 N   0  0  0  0  0  0
    3.5065   61.3987   69.0541 C   0  0  0  0  0  0
    4.5000   60.6868   69.1648 O   0  0  0  0  0  0
    2.3360   61.2610   69.9910 C   0  0  0  0  0  0
    1.6590   62.3550   70.5512 C   0  0  0  0  0  0
    0.5663   62.1395   71.3834 C   0  0  0  0  0  0
    0.0869   60.8319   71.6360 C   0  0  0  0  0  0
    0.7216   59.7489   71.0235 C   0  0  0  0  0  0
    1.8318   59.9743   70.1987 C   0  0  0  0  0  0
    3.8980   62.5103   65.9824 H   0  0  0  0  0  0
    5.0400   61.6176   66.9795 H   0  0  0  0  0  0
    1.9780   63.3930   70.3382 H   0  0  0  0  0  0
    0.0411   62.9949   71.8513 H   0  0  0  0  0  0
   -0.9920   60.7271   72.4665 O   0  0  0  0  0  0
    0.3559   58.7167   71.1762 H   0  0  0  0  0  0
    2.3299   59.1128   69.7103 H   0  0  0  0  0  0
    4.9170   67.4352   65.6976 H   0  0  0  0  0  0
   -1.6915   59.4952   72.6087 C   0  0  0  0  0  0
   -2.5434   59.6971   73.2732 H   0  0  0  0  0  0
   -2.0754   59.1296   71.6437 H   0  0  0  0  0  0
   -1.0619   58.7162   73.0643 H   0  0  0  0  0  0
    2.1068   62.9869   67.6888 C   0  0  0  0  0  0
    1.8614   64.2633   68.2571 C   0  0  0  0  0  0
    2.5905   64.7121   68.9632 H   0  0  0  0  0  0
    0.6943   64.9785   67.9713 C   0  0  0  0  0  0
    0.5231   65.9651   68.4469 H   0  0  0  0  0  0
   -0.2648   64.4428   67.1035 C   0  0  0  0  0  0
   -1.1981   64.9984   66.8901 H   0  0  0  0  0  0
   -0.0554   63.1774   66.5492 C   0  0  0  0  0  0
   -0.8253   62.7304   65.8880 H   0  0  0  0  0  0
    1.1139   62.4570   66.8363 C   0  0  0  0  0  0
    1.2140   61.4417   66.4015 H   0  0  0  0  0  0
  1  2  1  0  0  0
  1 15  1  0  0  0
  1 16  1  0  0  0
  1 33  1  0  0  0
  2  3  1  0  0  0
  2  7  1  0  0  0
  2 17  1  0  0  0
  3  4  1  0  0  0
  3 18  1  0  0  0
  3 19  1  0  0  0
  4  5  1  0  0  0
  4 20  1  0  0  0
  4 21  1  0  0  0
  5  6  1  0  0  0
  5  8  1  0  0  0
  5 50  1  0  0  0
  6  7  1  0  0  0
  6 22  1  0  0  0
  6 23  1  0  0  0
  7 24  1  0  0  0
  7 25  1  0  0  0
  8  9  1  0  0  0
  8 26  1  0  0  0
  8 27  1  0  0  0
  9 10  1  0  0  0
  9 14  2  0  0  0
 10 11  2  0  0  0
 10 28  1  0  0  0
 11 12  1  0  0  0
 11 29  1  0  0  0
 12 13  2  0  0  0
 12 30  1  0  0  0
 13 14  1  0  0  0
 13 31  1  0  0  0
 14 32  1  0  0  0
 33 34  1  0  0  0
 33 43  1  0  0  0
 33 44  1  0  0  0
 34 35  1  0  0  0
 34 55  1  0  0  0
 35 36  2  0  0  0
 35 37  1  0  0  0
 37 38  2  0  0  0
 37 42  1  0  0  0
 38 39  1  0  0  0
 38 45  1  0  0  0
 39 40  2  0  0  0
 39 46  1  0  0  0
 40 41  1  0  0  0
 40 47  1  0  0  0
 41 42  2  0  0  0
 41 48  1  0  0  0
 42 49  1  0  0  0
 47 51  1  0  0  0
 51 52  1  0  0  0
 51 53  1  0  0  0
 51 54  1  0  0  0
 55 56  1  0  0  0
 55 64  2  0  0  0
 56 57  1  0  0  0
 56 58  2  0  0  0
 58 59  1  0  0  0
 58 60  1  0  0  0
 60 61  1  0  0  0
 60 62  2  0  0  0
 62 63  1  0  0  0
 62 64  1  0  0  0
 64 65  1  0  0  0
M  CHG  1   5   1
M  END
>  <ACTIVITY>
6.23

>  <SET>
1

>  <Min_dist>
999.9

>  <Avg_dist>
999.9

$$$$
1-3c
  Cerius2 12110213523D 1   1.00000                          
Structure written by Cerius2 SD Exporter
 61 64  0  0  0  0  0  0  0  0999 V2000
    5.1741   63.7666   67.2298 C   0  0  0  0  0  0
    4.3855   65.0953   67.1679 C   0  0  0  0  0  0
    5.2770   66.2628   67.6398 C   0  0  0  0  0  0
    4.5857   67.6253   67.4818 C   0  0  0  0  0  0
    4.1925   67.8073   66.0805 N   0  3  0  0  0  0
    3.1996   66.8221   65.6392 C   0  0  0  0  0  0
    3.8229   65.4102   65.7568 C   0  0  0  0  0  0
    4.3302   69.1509   65.5151 C   0  0  0  0  0  0
    4.2612   69.1992   64.0021 C   0  0  0  0  0  0
    3.0583   69.6122   63.4103 C   0  0  0  0  0  0
    2.9137   69.6073   62.0214 C   0  0  0  0  0  0
    3.9685   69.1928   61.2101 C   0  0  0  0  0  0
    5.1698   68.7828   61.7855 C   0  0  0  0  0  0
    5.3166   68.7866   63.1737 C   0  0  0  0  0  0
    5.6679   63.6802   68.2153 H   0  0  0  0  0  0
    5.9893   63.7965   66.4837 H   0  0  0  0  0  0
    3.5310   65.0411   67.8689 H   0  0  0  0  0  0
    5.5824   66.1197   68.6906 H   0  0  0  0  0  0
    6.2068   66.2717   67.0398 H   0  0  0  0  0  0
    3.7145   67.7004   68.1590 H   0  0  0  0  0  0
    5.2829   68.4214   67.7923 H   0  0  0  0  0  0
    2.2727   66.8895   66.2384 H   0  0  0  0  0  0
    2.9028   66.9965   64.5928 H   0  0  0  0  0  0
    4.6504   65.3441   65.0247 H   0  0  0  0  0  0
    3.0777   64.6579   65.4492 H   0  0  0  0  0  0
    3.5737   69.8400   65.9317 H   0  0  0  0  0  0
    5.3143   69.5451   65.8234 H   0  0  0  0  0  0
    2.2062   69.9310   64.0444 H   0  0  0  0  0  0
    1.9555   69.9248   61.5679 H   0  0  0  0  0  0
    3.8512   69.1849   60.1094 H   0  0  0  0  0  0
    6.0072   68.4449   61.1453 H   0  0  0  0  0  0
    6.2681   68.4425   63.6279 H   0  0  0  0  0  0
    4.3640   62.4886   66.9831 C   0  0  0  0  0  0
    3.3310   62.2808   67.9859 N   0  0  0  0  0  0
    3.5065   61.3987   69.0541 C   0  0  0  0  0  0
    4.5000   60.6868   69.1648 O   0  0  0  0  0  0
    2.3360   61.2610   69.9910 C   0  0  0  0  0  0
    1.6590   62.3550   70.5512 C   0  0  0  0  0  0
    0.5663   62.1395   71.3834 C   0  0  0  0  0  0
    0.0869   60.8319   71.6360 C   0  0  0  0  0  0
    0.7216   59.7489   71.0235 C   0  0  0  0  0  0
    1.8318   59.9743   70.1987 C   0  0  0  0  0  0
    3.8980   62.5103   65.9824 H   0  0  0  0  0  0
    5.0400   61.6176   66.9795 H   0  0  0  0  0  0
    1.9780   63.3930   70.3382 H   0  0  0  0  0  0
    0.0411   62.9949   71.8513 H   0  0  0  0  0  0
    0.3559   58.7167   71.1762 H   0  0  0  0  0  0
    2.3299   59.1128   69.7103 H   0  0  0  0  0  0
    4.9170   67.4352   65.6976 H   0  0  0  0  0  0
    2.1068   62.9869   67.6888 C   0  0  0  0  0  0
    1.8614   64.2633   68.2571 C   0  0  0  0  0  0
    2.5905   64.7121   68.9632 H   0  0  0  0  0  0
    0.6943   64.9785   67.9713 C   0  0  0  0  0  0
    0.5231   65.9651   68.4469 H   0  0  0  0  0  0
   -0.2648   64.4428   67.1035 C   0  0  0  0  0  0
   -1.1981   64.9984   66.8901 H   0  0  0  0  0  0
   -0.0554   63.1774   66.5492 C   0  0  0  0  0  0
   -0.8253   62.7304   65.8880 H   0  0  0  0  0  0
    1.1139   62.4570   66.8363 C   0  0  0  0  0  0
    1.2140   61.4417   66.4015 H   0  0  0  0  0  0
   -0.9691   60.6448   72.4522 F   0  0  0  0  0  0
  1  2  1  0  0  0
  1 15  1  0  0  0
  1 16  1  0  0  0
  1 33  1  0  0  0
  2  3  1  0  0  0
  2  7  1  0  0  0
  2 17  1  0  0  0
  3  4  1  0  0  0
  3 18  1  0  0  0
  3 19  1  0  0  0
  4  5  1  0  0  0
  4 20  1  0  0  0
  4 21  1  0  0  0
  5  6  1  0  0  0
  5  8  1  0  0  0
  5 49  1  0  0  0
  6  7  1  0  0  0
  6 22  1  0  0  0
  6 23  1  0  0  0
  7 24  1  0  0  0
  7 25  1  0  0  0
  8  9  1  0  0  0
  8 26  1  0  0  0
  8 27  1  0  0  0
  9 10  1  0  0  0
  9 14  2  0  0  0
 10 11  2  0  0  0
 10 28  1  0  0  0
 11 12  1  0  0  0
 11 29  1  0  0  0
 12 13  2  0  0  0
 12 30  1  0  0  0
 13 14  1  0  0  0
 13 31  1  0  0  0
 14 32  1  0  0  0
 33 34  1  0  0  0
 33 43  1  0  0  0
 33 44  1  0  0  0
 34 35  1  0  0  0
 34 50  1  0  0  0
 35 36  2  0  0  0
 35 37  1  0  0  0
 37 38  2  0  0  0
 37 42  1  0  0  0
 38 39  1  0  0  0
 38 45  1  0  0  0
 39 40  2  0  0  0
 39 46  1  0  0  0
 40 41  1  0  0  0
 40 61  1  0  0  0
 41 42  2  0  0  0
 41 47  1  0  0  0
 42 48  1  0  0  0
 50 51  1  0  0  0
 50 59  2  0  0  0
 51 52  1  0  0  0
 51 53  2  0  0  0
 53 54  1  0  0  0
 53 55  1  0  0  0
 55 56  1  0  0  0
 55 57  2  0  0  0
 57 58  1  0  0  0
 57 59  1  0  0  0
 59 60  1  0  0  0
M  CHG  1   5   1
M  END
>  <ACTIVITY>
7.74

>  <SET>
1

>  <Min_dist>
999.9

>  <Avg_dist>
999.9

$$$$
1-3d
  Cerius2 12110213523D 1   1.00000                          
Structure written by Cerius2 SD Exporter
 63 66  0  0  0  0  0  0  0  0999 V2000
    5.1741   63.7666   67.2298 C   0  0  0  0  0  0
    4.3855   65.0953   67.1679 C   0  0  0  0  0  0
    5.2770   66.2628   67.6398 C   0  0  0  0  0  0
    4.5857   67.6253   67.4818 C   0  0  0  0  0  0
    4.1925   67.8073   66.0805 N   0  3  0  0  0  0
    3.1996   66.8221   65.6392 C   0  0  0  0  0  0
    3.8229   65.4102   65.7568 C   0  0  0  0  0  0
    4.3302   69.1509   65.5151 C   0  0  0  0  0  0
    4.2612   69.1992   64.0021 C   0  0  0  0  0  0
    3.0583   69.6122   63.4103 C   0  0  0  0  0  0
    2.9137   69.6073   62.0214 C   0  0  0  0  0  0
    3.9685   69.1928   61.2101 C   0  0  0  0  0  0
    5.1698   68.7828   61.7855 C   0  0  0  0  0  0
    5.3166   68.7866   63.1737 C   0  0  0  0  0  0
    5.6679   63.6802   68.2153 H   0  0  0  0  0  0
    5.9893   63.7965   66.4837 H   0  0  0  0  0  0
    3.5310   65.0411   67.8689 H   0  0  0  0  0  0
    5.5824   66.1197   68.6906 H   0  0  0  0  0  0
    6.2068   66.2717   67.0398 H   0  0  0  0  0  0
    3.7145   67.7004   68.1590 H   0  0  0  0  0  0
    5.2829   68.4214   67.7923 H   0  0  0  0  0  0
    2.2727   66.8895   66.2384 H   0  0  0  0  0  0
    2.9028   66.9965   64.5928 H   0  0  0  0  0  0
    4.6504   65.3441   65.0247 H   0  0  0  0  0  0
    3.0777   64.6579   65.4492 H   0  0  0  0  0  0
    3.5737   69.8400   65.9317 H   0  0  0  0  0  0
    5.3143   69.5451   65.8234 H   0  0  0  0  0  0
    2.2062   69.9310   64.0444 H   0  0  0  0  0  0
    1.9555   69.9248   61.5679 H   0  0  0  0  0  0
    3.8512   69.1849   60.1094 H   0  0  0  0  0  0
    6.0072   68.4449   61.1453 H   0  0  0  0  0  0
    6.2681   68.4425   63.6279 H   0  0  0  0  0  0
    4.3640   62.4886   66.9831 C   0  0  0  0  0  0
    3.3310   62.2808   67.9859 N   0  0  0  0  0  0
    3.5065   61.3987   69.0541 C   0  0  0  0  0  0
    4.5000   60.6868   69.1648 O   0  0  0  0  0  0
    2.3360   61.2610   69.9910 C   0  0  0  0  0  0
    1.6635   62.3620   70.5477 C   0  0  0  0  0  0
    0.5511   62.1510   71.3717 C   0  0  0  0  0  0
    0.0779   60.8542   71.6144 C   0  0  0  0  0  0
    0.7186   59.7598   71.0147 C   0  0  0  0  0  0
    1.8345   59.9629   70.1974 C   0  0  0  0  0  0
    3.8980   62.5103   65.9824 H   0  0  0  0  0  0
    5.0400   61.6176   66.9795 H   0  0  0  0  0  0
    1.9908   63.3965   70.3365 H   0  0  0  0  0  0
    0.0324   63.0186   71.8235 H   0  0  0  0  0  0
    0.3312   58.7358   71.1801 H   0  0  0  0  0  0
    2.3313   59.0997   69.7146 H   0  0  0  0  0  0
    4.9170   67.4352   65.6976 H   0  0  0  0  0  0
    2.1042   62.9814   67.6870 C   0  0  0  0  0  0
    1.8528   64.2567   68.2543 C   0  0  0  0  0  0
    2.5775   64.7082   68.9631 H   0  0  0  0  0  0
    0.6840   64.9680   67.9645 C   0  0  0  0  0  0
    0.5083   65.9542   68.4393 H   0  0  0  0  0  0
   -0.2705   64.4289   67.0940 C   0  0  0  0  0  0
   -1.2049   64.9815   66.8771 H   0  0  0  0  0  0
   -0.0553   63.1639   66.5409 C   0  0  0  0  0  0
   -0.8215   62.7141   65.8773 H   0  0  0  0  0  0
    1.1155   62.4477   66.8318 C   0  0  0  0  0  0
    1.2206   61.4326   66.3976 H   0  0  0  0  0  0
   -1.0499   60.6389   72.5441 N   0  3  0  0  0  0
   -1.5599   61.6206   73.0556 O   0  0  0  0  0  0
   -1.3794   59.4893   72.7785 O   0  5  0  0  0  0
  1  2  1  0  0  0
  1 15  1  0  0  0
  1 16  1  0  0  0
  1 33  1  0  0  0
  2  3  1  0  0  0
  2  7  1  0  0  0
  2 17  1  0  0  0
  3  4  1  0  0  0
  3 18  1  0  0  0
  3 19  1  0  0  0
  4  5  1  0  0  0
  4 20  1  0  0  0
  4 21  1  0  0  0
  5  6  1  0  0  0
  5  8  1  0  0  0
  5 49  1  0  0  0
  6  7  1  0  0  0
  6 22  1  0  0  0
  6 23  1  0  0  0
  7 24  1  0  0  0
  7 25  1  0  0  0
  8  9  1  0  0  0
  8 26  1  0  0  0
  8 27  1  0  0  0
  9 10  1  0  0  0
  9 14  2  0  0  0
 10 11  2  0  0  0
 10 28  1  0  0  0
 11 12  1  0  0  0
 11 29  1  0  0  0
 12 13  2  0  0  0
 12 30  1  0  0  0
 13 14  1  0  0  0
 13 31  1  0  0  0
 14 32  1  0  0  0
 33 34  1  0  0  0
 33 43  1  0  0  0
 33 44  1  0  0  0
 34 35  1  0  0  0
 34 50  1  0  0  0
 35 36  2  0  0  0
 35 37  1  0  0  0
 37 38  2  0  0  0
 37 42  1  0  0  0
 38 39  1  0  0  0
 38 45  1  0  0  0
 39 40  2  0  0  0
 39 46  1  0  0  0
 40 41  1  0  0  0
 40 61  1  0  0  0
 41 42  2  0  0  0
 41 47  1  0  0  0
 42 48  1  0  0  0
 50 51  1  0  0  0
 50 59  2  0  0  0
 51 52  1  0  0  0
 51 53  2  0  0  0
 53 54  1  0  0  0
 53 55  1  0  0  0
 55 56  1  0  0  0
 55 57  2  0  0  0
 57 58  1  0  0  0
 57 59  1  0  0  0
 59 60  1  0  0  0
 61 62  2  0  0  0
 61 63  1  0  0  0
M  CHG  3   5   1  61   1  63  -1
M  END
>  <ACTIVITY>
8.27

>  <SET>
1

>  <Min_dist>
999.9

>  <Avg_dist>
999.9

$$$$
1-3e
  Cerius2 12110213523D 1   1.00000                          
Structure written by Cerius2 SD Exporter
 60 63  0  0  0  0  0  0  0  0999 V2000
    5.1741   63.7666   67.2298 C   0  0  0  0  0  0
    4.3855   65.0953   67.1679 C   0  0  0  0  0  0
    5.2770   66.2628   67.6398 C   0  0  0  0  0  0
    4.5857   67.6253   67.4818 C   0  0  0  0  0  0
    4.1925   67.8073   66.0805 N   0  3  0  0  0  0
    3.1996   66.8221   65.6392 C   0  0  0  0  0  0
    3.8229   65.4102   65.7568 C   0  0  0  0  0  0
    4.3302   69.1509   65.5151 C   0  0  0  0  0  0
    4.2612   69.1992   64.0021 C   0  0  0  0  0  0
    3.0583   69.6122   63.4103 C   0  0  0  0  0  0
    2.9137   69.6073   62.0214 C   0  0  0  0  0  0
    3.9685   69.1928   61.2101 C   0  0  0  0  0  0
    5.1698   68.7828   61.7855 C   0  0  0  0  0  0
    5.3166   68.7866   63.1737 C   0  0  0  0  0  0
    5.6679   63.6802   68.2153 H   0  0  0  0  0  0
    5.9893   63.7965   66.4837 H   0  0  0  0  0  0
    3.5310   65.0411   67.8689 H   0  0  0  0  0  0
    5.5824   66.1197   68.6906 H   0  0  0  0  0  0
    6.2068   66.2717   67.0398 H   0  0  0  0  0  0
    3.7145   67.7004   68.1590 H   0  0  0  0  0  0
    5.2829   68.4214   67.7923 H   0  0  0  0  0  0
    2.2727   66.8895   66.2384 H   0  0  0  0  0  0
    2.9028   66.9965   64.5928 H   0  0  0  0  0  0
    4.6504   65.3441   65.0247 H   0  0  0  0  0  0
    3.0777   64.6579   65.4492 H   0  0  0  0  0  0
    3.5737   69.8400   65.9317 H   0  0  0  0  0  0
    5.3143   69.5451   65.8234 H   0  0  0  0  0  0
    2.2062   69.9310   64.0444 H   0  0  0  0  0  0
    1.9555   69.9248   61.5679 H   0  0  0  0  0  0
    3.8512   69.1849   60.1094 H   0  0  0  0  0  0
    6.0072   68.4449   61.1453 H   0  0  0  0  0  0
    6.2681   68.4425   63.6279 H   0  0  0  0  0  0
    4.3640   62.4886   66.9831 C   0  0  0  0  0  0
    3.3310   62.2808   67.9859 N   0  0  0  0  0  0
    3.5065   61.3987   69.0541 C   0  0  0  0  0  0
    4.5000   60.6868   69.1648 O   0  0  0  0  0  0
    2.3360   61.2610   69.9910 C   0  0  0  0  0  0
    1.6635   62.3620   70.5477 C   0  0  0  0  0  0
    0.5511   62.1510   71.3717 C   0  0  0  0  0  0
    0.0779   60.8542   71.6144 N   0  0  0  0  0  0
    0.7186   59.7598   71.0147 C   0  0  0  0  0  0
    1.8345   59.9629   70.1974 C   0  0  0  0  0  0
    3.8980   62.5103   65.9824 H   0  0  0  0  0  0
    5.0400   61.6176   66.9795 H   0  0  0  0  0  0
    1.9908   63.3965   70.3365 H   0  0  0  0  0  0
    0.0324   63.0186   71.8235 H   0  0  0  0  0  0
    0.3312   58.7358   71.1801 H   0  0  0  0  0  0
    2.3313   59.0997   69.7146 H   0  0  0  0  0  0
    4.9170   67.4352   65.6976 H   0  0  0  0  0  0
    2.1042   62.9814   67.6870 C   0  0  0  0  0  0
    1.8528   64.2567   68.2543 C   0  0  0  0  0  0
    2.5775   64.7082   68.9631 H   0  0  0  0  0  0
    0.6840   64.9680   67.9645 C   0  0  0  0  0  0
    0.5083   65.9542   68.4393 H   0  0  0  0  0  0
   -0.2705   64.4289   67.0940 C   0  0  0  0  0  0
   -1.2049   64.9815   66.8771 H   0  0  0  0  0  0
   -0.0553   63.1639   66.5409 C   0  0  0  0  0  0
   -0.8215   62.7141   65.8773 H   0  0  0  0  0  0
    1.1155   62.4477   66.8318 C   0  0  0  0  0  0
    1.2206   61.4326   66.3976 H   0  0  0  0  0  0
  1  2  1  0  0  0
  1 15  1  0  0  0
  1 16  1  0  0  0
  1 33  1  0  0  0
  2  3  1  0  0  0
  2  7  1  0  0  0
  2 17  1  0  0  0
  3  4  1  0  0  0
  3 18  1  0  0  0
  3 19  1  0  0  0
  4  5  1  0  0  0
  4 20  1  0  0  0
  4 21  1  0  0  0
  5  6  1  0  0  0
  5  8  1  0  0  0
  5 49  1  0  0  0
  6  7  1  0  0  0
  6 22  1  0  0  0
  6 23  1  0  0  0
  7 24  1  0  0  0
  7 25  1  0  0  0
  8  9  1  0  0  0
  8 26  1  0  0  0
  8 27  1  0  0  0
  9 10  1  0  0  0
  9 14  2  0  0  0
 10 11  2  0  0  0
 10 28  1  0  0  0
 11 12  1  0  0  0
 11 29  1  0  0  0
 12 13  2  0  0  0
 12 30  1  0  0  0
 13 14  1  0  0  0
 13 31  1  0  0  0
 14 32  1  0  0  0
 33 34  1  0  0  0
 33 43  1  0  0  0
 33 44  1  0  0  0
 34 35  1  0  0  0
 34 50  1  0  0  0
 35 36  2  0  0  0
 35 37  1  0  0  0
 37 38  2  0  0  0
 37 42  1  0  0  0
 38 39  1  0  0  0
 38 45  1  0  0  0
 39 40  2  0  0  0
 39 46  1  0  0  0
 40 41  1  0  0  0
 41 42  2  0  0  0
 41 47  1  0  0  0
 42 48  1  0  0  0
 50 51  1  0  0  0
 50 59  2  0  0  0
 51 52  1  0  0  0
 51 53  2  0  0  0
 53 54  1  0  0  0
 53 55  1  0  0  0
 55 56  1  0  0  0
 55 57  2  0  0  0
 57 58  1  0  0  0
 57 59  1  0  0  0
 59 60  1  0  0  0
M  CHG  1   5   1
M  END
>  <ACTIVITY>
7.19

>  <SET>
2

>  <Min_dist>
0.09

>  <Avg_dist>
0.41

$$$$
1-3f
  Cerius2 12110213523D 1   1.00000                          
Structure written by Cerius2 SD Exporter
 67 70  0  0  0  0  0  0  0  0999 V2000
    5.1741   63.7666   67.2298 C   0  0  0  0  0  0
    4.3855   65.0953   67.1679 C   0  0  0  0  0  0
    5.2770   66.2628   67.6398 C   0  0  0  0  0  0
    4.5857   67.6253   67.4818 C   0  0  0  0  0  0
    4.1925   67.8073   66.0805 N   0  3  0  0  0  0
    3.1996   66.8221   65.6392 C   0  0  0  0  0  0
    3.8229   65.4102   65.7568 C   0  0  0  0  0  0
    4.3302   69.1509   65.5151 C   0  0  0  0  0  0
    4.2612   69.1992   64.0021 C   0  0  0  0  0  0
    3.0583   69.6122   63.4103 C   0  0  0  0  0  0
    2.9137   69.6073   62.0214 C   0  0  0  0  0  0
    3.9685   69.1928   61.2101 C   0  0  0  0  0  0
    5.1698   68.7828   61.7855 C   0  0  0  0  0  0
    5.3166   68.7866   63.1737 C   0  0  0  0  0  0
    5.6679   63.6802   68.2153 H   0  0  0  0  0  0
    5.9893   63.7965   66.4837 H   0  0  0  0  0  0
    3.5310   65.0411   67.8689 H   0  0  0  0  0  0
    5.5824   66.1197   68.6906 H   0  0  0  0  0  0
    6.2068   66.2717   67.0398 H   0  0  0  0  0  0
    3.7145   67.7004   68.1590 H   0  0  0  0  0  0
    5.2829   68.4214   67.7923 H   0  0  0  0  0  0
    2.2727   66.8895   66.2384 H   0  0  0  0  0  0
    2.9028   66.9965   64.5928 H   0  0  0  0  0  0
    4.6504   65.3441   65.0247 H   0  0  0  0  0  0
    3.0777   64.6579   65.4492 H   0  0  0  0  0  0
    3.5737   69.8400   65.9317 H   0  0  0  0  0  0
    5.3143   69.5451   65.8234 H   0  0  0  0  0  0
    2.2062   69.9310   64.0444 H   0  0  0  0  0  0
    1.9555   69.9248   61.5679 H   0  0  0  0  0  0
    3.8512   69.1849   60.1094 H   0  0  0  0  0  0
    6.0072   68.4449   61.1453 H   0  0  0  0  0  0
    6.2681   68.4425   63.6279 H   0  0  0  0  0  0
    4.3640   62.4886   66.9831 C   0  0  0  0  0  0
    3.3310   62.2808   67.9859 N   0  0  0  0  0  0
    3.5065   61.3987   69.0541 C   0  0  0  0  0  0
    4.5000   60.6868   69.1648 O   0  0  0  0  0  0
    3.8980   62.5103   65.9824 H   0  0  0  0  0  0
    5.0400   61.6176   66.9795 H   0  0  0  0  0  0
    4.9170   67.4352   65.6976 H   0  0  0  0  0  0
    2.0518   62.8227   67.5746 C   0  0  0  0  0  0
    1.4285   63.8672   68.2943 C   0  0  0  0  0  0
    1.8832   64.2565   69.2282 H   0  0  0  0  0  0
    0.2096   64.4172   67.8779 C   0  0  0  0  0  0
   -0.2669   65.2187   68.4774 H   0  0  0  0  0  0
   -0.4152   63.9495   66.7176 C   0  0  0  0  0  0
   -1.3856   64.3720   66.3929 H   0  0  0  0  0  0
    0.1806   62.9146   65.9910 C   0  0  0  0  0  0
   -0.3157   62.5186   65.0819 H   0  0  0  0  0  0
    1.3984   62.3631   66.4119 C   0  0  0  0  0  0
    1.8196   61.5237   65.8206 H   0  0  0  0  0  0
    2.3360   61.2610   69.9910 C   0  0  0  0  0  0
    2.8064   60.9988   71.4485 C   0  0  0  0  0  0
    1.6030   60.8036   72.3945 C   0  0  0  0  0  0
    0.6950   59.6561   71.9076 C   0  0  0  0  0  0
    0.2350   59.8813   70.4531 C   0  0  0  0  0  0
    1.4353   60.0927   69.5065 C   0  0  0  0  0  0
    3.4334   60.0894   71.4792 H   0  0  0  0  0  0
    1.9507   60.6043   73.4238 H   0  0  0  0  0  0
   -0.1780   59.5429   72.5750 H   0  0  0  0  0  0
   -0.4185   60.7717   70.4115 H   0  0  0  0  0  0
    1.0778   60.2714   68.4786 H   0  0  0  0  0  0
    1.7218   62.1724   70.0464 H   0  0  0  0  0  0
    3.4423   61.8318   71.7952 H   0  0  0  0  0  0
    1.0165   61.7389   72.4393 H   0  0  0  0  0  0
    1.2531   58.7034   71.9672 H   0  0  0  0  0  0
   -0.3791   59.0297   70.1101 H   0  0  0  0  0  0
    2.0401   59.1682   69.4727 H   0  0  0  0  0  0
  1  2  1  0  0  0
  1 15  1  0  0  0
  1 16  1  0  0  0
  1 33  1  0  0  0
  2  3  1  0  0  0
  2  7  1  0  0  0
  2 17  1  0  0  0
  3  4  1  0  0  0
  3 18  1  0  0  0
  3 19  1  0  0  0
  4  5  1  0  0  0
  4 20  1  0  0  0
  4 21  1  0  0  0
  5  6  1  0  0  0
  5  8  1  0  0  0
  5 39  1  0  0  0
  6  7  1  0  0  0
  6 22  1  0  0  0
  6 23  1  0  0  0
  7 24  1  0  0  0
  7 25  1  0  0  0
  8  9  1  0  0  0
  8 26  1  0  0  0
  8 27  1  0  0  0
  9 10  1  0  0  0
  9 14  2  0  0  0
 10 11  2  0  0  0
 10 28  1  0  0  0
 11 12  1  0  0  0
 11 29  1  0  0  0
 12 13  2  0  0  0
 12 30  1  0  0  0
 13 14  1  0  0  0
 13 31  1  0  0  0
 14 32  1  0  0  0
 33 34  1  0  0  0
 33 37  1  0  0  0
 33 38  1  0  0  0
 34 35  1  0  0  0
 34 40  1  0  0  0
 35 36  2  0  0  0
 35 51  1  0  0  0
 40 41  1  0  0  0
 40 49  2  0  0  0
 41 42  1  0  0  0
 41 43  2  0  0  0
 43 44  1  0  0  0
 43 45  1  0  0  0
 45 46  1  0  0  0
 45 47  2  0  0  0
 47 48  1  0  0  0
 47 49  1  0  0  0
 49 50  1  0  0  0
 51 52  1  0  0  0
 51 56  1  0  0  0
 51 62  1  0  0  0
 52 53  1  0  0  0
 52 57  1  0  0  0
 52 63  1  0  0  0
 53 54  1  0  0  0
 53 58  1  0  0  0
 53 64  1  0  0  0
 54 55  1  0  0  0
 54 59  1  0  0  0
 54 65  1  0  0  0
 55 56  1  0  0  0
 55 60  1  0  0  0
 55 66  1  0  0  0
 56 61  1  0  0  0
 56 67  1  0  0  0
M  CHG  1   5   1
M  END
>  <ACTIVITY>
5.03

>  <SET>
1

>  <Min_dist>
999.9

>  <Avg_dist>
999.9

$$$$
1-3g
  Cerius2 12110213523D 1   1.00000                          
Structure written by Cerius2 SD Exporter
 54 56  0  0  0  0  0  0  0  0999 V2000
    5.1741   63.7666   67.2298 C   0  0  0  0  0  0
    4.3855   65.0953   67.1679 C   0  0  0  0  0  0
    5.2770   66.2628   67.6398 C   0  0  0  0  0  0
    4.5857   67.6253   67.4818 C   0  0  0  0  0  0
    4.1925   67.8073   66.0805 N   0  3  0  0  0  0
    3.1996   66.8221   65.6392 C   0  0  0  0  0  0
    3.8229   65.4102   65.7568 C   0  0  0  0  0  0
    4.3302   69.1509   65.5151 C   0  0  0  0  0  0
    4.2612   69.1992   64.0021 C   0  0  0  0  0  0
    3.0583   69.6122   63.4103 C   0  0  0  0  0  0
    2.9137   69.6073   62.0214 C   0  0  0  0  0  0
    3.9685   69.1928   61.2101 C   0  0  0  0  0  0
    5.1698   68.7828   61.7855 C   0  0  0  0  0  0
    5.3166   68.7866   63.1737 C   0  0  0  0  0  0
    5.6679   63.6802   68.2153 H   0  0  0  0  0  0
    5.9893   63.7965   66.4837 H   0  0  0  0  0  0
    3.5310   65.0411   67.8689 H   0  0  0  0  0  0
    5.5824   66.1197   68.6906 H   0  0  0  0  0  0
    6.2068   66.2717   67.0398 H   0  0  0  0  0  0
    3.7145   67.7004   68.1590 H   0  0  0  0  0  0
    5.2829   68.4214   67.7923 H   0  0  0  0  0  0
    2.2727   66.8895   66.2384 H   0  0  0  0  0  0
    2.9028   66.9965   64.5928 H   0  0  0  0  0  0
    4.6504   65.3441   65.0247 H   0  0  0  0  0  0
    3.0777   64.6579   65.4492 H   0  0  0  0  0  0
    3.5737   69.8400   65.9317 H   0  0  0  0  0  0
    5.3143   69.5451   65.8234 H   0  0  0  0  0  0
    2.2062   69.9310   64.0444 H   0  0  0  0  0  0
    1.9555   69.9248   61.5679 H   0  0  0  0  0  0
    3.8512   69.1849   60.1094 H   0  0  0  0  0  0
    6.0072   68.4449   61.1453 H   0  0  0  0  0  0
    6.2681   68.4425   63.6279 H   0  0  0  0  0  0
    4.3640   62.4886   66.9831 C   0  0  0  0  0  0
    3.3310   62.2808   67.9859 N   0  0  0  0  0  0
    3.5065   61.3987   69.0541 C   0  0  0  0  0  0
    4.5000   60.6868   69.1648 O   0  0  0  0  0  0
    2.4151   61.2612   70.1227 C   0  0  0  0  0  0
    3.8980   62.5103   65.9824 H   0  0  0  0  0  0
    5.0400   61.6176   66.9795 H   0  0  0  0  0  0
    4.9170   67.4352   65.6976 H   0  0  0  0  0  0
    2.1042   62.9814   67.6870 C   0  0  0  0  0  0
    1.8528   64.2567   68.2543 C   0  0  0  0  0  0
    2.5775   64.7082   68.9631 H   0  0  0  0  0  0
    0.6840   64.9680   67.9645 C   0  0  0  0  0  0
    0.5083   65.9542   68.4393 H   0  0  0  0  0  0
   -0.2705   64.4289   67.0940 C   0  0  0  0  0  0
   -1.2049   64.9815   66.8771 H   0  0  0  0  0  0
   -0.0553   63.1639   66.5409 C   0  0  0  0  0  0
   -0.8215   62.7141   65.8773 H   0  0  0  0  0  0
    1.1155   62.4477   66.8318 C   0  0  0  0  0  0
    1.2206   61.4326   66.3976 H   0  0  0  0  0  0
    2.6272   60.3580   70.7104 H   0  0  0  0  0  0
    2.4289   62.1240   70.8046 H   0  0  0  0  0  0
    1.4106   61.1547   69.6871 H   0  0  0  0  0  0
  1  2  1  0  0  0
  1 15  1  0  0  0
  1 16  1  0  0  0
  1 33  1  0  0  0
  2  3  1  0  0  0
  2  7  1  0  0  0
  2 17  1  0  0  0
  3  4  1  0  0  0
  3 18  1  0  0  0
  3 19  1  0  0  0
  4  5  1  0  0  0
  4 20  1  0  0  0
  4 21  1  0  0  0
  5  6  1  0  0  0
  5  8  1  0  0  0
  5 40  1  0  0  0
  6  7  1  0  0  0
  6 22  1  0  0  0
  6 23  1  0  0  0
  7 24  1  0  0  0
  7 25  1  0  0  0
  8  9  1  0  0  0
  8 26  1  0  0  0
  8 27  1  0  0  0
  9 10  1  0  0  0
  9 14  2  0  0  0
 10 11  2  0  0  0
 10 28  1  0  0  0
 11 12  1  0  0  0
 11 29  1  0  0  0
 12 13  2  0  0  0
 12 30  1  0  0  0
 13 14  1  0  0  0
 13 31  1  0  0  0
 14 32  1  0  0  0
 33 34  1  0  0  0
 33 38  1  0  0  0
 33 39  1  0  0  0
 34 35  1  0  0  0
 34 41  1  0  0  0
 35 36  2  0  0  0
 35 37  1  0  0  0
 37 52  1  0  0  0
 37 53  1  0  0  0
 37 54  1  0  0  0
 41 42  1  0  0  0
 41 50  2  0  0  0
 42 43  1  0  0  0
 42 44  2  0  0  0
 44 45  1  0  0  0
 44 46  1  0  0  0
 46 47  1  0  0  0
 46 48  2  0  0  0
 48 49  1  0  0  0
 48 50  1  0  0  0
 50 51  1  0  0  0
M  CHG  1   5   1
M  END
>  <ACTIVITY>
7.28

>  <SET>
1

>  <Min_dist>
999.9

>  <Avg_dist>
999.9

$$$$
1-3h
  Cerius2 12110213523D 1   1.00000                          
Structure written by Cerius2 SD Exporter
 57 59  0  0  0  0  0  0  0  0999 V2000
    5.1741   63.7666   67.2298 C   0  0  0  0  0  0
    4.3855   65.0953   67.1679 C   0  0  0  0  0  0
    5.2770   66.2628   67.6398 C   0  0  0  0  0  0
    4.5857   67.6253   67.4818 C   0  0  0  0  0  0
    4.1925   67.8073   66.0805 N   0  3  0  0  0  0
    3.1996   66.8221   65.6392 C   0  0  0  0  0  0
    3.8229   65.4102   65.7568 C   0  0  0  0  0  0
    4.3302   69.1509   65.5151 C   0  0  0  0  0  0
    4.2612   69.1992   64.0021 C   0  0  0  0  0  0
    3.0583   69.6122   63.4103 C   0  0  0  0  0  0
    2.9137   69.6073   62.0214 C   0  0  0  0  0  0
    3.9685   69.1928   61.2101 C   0  0  0  0  0  0
    5.1698   68.7828   61.7855 C   0  0  0  0  0  0
    5.3166   68.7866   63.1737 C   0  0  0  0  0  0
    5.6679   63.6802   68.2153 H   0  0  0  0  0  0
    5.9893   63.7965   66.4837 H   0  0  0  0  0  0
    3.5310   65.0411   67.8689 H   0  0  0  0  0  0
    5.5824   66.1197   68.6906 H   0  0  0  0  0  0
    6.2068   66.2717   67.0398 H   0  0  0  0  0  0
    3.7145   67.7004   68.1590 H   0  0  0  0  0  0
    5.2829   68.4214   67.7923 H   0  0  0  0  0  0
    2.2727   66.8895   66.2384 H   0  0  0  0  0  0
    2.9028   66.9965   64.5928 H   0  0  0  0  0  0
    4.6504   65.3441   65.0247 H   0  0  0  0  0  0
    3.0777   64.6579   65.4492 H   0  0  0  0  0  0
    3.5737   69.8400   65.9317 H   0  0  0  0  0  0
    5.3143   69.5451   65.8234 H   0  0  0  0  0  0
    2.2062   69.9310   64.0444 H   0  0  0  0  0  0
    1.9555   69.9248   61.5679 H   0  0  0  0  0  0
    3.8512   69.1849   60.1094 H   0  0  0  0  0  0
    6.0072   68.4449   61.1453 H   0  0  0  0  0  0
    6.2681   68.4425   63.6279 H   0  0  0  0  0  0
    4.3640   62.4886   66.9831 C   0  0  0  0  0  0
    3.3310   62.2808   67.9859 N   0  0  0  0  0  0
    3.5065   61.3987   69.0541 C   0  0  0  0  0  0
    4.5000   60.6868   69.1648 O   0  0  0  0  0  0
    2.4056   61.2675   70.1492 C   0  0  0  0  0  0
    3.8980   62.5103   65.9824 H   0  0  0  0  0  0
    5.0400   61.6176   66.9795 H   0  0  0  0  0  0
    4.9170   67.4352   65.6976 H   0  0  0  0  0  0
    2.1042   62.9814   67.6870 C   0  0  0  0  0  0
    1.8528   64.2567   68.2543 C   0  0  0  0  0  0
    2.5775   64.7082   68.9631 H   0  0  0  0  0  0
    0.6840   64.9680   67.9645 C   0  0  0  0  0  0
    0.5083   65.9542   68.4393 H   0  0  0  0  0  0
   -0.2705   64.4289   67.0940 C   0  0  0  0  0  0
   -1.2049   64.9815   66.8771 H   0  0  0  0  0  0
   -0.0553   63.1639   66.5409 C   0  0  0  0  0  0
   -0.8215   62.7141   65.8773 H   0  0  0  0  0  0
    1.1155   62.4477   66.8318 C   0  0  0  0  0  0
    1.2206   61.4326   66.3976 H   0  0  0  0  0  0
    2.6114   60.0846   71.1115 C   0  0  0  0  0  0
    2.3924   62.1971   70.7414 H   0  0  0  0  0  0
    1.4106   61.1547   69.6871 H   0  0  0  0  0  0
    1.7908   60.0535   71.8460 H   0  0  0  0  0  0
    2.6203   59.1278   70.5657 H   0  0  0  0  0  0
    3.5612   60.1752   71.6617 H   0  0  0  0  0  0
  1  2  1  0  0  0
  1 15  1  0  0  0
  1 16  1  0  0  0
  1 33  1  0  0  0
  2  3  1  0  0  0
  2  7  1  0  0  0
  2 17  1  0  0  0
  3  4  1  0  0  0
  3 18  1  0  0  0
  3 19  1  0  0  0
  4  5  1  0  0  0
  4 20  1  0  0  0
  4 21  1  0  0  0
  5  6  1  0  0  0
  5  8  1  0  0  0
  5 40  1  0  0  0
  6  7  1  0  0  0
  6 22  1  0  0  0
  6 23  1  0  0  0
  7 24  1  0  0  0
  7 25  1  0  0  0
  8  9  1  0  0  0
  8 26  1  0  0  0
  8 27  1  0  0  0
  9 10  1  0  0  0
  9 14  2  0  0  0
 10 11  2  0  0  0
 10 28  1  0  0  0
 11 12  1  0  0  0
 11 29  1  0  0  0
 12 13  2  0  0  0
 12 30  1  0  0  0
 13 14  1  0  0  0
 13 31  1  0  0  0
 14 32  1  0  0  0
 33 34  1  0  0  0
 33 38  1  0  0  0
 33 39  1  0  0  0
 34 35  1  0  0  0
 34 41  1  0  0  0
 35 36  2  0  0  0
 35 37  1  0  0  0
 37 52  1  0  0  0
 37 53  1  0  0  0
 37 54  1  0  0  0
 41 42  1  0  0  0
 41 50  2  0  0  0
 42 43  1  0  0  0
 42 44  2  0  0  0
 44 45  1  0  0  0
 44 46  1  0  0  0
 46 47  1  0  0  0
 46 48  2  0  0  0
 48 49  1  0  0  0
 48 50  1  0  0  0
 50 51  1  0  0  0
 52 55  1  0  0  0
 52 56  1  0  0  0
 52 57  1  0  0  0
M  CHG  1   5   1
M  END
>  <ACTIVITY>
6.08

>  <SET>
1

>  <Min_dist>
999.9

>  <Avg_dist>
999.9

$$$$
1-3i
  Cerius2 12110213523D 1   1.00000                          
Structure written by Cerius2 SD Exporter
 58 60  0  0  0  0  0  0  0  0999 V2000
    5.1587   63.7634   67.2364 C   0  0  0  0  0  0
    4.3699   65.0929   67.1737 C   0  0  0  0  0  0
    5.2616   66.2603   67.6456 C   0  0  0  0  0  0
    4.5701   67.6236   67.4869 C   0  0  0  0  0  0
    4.1770   67.8062   66.0848 N   0  3  0  0  0  0
    3.1840   66.8211   65.6435 C   0  0  0  0  0  0
    3.8074   65.4085   65.7617 C   0  0  0  0  0  0
    4.3150   69.1506   65.5188 C   0  0  0  0  0  0
    4.2463   69.1994   64.0050 C   0  0  0  0  0  0
    3.0432   69.6131   63.4125 C   0  0  0  0  0  0
    2.8988   69.6088   62.0230 C   0  0  0  0  0  0
    3.9542   69.1942   61.2117 C   0  0  0  0  0  0
    5.1558   68.7834   61.7879 C   0  0  0  0  0  0
    5.3023   68.7867   63.1768 C   0  0  0  0  0  0
    5.6524   63.6765   68.2225 H   0  0  0  0  0  0
    5.9744   63.7933   66.4902 H   0  0  0  0  0  0
    3.5149   65.0385   67.8749 H   0  0  0  0  0  0
    5.5667   66.1167   68.6970 H   0  0  0  0  0  0
    6.1918   66.2692   67.0457 H   0  0  0  0  0  0
    3.6984   67.6986   68.1642 H   0  0  0  0  0  0
    5.2674   68.4197   67.7974 H   0  0  0  0  0  0
    2.2566   66.8885   66.2426 H   0  0  0  0  0  0
    2.8873   66.9961   64.5965 H   0  0  0  0  0  0
    4.6354   65.3425   65.0296 H   0  0  0  0  0  0
    3.0621   64.6562   65.4541 H   0  0  0  0  0  0
    3.5581   69.8399   65.9350 H   0  0  0  0  0  0
    5.2993   69.5445   65.8273 H   0  0  0  0  0  0
    2.1906   69.9320   64.0466 H   0  0  0  0  0  0
    1.9404   69.9268   61.5689 H   0  0  0  0  0  0
    3.8372   69.1867   60.1106 H   0  0  0  0  0  0
    5.9936   68.4455   61.1478 H   0  0  0  0  0  0
    6.2540   68.4421   63.6315 H   0  0  0  0  0  0
    4.3484   62.4852   66.9898 C   0  0  0  0  0  0
    3.3148   62.2772   67.9928 N   0  0  0  0  0  0
    3.4901   61.3943   69.0619 C   0  0  0  0  0  0
    4.4840   60.6819   69.1731 O   0  0  0  0  0  0
    2.3980   61.2567   70.1307 C   0  0  0  0  0  0
    3.8825   62.5074   65.9886 H   0  0  0  0  0  0
    5.0247   61.6138   66.9867 H   0  0  0  0  0  0
    4.9019   67.4340   65.7021 H   0  0  0  0  0  0
    2.0877   62.9786   67.6932 C   0  0  0  0  0  0
    1.8362   64.2540   68.2606 C   0  0  0  0  0  0
    0.3992   66.2061   68.4845 O   0  0  0  0  0  0
    0.6671   64.9660   67.9701 C   0  0  0  0  0  0
   -0.2877   64.4274   67.0989 C   0  0  0  0  0  0
   -1.2224   64.9805   66.8816 H   0  0  0  0  0  0
   -0.0726   63.1622   66.5459 C   0  0  0  0  0  0
   -0.8390   62.7127   65.8818 H   0  0  0  0  0  0
    1.0986   62.4453   66.8374 C   0  0  0  0  0  0
    1.2038   61.4301   66.4032 H   0  0  0  0  0  0
    2.6101   60.3529   70.7191 H   0  0  0  0  0  0
    2.4117   62.1196   70.8126 H   0  0  0  0  0  0
    1.3934   61.1505   69.6947 H   0  0  0  0  0  0
    1.1333   66.7109   69.5958 C   0  0  0  0  0  0
    2.1868   66.8989   69.3400 H   0  0  0  0  0  0
    0.6589   67.6620   69.8754 H   0  0  0  0  0  0
    1.0895   66.0268   70.4575 H   0  0  0  0  0  0
    2.4687   64.6437   68.8526 H   0  0  0  0  0  0
  1  2  1  0  0  0
  1 15  1  0  0  0
  1 16  1  0  0  0
  1 33  1  0  0  0
  2  3  1  0  0  0
  2  7  1  0  0  0
  2 17  1  0  0  0
  3  4  1  0  0  0
  3 18  1  0  0  0
  3 19  1  0  0  0
  4  5  1  0  0  0
  4 20  1  0  0  0
  4 21  1  0  0  0
  5  6  1  0  0  0
  5  8  1  0  0  0
  5 40  1  0  0  0
  6  7  1  0  0  0
  6 22  1  0  0  0
  6 23  1  0  0  0
  7 24  1  0  0  0
  7 25  1  0  0  0
  8  9  1  0  0  0
  8 26  1  0  0  0
  8 27  1  0  0  0
  9 10  1  0  0  0
  9 14  2  0  0  0
 10 11  2  0  0  0
 10 28  1  0  0  0
 11 12  1  0  0  0
 11 29  1  0  0  0
 12 13  2  0  0  0
 12 30  1  0  0  0
 13 14  1  0  0  0
 13 31  1  0  0  0
 14 32  1  0  0  0
 33 34  1  0  0  0
 33 38  1  0  0  0
 33 39  1  0  0  0
 34 35  1  0  0  0
 34 41  1  0  0  0
 35 36  2  0  0  0
 35 37  1  0  0  0
 37 51  1  0  0  0
 37 52  1  0  0  0
 37 53  1  0  0  0
 41 42  1  0  0  0
 41 49  2  0  0  0
 42 44  2  0  0  0
 42 58  1  0  0  0
 43 44  1  0  0  0
 43 54  1  0  0  0
 44 45  1  0  0  0
 45 46  1  0  0  0
 45 47  2  0  0  0
 47 48  1  0  0  0
 47 49  1  0  0  0
 49 50  1  0  0  0
 54 55  1  0  0  0
 54 56  1  0  0  0
 54 57  1  0  0  0
M  CHG  1   5   1
M  END
>  <ACTIVITY>
7.34

>  <SET>
1

>  <Min_dist>
999.9

>  <Avg_dist>
999.9

$$$$
1-3j
  Cerius2 12110213523D 1   1.00000                          
Structure written by Cerius2 SD Exporter
 58 60  0  0  0  0  0  0  0  0999 V2000
    5.1741   63.7666   67.2298 C   0  0  0  0  0  0
    4.3855   65.0953   67.1679 C   0  0  0  0  0  0
    5.2770   66.2628   67.6398 C   0  0  0  0  0  0
    4.5857   67.6253   67.4818 C   0  0  0  0  0  0
    4.1925   67.8073   66.0805 N   0  3  0  0  0  0
    3.1996   66.8221   65.6392 C   0  0  0  0  0  0
    3.8229   65.4102   65.7568 C   0  0  0  0  0  0
    4.3302   69.1509   65.5151 C   0  0  0  0  0  0
    4.2612   69.1992   64.0021 C   0  0  0  0  0  0
    3.0583   69.6122   63.4103 C   0  0  0  0  0  0
    2.9137   69.6073   62.0214 C   0  0  0  0  0  0
    3.9685   69.1928   61.2101 C   0  0  0  0  0  0
    5.1698   68.7828   61.7855 C   0  0  0  0  0  0
    5.3166   68.7866   63.1737 C   0  0  0  0  0  0
    5.6679   63.6802   68.2153 H   0  0  0  0  0  0
    5.9893   63.7965   66.4837 H   0  0  0  0  0  0
    3.5310   65.0411   67.8689 H   0  0  0  0  0  0
    5.5824   66.1197   68.6906 H   0  0  0  0  0  0
    6.2068   66.2717   67.0398 H   0  0  0  0  0  0
    3.7145   67.7004   68.1590 H   0  0  0  0  0  0
    5.2829   68.4214   67.7923 H   0  0  0  0  0  0
    2.2727   66.8895   66.2384 H   0  0  0  0  0  0
    2.9028   66.9965   64.5928 H   0  0  0  0  0  0
    4.6504   65.3441   65.0247 H   0  0  0  0  0  0
    3.0777   64.6579   65.4492 H   0  0  0  0  0  0
    3.5737   69.8400   65.9317 H   0  0  0  0  0  0
    5.3143   69.5451   65.8234 H   0  0  0  0  0  0
    2.2062   69.9310   64.0444 H   0  0  0  0  0  0
    1.9555   69.9248   61.5679 H   0  0  0  0  0  0
    3.8512   69.1849   60.1094 H   0  0  0  0  0  0
    6.0072   68.4449   61.1453 H   0  0  0  0  0  0
    6.2681   68.4425   63.6279 H   0  0  0  0  0  0
    4.3640   62.4886   66.9831 C   0  0  0  0  0  0
    3.3310   62.2808   67.9859 N   0  0  0  0  0  0
    3.5065   61.3987   69.0541 C   0  0  0  0  0  0
    4.5000   60.6868   69.1648 O   0  0  0  0  0  0
    2.4151   61.2612   70.1227 C   0  0  0  0  0  0
    3.8980   62.5103   65.9824 H   0  0  0  0  0  0
    5.0400   61.6176   66.9795 H   0  0  0  0  0  0
    4.9170   67.4352   65.6976 H   0  0  0  0  0  0
    2.1042   62.9814   67.6870 C   0  0  0  0  0  0
    1.8528   64.2567   68.2543 C   0  0  0  0  0  0
    2.5775   64.7082   68.9631 H   0  0  0  0  0  0
    0.6840   64.9680   67.9645 C   0  0  0  0  0  0
    0.5083   65.9542   68.4393 H   0  0  0  0  0  0
   -0.2705   64.4289   67.0940 C   0  0  0  0  0  0
   -0.0553   63.1639   66.5409 C   0  0  0  0  0  0
   -0.8215   62.7141   65.8773 H   0  0  0  0  0  0
    1.1155   62.4477   66.8318 C   0  0  0  0  0  0
    1.2206   61.4326   66.3976 H   0  0  0  0  0  0
    2.6272   60.3580   70.7104 H   0  0  0  0  0  0
    2.4289   62.1240   70.8046 H   0  0  0  0  0  0
    1.4106   61.1547   69.6871 H   0  0  0  0  0  0
   -1.8643   66.2290   67.4340 C   0  0  0  0  0  0
   -1.4303   65.0634   66.7420 O   0  0  0  0  0  0
   -1.1776   67.0750   67.2812 H   0  0  0  0  0  0
   -2.8473   66.4886   67.0174 H   0  0  0  0  0  0
   -1.9745   66.0444   68.5137 H   0  0  0  0  0  0
  1  2  1  0  0  0
  1 15  1  0  0  0
  1 16  1  0  0  0
  1 33  1  0  0  0
  2  3  1  0  0  0
  2  7  1  0  0  0
  2 17  1  0  0  0
  3  4  1  0  0  0
  3 18  1  0  0  0
  3 19  1  0  0  0
  4  5  1  0  0  0
  4 20  1  0  0  0
  4 21  1  0  0  0
  5  6  1  0  0  0
  5  8  1  0  0  0
  5 40  1  0  0  0
  6  7  1  0  0  0
  6 22  1  0  0  0
  6 23  1  0  0  0
  7 24  1  0  0  0
  7 25  1  0  0  0
  8  9  1  0  0  0
  8 26  1  0  0  0
  8 27  1  0  0  0
  9 10  1  0  0  0
  9 14  2  0  0  0
 10 11  2  0  0  0
 10 28  1  0  0  0
 11 12  1  0  0  0
 11 29  1  0  0  0
 12 13  2  0  0  0
 12 30  1  0  0  0
 13 14  1  0  0  0
 13 31  1  0  0  0
 14 32  1  0  0  0
 33 34  1  0  0  0
 33 38  1  0  0  0
 33 39  1  0  0  0
 34 35  1  0  0  0
 34 41  1  0  0  0
 35 36  2  0  0  0
 35 37  1  0  0  0
 37 51  1  0  0  0
 37 52  1  0  0  0
 37 53  1  0  0  0
 41 42  1  0  0  0
 41 49  2  0  0  0
 42 43  1  0  0  0
 42 44  2  0  0  0
 44 45  1  0  0  0
 44 46  1  0  0  0
 46 47  2  0  0  0
 46 55  1  0  0  0
 47 48  1  0  0  0
 47 49  1  0  0  0
 49 50  1  0  0  0
 54 55  1  0  0  0
 54 56  1  0  0  0
 54 57  1  0  0  0
 54 58  1  0  0  0
M  CHG  1   5   1
M  END
>  <ACTIVITY>
6.15

>  <SET>
2

>  <Min_dist>
0.11

>  <Avg_dist>
0.41

$$$$
1-3k
  Cerius2 12110213523D 1   1.00000                          
Structure written by Cerius2 SD Exporter
 54 56  0  0  0  0  0  0  0  0999 V2000
    5.1741   63.7666   67.2298 C   0  0  0  0  0  0
    4.3855   65.0953   67.1679 C   0  0  0  0  0  0
    5.2770   66.2628   67.6398 C   0  0  0  0  0  0
    4.5857   67.6253   67.4818 C   0  0  0  0  0  0
    4.1925   67.8073   66.0805 N   0  3  0  0  0  0
    3.1996   66.8221   65.6392 C   0  0  0  0  0  0
    3.8229   65.4102   65.7568 C   0  0  0  0  0  0
    4.3302   69.1509   65.5151 C   0  0  0  0  0  0
    4.2612   69.1992   64.0021 C   0  0  0  0  0  0
    3.0583   69.6122   63.4103 C   0  0  0  0  0  0
    2.9137   69.6073   62.0214 C   0  0  0  0  0  0
    3.9685   69.1928   61.2101 C   0  0  0  0  0  0
    5.1698   68.7828   61.7855 C   0  0  0  0  0  0
    5.3166   68.7866   63.1737 C   0  0  0  0  0  0
    5.6679   63.6802   68.2153 H   0  0  0  0  0  0
    5.9893   63.7965   66.4837 H   0  0  0  0  0  0
    3.5310   65.0411   67.8689 H   0  0  0  0  0  0
    5.5824   66.1197   68.6906 H   0  0  0  0  0  0
    6.2068   66.2717   67.0398 H   0  0  0  0  0  0
    3.7145   67.7004   68.1590 H   0  0  0  0  0  0
    5.2829   68.4214   67.7923 H   0  0  0  0  0  0
    2.2727   66.8895   66.2384 H   0  0  0  0  0  0
    2.9028   66.9965   64.5928 H   0  0  0  0  0  0
    4.6504   65.3441   65.0247 H   0  0  0  0  0  0
    3.0777   64.6579   65.4492 H   0  0  0  0  0  0
    3.5737   69.8400   65.9317 H   0  0  0  0  0  0
    5.3143   69.5451   65.8234 H   0  0  0  0  0  0
    2.2062   69.9310   64.0444 H   0  0  0  0  0  0
    1.9555   69.9248   61.5679 H   0  0  0  0  0  0
    3.8512   69.1849   60.1094 H   0  0  0  0  0  0
    6.0072   68.4449   61.1453 H   0  0  0  0  0  0
    6.2681   68.4425   63.6279 H   0  0  0  0  0  0
    4.3640   62.4886   66.9831 C   0  0  0  0  0  0
    3.3310   62.2808   67.9859 N   0  0  0  0  0  0
    3.5065   61.3987   69.0541 C   0  0  0  0  0  0
    4.5000   60.6868   69.1648 O   0  0  0  0  0  0
    2.4151   61.2612   70.1227 C   0  0  0  0  0  0
    3.8980   62.5103   65.9824 H   0  0  0  0  0  0
    5.0400   61.6176   66.9795 H   0  0  0  0  0  0
    4.9170   67.4352   65.6976 H   0  0  0  0  0  0
    2.1042   62.9814   67.6870 C   0  0  0  0  0  0
    1.8528   64.2567   68.2543 C   0  0  0  0  0  0
    2.5775   64.7082   68.9631 H   0  0  0  0  0  0
    0.6840   64.9680   67.9645 C   0  0  0  0  0  0
    0.5044   66.1929   68.4995 F   0  0  0  0  0  0
   -0.2705   64.4289   67.0940 C   0  0  0  0  0  0
   -1.2049   64.9815   66.8771 H   0  0  0  0  0  0
   -0.0553   63.1639   66.5409 C   0  0  0  0  0  0
   -0.8215   62.7141   65.8773 H   0  0  0  0  0  0
    1.1155   62.4477   66.8318 C   0  0  0  0  0  0
    1.2206   61.4326   66.3976 H   0  0  0  0  0  0
    2.6272   60.3580   70.7104 H   0  0  0  0  0  0
    2.4289   62.1240   70.8046 H   0  0  0  0  0  0
    1.4106   61.1547   69.6871 H   0  0  0  0  0  0
  1  2  1  0  0  0
  1 15  1  0  0  0
  1 16  1  0  0  0
  1 33  1  0  0  0
  2  3  1  0  0  0
  2  7  1  0  0  0
  2 17  1  0  0  0
  3  4  1  0  0  0
  3 18  1  0  0  0
  3 19  1  0  0  0
  4  5  1  0  0  0
  4 20  1  0  0  0
  4 21  1  0  0  0
  5  6  1  0  0  0
  5  8  1  0  0  0
  5 40  1  0  0  0
  6  7  1  0  0  0
  6 22  1  0  0  0
  6 23  1  0  0  0
  7 24  1  0  0  0
  7 25  1  0  0  0
  8  9  1  0  0  0
  8 26  1  0  0  0
  8 27  1  0  0  0
  9 10  1  0  0  0
  9 14  2  0  0  0
 10 11  2  0  0  0
 10 28  1  0  0  0
 11 12  1  0  0  0
 11 29  1  0  0  0
 12 13  2  0  0  0
 12 30  1  0  0  0
 13 14  1  0  0  0
 13 31  1  0  0  0
 14 32  1  0  0  0
 33 34  1  0  0  0
 33 38  1  0  0  0
 33 39  1  0  0  0
 34 35  1  0  0  0
 34 41  1  0  0  0
 35 36  2  0  0  0
 35 37  1  0  0  0
 37 52  1  0  0  0
 37 53  1  0  0  0
 37 54  1  0  0  0
 41 42  1  0  0  0
 41 50  2  0  0  0
 42 43  1  0  0  0
 42 44  2  0  0  0
 44 45  1  0  0  0
 44 46  1  0  0  0
 46 47  1  0  0  0
 46 48  2  0  0  0
 48 49  1  0  0  0
 48 50  1  0  0  0
 50 51  1  0  0  0
M  CHG  1   5   1
M  END
>  <ACTIVITY>
7.19

>  <SET>
2

>  <Min_dist>
0.09

>  <Avg_dist>
0.43

$$$$
1-3l
  Cerius2 12110213523D 1   1.00000                          
Structure written by Cerius2 SD Exporter
 54 56  0  0  0  0  0  0  0  0999 V2000
    5.1741   63.7666   67.2298 C   0  0  0  0  0  0
    4.3855   65.0953   67.1679 C   0  0  0  0  0  0
    5.2770   66.2628   67.6398 C   0  0  0  0  0  0
    4.5857   67.6253   67.4818 C   0  0  0  0  0  0
    4.1925   67.8073   66.0805 N   0  3  0  0  0  0
    3.1996   66.8221   65.6392 C   0  0  0  0  0  0
    3.8229   65.4102   65.7568 C   0  0  0  0  0  0
    4.3302   69.1509   65.5151 C   0  0  0  0  0  0
    4.2612   69.1992   64.0021 C   0  0  0  0  0  0
    3.0583   69.6122   63.4103 C   0  0  0  0  0  0
    2.9137   69.6073   62.0214 C   0  0  0  0  0  0
    3.9685   69.1928   61.2101 C   0  0  0  0  0  0
    5.1698   68.7828   61.7855 C   0  0  0  0  0  0
    5.3166   68.7866   63.1737 C   0  0  0  0  0  0
    5.6679   63.6802   68.2153 H   0  0  0  0  0  0
    5.9893   63.7965   66.4837 H   0  0  0  0  0  0
    3.5310   65.0411   67.8689 H   0  0  0  0  0  0
    5.5824   66.1197   68.6906 H   0  0  0  0  0  0
    6.2068   66.2717   67.0398 H   0  0  0  0  0  0
    3.7145   67.7004   68.1590 H   0  0  0  0  0  0
    5.2829   68.4214   67.7923 H   0  0  0  0  0  0
    2.2727   66.8895   66.2384 H   0  0  0  0  0  0
    2.9028   66.9965   64.5928 H   0  0  0  0  0  0
    4.6504   65.3441   65.0247 H   0  0  0  0  0  0
    3.0777   64.6579   65.4492 H   0  0  0  0  0  0
    3.5737   69.8400   65.9317 H   0  0  0  0  0  0
    5.3143   69.5451   65.8234 H   0  0  0  0  0  0
    2.2062   69.9310   64.0444 H   0  0  0  0  0  0
    1.9555   69.9248   61.5679 H   0  0  0  0  0  0
    3.8512   69.1849   60.1094 H   0  0  0  0  0  0
    6.0072   68.4449   61.1453 H   0  0  0  0  0  0
    6.2681   68.4425   63.6279 H   0  0  0  0  0  0
    4.3640   62.4886   66.9831 C   0  0  0  0  0  0
    3.3310   62.2808   67.9859 N   0  0  0  0  0  0
    3.5065   61.3987   69.0541 C   0  0  0  0  0  0
    4.5000   60.6868   69.1648 O   0  0  0  0  0  0
    2.4151   61.2612   70.1227 C   0  0  0  0  0  0
    3.8980   62.5103   65.9824 H   0  0  0  0  0  0
    5.0400   61.6176   66.9795 H   0  0  0  0  0  0
    4.9170   67.4352   65.6976 H   0  0  0  0  0  0
    2.1042   62.9814   67.6870 C   0  0  0  0  0  0
    1.8528   64.2567   68.2543 C   0  0  0  0  0  0
    2.5775   64.7082   68.9631 H   0  0  0  0  0  0
    0.6840   64.9680   67.9645 C   0  0  0  0  0  0
    0.5083   65.9542   68.4393 H   0  0  0  0  0  0
   -0.2705   64.4289   67.0940 C   0  0  0  0  0  0
   -1.3872   65.1241   66.7934 F   0  0  0  0  0  0
   -0.0553   63.1639   66.5409 C   0  0  0  0  0  0
   -0.8215   62.7141   65.8773 H   0  0  0  0  0  0
    1.1155   62.4477   66.8318 C   0  0  0  0  0  0
    1.2206   61.4326   66.3976 H   0  0  0  0  0  0
    2.6272   60.3580   70.7104 H   0  0  0  0  0  0
    2.4289   62.1240   70.8046 H   0  0  0  0  0  0
    1.4106   61.1547   69.6871 H   0  0  0  0  0  0
  1  2  1  0  0  0
  1 15  1  0  0  0
  1 16  1  0  0  0
  1 33  1  0  0  0
  2  3  1  0  0  0
  2  7  1  0  0  0
  2 17  1  0  0  0
  3  4  1  0  0  0
  3 18  1  0  0  0
  3 19  1  0  0  0
  4  5  1  0  0  0
  4 20  1  0  0  0
  4 21  1  0  0  0
  5  6  1  0  0  0
  5  8  1  0  0  0
  5 40  1  0  0  0
  6  7  1  0  0  0
  6 22  1  0  0  0
  6 23  1  0  0  0
  7 24  1  0  0  0
  7 25  1  0  0  0
  8  9  1  0  0  0
  8 26  1  0  0  0
  8 27  1  0  0  0
  9 10  1  0  0  0
  9 14  2  0  0  0
 10 11  2  0  0  0
 10 28  1  0  0  0
 11 12  1  0  0  0
 11 29  1  0  0  0
 12 13  2  0  0  0
 12 30  1  0  0  0
 13 14  1  0  0  0
 13 31  1  0  0  0
 14 32  1  0  0  0
 33 34  1  0  0  0
 33 38  1  0  0  0
 33 39  1  0  0  0
 34 35  1  0  0  0
 34 41  1  0  0  0
 35 36  2  0  0  0
 35 37  1  0  0  0
 37 52  1  0  0  0
 37 53  1  0  0  0
 37 54  1  0  0  0
 41 42  1  0  0  0
 41 50  2  0  0  0
 42 43  1  0  0  0
 42 44  2  0  0  0
 44 45  1  0  0  0
 44 46  1  0  0  0
 46 47  1  0  0  0
 46 48  2  0  0  0
 48 49  1  0  0  0
 48 50  1  0  0  0
 50 51  1  0  0  0
M  CHG  1   5   1
M  END
>  <ACTIVITY>
6.69

>  <SET>
1

>  <Min_dist>
999.9

>  <Avg_dist>
999.9

$$$$
1-3m
  Cerius2 12110213523D 1   1.00000                          
Structure written by Cerius2 SD Exporter
 55 57  0  0  0  0  0  0  0  0999 V2000
    5.1741   63.7666   67.2298 C   0  0  0  0  0  0
    4.3855   65.0953   67.1679 C   0  0  0  0  0  0
    5.2770   66.2628   67.6398 C   0  0  0  0  0  0
    4.5857   67.6253   67.4818 C   0  0  0  0  0  0
    4.1925   67.8073   66.0805 N   0  3  0  0  0  0
    3.1996   66.8221   65.6392 C   0  0  0  0  0  0
    3.8229   65.4102   65.7568 C   0  0  0  0  0  0
    4.3302   69.1509   65.5151 C   0  0  0  0  0  0
    4.2612   69.1992   64.0021 C   0  0  0  0  0  0
    3.0583   69.6122   63.4103 C   0  0  0  0  0  0
    2.9137   69.6073   62.0214 C   0  0  0  0  0  0
    3.9685   69.1928   61.2101 C   0  0  0  0  0  0
    5.1698   68.7828   61.7855 C   0  0  0  0  0  0
    5.3166   68.7866   63.1737 C   0  0  0  0  0  0
    5.6679   63.6802   68.2153 H   0  0  0  0  0  0
    5.9893   63.7965   66.4837 H   0  0  0  0  0  0
    3.5310   65.0411   67.8689 H   0  0  0  0  0  0
    5.5824   66.1197   68.6906 H   0  0  0  0  0  0
    6.2068   66.2717   67.0398 H   0  0  0  0  0  0
    3.7145   67.7004   68.1590 H   0  0  0  0  0  0
    5.2829   68.4214   67.7923 H   0  0  0  0  0  0
    2.2727   66.8895   66.2384 H   0  0  0  0  0  0
    2.9028   66.9965   64.5928 H   0  0  0  0  0  0
    4.6504   65.3441   65.0247 H   0  0  0  0  0  0
    3.0777   64.6579   65.4492 H   0  0  0  0  0  0
    3.5737   69.8400   65.9317 H   0  0  0  0  0  0
    5.3143   69.5451   65.8234 H   0  0  0  0  0  0
    2.2062   69.9310   64.0444 H   0  0  0  0  0  0
    1.9555   69.9248   61.5679 H   0  0  0  0  0  0
    3.8512   69.1849   60.1094 H   0  0  0  0  0  0
    6.0072   68.4449   61.1453 H   0  0  0  0  0  0
    6.2681   68.4425   63.6279 H   0  0  0  0  0  0
    4.3640   62.4886   66.9831 C   0  0  0  0  0  0
    3.3310   62.2808   67.9859 N   0  0  0  0  0  0
    3.4688   61.2456   69.0054 C   0  0  0  0  0  0
    2.4151   61.2612   70.1227 C   0  0  0  0  0  0
    3.8980   62.5103   65.9824 H   0  0  0  0  0  0
    5.0400   61.6176   66.9795 H   0  0  0  0  0  0
    4.9170   67.4352   65.6976 H   0  0  0  0  0  0
    2.1042   62.9814   67.6870 C   0  0  0  0  0  0
    1.7798   64.1796   68.3730 C   0  0  0  0  0  0
    2.4456   64.5664   69.1721 H   0  0  0  0  0  0
    0.6100   64.8912   68.0880 C   0  0  0  0  0  0
    0.3757   65.8142   68.6555 H   0  0  0  0  0  0
   -0.2724   64.4299   67.1041 C   0  0  0  0  0  0
   -1.2081   64.9812   66.8892 H   0  0  0  0  0  0
    0.0146   63.2395   66.4310 C   0  0  0  0  0  0
   -0.6954   62.8484   65.6742 H   0  0  0  0  0  0
    1.1866   62.5230   66.7167 C   0  0  0  0  0  0
    1.3489   61.5652   66.1818 H   0  0  0  0  0  0
    2.6272   60.3580   70.7104 H   0  0  0  0  0  0
    2.4289   62.1240   70.8046 H   0  0  0  0  0  0
    1.4106   61.1547   69.6871 H   0  0  0  0  0  0
    3.4269   60.2422   68.5317 H   0  0  0  0  0  0
    4.4772   61.3334   69.4503 H   0  0  0  0  0  0
  1  2  1  0  0  0
  1 15  1  0  0  0
  1 16  1  0  0  0
  1 33  1  0  0  0
  2  3  1  0  0  0
  2  7  1  0  0  0
  2 17  1  0  0  0
  3  4  1  0  0  0
  3 18  1  0  0  0
  3 19  1  0  0  0
  4  5  1  0  0  0
  4 20  1  0  0  0
  4 21  1  0  0  0
  5  6  1  0  0  0
  5  8  1  0  0  0
  5 39  1  0  0  0
  6  7  1  0  0  0
  6 22  1  0  0  0
  6 23  1  0  0  0
  7 24  1  0  0  0
  7 25  1  0  0  0
  8  9  1  0  0  0
  8 26  1  0  0  0
  8 27  1  0  0  0
  9 10  1  0  0  0
  9 14  2  0  0  0
 10 11  2  0  0  0
 10 28  1  0  0  0
 11 12  1  0  0  0
 11 29  1  0  0  0
 12 13  2  0  0  0
 12 30  1  0  0  0
 13 14  1  0  0  0
 13 31  1  0  0  0
 14 32  1  0  0  0
 33 34  1  0  0  0
 33 37  1  0  0  0
 33 38  1  0  0  0
 34 35  1  0  0  0
 34 40  1  0  0  0
 35 36  1  0  0  0
 35 54  1  0  0  0
 35 55  1  0  0  0
 36 51  1  0  0  0
 36 52  1  0  0  0
 36 53  1  0  0  0
 40 41  1  0  0  0
 40 49  2  0  0  0
 41 42  1  0  0  0
 41 43  2  0  0  0
 43 44  1  0  0  0
 43 45  1  0  0  0
 45 46  1  0  0  0
 45 47  2  0  0  0
 47 48  1  0  0  0
 47 49  1  0  0  0
 49 50  1  0  0  0
M  CHG  1   5   1
M  END
>  <ACTIVITY>
4.92

>  <SET>
1

>  <Min_dist>
999.9

>  <Avg_dist>
999.9

$$$$
1-3n
  Cerius2 12110213523D 1   1.00000                          
Structure written by Cerius2 SD Exporter
 53 55  0  0  0  0  0  0  0  0999 V2000
    5.1741   63.7666   67.2298 C   0  0  0  0  0  0
    4.3855   65.0953   67.1679 C   0  0  0  0  0  0
    5.2770   66.2628   67.6398 C   0  0  0  0  0  0
    4.5857   67.6253   67.4818 C   0  0  0  0  0  0
    4.1925   67.8073   66.0805 N   0  3  0  0  0  0
    3.1996   66.8221   65.6392 C   0  0  0  0  0  0
    3.8229   65.4102   65.7568 C   0  0  0  0  0  0
    4.3302   69.1509   65.5151 C   0  0  0  0  0  0
    4.2612   69.1992   64.0021 C   0  0  0  0  0  0
    3.0583   69.6122   63.4103 C   0  0  0  0  0  0
    2.9137   69.6073   62.0214 C   0  0  0  0  0  0
    3.9685   69.1928   61.2101 C   0  0  0  0  0  0
    5.1698   68.7828   61.7855 C   0  0  0  0  0  0
    5.3166   68.7866   63.1737 C   0  0  0  0  0  0
    5.6679   63.6802   68.2153 H   0  0  0  0  0  0
    5.9893   63.7965   66.4837 H   0  0  0  0  0  0
    3.5310   65.0411   67.8689 H   0  0  0  0  0  0
    5.5824   66.1197   68.6906 H   0  0  0  0  0  0
    6.2068   66.2717   67.0398 H   0  0  0  0  0  0
    3.7145   67.7004   68.1590 H   0  0  0  0  0  0
    5.2829   68.4214   67.7923 H   0  0  0  0  0  0
    2.2727   66.8895   66.2384 H   0  0  0  0  0  0
    2.9028   66.9965   64.5928 H   0  0  0  0  0  0
    4.6504   65.3441   65.0247 H   0  0  0  0  0  0
    3.0777   64.6579   65.4492 H   0  0  0  0  0  0
    3.5737   69.8400   65.9317 H   0  0  0  0  0  0
    5.3143   69.5451   65.8234 H   0  0  0  0  0  0
    2.2062   69.9310   64.0444 H   0  0  0  0  0  0
    1.9555   69.9248   61.5679 H   0  0  0  0  0  0
    3.8512   69.1849   60.1094 H   0  0  0  0  0  0
    6.0072   68.4449   61.1453 H   0  0  0  0  0  0
    6.2681   68.4425   63.6279 H   0  0  0  0  0  0
    4.3640   62.4886   66.9831 C   0  0  0  0  0  0
    3.3310   62.2808   67.9859 N   0  0  0  0  0  0
    3.5065   61.3987   69.0541 C   0  0  0  0  0  0
    4.5000   60.6868   69.1648 O   0  0  0  0  0  0
    2.4151   61.2612   70.1227 C   0  0  0  0  0  0
    3.8980   62.5103   65.9824 H   0  0  0  0  0  0
    5.0400   61.6176   66.9795 H   0  0  0  0  0  0
    4.9170   67.4352   65.6976 H   0  0  0  0  0  0
    2.1042   62.9814   67.6870 C   0  0  0  0  0  0
    1.1424   62.4013   66.8210 C   0  0  0  0  0  0
    1.3422   61.4238   66.3351 H   0  0  0  0  0  0
   -0.0643   63.0466   66.5320 C   0  0  0  0  0  0
   -0.7870   62.5754   65.8359 H   0  0  0  0  0  0
   -0.3509   64.2921   67.1031 N   0  0  0  0  0  0
    0.5914   64.8938   67.9412 C   0  0  0  0  0  0
    0.3878   65.8956   68.3709 H   0  0  0  0  0  0
    1.8034   64.2492   68.2310 C   0  0  0  0  0  0
    2.5329   64.7859   68.8711 H   0  0  0  0  0  0
    2.6272   60.3580   70.7104 H   0  0  0  0  0  0
    2.4289   62.1240   70.8046 H   0  0  0  0  0  0
    1.4106   61.1547   69.6871 H   0  0  0  0  0  0
  1  2  1  0  0  0
  1 15  1  0  0  0
  1 16  1  0  0  0
  1 33  1  0  0  0
  2  3  1  0  0  0
  2  7  1  0  0  0
  2 17  1  0  0  0
  3  4  1  0  0  0
  3 18  1  0  0  0
  3 19  1  0  0  0
  4  5  1  0  0  0
  4 20  1  0  0  0
  4 21  1  0  0  0
  5  6  1  0  0  0
  5  8  1  0  0  0
  5 40  1  0  0  0
  6  7  1  0  0  0
  6 22  1  0  0  0
  6 23  1  0  0  0
  7 24  1  0  0  0
  7 25  1  0  0  0
  8  9  1  0  0  0
  8 26  1  0  0  0
  8 27  1  0  0  0
  9 10  1  0  0  0
  9 14  2  0  0  0
 10 11  2  0  0  0
 10 28  1  0  0  0
 11 12  1  0  0  0
 11 29  1  0  0  0
 12 13  2  0  0  0
 12 30  1  0  0  0
 13 14  1  0  0  0
 13 31  1  0  0  0
 14 32  1  0  0  0
 33 34  1  0  0  0
 33 38  1  0  0  0
 33 39  1  0  0  0
 34 35  1  0  0  0
 34 41  1  0  0  0
 35 36  2  0  0  0
 35 37  1  0  0  0
 37 51  1  0  0  0
 37 52  1  0  0  0
 37 53  1  0  0  0
 41 42  1  0  0  0
 41 49  2  0  0  0
 42 43  1  0  0  0
 42 44  2  0  0  0
 44 45  1  0  0  0
 44 46  1  0  0  0
 46 47  2  0  0  0
 47 48  1  0  0  0
 47 49  1  0  0  0
 49 50  1  0  0  0
M  CHG  1   5   1
M  END
>  <ACTIVITY>
6.97

>  <SET>
1

>  <Min_dist>
999.9

>  <Avg_dist>
999.9

$$$$
1-3o
  Cerius2 12110213523D 1   1.00000                          
Structure written by Cerius2 SD Exporter
 47 48  0  0  0  0  0  0  0  0999 V2000
    5.1741   63.7666   67.2298 C   0  0  0  0  0  0
    4.3855   65.0953   67.1679 C   0  0  0  0  0  0
    5.2770   66.2628   67.6398 C   0  0  0  0  0  0
    4.5857   67.6253   67.4818 C   0  0  0  0  0  0
    4.1925   67.8073   66.0805 N   0  3  0  0  0  0
    3.1996   66.8221   65.6392 C   0  0  0  0  0  0
    3.8229   65.4102   65.7568 C   0  0  0  0  0  0
    4.3302   69.1509   65.5151 C   0  0  0  0  0  0
    4.2612   69.1992   64.0021 C   0  0  0  0  0  0
    3.0583   69.6122   63.4103 C   0  0  0  0  0  0
    2.9137   69.6073   62.0214 C   0  0  0  0  0  0
    3.9685   69.1928   61.2101 C   0  0  0  0  0  0
    5.1698   68.7828   61.7855 C   0  0  0  0  0  0
    5.3166   68.7866   63.1737 C   0  0  0  0  0  0
    5.6679   63.6802   68.2153 H   0  0  0  0  0  0
    5.9893   63.7965   66.4837 H   0  0  0  0  0  0
    3.5310   65.0411   67.8689 H   0  0  0  0  0  0
    5.5824   66.1197   68.6906 H   0  0  0  0  0  0
    6.2068   66.2717   67.0398 H   0  0  0  0  0  0
    3.7145   67.7004   68.1590 H   0  0  0  0  0  0
    5.2829   68.4214   67.7923 H   0  0  0  0  0  0
    2.2727   66.8895   66.2384 H   0  0  0  0  0  0
    2.9028   66.9965   64.5928 H   0  0  0  0  0  0
    4.6504   65.3441   65.0247 H   0  0  0  0  0  0
    3.0777   64.6579   65.4492 H   0  0  0  0  0  0
    3.5737   69.8400   65.9317 H   0  0  0  0  0  0
    5.3143   69.5451   65.8234 H   0  0  0  0  0  0
    2.2062   69.9310   64.0444 H   0  0  0  0  0  0
    1.9555   69.9248   61.5679 H   0  0  0  0  0  0
    3.8512   69.1849   60.1094 H   0  0  0  0  0  0
    6.0072   68.4449   61.1453 H   0  0  0  0  0  0
    6.2681   68.4425   63.6279 H   0  0  0  0  0  0
    4.3640   62.4886   66.9831 C   0  0  0  0  0  0
    3.3310   62.2808   67.9859 N   0  0  0  0  0  0
    3.5065   61.3987   69.0541 C   0  0  0  0  0  0
    4.5000   60.6868   69.1648 O   0  0  0  0  0  0
    2.4151   61.2612   70.1227 C   0  0  0  0  0  0
    3.8980   62.5103   65.9824 H   0  0  0  0  0  0
    5.0400   61.6176   66.9795 H   0  0  0  0  0  0
    4.9170   67.4352   65.6976 H   0  0  0  0  0  0
    1.9743   62.7970   67.7699 C   0  0  0  0  0  0
    2.6272   60.3580   70.7104 H   0  0  0  0  0  0
    2.4289   62.1240   70.8046 H   0  0  0  0  0  0
    1.4106   61.1547   69.6871 H   0  0  0  0  0  0
    1.6337   63.3664   68.6467 H   0  0  0  0  0  0
    1.9481   63.4619   66.8985 H   0  0  0  0  0  0
    1.2665   61.9751   67.5772 H   0  0  0  0  0  0
  1  2  1  0  0  0
  1 15  1  0  0  0
  1 16  1  0  0  0
  1 33  1  0  0  0
  2  3  1  0  0  0
  2  7  1  0  0  0
  2 17  1  0  0  0
  3  4  1  0  0  0
  3 18  1  0  0  0
  3 19  1  0  0  0
  4  5  1  0  0  0
  4 20  1  0  0  0
  4 21  1  0  0  0
  5  6  1  0  0  0
  5  8  1  0  0  0
  5 40  1  0  0  0
  6  7  1  0  0  0
  6 22  1  0  0  0
  6 23  1  0  0  0
  7 24  1  0  0  0
  7 25  1  0  0  0
  8  9  1  0  0  0
  8 26  1  0  0  0
  8 27  1  0  0  0
  9 10  1  0  0  0
  9 14  2  0  0  0
 10 11  2  0  0  0
 10 28  1  0  0  0
 11 12  1  0  0  0
 11 29  1  0  0  0
 12 13  2  0  0  0
 12 30  1  0  0  0
 13 14  1  0  0  0
 13 31  1  0  0  0
 14 32  1  0  0  0
 33 34  1  0  0  0
 33 38  1  0  0  0
 33 39  1  0  0  0
 34 35  1  0  0  0
 34 41  1  0  0  0
 35 36  2  0  0  0
 35 37  1  0  0  0
 37 42  1  0  0  0
 37 43  1  0  0  0
 37 44  1  0  0  0
 41 45  1  0  0  0
 41 46  1  0  0  0
 41 47  1  0  0  0
M  CHG  1   5   1
M  END
>  <ACTIVITY>
6.18

>  <SET>
2

>  <Min_dist>
0.09

>  <Avg_dist>
0.39

$$$$
1-40
  Cerius2 12110213523D 1   1.00000                          
Structure written by Cerius2 SD Exporter
 51 53  0  0  0  0  0  0  0  0999 V2000
    4.9012   63.6570   67.1245 C   0  0  0  0  0  0
    4.3855   65.0953   67.1679 C   0  0  0  0  0  0
    5.2770   66.2628   67.6398 C   0  0  0  0  0  0
    4.5857   67.6253   67.4818 C   0  0  0  0  0  0
    4.1925   67.8073   66.0805 N   0  3  0  0  0  0
    3.1996   66.8221   65.6392 C   0  0  0  0  0  0
    3.8229   65.4102   65.7568 C   0  0  0  0  0  0
    4.3302   69.1509   65.5151 C   0  0  0  0  0  0
    4.2612   69.1992   64.0021 C   0  0  0  0  0  0
    3.0583   69.6122   63.4103 C   0  0  0  0  0  0
    2.9137   69.6073   62.0214 C   0  0  0  0  0  0
    3.9685   69.1928   61.2101 C   0  0  0  0  0  0
    5.1698   68.7828   61.7855 C   0  0  0  0  0  0
    5.3166   68.7866   63.1737 C   0  0  0  0  0  0
    5.5383   63.3911   67.9873 H   0  0  0  0  0  0
    5.5118   63.4701   66.2240 H   0  0  0  0  0  0
    3.5310   65.0411   67.8689 H   0  0  0  0  0  0
    5.5824   66.1197   68.6906 H   0  0  0  0  0  0
    6.2068   66.2717   67.0398 H   0  0  0  0  0  0
    3.7145   67.7004   68.1590 H   0  0  0  0  0  0
    5.2829   68.4214   67.7923 H   0  0  0  0  0  0
    2.2727   66.8895   66.2384 H   0  0  0  0  0  0
    2.9028   66.9965   64.5928 H   0  0  0  0  0  0
    4.6504   65.3441   65.0247 H   0  0  0  0  0  0
    3.0777   64.6579   65.4492 H   0  0  0  0  0  0
    3.5737   69.8400   65.9317 H   0  0  0  0  0  0
    5.3143   69.5451   65.8234 H   0  0  0  0  0  0
    2.2062   69.9310   64.0444 H   0  0  0  0  0  0
    1.9555   69.9248   61.5679 H   0  0  0  0  0  0
    3.8512   69.1849   60.1094 H   0  0  0  0  0  0
    6.0072   68.4449   61.1453 H   0  0  0  0  0  0
    6.2681   68.4425   63.6279 H   0  0  0  0  0  0
    3.6505   62.7522   67.1188 C   0  0  0  0  0  0
    3.1076   62.6810   68.3724 N   0  0  0  0  0  0
    3.4351   61.5249   69.0750 C   0  0  0  0  0  0
    4.4126   60.8107   68.8753 O   0  0  0  0  0  0
    2.4923   61.1719   70.2648 C   0  0  0  0  0  0
    2.1869   62.4404   71.0779 C   0  0  0  0  0  0
    2.8904   63.0298   66.3777 H   0  0  0  0  0  0
    3.9249   61.7316   66.8036 H   0  0  0  0  0  0
    4.9170   67.4352   65.6976 H   0  0  0  0  0  0
    1.6069   63.5589   70.1693 C   0  0  0  0  0  0
    1.7705   63.2276   68.6722 C   0  0  0  0  0  0
    1.5707   60.7145   69.8662 H   0  0  0  0  0  0
    3.0002   60.4136   70.8777 H   0  0  0  0  0  0
    1.5870   64.1279   68.0633 H   0  0  0  0  0  0
    0.9877   62.5045   68.3706 H   0  0  0  0  0  0
    1.5024   62.1930   71.9062 H   0  0  0  0  0  0
    3.1284   62.7831   71.5405 H   0  0  0  0  0  0
    0.5308   63.7035   70.3657 H   0  0  0  0  0  0
    2.0922   64.5197   70.4043 H   0  0  0  0  0  0
  1  2  1  0  0  0
  1 15  1  0  0  0
  1 16  1  0  0  0
  1 33  1  0  0  0
  2  3  1  0  0  0
  2  7  1  0  0  0
  2 17  1  0  0  0
  3  4  1  0  0  0
  3 18  1  0  0  0
  3 19  1  0  0  0
  4  5  1  0  0  0
  4 20  1  0  0  0
  4 21  1  0  0  0
  5  6  1  0  0  0
  5  8  1  0  0  0
  5 41  1  0  0  0
  6  7  1  0  0  0
  6 22  1  0  0  0
  6 23  1  0  0  0
  7 24  1  0  0  0
  7 25  1  0  0  0
  8  9  1  0  0  0
  8 26  1  0  0  0
  8 27  1  0  0  0
  9 10  1  0  0  0
  9 14  2  0  0  0
 10 11  2  0  0  0
 10 28  1  0  0  0
 11 12  1  0  0  0
 11 29  1  0  0  0
 12 13  2  0  0  0
 12 30  1  0  0  0
 13 14  1  0  0  0
 13 31  1  0  0  0
 14 32  1  0  0  0
 33 34  1  0  0  0
 33 39  1  0  0  0
 33 40  1  0  0  0
 34 35  1  0  0  0
 34 43  1  0  0  0
 35 36  2  0  0  0
 35 37  1  0  0  0
 37 38  1  0  0  0
 37 44  1  0  0  0
 37 45  1  0  0  0
 38 42  1  0  0  0
 38 48  1  0  0  0
 38 49  1  0  0  0
 42 43  1  0  0  0
 42 50  1  0  0  0
 42 51  1  0  0  0
 43 46  1  0  0  0
 43 47  1  0  0  0
M  CHG  1   5   1
M  END
>  <ACTIVITY>
6.57

>  <SET>
2

>  <Min_dist>
0.19

>  <Avg_dist>
0.45

$$$$
1-9
  Cerius2 12110213523D 1   1.00000                          
Structure written by Cerius2 SD Exporter
 52 55  0  0  0  0  0  0  0  0999 V2000
    4.9012   63.6570   67.1245 C   0  0  0  0  0  0
    4.3855   65.0953   67.1679 C   0  0  0  0  0  0
    5.2770   66.2628   67.6398 C   0  0  0  0  0  0
    4.5857   67.6253   67.4818 C   0  0  0  0  0  0
    4.1925   67.8073   66.0805 N   0  3  0  0  0  0
    3.1996   66.8221   65.6392 C   0  0  0  0  0  0
    3.8229   65.4102   65.7568 C   0  0  0  0  0  0
    4.3302   69.1509   65.5151 C   0  0  0  0  0  0
    4.2612   69.1992   64.0021 C   0  0  0  0  0  0
    3.0583   69.6122   63.4103 C   0  0  0  0  0  0
    2.9137   69.6073   62.0214 C   0  0  0  0  0  0
    3.9685   69.1928   61.2101 C   0  0  0  0  0  0
    5.1698   68.7828   61.7855 C   0  0  0  0  0  0
    5.3166   68.7866   63.1737 C   0  0  0  0  0  0
    5.5383   63.3911   67.9873 H   0  0  0  0  0  0
    5.5118   63.4701   66.2240 H   0  0  0  0  0  0
    3.5310   65.0411   67.8689 H   0  0  0  0  0  0
    5.5824   66.1197   68.6906 H   0  0  0  0  0  0
    6.2068   66.2717   67.0398 H   0  0  0  0  0  0
    3.7145   67.7004   68.1590 H   0  0  0  0  0  0
    5.2829   68.4214   67.7923 H   0  0  0  0  0  0
    2.2727   66.8895   66.2384 H   0  0  0  0  0  0
    2.9028   66.9965   64.5928 H   0  0  0  0  0  0
    4.6504   65.3441   65.0247 H   0  0  0  0  0  0
    3.0777   64.6579   65.4492 H   0  0  0  0  0  0
    3.5737   69.8400   65.9317 H   0  0  0  0  0  0
    5.3143   69.5451   65.8234 H   0  0  0  0  0  0
    2.2062   69.9310   64.0444 H   0  0  0  0  0  0
    1.9555   69.9248   61.5679 H   0  0  0  0  0  0
    3.8512   69.1849   60.1094 H   0  0  0  0  0  0
    6.0072   68.4449   61.1453 H   0  0  0  0  0  0
    6.2681   68.4425   63.6279 H   0  0  0  0  0  0
    3.6505   62.7522   67.1188 C   0  0  0  0  0  0
    3.0403   62.6823   68.4522 N   0  0  0  0  0  0
    3.4351   61.5249   69.0750 C   0  0  0  0  0  0
    4.4126   60.8107   68.8753 O   0  0  0  0  0  0
    2.3360   61.2610   69.9910 C   0  0  0  0  0  0
    2.1816   60.0574   70.7052 C   0  0  0  0  0  0
    1.0937   59.8814   71.5627 C   0  0  0  0  0  0
    0.1451   60.9030   71.7211 C   0  0  0  0  0  0
    0.3027   62.1039   71.0182 C   0  0  0  0  0  0
    1.3932   62.2913   70.1618 C   0  0  0  0  0  0
    2.8904   63.0298   66.3777 H   0  0  0  0  0  0
    3.9249   61.7316   66.8036 H   0  0  0  0  0  0
    2.9204   59.2427   70.5798 H   0  0  0  0  0  0
    0.9794   58.9301   72.1176 H   0  0  0  0  0  0
   -0.7170   60.7611   72.4002 H   0  0  0  0  0  0
   -0.4380   62.9164   71.1493 H   0  0  0  0  0  0
    4.9170   67.4352   65.6976 H   0  0  0  0  0  0
    1.8348   63.2846   69.0839 C   0  0  0  0  0  0
    2.0788   64.2712   69.5105 H   0  0  0  0  0  0
    1.0396   63.4607   68.3419 H   0  0  0  0  0  0
  1  2  1  0  0  0
  1 15  1  0  0  0
  1 16  1  0  0  0
  1 33  1  0  0  0
  2  3  1  0  0  0
  2  7  1  0  0  0
  2 17  1  0  0  0
  3  4  1  0  0  0
  3 18  1  0  0  0
  3 19  1  0  0  0
  4  5  1  0  0  0
  4 20  1  0  0  0
  4 21  1  0  0  0
  5  6  1  0  0  0
  5  8  1  0  0  0
  5 49  1  0  0  0
  6  7  1  0  0  0
  6 22  1  0  0  0
  6 23  1  0  0  0
  7 24  1  0  0  0
  7 25  1  0  0  0
  8  9  1  0  0  0
  8 26  1  0  0  0
  8 27  1  0  0  0
  9 10  1  0  0  0
  9 14  2  0  0  0
 10 11  2  0  0  0
 10 28  1  0  0  0
 11 12  1  0  0  0
 11 29  1  0  0  0
 12 13  2  0  0  0
 12 30  1  0  0  0
 13 14  1  0  0  0
 13 31  1  0  0  0
 14 32  1  0  0  0
 33 34  1  0  0  0
 33 43  1  0  0  0
 33 44  1  0  0  0
 34 35  1  0  0  0
 34 50  1  0  0  0
 35 36  2  0  0  0
 35 37  1  0  0  0
 37 38  2  0  0  0
 37 42  1  0  0  0
 38 39  1  0  0  0
 38 45  1  0  0  0
 39 40  2  0  0  0
 39 46  1  0  0  0
 40 41  1  0  0  0
 40 47  1  0  0  0
 41 42  2  0  0  0
 41 48  1  0  0  0
 42 50  1  0  0  0
 50 51  1  0  0  0
 50 52  1  0  0  0
M  CHG  1   5   1
M  END
>  <ACTIVITY>
7.01

>  <SET>
1

>  <Min_dist>
999.9

>  <Avg_dist>
999.9

$$$$
2-12
  Cerius2 12110213523D 1   1.00000                          
Structure written by Cerius2 SD Exporter
 52 54  0  0  0  0  0  0  0  0999 V2000
    5.1741   63.7666   67.2298 C   0  0  0  0  0  0
    4.3855   65.0953   67.1679 C   0  0  0  0  0  0
    5.2770   66.2628   67.6398 C   0  0  0  0  0  0
    4.5857   67.6253   67.4818 C   0  0  0  0  0  0
    4.1925   67.8073   66.0805 N   0  3  0  0  0  0
    3.1996   66.8221   65.6392 C   0  0  0  0  0  0
    3.8229   65.4102   65.7568 C   0  0  0  0  0  0
    4.3302   69.1509   65.5151 C   0  0  0  0  0  0
    4.2612   69.1992   64.0021 C   0  0  0  0  0  0
    3.0583   69.6122   63.4103 C   0  0  0  0  0  0
    2.9137   69.6073   62.0214 C   0  0  0  0  0  0
    3.9685   69.1928   61.2101 C   0  0  0  0  0  0
    5.1698   68.7828   61.7855 C   0  0  0  0  0  0
    5.3166   68.7866   63.1737 C   0  0  0  0  0  0
    5.6679   63.6802   68.2153 H   0  0  0  0  0  0
    5.9893   63.7965   66.4837 H   0  0  0  0  0  0
    3.5310   65.0411   67.8689 H   0  0  0  0  0  0
    5.5824   66.1197   68.6906 H   0  0  0  0  0  0
    6.2068   66.2717   67.0398 H   0  0  0  0  0  0
    3.7145   67.7004   68.1590 H   0  0  0  0  0  0
    5.2829   68.4214   67.7923 H   0  0  0  0  0  0
    2.2727   66.8895   66.2384 H   0  0  0  0  0  0
    2.9028   66.9965   64.5928 H   0  0  0  0  0  0
    4.6504   65.3441   65.0247 H   0  0  0  0  0  0
    3.0777   64.6579   65.4492 H   0  0  0  0  0  0
    3.5737   69.8400   65.9317 H   0  0  0  0  0  0
    5.3143   69.5451   65.8234 H   0  0  0  0  0  0
    2.2062   69.9310   64.0444 H   0  0  0  0  0  0
    1.9555   69.9248   61.5679 H   0  0  0  0  0  0
    3.8512   69.1849   60.1094 H   0  0  0  0  0  0
    6.0072   68.4449   61.1453 H   0  0  0  0  0  0
    6.2681   68.4425   63.6279 H   0  0  0  0  0  0
    4.3640   62.4886   66.9831 C   0  0  0  0  0  0
    3.3310   62.2808   67.9859 N   0  0  0  0  0  0
    3.5065   61.3987   69.0541 C   0  0  0  0  0  0
    2.3360   61.2610   69.9910 C   0  0  0  0  0  0
    2.1816   60.0574   70.7052 C   0  0  0  0  0  0
    1.0937   59.8814   71.5627 C   0  0  0  0  0  0
    0.1451   60.9030   71.7211 C   0  0  0  0  0  0
    0.3027   62.1039   71.0182 C   0  0  0  0  0  0
    1.3932   62.2913   70.1618 C   0  0  0  0  0  0
    3.8980   62.5103   65.9824 H   0  0  0  0  0  0
    5.0400   61.6176   66.9795 H   0  0  0  0  0  0
    2.4816   62.8088   67.9313 H   0  0  0  0  0  0
    2.9204   59.2427   70.5798 H   0  0  0  0  0  0
    0.9794   58.9301   72.1176 H   0  0  0  0  0  0
   -0.7170   60.7611   72.4002 H   0  0  0  0  0  0
   -0.4380   62.9164   71.1493 H   0  0  0  0  0  0
    1.5043   63.2620   69.6464 H   0  0  0  0  0  0
    4.9170   67.4352   65.6976 H   0  0  0  0  0  0
    3.7422   60.3859   68.6738 H   0  0  0  0  0  0
    4.3829   61.6953   69.6657 H   0  0  0  0  0  0
  1  2  1  0  0  0
  1 15  1  0  0  0
  1 16  1  0  0  0
  1 33  1  0  0  0
  2  3  1  0  0  0
  2  7  1  0  0  0
  2 17  1  0  0  0
  3  4  1  0  0  0
  3 18  1  0  0  0
  3 19  1  0  0  0
  4  5  1  0  0  0
  4 20  1  0  0  0
  4 21  1  0  0  0
  5  6  1  0  0  0
  5  8  1  0  0  0
  5 50  1  0  0  0
  6  7  1  0  0  0
  6 22  1  0  0  0
  6 23  1  0  0  0
  7 24  1  0  0  0
  7 25  1  0  0  0
  8  9  1  0  0  0
  8 26  1  0  0  0
  8 27  1  0  0  0
  9 10  1  0  0  0
  9 14  2  0  0  0
 10 11  2  0  0  0
 10 28  1  0  0  0
 11 12  1  0  0  0
 11 29  1  0  0  0
 12 13  2  0  0  0
 12 30  1  0  0  0
 13 14  1  0  0  0
 13 31  1  0  0  0
 14 32  1  0  0  0
 33 34  1  0  0  0
 33 42  1  0  0  0
 33 43  1  0  0  0
 34 35  1  0  0  0
 34 44  1  0  0  0
 35 36  1  0  0  0
 35 51  1  0  0  0
 35 52  1  0  0  0
 36 37  2  0  0  0
 36 41  1  0  0  0
 37 38  1  0  0  0
 37 45  1  0  0  0
 38 39  2  0  0  0
 38 46  1  0  0  0
 39 40  1  0  0  0
 39 47  1  0  0  0
 40 41  2  0  0  0
 40 48  1  0  0  0
 41 49  1  0  0  0
M  CHG  1   5   1
M  END
>  <ACTIVITY>
4.34

>  <SET>
1

>  <Min_dist>
999.9

>  <Avg_dist>
999.9

$$$$
2-14
  Cerius2 12110213523D 1   1.00000                          
Structure written by Cerius2 SD Exporter
 57 59  0  0  0  0  0  0  0  0999 V2000
    5.1741   63.7666   67.2298 C   0  0  0  0  0  0
    4.3855   65.0953   67.1679 C   0  0  0  0  0  0
    5.2770   66.2628   67.6398 C   0  0  0  0  0  0
    4.5857   67.6253   67.4818 C   0  0  0  0  0  0
    4.1925   67.8073   66.0805 N   0  3  0  0  0  0
    3.1996   66.8221   65.6392 C   0  0  0  0  0  0
    3.8229   65.4102   65.7568 C   0  0  0  0  0  0
    4.3302   69.1509   65.5151 C   0  0  0  0  0  0
    4.2612   69.1992   64.0021 C   0  0  0  0  0  0
    3.0583   69.6122   63.4103 C   0  0  0  0  0  0
    2.9137   69.6073   62.0214 C   0  0  0  0  0  0
    3.9685   69.1928   61.2101 C   0  0  0  0  0  0
    5.1698   68.7828   61.7855 C   0  0  0  0  0  0
    5.3166   68.7866   63.1737 C   0  0  0  0  0  0
    5.6679   63.6802   68.2153 H   0  0  0  0  0  0
    5.9893   63.7965   66.4837 H   0  0  0  0  0  0
    3.5310   65.0411   67.8689 H   0  0  0  0  0  0
    5.5824   66.1197   68.6906 H   0  0  0  0  0  0
    6.2068   66.2717   67.0398 H   0  0  0  0  0  0
    3.7145   67.7004   68.1590 H   0  0  0  0  0  0
    5.2829   68.4214   67.7923 H   0  0  0  0  0  0
    2.2727   66.8895   66.2384 H   0  0  0  0  0  0
    2.9028   66.9965   64.5928 H   0  0  0  0  0  0
    4.6504   65.3441   65.0247 H   0  0  0  0  0  0
    3.0777   64.6579   65.4492 H   0  0  0  0  0  0
    3.5737   69.8400   65.9317 H   0  0  0  0  0  0
    5.3143   69.5451   65.8234 H   0  0  0  0  0  0
    2.2062   69.9310   64.0444 H   0  0  0  0  0  0
    1.9555   69.9248   61.5679 H   0  0  0  0  0  0
    3.8512   69.1849   60.1094 H   0  0  0  0  0  0
    6.0072   68.4449   61.1453 H   0  0  0  0  0  0
    6.2681   68.4425   63.6279 H   0  0  0  0  0  0
    4.3640   62.4886   66.9831 C   0  0  0  0  0  0
    3.3310   62.2808   67.9859 N   0  0  0  0  0  0
    3.5065   61.3987   69.0541 C   0  0  0  0  0  0
    4.5000   60.6868   69.1648 O   0  0  0  0  0  0
    2.3360   61.2610   69.9910 C   0  0  0  0  0  0
    1.9977   59.9668   70.4271 C   0  0  0  0  0  0
    0.9513   59.7854   71.3358 C   0  0  0  0  0  0
    0.2562   60.8952   71.8398 C   0  0  0  0  0  0
    0.6287   62.1875   71.4427 C   0  0  0  0  0  0
    1.6791   62.3757   70.5354 C   0  0  0  0  0  0
    3.8980   62.5103   65.9824 H   0  0  0  0  0  0
    5.0400   61.6176   66.9795 H   0  0  0  0  0  0
    1.9618   62.7028   67.5932 C   0  0  0  0  0  0
    2.5540   59.0932   70.0362 H   0  0  0  0  0  0
    0.6767   58.7646   71.6681 H   0  0  0  0  0  0
   -0.5688   60.7492   72.5637 H   0  0  0  0  0  0
    0.0974   63.0638   71.8609 H   0  0  0  0  0  0
    1.9917   63.3979   70.2546 H   0  0  0  0  0  0
    4.9170   67.4352   65.6976 H   0  0  0  0  0  0
    1.4253   63.1179   68.4569 H   0  0  0  0  0  0
    2.0422   63.5469   66.8944 H   0  0  0  0  0  0
    1.0932   61.6237   66.9280 C   0  0  0  0  0  0
    0.1200   62.0653   66.6590 H   0  0  0  0  0  0
    1.5588   61.2361   66.0090 H   0  0  0  0  0  0
    0.9011   60.7706   67.5959 H   0  0  0  0  0  0
  1  2  1  0  0  0
  1 15  1  0  0  0
  1 16  1  0  0  0
  1 33  1  0  0  0
  2  3  1  0  0  0
  2  7  1  0  0  0
  2 17  1  0  0  0
  3  4  1  0  0  0
  3 18  1  0  0  0
  3 19  1  0  0  0
  4  5  1  0  0  0
  4 20  1  0  0  0
  4 21  1  0  0  0
  5  6  1  0  0  0
  5  8  1  0  0  0
  5 51  1  0  0  0
  6  7  1  0  0  0
  6 22  1  0  0  0
  6 23  1  0  0  0
  7 24  1  0  0  0
  7 25  1  0  0  0
  8  9  1  0  0  0
  8 26  1  0  0  0
  8 27  1  0  0  0
  9 10  1  0  0  0
  9 14  2  0  0  0
 10 11  2  0  0  0
 10 28  1  0  0  0
 11 12  1  0  0  0
 11 29  1  0  0  0
 12 13  2  0  0  0
 12 30  1  0  0  0
 13 14  1  0  0  0
 13 31  1  0  0  0
 14 32  1  0  0  0
 33 34  1  0  0  0
 33 43  1  0  0  0
 33 44  1  0  0  0
 34 35  1  0  0  0
 34 45  1  0  0  0
 35 36  2  0  0  0
 35 37  1  0  0  0
 37 38  2  0  0  0
 37 42  1  0  0  0
 38 39  1  0  0  0
 38 46  1  0  0  0
 39 40  2  0  0  0
 39 47  1  0  0  0
 40 41  1  0  0  0
 40 48  1  0  0  0
 41 42  2  0  0  0
 41 49  1  0  0  0
 42 50  1  0  0  0
 45 52  1  0  0  0
 45 53  1  0  0  0
 45 54  1  0  0  0
 54 55  1  0  0  0
 54 56  1  0  0  0
 54 57  1  0  0  0
M  CHG  1   5   1
M  END
>  <ACTIVITY>
6.89

>  <SET>
1

>  <Min_dist>
999.9

>  <Avg_dist>
999.9

$$$$
2-15
  Cerius2 12110213523D 1   1.00000                          
Structure written by Cerius2 SD Exporter
 64 67  0  0  0  0  0  0  0  0999 V2000
    5.1741   63.7666   67.2298 C   0  0  0  0  0  0
    4.3855   65.0953   67.1679 C   0  0  0  0  0  0
    5.2770   66.2628   67.6398 C   0  0  0  0  0  0
    4.5857   67.6253   67.4818 C   0  0  0  0  0  0
    4.1925   67.8073   66.0805 N   0  3  0  0  0  0
    3.1996   66.8221   65.6392 C   0  0  0  0  0  0
    3.8229   65.4102   65.7568 C   0  0  0  0  0  0
    4.3302   69.1509   65.5151 C   0  0  0  0  0  0
    4.2612   69.1992   64.0021 C   0  0  0  0  0  0
    3.0583   69.6122   63.4103 C   0  0  0  0  0  0
    2.9137   69.6073   62.0214 C   0  0  0  0  0  0
    3.9685   69.1928   61.2101 C   0  0  0  0  0  0
    5.1698   68.7828   61.7855 C   0  0  0  0  0  0
    5.3166   68.7866   63.1737 C   0  0  0  0  0  0
    5.6679   63.6802   68.2153 H   0  0  0  0  0  0
    5.9893   63.7965   66.4837 H   0  0  0  0  0  0
    3.5310   65.0411   67.8689 H   0  0  0  0  0  0
    5.5824   66.1197   68.6906 H   0  0  0  0  0  0
    6.2068   66.2717   67.0398 H   0  0  0  0  0  0
    3.7145   67.7004   68.1590 H   0  0  0  0  0  0
    5.2829   68.4214   67.7923 H   0  0  0  0  0  0
    2.2727   66.8895   66.2384 H   0  0  0  0  0  0
    2.9028   66.9965   64.5928 H   0  0  0  0  0  0
    4.6504   65.3441   65.0247 H   0  0  0  0  0  0
    3.0777   64.6579   65.4492 H   0  0  0  0  0  0
    3.5737   69.8400   65.9317 H   0  0  0  0  0  0
    5.3143   69.5451   65.8234 H   0  0  0  0  0  0
    2.2062   69.9310   64.0444 H   0  0  0  0  0  0
    1.9555   69.9248   61.5679 H   0  0  0  0  0  0
    3.8512   69.1849   60.1094 H   0  0  0  0  0  0
    6.0072   68.4449   61.1453 H   0  0  0  0  0  0
    6.2681   68.4425   63.6279 H   0  0  0  0  0  0
    4.3640   62.4886   66.9831 C   0  0  0  0  0  0
    3.3310   62.2808   67.9859 N   0  0  0  0  0  0
    3.5065   61.3987   69.0541 C   0  0  0  0  0  0
    4.5000   60.6868   69.1648 O   0  0  0  0  0  0
    2.3360   61.2610   69.9910 C   0  0  0  0  0  0
    1.9934   59.9698   70.4338 C   0  0  0  0  0  0
    0.9455   59.7955   71.3422 C   0  0  0  0  0  0
    0.2535   60.9090   71.8417 C   0  0  0  0  0  0
    0.6310   62.1988   71.4405 C   0  0  0  0  0  0
    1.6818   62.3802   70.5333 C   0  0  0  0  0  0
    3.9447   62.5219   65.9642 H   0  0  0  0  0  0
    5.0400   61.6176   66.9795 H   0  0  0  0  0  0
    1.9605   62.6272   67.5023 C   0  0  0  0  0  0
    2.5473   59.0912   70.0508 H   0  0  0  0  0  0
    0.6668   58.7769   71.6776 H   0  0  0  0  0  0
   -0.5733   60.7680   72.5645 H   0  0  0  0  0  0
    0.1014   63.0781   71.8550 H   0  0  0  0  0  0
    1.9935   63.4004   70.2447 H   0  0  0  0  0  0
    4.9170   67.4352   65.6976 H   0  0  0  0  0  0
    1.2257   62.5655   68.3123 H   0  0  0  0  0  0
    1.9531   63.6836   67.1978 H   0  0  0  0  0  0
    1.4185   61.7830   66.3446 C   0  0  0  0  0  0
    0.9317   62.3755   65.1685 C   0  0  0  0  0  0
    0.9194   63.4774   65.0580 H   0  0  0  0  0  0
    0.4397   61.5919   64.1171 C   0  0  0  0  0  0
    0.0576   62.0786   63.1987 H   0  0  0  0  0  0
    0.4205   60.1960   64.2206 C   0  0  0  0  0  0
    0.0298   59.5742   63.3922 H   0  0  0  0  0  0
    0.8954   59.5963   65.3932 C   0  0  0  0  0  0
    0.8816   58.4930   65.4960 H   0  0  0  0  0  0
    1.3852   60.3816   66.4421 C   0  0  0  0  0  0
    1.7518   59.8741   67.3580 H   0  0  0  0  0  0
  1  2  1  0  0  0
  1 15  1  0  0  0
  1 16  1  0  0  0
  1 33  1  0  0  0
  2  3  1  0  0  0
  2  7  1  0  0  0
  2 17  1  0  0  0
  3  4  1  0  0  0
  3 18  1  0  0  0
  3 19  1  0  0  0
  4  5  1  0  0  0
  4 20  1  0  0  0
  4 21  1  0  0  0
  5  6  1  0  0  0
  5  8  1  0  0  0
  5 51  1  0  0  0
  6  7  1  0  0  0
  6 22  1  0  0  0
  6 23  1  0  0  0
  7 24  1  0  0  0
  7 25  1  0  0  0
  8  9  1  0  0  0
  8 26  1  0  0  0
  8 27  1  0  0  0
  9 10  1  0  0  0
  9 14  2  0  0  0
 10 11  2  0  0  0
 10 28  1  0  0  0
 11 12  1  0  0  0
 11 29  1  0  0  0
 12 13  2  0  0  0
 12 30  1  0  0  0
 13 14  1  0  0  0
 13 31  1  0  0  0
 14 32  1  0  0  0
 33 34  1  0  0  0
 33 43  1  0  0  0
 33 44  1  0  0  0
 34 35  1  0  0  0
 34 45  1  0  0  0
 35 36  2  0  0  0
 35 37  1  0  0  0
 37 38  2  0  0  0
 37 42  1  0  0  0
 38 39  1  0  0  0
 38 46  1  0  0  0
 39 40  2  0  0  0
 39 47  1  0  0  0
 40 41  1  0  0  0
 40 48  1  0  0  0
 41 42  2  0  0  0
 41 49  1  0  0  0
 42 50  1  0  0  0
 45 52  1  0  0  0
 45 53  1  0  0  0
 45 54  1  0  0  0
 54 55  1  0  0  0
 54 63  2  0  0  0
 55 56  1  0  0  0
 55 57  2  0  0  0
 57 58  1  0  0  0
 57 59  1  0  0  0
 59 60  1  0  0  0
 59 61  2  0  0  0
 61 62  1  0  0  0
 61 63  1  0  0  0
 63 64  1  0  0  0
M  CHG  1   5   1
M  END
>  <ACTIVITY>
6.03

>  <SET>
1

>  <Min_dist>
999.9

>  <Avg_dist>
999.9

$$$$
2-21
  Cerius2 12110213523D 1   1.00000                          
Structure written by Cerius2 SD Exporter
 70 73  0  0  0  0  0  0  0  0999 V2000
    5.1741   63.7666   67.2298 C   0  0  0  0  0  0
    4.3855   65.0953   67.1679 C   0  0  0  0  0  0
    5.2770   66.2628   67.6398 C   0  0  0  0  0  0
    4.5857   67.6253   67.4818 C   0  0  0  0  0  0
    4.1925   67.8073   66.0805 N   0  3  0  0  0  0
    3.1996   66.8221   65.6392 C   0  0  0  0  0  0
    3.8229   65.4102   65.7568 C   0  0  0  0  0  0
    4.3302   69.1509   65.5151 C   0  0  0  0  0  0
    4.2612   69.1992   64.0021 C   0  0  0  0  0  0
    3.0693   69.6458   63.4050 C   0  0  0  0  0  0
    2.9210   69.6419   62.0193 C   0  0  0  0  0  0
    3.9685   69.1928   61.2101 C   0  0  0  0  0  0
    5.1698   68.7828   61.7855 C   0  0  0  0  0  0
    5.3166   68.7866   63.1737 C   0  0  0  0  0  0
    5.6679   63.6802   68.2153 H   0  0  0  0  0  0
    5.9893   63.7965   66.4837 H   0  0  0  0  0  0
    3.5310   65.0411   67.8689 H   0  0  0  0  0  0
    5.5824   66.1197   68.6906 H   0  0  0  0  0  0
    6.2068   66.2717   67.0398 H   0  0  0  0  0  0
    3.7145   67.7004   68.1590 H   0  0  0  0  0  0
    5.2829   68.4214   67.7923 H   0  0  0  0  0  0
    2.2727   66.8895   66.2384 H   0  0  0  0  0  0
    2.9028   66.9965   64.5928 H   0  0  0  0  0  0
    4.6504   65.3441   65.0247 H   0  0  0  0  0  0
    3.0777   64.6579   65.4492 H   0  0  0  0  0  0
    3.5538   69.7962   65.9465 H   0  0  0  0  0  0
    5.3143   69.5451   65.8234 H   0  0  0  0  0  0
    2.2216   70.0128   64.0215 H   0  0  0  0  0  0
    1.9761   69.9903   61.5567 H   0  0  0  0  0  0
    3.8512   69.1849   60.1094 H   0  0  0  0  0  0
    6.0072   68.4449   61.1453 H   0  0  0  0  0  0
    6.2681   68.4425   63.6279 H   0  0  0  0  0  0
    4.3640   62.4886   66.9831 C   0  0  0  0  0  0
    3.3310   62.2808   67.9859 N   0  0  0  0  0  0
    3.5065   61.3987   69.0541 C   0  0  0  0  0  0
    4.5000   60.6868   69.1648 O   0  0  0  0  0  0
    2.3965   61.2364   70.0704 C   0  0  0  0  0  0
    2.1057   59.9556   70.5727 C   0  0  0  0  0  0
    1.0390   59.7595   71.4496 C   0  0  0  0  0  0
    0.2431   60.8505   71.8109 C   0  0  0  0  0  0
    0.5692   62.1422   71.3851 C   0  0  0  0  0  0
    1.6553   62.3328   70.5392 C   0  0  0  0  0  0
    3.8980   62.5103   65.9824 H   0  0  0  0  0  0
    5.0400   61.6176   66.9795 H   0  0  0  0  0  0
    1.9885   62.7494   67.6159 C   0  0  0  0  0  0
    2.7188   59.0904   70.2494 H   0  0  0  0  0  0
    0.8354   58.7449   71.8398 H   0  0  0  0  0  0
   -0.0155   63.0197   71.7217 H   0  0  0  0  0  0
    1.9244   63.3610   70.2342 H   0  0  0  0  0  0
    4.9170   67.4352   65.6976 H   0  0  0  0  0  0
   -1.1405   60.6862   72.8871 S   0  0  0  0  0  0
   -0.5895   60.4331   74.1850 O   0  0  0  0  0  0
   -1.9772   61.8287   72.6402 O   0  0  0  0  0  0
   -2.0041   59.2295   72.3190 C   0  0  0  0  0  0
   -3.1913   58.9115   73.2038 C   0  0  0  0  0  0
   -3.0042   58.2436   74.4231 C   0  0  0  0  0  0
   -4.0923   57.9415   75.2493 C   0  0  0  0  0  0
   -5.3918   58.3015   74.8695 C   0  0  0  0  0  0
   -5.5831   58.9709   73.6545 C   0  0  0  0  0  0
   -4.4922   59.2724   72.8299 C   0  0  0  0  0  0
   -2.3222   59.3819   71.2792 H   0  0  0  0  0  0
   -1.2771   58.4070   72.3596 H   0  0  0  0  0  0
   -1.9838   57.9572   74.7524 H   0  0  0  0  0  0
   -3.9183   57.4191   76.2094 H   0  0  0  0  0  0
   -6.2525   58.0657   75.5228 H   0  0  0  0  0  0
   -6.6013   59.2696   73.3403 H   0  0  0  0  0  0
   -4.6744   59.8080   71.8765 H   0  0  0  0  0  0
    1.2232   62.0457   67.9699 H   0  0  0  0  0  0
    1.7726   63.7477   68.0234 H   0  0  0  0  0  0
    1.8763   62.7924   66.5211 H   0  0  0  0  0  0
  1  2  1  0  0  0
  1 15  1  0  0  0
  1 16  1  0  0  0
  1 33  1  0  0  0
  2  3  1  0  0  0
  2  7  1  0  0  0
  2 17  1  0  0  0
  3  4  1  0  0  0
  3 18  1  0  0  0
  3 19  1  0  0  0
  4  5  1  0  0  0
  4 20  1  0  0  0
  4 21  1  0  0  0
  5  6  1  0  0  0
  5  8  1  0  0  0
  5 50  1  0  0  0
  6  7  1  0  0  0
  6 22  1  0  0  0
  6 23  1  0  0  0
  7 24  1  0  0  0
  7 25  1  0  0  0
  8  9  1  0  0  0
  8 26  1  0  0  0
  8 27  1  0  0  0
  9 10  1  0  0  0
  9 14  2  0  0  0
 10 11  2  0  0  0
 10 28  1  0  0  0
 11 12  1  0  0  0
 11 29  1  0  0  0
 12 13  2  0  0  0
 12 30  1  0  0  0
 13 14  1  0  0  0
 13 31  1  0  0  0
 14 32  1  0  0  0
 33 34  1  0  0  0
 33 43  1  0  0  0
 33 44  1  0  0  0
 34 35  1  0  0  0
 34 45  1  0  0  0
 35 36  2  0  0  0
 35 37  1  0  0  0
 37 38  2  0  0  0
 37 42  1  0  0  0
 38 39  1  0  0  0
 38 46  1  0  0  0
 39 40  2  0  0  0
 39 47  1  0  0  0
 40 41  1  0  0  0
 40 51  1  0  0  0
 41 42  2  0  0  0
 41 48  1  0  0  0
 42 49  1  0  0  0
 45 68  1  0  0  0
 45 69  1  0  0  0
 45 70  1  0  0  0
 51 52  2  0  0  0
 51 53  2  0  0  0
 51 54  1  0  0  0
 54 55  1  0  0  0
 54 61  1  0  0  0
 54 62  1  0  0  0
 55 56  2  0  0  0
 55 60  1  0  0  0
 56 57  1  0  0  0
 56 63  1  0  0  0
 57 58  2  0  0  0
 57 64  1  0  0  0
 58 59  1  0  0  0
 58 65  1  0  0  0
 59 60  2  0  0  0
 59 66  1  0  0  0
 60 67  1  0  0  0
M  CHG  1   5   1
M  END
>  <ACTIVITY>
9.22

>  <SET>
1

>  <Min_dist>
999.9

>  <Avg_dist>
999.9

$$$$
2-22
  Cerius2 12110213523D 1   1.00000                          
Structure written by Cerius2 SD Exporter
 73 76  0  0  0  0  0  0  0  0999 V2000
    5.1741   63.7666   67.2298 C   0  0  0  0  0  0
    4.3855   65.0953   67.1679 C   0  0  0  0  0  0
    5.2770   66.2628   67.6398 C   0  0  0  0  0  0
    4.5857   67.6253   67.4818 C   0  0  0  0  0  0
    4.1925   67.8073   66.0805 N   0  3  0  0  0  0
    3.1996   66.8221   65.6392 C   0  0  0  0  0  0
    3.8229   65.4102   65.7568 C   0  0  0  0  0  0
    4.3302   69.1509   65.5151 C   0  0  0  0  0  0
    4.2612   69.1992   64.0021 C   0  0  0  0  0  0
    3.0693   69.6458   63.4050 C   0  0  0  0  0  0
    2.9210   69.6419   62.0193 C   0  0  0  0  0  0
    3.9685   69.1928   61.2101 C   0  0  0  0  0  0
    5.1698   68.7828   61.7855 C   0  0  0  0  0  0
    5.3166   68.7866   63.1737 C   0  0  0  0  0  0
    5.6679   63.6802   68.2153 H   0  0  0  0  0  0
    5.9893   63.7965   66.4837 H   0  0  0  0  0  0
    3.5310   65.0411   67.8689 H   0  0  0  0  0  0
    5.5824   66.1197   68.6906 H   0  0  0  0  0  0
    6.2068   66.2717   67.0398 H   0  0  0  0  0  0
    3.7145   67.7004   68.1590 H   0  0  0  0  0  0
    5.2829   68.4214   67.7923 H   0  0  0  0  0  0
    2.2727   66.8895   66.2384 H   0  0  0  0  0  0
    2.9028   66.9965   64.5928 H   0  0  0  0  0  0
    4.6504   65.3441   65.0247 H   0  0  0  0  0  0
    3.0777   64.6579   65.4492 H   0  0  0  0  0  0
    3.5538   69.7962   65.9465 H   0  0  0  0  0  0
    5.3143   69.5451   65.8234 H   0  0  0  0  0  0
    2.2216   70.0128   64.0215 H   0  0  0  0  0  0
    1.9761   69.9903   61.5567 H   0  0  0  0  0  0
    3.8512   69.1849   60.1094 H   0  0  0  0  0  0
    6.0072   68.4449   61.1453 H   0  0  0  0  0  0
    6.2681   68.4425   63.6279 H   0  0  0  0  0  0
    4.3640   62.4886   66.9831 C   0  0  0  0  0  0
    3.3310   62.2808   67.9859 N   0  0  0  0  0  0
    3.5065   61.3987   69.0541 C   0  0  0  0  0  0
    4.5000   60.6868   69.1648 O   0  0  0  0  0  0
    2.4060   61.2257   70.0753 C   0  0  0  0  0  0
    2.0134   59.9262   70.4371 C   0  0  0  0  0  0
    0.9456   59.7240   71.3107 C   0  0  0  0  0  0
    0.2566   60.8327   71.8100 C   0  0  0  0  0  0
    0.6953   62.1318   71.5309 C   0  0  0  0  0  0
    1.7831   62.3230   70.6875 C   0  0  0  0  0  0
    3.8980   62.5103   65.9824 H   0  0  0  0  0  0
    5.0400   61.6176   66.9795 H   0  0  0  0  0  0
    1.9568   62.6783   67.5871 C   0  0  0  0  0  0
    2.5436   59.0561   70.0003 H   0  0  0  0  0  0
    0.6616   58.6915   71.5837 H   0  0  0  0  0  0
    0.1938   63.0103   71.9803 H   0  0  0  0  0  0
    2.1460   63.3496   70.4910 H   0  0  0  0  0  0
    4.9170   67.4352   65.6976 H   0  0  0  0  0  0
   -1.1350   60.6922   72.8796 S   0  0  0  0  0  0
   -0.5980   60.4220   74.1797 O   0  0  0  0  0  0
   -1.9413   61.8573   72.6343 O   0  0  0  0  0  0
   -2.0298   59.2618   72.2968 C   0  0  0  0  0  0
   -3.2196   58.9476   73.1794 C   0  0  0  0  0  0
   -3.0401   58.2558   74.3864 C   0  0  0  0  0  0
   -4.1308   57.9569   75.2104 C   0  0  0  0  0  0
   -5.4253   58.3442   74.8406 C   0  0  0  0  0  0
   -5.6090   59.0375   73.6379 C   0  0  0  0  0  0
   -4.5155   59.3357   72.8155 C   0  0  0  0  0  0
   -2.3481   59.4372   71.2607 H   0  0  0  0  0  0
   -1.3160   58.4272   72.3211 H   0  0  0  0  0  0
   -2.0236   57.9475   74.7078 H   0  0  0  0  0  0
   -3.9627   57.4153   76.1609 H   0  0  0  0  0  0
   -6.2880   58.1109   75.4922 H   0  0  0  0  0  0
   -6.6231   59.3578   73.3318 H   0  0  0  0  0  0
   -4.6916   59.8905   71.8720 H   0  0  0  0  0  0
    1.4569   63.2154   68.4036 H   0  0  0  0  0  0
    2.0318   63.4238   66.7827 H   0  0  0  0  0  0
    1.0472   61.5481   67.0794 C   0  0  0  0  0  0
    0.0813   61.9807   66.7714 H   0  0  0  0  0  0
    1.4863   61.0395   66.2070 H   0  0  0  0  0  0
    0.8447   60.7880   67.8483 H   0  0  0  0  0  0
  1  2  1  0  0  0
  1 15  1  0  0  0
  1 16  1  0  0  0
  1 33  1  0  0  0
  2  3  1  0  0  0
  2  7  1  0  0  0
  2 17  1  0  0  0
  3  4  1  0  0  0
  3 18  1  0  0  0
  3 19  1  0  0  0
  4  5  1  0  0  0
  4 20  1  0  0  0
  4 21  1  0  0  0
  5  6  1  0  0  0
  5  8  1  0  0  0
  5 50  1  0  0  0
  6  7  1  0  0  0
  6 22  1  0  0  0
  6 23  1  0  0  0
  7 24  1  0  0  0
  7 25  1  0  0  0
  8  9  1  0  0  0
  8 26  1  0  0  0
  8 27  1  0  0  0
  9 10  1  0  0  0
  9 14  2  0  0  0
 10 11  2  0  0  0
 10 28  1  0  0  0
 11 12  1  0  0  0
 11 29  1  0  0  0
 12 13  2  0  0  0
 12 30  1  0  0  0
 13 14  1  0  0  0
 13 31  1  0  0  0
 14 32  1  0  0  0
 33 34  1  0  0  0
 33 43  1  0  0  0
 33 44  1  0  0  0
 34 35  1  0  0  0
 34 45  1  0  0  0
 35 36  2  0  0  0
 35 37  1  0  0  0
 37 38  2  0  0  0
 37 42  1  0  0  0
 38 39  1  0  0  0
 38 46  1  0  0  0
 39 40  2  0  0  0
 39 47  1  0  0  0
 40 41  1  0  0  0
 40 51  1  0  0  0
 41 42  2  0  0  0
 41 48  1  0  0  0
 42 49  1  0  0  0
 45 68  1  0  0  0
 45 69  1  0  0  0
 45 70  1  0  0  0
 51 52  2  0  0  0
 51 53  2  0  0  0
 51 54  1  0  0  0
 54 55  1  0  0  0
 54 61  1  0  0  0
 54 62  1  0  0  0
 55 56  2  0  0  0
 55 60  1  0  0  0
 56 57  1  0  0  0
 56 63  1  0  0  0
 57 58  2  0  0  0
 57 64  1  0  0  0
 58 59  1  0  0  0
 58 65  1  0  0  0
 59 60  2  0  0  0
 59 66  1  0  0  0
 60 67  1  0  0  0
 70 71  1  0  0  0
 70 72  1  0  0  0
 70 73  1  0  0  0
M  CHG  1   5   1
M  END
>  <ACTIVITY>
9.52

>  <SET>
1

>  <Min_dist>
999.9

>  <Avg_dist>
999.9

$$$$
2-23
  Cerius2 12110213523D 1   1.00000                          
Structure written by Cerius2 SD Exporter
 77 81  0  0  0  0  0  0  0  0999 V2000
    5.1741   63.7666   67.2298 C   0  0  0  0  0  0
    4.3855   65.0953   67.1679 C   0  0  0  0  0  0
    5.2770   66.2628   67.6398 C   0  0  0  0  0  0
    4.5857   67.6253   67.4818 C   0  0  0  0  0  0
    4.1925   67.8073   66.0805 N   0  3  0  0  0  0
    3.1996   66.8221   65.6392 C   0  0  0  0  0  0
    3.8229   65.4102   65.7568 C   0  0  0  0  0  0
    4.3302   69.1509   65.5151 C   0  0  0  0  0  0
    4.2612   69.1992   64.0021 C   0  0  0  0  0  0
    3.0693   69.6458   63.4050 C   0  0  0  0  0  0
    2.9210   69.6419   62.0193 C   0  0  0  0  0  0
    3.9685   69.1928   61.2101 C   0  0  0  0  0  0
    5.1698   68.7828   61.7855 C   0  0  0  0  0  0
    5.3166   68.7866   63.1737 C   0  0  0  0  0  0
    5.6679   63.6802   68.2153 H   0  0  0  0  0  0
    5.9893   63.7965   66.4837 H   0  0  0  0  0  0
    3.5310   65.0411   67.8689 H   0  0  0  0  0  0
    5.5824   66.1197   68.6906 H   0  0  0  0  0  0
    6.2068   66.2717   67.0398 H   0  0  0  0  0  0
    3.7145   67.7004   68.1590 H   0  0  0  0  0  0
    5.2829   68.4214   67.7923 H   0  0  0  0  0  0
    2.2727   66.8895   66.2384 H   0  0  0  0  0  0
    2.9028   66.9965   64.5928 H   0  0  0  0  0  0
    4.6504   65.3441   65.0247 H   0  0  0  0  0  0
    3.0777   64.6579   65.4492 H   0  0  0  0  0  0
    3.5538   69.7962   65.9465 H   0  0  0  0  0  0
    5.3143   69.5451   65.8234 H   0  0  0  0  0  0
    2.2216   70.0128   64.0215 H   0  0  0  0  0  0
    1.9761   69.9903   61.5567 H   0  0  0  0  0  0
    3.8512   69.1849   60.1094 H   0  0  0  0  0  0
    6.0072   68.4449   61.1453 H   0  0  0  0  0  0
    6.2681   68.4425   63.6279 H   0  0  0  0  0  0
    4.3640   62.4886   66.9831 C   0  0  0  0  0  0
    3.3310   62.2808   67.9859 N   0  0  0  0  0  0
    3.5065   61.3987   69.0541 C   0  0  0  0  0  0
    4.5000   60.6868   69.1648 O   0  0  0  0  0  0
    2.4007   61.1826   70.0586 C   0  0  0  0  0  0
    2.0795   59.8632   70.4319 C   0  0  0  0  0  0
    1.0692   59.6130   71.3563 C   0  0  0  0  0  0
    0.3594   60.6900   71.8984 C   0  0  0  0  0  0
    0.6971   62.0054   71.5732 C   0  0  0  0  0  0
    1.7330   62.2452   70.6743 C   0  0  0  0  0  0
    3.8980   62.5103   65.9824 H   0  0  0  0  0  0
    5.0400   61.6176   66.9795 H   0  0  0  0  0  0
    2.6366   59.0170   69.9821 H   0  0  0  0  0  0
    0.8425   58.5724   71.6568 H   0  0  0  0  0  0
    0.1765   62.8650   72.0363 H   0  0  0  0  0  0
    2.0390   63.2865   70.4779 H   0  0  0  0  0  0
    4.9170   67.4352   65.6976 H   0  0  0  0  0  0
   -0.9110   60.4313   73.0847 S   0  0  0  0  0  0
   -0.2602   59.8573   74.2235 O   0  0  0  0  0  0
   -1.6321   61.6715   73.1749 O   0  0  0  0  0  0
   -1.9891   59.2235   72.3298 C   0  0  0  0  0  0
   -3.1913   58.9115   73.2038 C   0  0  0  0  0  0
   -3.0042   58.2436   74.4231 C   0  0  0  0  0  0
   -4.0923   57.9415   75.2493 C   0  0  0  0  0  0
   -5.3918   58.3015   74.8695 C   0  0  0  0  0  0
   -5.5831   58.9709   73.6545 C   0  0  0  0  0  0
   -4.4922   59.2724   72.8299 C   0  0  0  0  0  0
   -2.3080   59.6331   71.3626 H   0  0  0  0  0  0
   -1.4069   58.3067   72.1608 H   0  0  0  0  0  0
   -1.9838   57.9572   74.7524 H   0  0  0  0  0  0
   -3.9183   57.4191   76.2094 H   0  0  0  0  0  0
   -6.2525   58.0657   75.5228 H   0  0  0  0  0  0
   -6.6013   59.2696   73.3403 H   0  0  0  0  0  0
   -4.6744   59.8080   71.8765 H   0  0  0  0  0  0
    2.1042   62.9814   67.6870 C   0  0  0  0  0  0
    1.8528   64.2567   68.2543 C   0  0  0  0  0  0
    2.5775   64.7082   68.9631 H   0  0  0  0  0  0
    0.6840   64.9680   67.9645 C   0  0  0  0  0  0
    0.5083   65.9542   68.4393 H   0  0  0  0  0  0
   -0.2705   64.4289   67.0940 C   0  0  0  0  0  0
   -1.2049   64.9815   66.8771 H   0  0  0  0  0  0
   -0.0553   63.1639   66.5409 C   0  0  0  0  0  0
   -0.8215   62.7141   65.8773 H   0  0  0  0  0  0
    1.1155   62.4477   66.8318 C   0  0  0  0  0  0
    1.2206   61.4326   66.3976 H   0  0  0  0  0  0
  1  2  1  0  0  0
  1 15  1  0  0  0
  1 16  1  0  0  0
  1 33  1  0  0  0
  2  3  1  0  0  0
  2  7  1  0  0  0
  2 17  1  0  0  0
  3  4  1  0  0  0
  3 18  1  0  0  0
  3 19  1  0  0  0
  4  5  1  0  0  0
  4 20  1  0  0  0
  4 21  1  0  0  0
  5  6  1  0  0  0
  5  8  1  0  0  0
  5 49  1  0  0  0
  6  7  1  0  0  0
  6 22  1  0  0  0
  6 23  1  0  0  0
  7 24  1  0  0  0
  7 25  1  0  0  0
  8  9  1  0  0  0
  8 26  1  0  0  0
  8 27  1  0  0  0
  9 10  1  0  0  0
  9 14  2  0  0  0
 10 11  2  0  0  0
 10 28  1  0  0  0
 11 12  1  0  0  0
 11 29  1  0  0  0
 12 13  2  0  0  0
 12 30  1  0  0  0
 13 14  1  0  0  0
 13 31  1  0  0  0
 14 32  1  0  0  0
 33 34  1  0  0  0
 33 43  1  0  0  0
 33 44  1  0  0  0
 34 35  1  0  0  0
 34 67  1  0  0  0
 35 36  2  0  0  0
 35 37  1  0  0  0
 37 38  2  0  0  0
 37 42  1  0  0  0
 38 39  1  0  0  0
 38 45  1  0  0  0
 39 40  2  0  0  0
 39 46  1  0  0  0
 40 41  1  0  0  0
 40 50  1  0  0  0
 41 42  2  0  0  0
 41 47  1  0  0  0
 42 48  1  0  0  0
 50 51  2  0  0  0
 50 52  2  0  0  0
 50 53  1  0  0  0
 53 54  1  0  0  0
 53 60  1  0  0  0
 53 61  1  0  0  0
 54 55  2  0  0  0
 54 59  1  0  0  0
 55 56  1  0  0  0
 55 62  1  0  0  0
 56 57  2  0  0  0
 56 63  1  0  0  0
 57 58  1  0  0  0
 57 64  1  0  0  0
 58 59  2  0  0  0
 58 65  1  0  0  0
 59 66  1  0  0  0
 67 68  1  0  0  0
 67 76  2  0  0  0
 68 69  1  0  0  0
 68 70  2  0  0  0
 70 71  1  0  0  0
 70 72  1  0  0  0
 72 73  1  0  0  0
 72 74  2  0  0  0
 74 75  1  0  0  0
 74 76  1  0  0  0
 76 77  1  0  0  0
M  CHG  1   5   1
M  END
>  <ACTIVITY>
9.22

>  <SET>
2

>  <Min_dist>
0.07

>  <Avg_dist>
0.46

$$$$
2-24
  Cerius2 12110213523D 1   1.00000                          
Structure written by Cerius2 SD Exporter
 41 42  0  0  0  0  0  0  0  0999 V2000
    5.1741   63.7666   67.2298 C   0  0  0  0  0  0
    4.3855   65.0953   67.1679 C   0  0  0  0  0  0
    5.2770   66.2628   67.6398 C   0  0  0  0  0  0
    4.5857   67.6253   67.4818 C   0  0  0  0  0  0
    4.1925   67.8073   66.0805 N   0  3  0  0  0  0
    3.1996   66.8221   65.6392 C   0  0  0  0  0  0
    3.8229   65.4102   65.7568 C   0  0  0  0  0  0
    5.6679   63.6802   68.2153 H   0  0  0  0  0  0
    5.9893   63.7965   66.4837 H   0  0  0  0  0  0
    3.5310   65.0411   67.8689 H   0  0  0  0  0  0
    5.5824   66.1197   68.6906 H   0  0  0  0  0  0
    6.2068   66.2717   67.0398 H   0  0  0  0  0  0
    3.7145   67.7004   68.1590 H   0  0  0  0  0  0
    5.2829   68.4214   67.7923 H   0  0  0  0  0  0
    2.2727   66.8895   66.2384 H   0  0  0  0  0  0
    2.9028   66.9965   64.5928 H   0  0  0  0  0  0
    4.6504   65.3441   65.0247 H   0  0  0  0  0  0
    3.0777   64.6579   65.4492 H   0  0  0  0  0  0
    4.3640   62.4886   66.9831 C   0  0  0  0  0  0
    3.3310   62.2808   67.9859 N   0  0  0  0  0  0
    3.5065   61.3987   69.0541 C   0  0  0  0  0  0
    4.5000   60.6868   69.1648 O   0  0  0  0  0  0
    2.3360   61.2610   69.9910 C   0  0  0  0  0  0
    2.1816   60.0574   70.7052 C   0  0  0  0  0  0
    1.0937   59.8814   71.5627 C   0  0  0  0  0  0
    0.1451   60.9030   71.7211 C   0  0  0  0  0  0
    0.3027   62.1039   71.0182 C   0  0  0  0  0  0
    1.3932   62.2913   70.1618 C   0  0  0  0  0  0
    3.8980   62.5103   65.9824 H   0  0  0  0  0  0
    5.0400   61.6176   66.9795 H   0  0  0  0  0  0
    1.9897   62.5131   67.4053 C   0  0  0  0  0  0
    2.9204   59.2427   70.5798 H   0  0  0  0  0  0
    0.9794   58.9301   72.1176 H   0  0  0  0  0  0
   -0.7170   60.7611   72.4002 H   0  0  0  0  0  0
   -0.4380   62.9164   71.1493 H   0  0  0  0  0  0
    1.5043   63.2620   69.6464 H   0  0  0  0  0  0
    4.9170   67.4352   65.6976 H   0  0  0  0  0  0
    1.2417   61.8253   67.8173 H   0  0  0  0  0  0
    1.6688   63.5555   67.5482 H   0  0  0  0  0  0
    1.9674   62.3016   66.3226 H   0  0  0  0  0  0
    4.0238   68.6571   65.8368 H   0  0  0  0  0  0
  1  2  1  0  0  0
  1  8  1  0  0  0
  1  9  1  0  0  0
  1 19  1  0  0  0
  2  3  1  0  0  0
  2  7  1  0  0  0
  2 10  1  0  0  0
  3  4  1  0  0  0
  3 11  1  0  0  0
  3 12  1  0  0  0
  4  5  1  0  0  0
  4 13  1  0  0  0
  4 14  1  0  0  0
  5  6  1  0  0  0
  5 37  1  0  0  0
  5 41  1  0  0  0
  6  7  1  0  0  0
  6 15  1  0  0  0
  6 16  1  0  0  0
  7 17  1  0  0  0
  7 18  1  0  0  0
 19 20  1  0  0  0
 19 29  1  0  0  0
 19 30  1  0  0  0
 20 21  1  0  0  0
 20 31  1  0  0  0
 21 22  2  0  0  0
 21 23  1  0  0  0
 23 24  2  0  0  0
 23 28  1  0  0  0
 24 25  1  0  0  0
 24 32  1  0  0  0
 25 26  2  0  0  0
 25 33  1  0  0  0
 26 27  1  0  0  0
 26 34  1  0  0  0
 27 28  2  0  0  0
 27 35  1  0  0  0
 28 36  1  0  0  0
 31 38  1  0  0  0
 31 39  1  0  0  0
 31 40  1  0  0  0
M  CHG  1   5   1
M  END
>  <ACTIVITY>
4.59

>  <SET>
1

>  <Min_dist>
999.9

>  <Avg_dist>
999.9

$$$$
2-25
  Cerius2 12110213523D 1   1.00000                          
Structure written by Cerius2 SD Exporter
 57 59  0  0  0  0  0  0  0  0999 V2000
    5.1741   63.7666   67.2298 C   0  0  0  0  0  0
    4.3855   65.0953   67.1679 C   0  0  0  0  0  0
    5.2770   66.2628   67.6398 C   0  0  0  0  0  0
    4.5857   67.6253   67.4818 C   0  0  0  0  0  0
    4.1925   67.8073   66.0805 N   0  3  0  0  0  0
    3.1996   66.8221   65.6392 C   0  0  0  0  0  0
    3.8229   65.4102   65.7568 C   0  0  0  0  0  0
    4.3302   69.1509   65.5151 C   0  0  0  0  0  0
    4.2612   69.1992   64.0021 C   0  0  0  0  0  0
    3.0583   69.6122   63.4103 C   0  0  0  0  0  0
    2.9137   69.6073   62.0214 C   0  0  0  0  0  0
    3.9685   69.1928   61.2101 C   0  0  0  0  0  0
    5.1698   68.7828   61.7855 C   0  0  0  0  0  0
    5.3166   68.7866   63.1737 C   0  0  0  0  0  0
    5.6679   63.6802   68.2153 H   0  0  0  0  0  0
    5.9893   63.7965   66.4837 H   0  0  0  0  0  0
    3.5310   65.0411   67.8689 H   0  0  0  0  0  0
    5.5824   66.1197   68.6906 H   0  0  0  0  0  0
    6.2068   66.2717   67.0398 H   0  0  0  0  0  0
    3.7145   67.7004   68.1590 H   0  0  0  0  0  0
    5.2829   68.4214   67.7923 H   0  0  0  0  0  0
    2.2727   66.8895   66.2384 H   0  0  0  0  0  0
    2.9028   66.9965   64.5928 H   0  0  0  0  0  0
    4.6504   65.3441   65.0247 H   0  0  0  0  0  0
    3.0777   64.6579   65.4492 H   0  0  0  0  0  0
    3.5737   69.8400   65.9317 H   0  0  0  0  0  0
    5.3143   69.5451   65.8234 H   0  0  0  0  0  0
    2.2062   69.9310   64.0444 H   0  0  0  0  0  0
    1.9555   69.9248   61.5679 H   0  0  0  0  0  0
    3.8512   69.1849   60.1094 H   0  0  0  0  0  0
    6.0072   68.4449   61.1453 H   0  0  0  0  0  0
    6.6543   68.3214   63.7392 C   0  0  0  0  0  0
    4.3640   62.4886   66.9831 C   0  0  0  0  0  0
    3.3310   62.2808   67.9859 N   0  0  0  0  0  0
    3.5065   61.3987   69.0541 C   0  0  0  0  0  0
    4.5000   60.6868   69.1648 O   0  0  0  0  0  0
    2.3360   61.2610   69.9910 C   0  0  0  0  0  0
    2.1816   60.0574   70.7052 C   0  0  0  0  0  0
    1.0937   59.8814   71.5627 C   0  0  0  0  0  0
    0.1451   60.9030   71.7211 C   0  0  0  0  0  0
    0.3027   62.1039   71.0182 C   0  0  0  0  0  0
    1.3932   62.2913   70.1618 C   0  0  0  0  0  0
    3.8980   62.5103   65.9824 H   0  0  0  0  0  0
    5.0400   61.6176   66.9795 H   0  0  0  0  0  0
    1.9897   62.5131   67.4053 C   0  0  0  0  0  0
    2.9204   59.2427   70.5798 H   0  0  0  0  0  0
    0.9794   58.9301   72.1176 H   0  0  0  0  0  0
   -0.7170   60.7611   72.4002 H   0  0  0  0  0  0
   -0.4380   62.9164   71.1493 H   0  0  0  0  0  0
    1.5043   63.2620   69.6464 H   0  0  0  0  0  0
    4.9170   67.4352   65.6976 H   0  0  0  0  0  0
    1.2417   61.8253   67.8173 H   0  0  0  0  0  0
    1.6688   63.5555   67.5482 H   0  0  0  0  0  0
    1.9674   62.3016   66.3226 H   0  0  0  0  0  0
    7.3897   68.1888   62.9306 H   0  0  0  0  0  0
    7.0763   69.0560   64.4421 H   0  0  0  0  0  0
    6.5645   67.3566   64.2609 H   0  0  0  0  0  0
  1  2  1  0  0  0
  1 15  1  0  0  0
  1 16  1  0  0  0
  1 33  1  0  0  0
  2  3  1  0  0  0
  2  7  1  0  0  0
  2 17  1  0  0  0
  3  4  1  0  0  0
  3 18  1  0  0  0
  3 19  1  0  0  0
  4  5  1  0  0  0
  4 20  1  0  0  0
  4 21  1  0  0  0
  5  6  1  0  0  0
  5  8  1  0  0  0
  5 51  1  0  0  0
  6  7  1  0  0  0
  6 22  1  0  0  0
  6 23  1  0  0  0
  7 24  1  0  0  0
  7 25  1  0  0  0
  8  9  1  0  0  0
  8 26  1  0  0  0
  8 27  1  0  0  0
  9 10  1  0  0  0
  9 14  2  0  0  0
 10 11  2  0  0  0
 10 28  1  0  0  0
 11 12  1  0  0  0
 11 29  1  0  0  0
 12 13  2  0  0  0
 12 30  1  0  0  0
 13 14  1  0  0  0
 13 31  1  0  0  0
 14 32  1  0  0  0
 32 55  1  0  0  0
 32 56  1  0  0  0
 32 57  1  0  0  0
 33 34  1  0  0  0
 33 43  1  0  0  0
 33 44  1  0  0  0
 34 35  1  0  0  0
 34 45  1  0  0  0
 35 36  2  0  0  0
 35 37  1  0  0  0
 37 38  2  0  0  0
 37 42  1  0  0  0
 38 39  1  0  0  0
 38 46  1  0  0  0
 39 40  2  0  0  0
 39 47  1  0  0  0
 40 41  1  0  0  0
 40 48  1  0  0  0
 41 42  2  0  0  0
 41 49  1  0  0  0
 42 50  1  0  0  0
 45 52  1  0  0  0
 45 53  1  0  0  0
 45 54  1  0  0  0
M  CHG  1   5   1
M  END
>  <ACTIVITY>
6.11

>  <SET>
1

>  <Min_dist>
999.9

>  <Avg_dist>
999.9

$$$$
2-26
  Cerius2 12110213523D 1   1.00000                          
Structure written by Cerius2 SD Exporter
 57 59  0  0  0  0  0  0  0  0999 V2000
    5.1741   63.7666   67.2298 C   0  0  0  0  0  0
    4.3855   65.0953   67.1679 C   0  0  0  0  0  0
    5.2770   66.2628   67.6398 C   0  0  0  0  0  0
    4.5857   67.6253   67.4818 C   0  0  0  0  0  0
    4.1925   67.8073   66.0805 N   0  3  0  0  0  0
    3.1996   66.8221   65.6392 C   0  0  0  0  0  0
    3.8229   65.4102   65.7568 C   0  0  0  0  0  0
    4.3302   69.1509   65.5151 C   0  0  0  0  0  0
    4.2612   69.1992   64.0021 C   0  0  0  0  0  0
    3.0583   69.6122   63.4103 C   0  0  0  0  0  0
    2.9137   69.6073   62.0214 C   0  0  0  0  0  0
    3.9685   69.1928   61.2101 C   0  0  0  0  0  0
    5.1698   68.7828   61.7855 C   0  0  0  0  0  0
    5.3166   68.7866   63.1737 C   0  0  0  0  0  0
    5.6679   63.6802   68.2153 H   0  0  0  0  0  0
    5.9893   63.7965   66.4837 H   0  0  0  0  0  0
    3.5310   65.0411   67.8689 H   0  0  0  0  0  0
    5.5824   66.1197   68.6906 H   0  0  0  0  0  0
    6.2068   66.2717   67.0398 H   0  0  0  0  0  0
    3.7145   67.7004   68.1590 H   0  0  0  0  0  0
    5.2829   68.4214   67.7923 H   0  0  0  0  0  0
    2.2727   66.8895   66.2384 H   0  0  0  0  0  0
    2.9028   66.9965   64.5928 H   0  0  0  0  0  0
    4.6504   65.3441   65.0247 H   0  0  0  0  0  0
    3.0777   64.6579   65.4492 H   0  0  0  0  0  0
    3.5737   69.8400   65.9317 H   0  0  0  0  0  0
    5.3143   69.5451   65.8234 H   0  0  0  0  0  0
    2.2062   69.9310   64.0444 H   0  0  0  0  0  0
    1.9555   69.9248   61.5679 H   0  0  0  0  0  0
    3.8512   69.1849   60.1094 H   0  0  0  0  0  0
    6.3190   68.3363   60.8972 C   0  0  0  0  0  0
    6.2681   68.4425   63.6279 H   0  0  0  0  0  0
    4.3640   62.4886   66.9831 C   0  0  0  0  0  0
    3.3310   62.2808   67.9859 N   0  0  0  0  0  0
    3.5065   61.3987   69.0541 C   0  0  0  0  0  0
    4.5000   60.6868   69.1648 O   0  0  0  0  0  0
    2.3360   61.2610   69.9910 C   0  0  0  0  0  0
    2.1816   60.0574   70.7052 C   0  0  0  0  0  0
    1.0937   59.8814   71.5627 C   0  0  0  0  0  0
    0.1451   60.9030   71.7211 C   0  0  0  0  0  0
    0.3027   62.1039   71.0182 C   0  0  0  0  0  0
    1.3932   62.2913   70.1618 C   0  0  0  0  0  0
    3.8980   62.5103   65.9824 H   0  0  0  0  0  0
    5.0400   61.6176   66.9795 H   0  0  0  0  0  0
    1.9888   62.5514   67.4271 C   0  0  0  0  0  0
    2.9204   59.2427   70.5798 H   0  0  0  0  0  0
    0.9794   58.9301   72.1176 H   0  0  0  0  0  0
   -0.7170   60.7611   72.4002 H   0  0  0  0  0  0
   -0.4380   62.9164   71.1493 H   0  0  0  0  0  0
    1.5260   63.2900   69.7145 H   0  0  0  0  0  0
    4.9170   67.4352   65.6976 H   0  0  0  0  0  0
    1.2408   61.8461   67.8094 H   0  0  0  0  0  0
    1.6730   63.5864   67.6237 H   0  0  0  0  0  0
    1.9606   62.3972   66.3354 H   0  0  0  0  0  0
    7.2666   68.3068   61.4534 H   0  0  0  0  0  0
    6.1319   67.3301   60.4881 H   0  0  0  0  0  0
    6.4449   69.0245   60.0466 H   0  0  0  0  0  0
  1  2  1  0  0  0
  1 15  1  0  0  0
  1 16  1  0  0  0
  1 33  1  0  0  0
  2  3  1  0  0  0
  2  7  1  0  0  0
  2 17  1  0  0  0
  3  4  1  0  0  0
  3 18  1  0  0  0
  3 19  1  0  0  0
  4  5  1  0  0  0
  4 20  1  0  0  0
  4 21  1  0  0  0
  5  6  1  0  0  0
  5  8  1  0  0  0
  5 51  1  0  0  0
  6  7  1  0  0  0
  6 22  1  0  0  0
  6 23  1  0  0  0
  7 24  1  0  0  0
  7 25  1  0  0  0
  8  9  1  0  0  0
  8 26  1  0  0  0
  8 27  1  0  0  0
  9 10  1  0  0  0
  9 14  2  0  0  0
 10 11  2  0  0  0
 10 28  1  0  0  0
 11 12  1  0  0  0
 11 29  1  0  0  0
 12 13  2  0  0  0
 12 30  1  0  0  0
 13 14  1  0  0  0
 13 31  1  0  0  0
 14 32  1  0  0  0
 31 55  1  0  0  0
 31 56  1  0  0  0
 31 57  1  0  0  0
 33 34  1  0  0  0
 33 43  1  0  0  0
 33 44  1  0  0  0
 34 35  1  0  0  0
 34 45  1  0  0  0
 35 36  2  0  0  0
 35 37  1  0  0  0
 37 38  2  0  0  0
 37 42  1  0  0  0
 38 39  1  0  0  0
 38 46  1  0  0  0
 39 40  2  0  0  0
 39 47  1  0  0  0
 40 41  1  0  0  0
 40 48  1  0  0  0
 41 42  2  0  0  0
 41 49  1  0  0  0
 42 50  1  0  0  0
 45 52  1  0  0  0
 45 53  1  0  0  0
 45 54  1  0  0  0
M  CHG  1   5   1
M  END
>  <ACTIVITY>
6.84

>  <SET>
1

>  <Min_dist>
999.9

>  <Avg_dist>
999.9

$$$$
2-27
  Cerius2 12110213523D 1   1.00000                          
Structure written by Cerius2 SD Exporter
 57 59  0  0  0  0  0  0  0  0999 V2000
    5.1741   63.7666   67.2298 C   0  0  0  0  0  0
    4.3855   65.0953   67.1679 C   0  0  0  0  0  0
    5.2770   66.2628   67.6398 C   0  0  0  0  0  0
    4.5857   67.6253   67.4818 C   0  0  0  0  0  0
    4.1925   67.8073   66.0805 N   0  3  0  0  0  0
    3.1996   66.8221   65.6392 C   0  0  0  0  0  0
    3.8229   65.4102   65.7568 C   0  0  0  0  0  0
    4.3302   69.1509   65.5151 C   0  0  0  0  0  0
    4.2612   69.1992   64.0021 C   0  0  0  0  0  0
    3.0583   69.6122   63.4103 C   0  0  0  0  0  0
    2.9137   69.6073   62.0214 C   0  0  0  0  0  0
    3.9685   69.1928   61.2101 C   0  0  0  0  0  0
    5.1698   68.7828   61.7855 C   0  0  0  0  0  0
    5.3166   68.7866   63.1737 C   0  0  0  0  0  0
    5.6679   63.6802   68.2153 H   0  0  0  0  0  0
    5.9893   63.7965   66.4837 H   0  0  0  0  0  0
    3.5310   65.0411   67.8689 H   0  0  0  0  0  0
    5.5824   66.1197   68.6906 H   0  0  0  0  0  0
    6.2068   66.2717   67.0398 H   0  0  0  0  0  0
    3.7145   67.7004   68.1590 H   0  0  0  0  0  0
    5.2829   68.4214   67.7923 H   0  0  0  0  0  0
    2.2727   66.8895   66.2384 H   0  0  0  0  0  0
    2.9028   66.9965   64.5928 H   0  0  0  0  0  0
    4.6504   65.3441   65.0247 H   0  0  0  0  0  0
    3.0777   64.6579   65.4492 H   0  0  0  0  0  0
    3.5737   69.8400   65.9317 H   0  0  0  0  0  0
    5.3143   69.5451   65.8234 H   0  0  0  0  0  0
    2.2062   69.9310   64.0444 H   0  0  0  0  0  0
    1.9555   69.9248   61.5679 H   0  0  0  0  0  0
    3.8095   69.1905   59.6990 C   0  0  0  0  0  0
    6.0072   68.4449   61.1453 H   0  0  0  0  0  0
    6.2681   68.4425   63.6279 H   0  0  0  0  0  0
    4.3640   62.4886   66.9831 C   0  0  0  0  0  0
    3.3310   62.2808   67.9859 N   0  0  0  0  0  0
    3.5065   61.3987   69.0541 C   0  0  0  0  0  0
    4.5000   60.6868   69.1648 O   0  0  0  0  0  0
    2.3360   61.2610   69.9910 C   0  0  0  0  0  0
    2.1816   60.0574   70.7052 C   0  0  0  0  0  0
    1.0937   59.8814   71.5627 C   0  0  0  0  0  0
    0.1451   60.9030   71.7211 C   0  0  0  0  0  0
    0.3027   62.1039   71.0182 C   0  0  0  0  0  0
    1.3932   62.2913   70.1618 C   0  0  0  0  0  0
    3.8980   62.5103   65.9824 H   0  0  0  0  0  0
    5.0400   61.6176   66.9795 H   0  0  0  0  0  0
    1.9895   62.5119   67.4052 C   0  0  0  0  0  0
    2.9204   59.2427   70.5798 H   0  0  0  0  0  0
    0.9794   58.9301   72.1176 H   0  0  0  0  0  0
   -0.7170   60.7611   72.4002 H   0  0  0  0  0  0
   -0.4380   62.9164   71.1493 H   0  0  0  0  0  0
    1.5043   63.2620   69.6464 H   0  0  0  0  0  0
    4.9170   67.4352   65.6976 H   0  0  0  0  0  0
    1.2420   61.8237   67.8175 H   0  0  0  0  0  0
    1.6678   63.5541   67.5477 H   0  0  0  0  0  0
    1.9674   62.3000   66.3225 H   0  0  0  0  0  0
    4.7759   69.3579   59.2004 H   0  0  0  0  0  0
    3.4091   68.2263   59.3456 H   0  0  0  0  0  0
    3.1185   69.9827   59.3739 H   0  0  0  0  0  0
  1  2  1  0  0  0
  1 15  1  0  0  0
  1 16  1  0  0  0
  1 33  1  0  0  0
  2  3  1  0  0  0
  2  7  1  0  0  0
  2 17  1  0  0  0
  3  4  1  0  0  0
  3 18  1  0  0  0
  3 19  1  0  0  0
  4  5  1  0  0  0
  4 20  1  0  0  0
  4 21  1  0  0  0
  5  6  1  0  0  0
  5  8  1  0  0  0
  5 51  1  0  0  0
  6  7  1  0  0  0
  6 22  1  0  0  0
  6 23  1  0  0  0
  7 24  1  0  0  0
  7 25  1  0  0  0
  8  9  1  0  0  0
  8 26  1  0  0  0
  8 27  1  0  0  0
  9 10  1  0  0  0
  9 14  2  0  0  0
 10 11  2  0  0  0
 10 28  1  0  0  0
 11 12  1  0  0  0
 11 29  1  0  0  0
 12 13  2  0  0  0
 12 30  1  0  0  0
 13 14  1  0  0  0
 13 31  1  0  0  0
 14 32  1  0  0  0
 30 55  1  0  0  0
 30 56  1  0  0  0
 30 57  1  0  0  0
 33 34  1  0  0  0
 33 43  1  0  0  0
 33 44  1  0  0  0
 34 35  1  0  0  0
 34 45  1  0  0  0
 35 36  2  0  0  0
 35 37  1  0  0  0
 37 38  2  0  0  0
 37 42  1  0  0  0
 38 39  1  0  0  0
 38 46  1  0  0  0
 39 40  2  0  0  0
 39 47  1  0  0  0
 40 41  1  0  0  0
 40 48  1  0  0  0
 41 42  2  0  0  0
 41 49  1  0  0  0
 42 50  1  0  0  0
 45 52  1  0  0  0
 45 53  1  0  0  0
 45 54  1  0  0  0
M  CHG  1   5   1
M  END
>  <ACTIVITY>
4.39

>  <SET>
1

>  <Min_dist>
999.9

>  <Avg_dist>
999.9

$$$$
2-28
  Cerius2 12110213523D 1   1.00000                          
Structure written by Cerius2 SD Exporter
 56 58  0  0  0  0  0  0  0  0999 V2000
    5.1741   63.7666   67.2298 C   0  0  0  0  0  0
    4.3855   65.0953   67.1679 C   0  0  0  0  0  0
    5.2770   66.2628   67.6398 C   0  0  0  0  0  0
    4.5857   67.6253   67.4818 C   0  0  0  0  0  0
    4.1925   67.8073   66.0805 N   0  3  0  0  0  0
    3.1996   66.8221   65.6392 C   0  0  0  0  0  0
    3.8229   65.4102   65.7568 C   0  0  0  0  0  0
    4.3302   69.1509   65.5151 C   0  0  0  0  0  0
    4.2612   69.1992   64.0021 C   0  0  0  0  0  0
    3.0583   69.6122   63.4103 C   0  0  0  0  0  0
    2.9137   69.6073   62.0214 C   0  0  0  0  0  0
    3.9685   69.1928   61.2101 C   0  0  0  0  0  0
    5.1698   68.7828   61.7855 C   0  0  0  0  0  0
    5.3166   68.7866   63.1737 C   0  0  0  0  0  0
    5.6679   63.6802   68.2153 H   0  0  0  0  0  0
    5.9893   63.7965   66.4837 H   0  0  0  0  0  0
    3.5310   65.0411   67.8689 H   0  0  0  0  0  0
    5.5824   66.1197   68.6906 H   0  0  0  0  0  0
    6.2068   66.2717   67.0398 H   0  0  0  0  0  0
    3.7145   67.7004   68.1590 H   0  0  0  0  0  0
    5.2829   68.4214   67.7923 H   0  0  0  0  0  0
    2.2727   66.8895   66.2384 H   0  0  0  0  0  0
    2.9028   66.9965   64.5928 H   0  0  0  0  0  0
    4.6504   65.3441   65.0247 H   0  0  0  0  0  0
    3.0777   64.6579   65.4492 H   0  0  0  0  0  0
    3.5737   69.8400   65.9317 H   0  0  0  0  0  0
    5.3143   69.5451   65.8234 H   0  0  0  0  0  0
    2.2062   69.9310   64.0444 H   0  0  0  0  0  0
    1.9555   69.9248   61.5679 H   0  0  0  0  0  0
    3.8512   69.1849   60.1094 H   0  0  0  0  0  0
    6.0072   68.4449   61.1453 H   0  0  0  0  0  0
    4.3640   62.4886   66.9831 C   0  0  0  0  0  0
    3.3310   62.2808   67.9859 N   0  0  0  0  0  0
    3.5065   61.3987   69.0541 C   0  0  0  0  0  0
    4.5000   60.6868   69.1648 O   0  0  0  0  0  0
    2.3360   61.2610   69.9910 C   0  0  0  0  0  0
    2.1816   60.0574   70.7052 C   0  0  0  0  0  0
    1.0937   59.8814   71.5627 C   0  0  0  0  0  0
    0.1451   60.9030   71.7211 C   0  0  0  0  0  0
    0.3027   62.1039   71.0182 C   0  0  0  0  0  0
    1.3932   62.2913   70.1618 C   0  0  0  0  0  0
    3.8980   62.5103   65.9824 H   0  0  0  0  0  0
    5.0400   61.6176   66.9795 H   0  0  0  0  0  0
    1.9897   62.5131   67.4053 C   0  0  0  0  0  0
    2.9204   59.2427   70.5798 H   0  0  0  0  0  0
    0.9794   58.9301   72.1176 H   0  0  0  0  0  0
   -0.7170   60.7611   72.4002 H   0  0  0  0  0  0
   -0.4380   62.9164   71.1493 H   0  0  0  0  0  0
    1.5043   63.2620   69.6464 H   0  0  0  0  0  0
    4.9170   67.4352   65.6976 H   0  0  0  0  0  0
    1.2417   61.8253   67.8173 H   0  0  0  0  0  0
    1.6688   63.5555   67.5482 H   0  0  0  0  0  0
    1.9674   62.3016   66.3226 H   0  0  0  0  0  0
    6.6018   68.2868   63.7007 N   0  3  0  0  0  0
    6.5595   67.5233   64.6494 O   0  0  0  0  0  0
    7.6209   68.6518   63.1505 O   0  5  0  0  0  0
  1  2  1  0  0  0
  1 15  1  0  0  0
  1 16  1  0  0  0
  1 32  1  0  0  0
  2  3  1  0  0  0
  2  7  1  0  0  0
  2 17  1  0  0  0
  3  4  1  0  0  0
  3 18  1  0  0  0
  3 19  1  0  0  0
  4  5  1  0  0  0
  4 20  1  0  0  0
  4 21  1  0  0  0
  5  6  1  0  0  0
  5  8  1  0  0  0
  5 50  1  0  0  0
  6  7  1  0  0  0
  6 22  1  0  0  0
  6 23  1  0  0  0
  7 24  1  0  0  0
  7 25  1  0  0  0
  8  9  1  0  0  0
  8 26  1  0  0  0
  8 27  1  0  0  0
  9 10  1  0  0  0
  9 14  2  0  0  0
 10 11  2  0  0  0
 10 28  1  0  0  0
 11 12  1  0  0  0
 11 29  1  0  0  0
 12 13  2  0  0  0
 12 30  1  0  0  0
 13 14  1  0  0  0
 13 31  1  0  0  0
 14 54  1  0  0  0
 32 33  1  0  0  0
 32 42  1  0  0  0
 32 43  1  0  0  0
 33 34  1  0  0  0
 33 44  1  0  0  0
 34 35  2  0  0  0
 34 36  1  0  0  0
 36 37  2  0  0  0
 36 41  1  0  0  0
 37 38  1  0  0  0
 37 45  1  0  0  0
 38 39  2  0  0  0
 38 46  1  0  0  0
 39 40  1  0  0  0
 39 47  1  0  0  0
 40 41  2  0  0  0
 40 48  1  0  0  0
 41 49  1  0  0  0
 44 51  1  0  0  0
 44 52  1  0  0  0
 44 53  1  0  0  0
 54 55  2  0  0  0
 54 56  1  0  0  0
M  CHG  3   5   1  54   1  56  -1
M  END
>  <ACTIVITY>
4.85

>  <SET>
1

>  <Min_dist>
999.9

>  <Avg_dist>
999.9

$$$$
2-29
  Cerius2 12110213523D 1   1.00000                          
Structure written by Cerius2 SD Exporter
 56 58  0  0  0  0  0  0  0  0999 V2000
    5.1741   63.7666   67.2298 C   0  0  0  0  0  0
    4.3855   65.0953   67.1679 C   0  0  0  0  0  0
    5.2770   66.2628   67.6398 C   0  0  0  0  0  0
    4.5857   67.6253   67.4818 C   0  0  0  0  0  0
    4.1925   67.8073   66.0805 N   0  3  0  0  0  0
    3.1996   66.8221   65.6392 C   0  0  0  0  0  0
    3.8229   65.4102   65.7568 C   0  0  0  0  0  0
    4.3302   69.1509   65.5151 C   0  0  0  0  0  0
    4.2612   69.1992   64.0021 C   0  0  0  0  0  0
    3.0583   69.6122   63.4103 C   0  0  0  0  0  0
    2.9137   69.6073   62.0214 C   0  0  0  0  0  0
    3.9685   69.1928   61.2101 C   0  0  0  0  0  0
    5.1698   68.7828   61.7855 C   0  0  0  0  0  0
    5.3166   68.7866   63.1737 C   0  0  0  0  0  0
    5.6679   63.6802   68.2153 H   0  0  0  0  0  0
    5.9893   63.7965   66.4837 H   0  0  0  0  0  0
    3.5310   65.0411   67.8689 H   0  0  0  0  0  0
    5.5824   66.1197   68.6906 H   0  0  0  0  0  0
    6.2068   66.2717   67.0398 H   0  0  0  0  0  0
    3.7145   67.7004   68.1590 H   0  0  0  0  0  0
    5.2829   68.4214   67.7923 H   0  0  0  0  0  0
    2.2727   66.8895   66.2384 H   0  0  0  0  0  0
    2.9028   66.9965   64.5928 H   0  0  0  0  0  0
    4.6504   65.3441   65.0247 H   0  0  0  0  0  0
    3.0777   64.6579   65.4492 H   0  0  0  0  0  0
    3.5737   69.8400   65.9317 H   0  0  0  0  0  0
    5.3143   69.5451   65.8234 H   0  0  0  0  0  0
    2.2062   69.9310   64.0444 H   0  0  0  0  0  0
    1.9555   69.9248   61.5679 H   0  0  0  0  0  0
    3.8512   69.1849   60.1094 H   0  0  0  0  0  0
    4.3640   62.4886   66.9831 C   0  0  0  0  0  0
    3.3310   62.2808   67.9859 N   0  0  0  0  0  0
    3.5065   61.3987   69.0541 C   0  0  0  0  0  0
    4.5000   60.6868   69.1648 O   0  0  0  0  0  0
    2.3360   61.2610   69.9910 C   0  0  0  0  0  0
    2.1816   60.0574   70.7052 C   0  0  0  0  0  0
    1.0937   59.8814   71.5627 C   0  0  0  0  0  0
    0.1451   60.9030   71.7211 C   0  0  0  0  0  0
    0.3027   62.1039   71.0182 C   0  0  0  0  0  0
    1.3932   62.2913   70.1618 C   0  0  0  0  0  0
    3.8980   62.5103   65.9824 H   0  0  0  0  0  0
    5.0400   61.6176   66.9795 H   0  0  0  0  0  0
    1.9897   62.5131   67.4053 C   0  0  0  0  0  0
    2.9204   59.2427   70.5798 H   0  0  0  0  0  0
    0.9794   58.9301   72.1176 H   0  0  0  0  0  0
   -0.7170   60.7611   72.4002 H   0  0  0  0  0  0
   -0.4380   62.9164   71.1493 H   0  0  0  0  0  0
    1.5043   63.2620   69.6464 H   0  0  0  0  0  0
    4.9170   67.4352   65.6976 H   0  0  0  0  0  0
    1.2417   61.8253   67.8173 H   0  0  0  0  0  0
    1.6688   63.5555   67.5482 H   0  0  0  0  0  0
    1.9674   62.3016   66.3226 H   0  0  0  0  0  0
    6.1396   68.5067   63.5568 H   0  0  0  0  0  0
    6.2872   68.3072   60.9354 N   0  3  0  0  0  0
    7.3044   67.9361   61.4970 O   0  0  0  0  0  0
    6.1253   68.3048   59.7289 O   0  5  0  0  0  0
  1  2  1  0  0  0
  1 15  1  0  0  0
  1 16  1  0  0  0
  1 31  1  0  0  0
  2  3  1  0  0  0
  2  7  1  0  0  0
  2 17  1  0  0  0
  3  4  1  0  0  0
  3 18  1  0  0  0
  3 19  1  0  0  0
  4  5  1  0  0  0
  4 20  1  0  0  0
  4 21  1  0  0  0
  5  6  1  0  0  0
  5  8  1  0  0  0
  5 49  1  0  0  0
  6  7  1  0  0  0
  6 22  1  0  0  0
  6 23  1  0  0  0
  7 24  1  0  0  0
  7 25  1  0  0  0
  8  9  1  0  0  0
  8 26  1  0  0  0
  8 27  1  0  0  0
  9 10  1  0  0  0
  9 14  2  0  0  0
 10 11  2  0  0  0
 10 28  1  0  0  0
 11 12  1  0  0  0
 11 29  1  0  0  0
 12 13  2  0  0  0
 12 30  1  0  0  0
 13 14  1  0  0  0
 13 54  1  0  0  0
 14 53  1  0  0  0
 31 32  1  0  0  0
 31 41  1  0  0  0
 31 42  1  0  0  0
 32 33  1  0  0  0
 32 43  1  0  0  0
 33 34  2  0  0  0
 33 35  1  0  0  0
 35 36  2  0  0  0
 35 40  1  0  0  0
 36 37  1  0  0  0
 36 44  1  0  0  0
 37 38  2  0  0  0
 37 45  1  0  0  0
 38 39  1  0  0  0
 38 46  1  0  0  0
 39 40  2  0  0  0
 39 47  1  0  0  0
 40 48  1  0  0  0
 43 50  1  0  0  0
 43 51  1  0  0  0
 43 52  1  0  0  0
 54 55  2  0  0  0
 54 56  1  0  0  0
M  CHG  3   5   1  54   1  56  -1
M  END
>  <ACTIVITY>
6.43

>  <SET>
2

>  <Min_dist>
0.08

>  <Avg_dist>
0.43

$$$$
2-30
  Cerius2 12110213523D 1   1.00000                          
Structure written by Cerius2 SD Exporter
 56 58  0  0  0  0  0  0  0  0999 V2000
    5.1741   63.7666   67.2298 C   0  0  0  0  0  0
    4.3855   65.0953   67.1679 C   0  0  0  0  0  0
    5.2770   66.2628   67.6398 C   0  0  0  0  0  0
    4.5857   67.6253   67.4818 C   0  0  0  0  0  0
    4.1925   67.8073   66.0805 N   0  3  0  0  0  0
    3.1996   66.8221   65.6392 C   0  0  0  0  0  0
    3.8229   65.4102   65.7568 C   0  0  0  0  0  0
    4.3302   69.1509   65.5151 C   0  0  0  0  0  0
    4.2612   69.1992   64.0021 C   0  0  0  0  0  0
    3.0583   69.6122   63.4103 C   0  0  0  0  0  0
    2.9137   69.6073   62.0214 C   0  0  0  0  0  0
    3.9685   69.1928   61.2101 C   0  0  0  0  0  0
    5.1698   68.7828   61.7855 C   0  0  0  0  0  0
    5.3166   68.7866   63.1737 C   0  0  0  0  0  0
    5.6679   63.6802   68.2153 H   0  0  0  0  0  0
    5.9893   63.7965   66.4837 H   0  0  0  0  0  0
    3.5310   65.0411   67.8689 H   0  0  0  0  0  0
    5.5824   66.1197   68.6906 H   0  0  0  0  0  0
    6.2068   66.2717   67.0398 H   0  0  0  0  0  0
    3.7145   67.7004   68.1590 H   0  0  0  0  0  0
    5.2829   68.4214   67.7923 H   0  0  0  0  0  0
    2.2727   66.8895   66.2384 H   0  0  0  0  0  0
    2.9028   66.9965   64.5928 H   0  0  0  0  0  0
    4.6504   65.3441   65.0247 H   0  0  0  0  0  0
    3.0777   64.6579   65.4492 H   0  0  0  0  0  0
    3.5737   69.8400   65.9317 H   0  0  0  0  0  0
    5.3143   69.5451   65.8234 H   0  0  0  0  0  0
    2.2062   69.9310   64.0444 H   0  0  0  0  0  0
    1.9555   69.9248   61.5679 H   0  0  0  0  0  0
    6.0072   68.4449   61.1453 H   0  0  0  0  0  0
    4.3640   62.4886   66.9831 C   0  0  0  0  0  0
    3.3310   62.2808   67.9859 N   0  0  0  0  0  0
    3.5065   61.3987   69.0541 C   0  0  0  0  0  0
    4.5000   60.6868   69.1648 O   0  0  0  0  0  0
    2.3360   61.2610   69.9910 C   0  0  0  0  0  0
    2.1816   60.0574   70.7052 C   0  0  0  0  0  0
    1.0937   59.8814   71.5627 C   0  0  0  0  0  0
    0.1451   60.9030   71.7211 C   0  0  0  0  0  0
    0.3027   62.1039   71.0182 C   0  0  0  0  0  0
    1.3932   62.2913   70.1618 C   0  0  0  0  0  0
    3.8980   62.5103   65.9824 H   0  0  0  0  0  0
    5.0400   61.6176   66.9795 H   0  0  0  0  0  0
    1.9897   62.5131   67.4053 C   0  0  0  0  0  0
    2.9204   59.2427   70.5798 H   0  0  0  0  0  0
    0.9794   58.9301   72.1176 H   0  0  0  0  0  0
   -0.7170   60.7611   72.4002 H   0  0  0  0  0  0
   -0.4380   62.9164   71.1493 H   0  0  0  0  0  0
    1.5043   63.2620   69.6464 H   0  0  0  0  0  0
    4.9170   67.4352   65.6976 H   0  0  0  0  0  0
    1.2417   61.8253   67.8173 H   0  0  0  0  0  0
    1.6688   63.5555   67.5482 H   0  0  0  0  0  0
    1.9674   62.3016   66.3226 H   0  0  0  0  0  0
    6.1396   68.5067   63.5568 H   0  0  0  0  0  0
    3.8021   69.1589   59.7376 N   0  3  0  0  0  0
    4.7470   68.7797   59.0685 O   0  0  0  0  0  0
    2.7252   69.4991   59.2803 O   0  5  0  0  0  0
  1  2  1  0  0  0
  1 15  1  0  0  0
  1 16  1  0  0  0
  1 31  1  0  0  0
  2  3  1  0  0  0
  2  7  1  0  0  0
  2 17  1  0  0  0
  3  4  1  0  0  0
  3 18  1  0  0  0
  3 19  1  0  0  0
  4  5  1  0  0  0
  4 20  1  0  0  0
  4 21  1  0  0  0
  5  6  1  0  0  0
  5  8  1  0  0  0
  5 49  1  0  0  0
  6  7  1  0  0  0
  6 22  1  0  0  0
  6 23  1  0  0  0
  7 24  1  0  0  0
  7 25  1  0  0  0
  8  9  1  0  0  0
  8 26  1  0  0  0
  8 27  1  0  0  0
  9 10  1  0  0  0
  9 14  2  0  0  0
 10 11  2  0  0  0
 10 28  1  0  0  0
 11 12  1  0  0  0
 11 29  1  0  0  0
 12 13  2  0  0  0
 12 54  1  0  0  0
 13 14  1  0  0  0
 13 30  1  0  0  0
 14 53  1  0  0  0
 31 32  1  0  0  0
 31 41  1  0  0  0
 31 42  1  0  0  0
 32 33  1  0  0  0
 32 43  1  0  0  0
 33 34  2  0  0  0
 33 35  1  0  0  0
 35 36  2  0  0  0
 35 40  1  0  0  0
 36 37  1  0  0  0
 36 44  1  0  0  0
 37 38  2  0  0  0
 37 45  1  0  0  0
 38 39  1  0  0  0
 38 46  1  0  0  0
 39 40  2  0  0  0
 39 47  1  0  0  0
 40 48  1  0  0  0
 43 50  1  0  0  0
 43 51  1  0  0  0
 43 52  1  0  0  0
 54 55  2  0  0  0
 54 56  1  0  0  0
M  CHG  3   5   1  54   1  56  -1
M  END
>  <ACTIVITY>
5.48

>  <SET>
1

>  <Min_dist>
999.9

>  <Avg_dist>
999.9

$$$$
2-31
  Cerius2 12110213523D 1   1.00000                          
Structure written by Cerius2 SD Exporter
 57 59  0  0  0  0  0  0  0  0999 V2000
    5.1741   63.7666   67.2298 C   0  0  0  0  0  0
    4.3855   65.0953   67.1679 C   0  0  0  0  0  0
    5.2770   66.2628   67.6398 C   0  0  0  0  0  0
    4.5857   67.6253   67.4818 C   0  0  0  0  0  0
    4.1925   67.8073   66.0805 N   0  3  0  0  0  0
    3.1996   66.8221   65.6392 C   0  0  0  0  0  0
    3.8229   65.4102   65.7568 C   0  0  0  0  0  0
    3.9228   69.2533   65.6043 C   0  0  0  0  0  0
    4.3912   69.8092   62.8621 C   0  0  0  0  0  0
    3.1883   70.2222   62.2703 C   0  0  0  0  0  0
    3.0437   70.2173   60.8814 C   0  0  0  0  0  0
    4.0985   69.8028   60.0701 C   0  0  0  0  0  0
    5.2998   69.3928   60.6455 C   0  0  0  0  0  0
    5.4466   69.3966   62.0337 C   0  0  0  0  0  0
    5.6679   63.6802   68.2153 H   0  0  0  0  0  0
    5.9893   63.7965   66.4837 H   0  0  0  0  0  0
    3.5310   65.0411   67.8689 H   0  0  0  0  0  0
    5.5824   66.1197   68.6906 H   0  0  0  0  0  0
    6.2068   66.2717   67.0398 H   0  0  0  0  0  0
    3.7145   67.7004   68.1590 H   0  0  0  0  0  0
    5.2829   68.4214   67.7923 H   0  0  0  0  0  0
    2.2727   66.8895   66.2384 H   0  0  0  0  0  0
    2.9028   66.9965   64.5928 H   0  0  0  0  0  0
    4.6504   65.3441   65.0247 H   0  0  0  0  0  0
    3.0777   64.6579   65.4492 H   0  0  0  0  0  0
    2.8216   69.3369   65.5667 H   0  0  0  0  0  0
    4.2475   69.8909   66.4537 H   0  0  0  0  0  0
    2.3362   70.5410   62.9044 H   0  0  0  0  0  0
    2.0855   70.5348   60.4279 H   0  0  0  0  0  0
    3.9812   69.7949   58.9694 H   0  0  0  0  0  0
    6.1372   69.0549   60.0053 H   0  0  0  0  0  0
    4.3640   62.4886   66.9831 C   0  0  0  0  0  0
    3.3310   62.2808   67.9859 N   0  0  0  0  0  0
    3.5065   61.3987   69.0541 C   0  0  0  0  0  0
    4.5000   60.6868   69.1648 O   0  0  0  0  0  0
    2.3360   61.2610   69.9910 C   0  0  0  0  0  0
    2.1816   60.0574   70.7052 C   0  0  0  0  0  0
    1.0937   59.8814   71.5627 C   0  0  0  0  0  0
    0.1451   60.9030   71.7211 C   0  0  0  0  0  0
    0.3027   62.1039   71.0182 C   0  0  0  0  0  0
    1.3932   62.2913   70.1618 C   0  0  0  0  0  0
    3.8980   62.5103   65.9824 H   0  0  0  0  0  0
    5.0400   61.6176   66.9795 H   0  0  0  0  0  0
    1.9897   62.5131   67.4053 C   0  0  0  0  0  0
    2.9204   59.2427   70.5798 H   0  0  0  0  0  0
    0.9794   58.9301   72.1176 H   0  0  0  0  0  0
   -0.7170   60.7611   72.4002 H   0  0  0  0  0  0
   -0.4380   62.9164   71.1493 H   0  0  0  0  0  0
    1.5043   63.2620   69.6464 H   0  0  0  0  0  0
    4.9170   67.4352   65.6976 H   0  0  0  0  0  0
    1.2417   61.8253   67.8173 H   0  0  0  0  0  0
    1.6688   63.5555   67.5482 H   0  0  0  0  0  0
    1.9674   62.3016   66.3226 H   0  0  0  0  0  0
    6.2696   69.1167   62.4168 H   0  0  0  0  0  0
    4.6303   69.9226   64.3817 C   0  0  0  0  0  0
    4.4312   70.9851   64.6255 H   0  0  0  0  0  0
    5.7199   69.8336   64.5451 H   0  0  0  0  0  0
  1  2  1  0  0  0
  1 15  1  0  0  0
  1 16  1  0  0  0
  1 32  1  0  0  0
  2  3  1  0  0  0
  2  7  1  0  0  0
  2 17  1  0  0  0
  3  4  1  0  0  0
  3 18  1  0  0  0
  3 19  1  0  0  0
  4  5  1  0  0  0
  4 20  1  0  0  0
  4 21  1  0  0  0
  5  6  1  0  0  0
  5  8  1  0  0  0
  5 50  1  0  0  0
  6  7  1  0  0  0
  6 22  1  0  0  0
  6 23  1  0  0  0
  7 24  1  0  0  0
  7 25  1  0  0  0
  8 26  1  0  0  0
  8 27  1  0  0  0
  8 55  1  0  0  0
  9 10  1  0  0  0
  9 14  2  0  0  0
  9 55  1  0  0  0
 10 11  2  0  0  0
 10 28  1  0  0  0
 11 12  1  0  0  0
 11 29  1  0  0  0
 12 13  2  0  0  0
 12 30  1  0  0  0
 13 14  1  0  0  0
 13 31  1  0  0  0
 14 54  1  0  0  0
 32 33  1  0  0  0
 32 42  1  0  0  0
 32 43  1  0  0  0
 33 34  1  0  0  0
 33 44  1  0  0  0
 34 35  2  0  0  0
 34 36  1  0  0  0
 36 37  2  0  0  0
 36 41  1  0  0  0
 37 38  1  0  0  0
 37 45  1  0  0  0
 38 39  2  0  0  0
 38 46  1  0  0  0
 39 40  1  0  0  0
 39 47  1  0  0  0
 40 41  2  0  0  0
 40 48  1  0  0  0
 41 49  1  0  0  0
 44 51  1  0  0  0
 44 52  1  0  0  0
 44 53  1  0  0  0
 55 56  1  0  0  0
 55 57  1  0  0  0
M  CHG  1   5   1
M  END
>  <ACTIVITY>
4.89

>  <SET>
2

>  <Min_dist>
0.1

>  <Avg_dist>
0.4

$$$$
2-32
  Cerius2 12110213523D 1   1.00000                          
Structure written by Cerius2 SD Exporter
 58 60  0  0  0  0  0  0  0  0999 V2000
    5.1741   63.7666   67.2298 C   0  0  0  0  0  0
    4.3855   65.0953   67.1679 C   0  0  0  0  0  0
    5.2770   66.2628   67.6398 C   0  0  0  0  0  0
    4.5857   67.6253   67.4818 C   0  0  0  0  0  0
    4.1925   67.8073   66.0805 N   0  3  0  0  0  0
    3.1996   66.8221   65.6392 C   0  0  0  0  0  0
    3.8229   65.4102   65.7568 C   0  0  0  0  0  0
    3.7168   69.5234   64.2657 C   0  0  0  0  0  0
    4.5119   70.0560   61.9851 C   0  0  0  0  0  0
    3.3832   70.7168   61.4777 C   0  0  0  0  0  0
    3.2215   70.8363   60.0926 C   0  0  0  0  0  0
    4.1790   70.3030   59.2182 C   0  0  0  0  0  0
    5.3088   69.6536   59.7341 C   0  0  0  0  0  0
    5.4791   69.5312   61.1180 C   0  0  0  0  0  0
    5.6679   63.6802   68.2153 H   0  0  0  0  0  0
    5.9893   63.7965   66.4837 H   0  0  0  0  0  0
    3.5310   65.0411   67.8689 H   0  0  0  0  0  0
    5.5824   66.1197   68.6906 H   0  0  0  0  0  0
    6.2068   66.2717   67.0398 H   0  0  0  0  0  0
    3.7145   67.7004   68.1590 H   0  0  0  0  0  0
    5.2829   68.4214   67.7923 H   0  0  0  0  0  0
    2.2727   66.8895   66.2384 H   0  0  0  0  0  0
    2.9028   66.9965   64.5928 H   0  0  0  0  0  0
    4.6504   65.3441   65.0247 H   0  0  0  0  0  0
    3.0777   64.6579   65.4492 H   0  0  0  0  0  0
    2.7218   69.3381   63.8119 H   0  0  0  0  0  0
    2.6334   71.1538   62.1616 H   0  0  0  0  0  0
    2.3375   71.3607   59.6795 H   0  0  0  0  0  0
    4.0472   70.4030   58.1233 H   0  0  0  0  0  0
    6.0685   69.2419   59.0411 H   0  0  0  0  0  0
    4.3640   62.4886   66.9831 C   0  0  0  0  0  0
    3.3310   62.2808   67.9859 N   0  0  0  0  0  0
    3.5065   61.3987   69.0541 C   0  0  0  0  0  0
    4.5000   60.6868   69.1648 O   0  0  0  0  0  0
    2.3360   61.2610   69.9910 C   0  0  0  0  0  0
    2.1816   60.0574   70.7052 C   0  0  0  0  0  0
    1.0937   59.8814   71.5627 C   0  0  0  0  0  0
    0.1451   60.9030   71.7211 C   0  0  0  0  0  0
    0.3027   62.1039   71.0182 C   0  0  0  0  0  0
    1.3932   62.2913   70.1618 C   0  0  0  0  0  0
    3.8980   62.5103   65.9824 H   0  0  0  0  0  0
    5.0400   61.6176   66.9795 H   0  0  0  0  0  0
    1.9897   62.5131   67.4053 C   0  0  0  0  0  0
    2.9204   59.2427   70.5798 H   0  0  0  0  0  0
    0.9794   58.9301   72.1176 H   0  0  0  0  0  0
   -0.7170   60.7611   72.4002 H   0  0  0  0  0  0
   -0.4380   62.9164   71.1493 H   0  0  0  0  0  0
    1.5043   63.2620   69.6464 H   0  0  0  0  0  0
    1.2417   61.8253   67.8173 H   0  0  0  0  0  0
    1.6688   63.5555   67.5482 H   0  0  0  0  0  0
    1.9674   62.3016   66.3226 H   0  0  0  0  0  0
    6.3696   69.0167   61.5238 H   0  0  0  0  0  0
    4.7219   69.9013   63.4442 C   0  0  0  0  0  0
    5.7441   70.0685   63.8316 H   0  0  0  0  0  0
    3.8317   69.2492   65.7240 C   0  0  0  0  0  0
    4.9332   67.6193   65.6051 H   0  0  0  0  0  0
    2.8968   69.4836   66.2512 H   0  0  0  0  0  0
    4.6278   69.8725   66.1557 H   0  0  0  0  0  0
  1  2  1  0  0  0
  1 15  1  0  0  0
  1 16  1  0  0  0
  1 31  1  0  0  0
  2  3  1  0  0  0
  2  7  1  0  0  0
  2 17  1  0  0  0
  3  4  1  0  0  0
  3 18  1  0  0  0
  3 19  1  0  0  0
  4  5  1  0  0  0
  4 20  1  0  0  0
  4 21  1  0  0  0
  5  6  1  0  0  0
  5 55  1  0  0  0
  5 56  1  0  0  0
  6  7  1  0  0  0
  6 22  1  0  0  0
  6 23  1  0  0  0
  7 24  1  0  0  0
  7 25  1  0  0  0
  8 26  1  0  0  0
  8 53  2  0  0  0
  8 55  1  0  0  0
  9 10  1  0  0  0
  9 14  2  0  0  0
  9 53  1  0  0  0
 10 11  2  0  0  0
 10 27  1  0  0  0
 11 12  1  0  0  0
 11 28  1  0  0  0
 12 13  2  0  0  0
 12 29  1  0  0  0
 13 14  1  0  0  0
 13 30  1  0  0  0
 14 52  1  0  0  0
 31 32  1  0  0  0
 31 41  1  0  0  0
 31 42  1  0  0  0
 32 33  1  0  0  0
 32 43  1  0  0  0
 33 34  2  0  0  0
 33 35  1  0  0  0
 35 36  2  0  0  0
 35 40  1  0  0  0
 36 37  1  0  0  0
 36 44  1  0  0  0
 37 38  2  0  0  0
 37 45  1  0  0  0
 38 39  1  0  0  0
 38 46  1  0  0  0
 39 40  2  0  0  0
 39 47  1  0  0  0
 40 48  1  0  0  0
 43 49  1  0  0  0
 43 50  1  0  0  0
 43 51  1  0  0  0
 53 54  1  0  0  0
 55 57  1  0  0  0
 55 58  1  0  0  0
M  CHG  1   5   1
M  END
>  <ACTIVITY>
4.27

>  <SET>
2

>  <Min_dist>
0.19

>  <Avg_dist>
0.47

$$$$
2-33
  Cerius2 12110213523D 1   1.00000                          
Structure written by Cerius2 SD Exporter
 52 54  0  0  0  0  0  0  0  0999 V2000
    5.1741   63.7666   67.2298 C   0  0  0  0  0  0
    4.3855   65.0953   67.1679 C   0  0  0  0  0  0
    5.2770   66.2628   67.6398 C   0  0  0  0  0  0
    4.5857   67.6253   67.4818 C   0  0  0  0  0  0
    4.1925   67.8073   66.0805 N   0  0  0  0  0  0
    3.1996   66.8221   65.6392 C   0  0  0  0  0  0
    3.8229   65.4102   65.7568 C   0  0  0  0  0  0
    4.5640   69.0008   65.4575 C   0  0  0  0  0  0
    4.0988   69.3357   64.0598 C   0  0  0  0  0  0
    2.7466   69.3619   63.6928 C   0  0  0  0  0  0
    2.3863   69.7129   62.3844 C   0  0  0  0  0  0
    3.3661   70.0661   61.4468 C   0  0  0  0  0  0
    4.7178   70.0750   61.8267 C   0  0  0  0  0  0
    5.0829   69.7196   63.1279 C   0  0  0  0  0  0
    5.6679   63.6802   68.2153 H   0  0  0  0  0  0
    5.9893   63.7965   66.4837 H   0  0  0  0  0  0
    3.5310   65.0411   67.8689 H   0  0  0  0  0  0
    5.5824   66.1197   68.6906 H   0  0  0  0  0  0
    6.2068   66.2717   67.0398 H   0  0  0  0  0  0
    3.7145   67.7004   68.1590 H   0  0  0  0  0  0
    5.2829   68.4214   67.7923 H   0  0  0  0  0  0
    2.2727   66.8895   66.2384 H   0  0  0  0  0  0
    2.9028   66.9965   64.5928 H   0  0  0  0  0  0
    4.6504   65.3441   65.0247 H   0  0  0  0  0  0
    3.0777   64.6579   65.4492 H   0  0  0  0  0  0
    5.2362   69.8723   65.9978 O   0  0  0  0  0  0
    1.9625   69.1222   64.4341 H   0  0  0  0  0  0
    1.3181   69.7158   62.0960 H   0  0  0  0  0  0
    5.4962   70.3667   61.0959 H   0  0  0  0  0  0
    4.3640   62.4886   66.9831 C   0  0  0  0  0  0
    3.3310   62.2808   67.9859 N   0  0  0  0  0  0
    3.5065   61.3987   69.0541 C   0  0  0  0  0  0
    4.5000   60.6868   69.1648 O   0  0  0  0  0  0
    2.3360   61.2610   69.9910 C   0  0  0  0  0  0
    2.1816   60.0574   70.7052 C   0  0  0  0  0  0
    1.0937   59.8814   71.5627 C   0  0  0  0  0  0
    0.1451   60.9030   71.7211 C   0  0  0  0  0  0
    0.3027   62.1039   71.0182 C   0  0  0  0  0  0
    1.3932   62.2913   70.1618 C   0  0  0  0  0  0
    3.8980   62.5103   65.9824 H   0  0  0  0  0  0
    5.0400   61.6176   66.9795 H   0  0  0  0  0  0
    1.9897   62.5131   67.4053 C   0  0  0  0  0  0
    2.9204   59.2427   70.5798 H   0  0  0  0  0  0
    0.9794   58.9301   72.1176 H   0  0  0  0  0  0
   -0.7170   60.7611   72.4002 H   0  0  0  0  0  0
   -0.4380   62.9164   71.1493 H   0  0  0  0  0  0
    1.5043   63.2620   69.6464 H   0  0  0  0  0  0
    1.2417   61.8253   67.8173 H   0  0  0  0  0  0
    1.6688   63.5555   67.5482 H   0  0  0  0  0  0
    1.9674   62.3016   66.3226 H   0  0  0  0  0  0
    6.1473   69.7290   63.4308 H   0  0  0  0  0  0
    3.0766   70.3476   60.4166 H   0  0  0  0  0  0
  1  2  1  0  0  0
  1 15  1  0  0  0
  1 16  1  0  0  0
  1 30  1  0  0  0
  2  3  1  0  0  0
  2  7  1  0  0  0
  2 17  1  0  0  0
  3  4  1  0  0  0
  3 18  1  0  0  0
  3 19  1  0  0  0
  4  5  1  0  0  0
  4 20  1  0  0  0
  4 21  1  0  0  0
  5  6  1  0  0  0
  5  8  1  0  0  0
  6  7  1  0  0  0
  6 22  1  0  0  0
  6 23  1  0  0  0
  7 24  1  0  0  0
  7 25  1  0  0  0
  8  9  1  0  0  0
  8 26  2  0  0  0
  9 10  1  0  0  0
  9 14  2  0  0  0
 10 11  2  0  0  0
 10 27  1  0  0  0
 11 12  1  0  0  0
 11 28  1  0  0  0
 12 13  2  0  0  0
 12 52  1  0  0  0
 13 14  1  0  0  0
 13 29  1  0  0  0
 14 51  1  0  0  0
 30 31  1  0  0  0
 30 40  1  0  0  0
 30 41  1  0  0  0
 31 32  1  0  0  0
 31 42  1  0  0  0
 32 33  2  0  0  0
 32 34  1  0  0  0
 34 35  2  0  0  0
 34 39  1  0  0  0
 35 36  1  0  0  0
 35 43  1  0  0  0
 36 37  2  0  0  0
 36 44  1  0  0  0
 37 38  1  0  0  0
 37 45  1  0  0  0
 38 39  2  0  0  0
 38 46  1  0  0  0
 39 47  1  0  0  0
 42 48  1  0  0  0
 42 49  1  0  0  0
 42 50  1  0  0  0
M  END
>  <ACTIVITY>
4.28

>  <SET>
1

>  <Min_dist>
999.9

>  <Avg_dist>
999.9

$$$$
2-34
  Cerius2 12110213523D 1   1.00000                          
Structure written by Cerius2 SD Exporter
 51 53  0  0  0  0  0  0  0  0999 V2000
    5.1741   63.7666   67.2298 C   0  0  0  0  0  0
    4.3855   65.0953   67.1679 C   0  0  0  0  0  0
    5.2770   66.2628   67.6398 C   0  0  0  0  0  0
    4.5857   67.6253   67.4818 C   0  0  0  0  0  0
    4.1925   67.8073   66.0805 N   0  3  0  0  0  0
    3.1996   66.8221   65.6392 C   0  0  0  0  0  0
    3.8229   65.4102   65.7568 C   0  0  0  0  0  0
    4.3302   69.1509   65.5151 C   0  0  0  0  0  0
    4.2612   69.1992   64.0021 C   0  0  0  0  0  0
    3.4089   68.9383   62.7868 C   0  0  0  0  0  0
    4.8921   68.6128   62.7679 C   0  0  0  0  0  0
    5.6679   63.6802   68.2153 H   0  0  0  0  0  0
    5.9893   63.7965   66.4837 H   0  0  0  0  0  0
    3.5310   65.0411   67.8689 H   0  0  0  0  0  0
    5.5824   66.1197   68.6906 H   0  0  0  0  0  0
    6.2068   66.2717   67.0398 H   0  0  0  0  0  0
    3.7145   67.7004   68.1590 H   0  0  0  0  0  0
    5.2829   68.4214   67.7923 H   0  0  0  0  0  0
    2.2727   66.8895   66.2384 H   0  0  0  0  0  0
    2.9028   66.9965   64.5928 H   0  0  0  0  0  0
    4.6504   65.3441   65.0247 H   0  0  0  0  0  0
    3.0777   64.6579   65.4492 H   0  0  0  0  0  0
    3.5737   69.8400   65.9317 H   0  0  0  0  0  0
    5.3143   69.5451   65.8234 H   0  0  0  0  0  0
    2.6592   68.1505   62.6898 H   0  0  0  0  0  0
    4.3640   62.4886   66.9831 C   0  0  0  0  0  0
    3.3310   62.2808   67.9859 N   0  0  0  0  0  0
    3.5065   61.3987   69.0541 C   0  0  0  0  0  0
    4.5000   60.6868   69.1648 O   0  0  0  0  0  0
    2.3360   61.2610   69.9910 C   0  0  0  0  0  0
    2.1816   60.0574   70.7052 C   0  0  0  0  0  0
    1.0937   59.8814   71.5627 C   0  0  0  0  0  0
    0.1451   60.9030   71.7211 C   0  0  0  0  0  0
    0.3027   62.1039   71.0182 C   0  0  0  0  0  0
    1.3932   62.2913   70.1618 C   0  0  0  0  0  0
    3.8980   62.5103   65.9824 H   0  0  0  0  0  0
    5.0400   61.6176   66.9795 H   0  0  0  0  0  0
    1.9897   62.5131   67.4053 C   0  0  0  0  0  0
    2.9204   59.2427   70.5798 H   0  0  0  0  0  0
    0.9794   58.9301   72.1176 H   0  0  0  0  0  0
   -0.7170   60.7611   72.4002 H   0  0  0  0  0  0
   -0.4380   62.9164   71.1493 H   0  0  0  0  0  0
    1.5043   63.2620   69.6464 H   0  0  0  0  0  0
    4.9170   67.4352   65.6976 H   0  0  0  0  0  0
    1.2417   61.8253   67.8173 H   0  0  0  0  0  0
    1.6688   63.5555   67.5482 H   0  0  0  0  0  0
    1.9674   62.3016   66.3226 H   0  0  0  0  0  0
    5.5427   69.2852   62.1965 H   0  0  0  0  0  0
    4.4766   70.2822   63.8998 H   0  0  0  0  0  0
    3.1023   69.8390   62.2409 H   0  0  0  0  0  0
    5.2248   67.5746   62.6917 H   0  0  0  0  0  0
  1  2  1  0  0  0
  1 12  1  0  0  0
  1 13  1  0  0  0
  1 26  1  0  0  0
  2  3  1  0  0  0
  2  7  1  0  0  0
  2 14  1  0  0  0
  3  4  1  0  0  0
  3 15  1  0  0  0
  3 16  1  0  0  0
  4  5  1  0  0  0
  4 17  1  0  0  0
  4 18  1  0  0  0
  5  6  1  0  0  0
  5  8  1  0  0  0
  5 44  1  0  0  0
  6  7  1  0  0  0
  6 19  1  0  0  0
  6 20  1  0  0  0
  7 21  1  0  0  0
  7 22  1  0  0  0
  8  9  1  0  0  0
  8 23  1  0  0  0
  8 24  1  0  0  0
  9 10  1  0  0  0
  9 11  1  0  0  0
  9 49  1  0  0  0
 10 11  1  0  0  0
 10 25  1  0  0  0
 10 50  1  0  0  0
 11 48  1  0  0  0
 11 51  1  0  0  0
 26 27  1  0  0  0
 26 36  1  0  0  0
 26 37  1  0  0  0
 27 28  1  0  0  0
 27 38  1  0  0  0
 28 29  2  0  0  0
 28 30  1  0  0  0
 30 31  2  0  0  0
 30 35  1  0  0  0
 31 32  1  0  0  0
 31 39  1  0  0  0
 32 33  2  0  0  0
 32 40  1  0  0  0
 33 34  1  0  0  0
 33 41  1  0  0  0
 34 35  2  0  0  0
 34 42  1  0  0  0
 35 43  1  0  0  0
 38 45  1  0  0  0
 38 46  1  0  0  0
 38 47  1  0  0  0
M  CHG  1   5   1
M  END
>  <ACTIVITY>
4.42

>  <SET>
1

>  <Min_dist>
999.9

>  <Avg_dist>
999.9

$$$$
2-35
  Cerius2 12110213523D 1   1.00000                          
Structure written by Cerius2 SD Exporter
 60 62  0  0  0  0  0  0  0  0999 V2000
    5.1741   63.7666   67.2298 C   0  0  0  0  0  0
    4.3855   65.0953   67.1679 C   0  0  0  0  0  0
    5.2770   66.2628   67.6398 C   0  0  0  0  0  0
    4.5857   67.6253   67.4818 C   0  0  0  0  0  0
    4.1925   67.8073   66.0805 N   0  3  0  0  0  0
    3.1996   66.8221   65.6392 C   0  0  0  0  0  0
    3.8229   65.4102   65.7568 C   0  0  0  0  0  0
    4.3302   69.1509   65.5151 C   0  0  0  0  0  0
    4.3110   69.3539   63.9771 C   0  0  0  0  0  0
    2.9245   69.4518   63.2860 C   0  0  0  0  0  0
    3.0604   69.9590   61.8336 C   0  0  0  0  0  0
    4.0115   69.0662   61.0140 C   0  0  0  0  0  0
    5.3913   68.9611   61.6913 C   0  0  0  0  0  0
    5.2756   68.4676   63.1495 C   0  0  0  0  0  0
    5.6679   63.6802   68.2153 H   0  0  0  0  0  0
    5.9893   63.7965   66.4837 H   0  0  0  0  0  0
    3.5310   65.0411   67.8689 H   0  0  0  0  0  0
    5.5824   66.1197   68.6906 H   0  0  0  0  0  0
    6.2068   66.2717   67.0398 H   0  0  0  0  0  0
    3.7145   67.7004   68.1590 H   0  0  0  0  0  0
    5.2829   68.4214   67.7923 H   0  0  0  0  0  0
    2.2727   66.8895   66.2384 H   0  0  0  0  0  0
    2.9028   66.9965   64.5928 H   0  0  0  0  0  0
    4.6504   65.3441   65.0247 H   0  0  0  0  0  0
    3.0777   64.6579   65.4492 H   0  0  0  0  0  0
    3.5737   69.8400   65.9317 H   0  0  0  0  0  0
    5.3143   69.5451   65.8234 H   0  0  0  0  0  0
    2.4140   68.4757   63.2541 H   0  0  0  0  0  0
    2.0674   70.0050   61.3514 H   0  0  0  0  0  0
    6.0526   68.2913   61.1127 H   0  0  0  0  0  0
    4.3640   62.4886   66.9831 C   0  0  0  0  0  0
    3.3310   62.2808   67.9859 N   0  0  0  0  0  0
    3.5065   61.3987   69.0541 C   0  0  0  0  0  0
    4.5000   60.6868   69.1648 O   0  0  0  0  0  0
    2.3360   61.2610   69.9910 C   0  0  0  0  0  0
    2.1816   60.0574   70.7052 C   0  0  0  0  0  0
    1.0937   59.8814   71.5627 C   0  0  0  0  0  0
    0.1451   60.9030   71.7211 C   0  0  0  0  0  0
    0.3027   62.1039   71.0182 C   0  0  0  0  0  0
    1.3932   62.2913   70.1618 C   0  0  0  0  0  0
    3.8980   62.5103   65.9824 H   0  0  0  0  0  0
    5.0400   61.6176   66.9795 H   0  0  0  0  0  0
    1.9897   62.5131   67.4053 C   0  0  0  0  0  0
    2.9204   59.2427   70.5798 H   0  0  0  0  0  0
    0.9794   58.9301   72.1176 H   0  0  0  0  0  0
   -0.7170   60.7611   72.4002 H   0  0  0  0  0  0
   -0.4380   62.9164   71.1493 H   0  0  0  0  0  0
    1.5043   63.2620   69.6464 H   0  0  0  0  0  0
    4.9170   67.4352   65.6976 H   0  0  0  0  0  0
    1.2417   61.8253   67.8173 H   0  0  0  0  0  0
    1.6688   63.5555   67.5482 H   0  0  0  0  0  0
    1.9674   62.3016   66.3226 H   0  0  0  0  0  0
    4.9194   67.4220   63.1367 H   0  0  0  0  0  0
    4.7233   70.3817   63.9094 H   0  0  0  0  0  0
    2.2565   70.1286   63.8495 H   0  0  0  0  0  0
    3.4485   70.9941   61.8377 H   0  0  0  0  0  0
    3.5723   68.0567   60.9165 H   0  0  0  0  0  0
    4.1175   69.4580   59.9863 H   0  0  0  0  0  0
    5.8744   69.9554   61.6787 H   0  0  0  0  0  0
    6.2809   68.4484   63.6082 H   0  0  0  0  0  0
  1  2  1  0  0  0
  1 15  1  0  0  0
  1 16  1  0  0  0
  1 31  1  0  0  0
  2  3  1  0  0  0
  2  7  1  0  0  0
  2 17  1  0  0  0
  3  4  1  0  0  0
  3 18  1  0  0  0
  3 19  1  0  0  0
  4  5  1  0  0  0
  4 20  1  0  0  0
  4 21  1  0  0  0
  5  6  1  0  0  0
  5  8  1  0  0  0
  5 49  1  0  0  0
  6  7  1  0  0  0
  6 22  1  0  0  0
  6 23  1  0  0  0
  7 24  1  0  0  0
  7 25  1  0  0  0
  8  9  1  0  0  0
  8 26  1  0  0  0
  8 27  1  0  0  0
  9 10  1  0  0  0
  9 14  1  0  0  0
  9 54  1  0  0  0
 10 11  1  0  0  0
 10 28  1  0  0  0
 10 55  1  0  0  0
 11 12  1  0  0  0
 11 29  1  0  0  0
 11 56  1  0  0  0
 12 13  1  0  0  0
 12 57  1  0  0  0
 12 58  1  0  0  0
 13 14  1  0  0  0
 13 30  1  0  0  0
 13 59  1  0  0  0
 14 53  1  0  0  0
 14 60  1  0  0  0
 31 32  1  0  0  0
 31 41  1  0  0  0
 31 42  1  0  0  0
 32 33  1  0  0  0
 32 43  1  0  0  0
 33 34  2  0  0  0
 33 35  1  0  0  0
 35 36  2  0  0  0
 35 40  1  0  0  0
 36 37  1  0  0  0
 36 44  1  0  0  0
 37 38  2  0  0  0
 37 45  1  0  0  0
 38 39  1  0  0  0
 38 46  1  0  0  0
 39 40  2  0  0  0
 39 47  1  0  0  0
 40 48  1  0  0  0
 43 50  1  0  0  0
 43 51  1  0  0  0
 43 52  1  0  0  0
M  CHG  1   5   1
M  END
>  <ACTIVITY>
6.39

>  <SET>
1

>  <Min_dist>
999.9

>  <Avg_dist>
999.9

$$$$
2-36
  Cerius2 12110213523D 1   1.00000                          
Structure written by Cerius2 SD Exporter
 68 72  0  0  0  0  0  0  0  0999 V2000
    5.1741   63.7666   67.2298 C   0  0  0  0  0  0
    4.3855   65.0953   67.1679 C   0  0  0  0  0  0
    5.2770   66.2628   67.6398 C   0  0  0  0  0  0
    4.5857   67.6253   67.4818 C   0  0  0  0  0  0
    4.1925   67.8073   66.0805 N   0  3  0  0  0  0
    3.1996   66.8221   65.6392 C   0  0  0  0  0  0
    3.8229   65.4102   65.7568 C   0  0  0  0  0  0
    4.3302   69.1509   65.5151 C   0  0  0  0  0  0
    4.3110   69.3539   63.9771 C   0  0  0  0  0  0
    2.8878   69.4383   63.3358 C   0  0  0  0  0  0
    2.9666   69.8513   61.8419 C   0  0  0  0  0  0
    3.8285   68.8254   61.0660 C   0  0  0  0  0  0
    5.2580   68.7948   61.6604 C   0  0  0  0  0  0
    5.1945   68.3714   63.1518 C   0  0  0  0  0  0
    5.6679   63.6802   68.2153 H   0  0  0  0  0  0
    5.9893   63.7965   66.4837 H   0  0  0  0  0  0
    3.5310   65.0411   67.8689 H   0  0  0  0  0  0
    5.5824   66.1197   68.6906 H   0  0  0  0  0  0
    6.2068   66.2717   67.0398 H   0  0  0  0  0  0
    3.7145   67.7004   68.1590 H   0  0  0  0  0  0
    5.2829   68.4214   67.7923 H   0  0  0  0  0  0
    2.2727   66.8895   66.2384 H   0  0  0  0  0  0
    2.9028   66.9965   64.5928 H   0  0  0  0  0  0
    4.6504   65.3441   65.0247 H   0  0  0  0  0  0
    3.0777   64.6579   65.4492 H   0  0  0  0  0  0
    3.5737   69.8400   65.9317 H   0  0  0  0  0  0
    5.3106   69.4923   65.8875 H   0  0  0  0  0  0
    2.3337   68.4890   63.3949 H   0  0  0  0  0  0
    1.9447   69.8701   61.4188 H   0  0  0  0  0  0
    5.8744   68.0658   61.1016 H   0  0  0  0  0  0
    4.3640   62.4886   66.9831 C   0  0  0  0  0  0
    3.3310   62.2808   67.9859 N   0  0  0  0  0  0
    3.5065   61.3987   69.0541 C   0  0  0  0  0  0
    4.5000   60.6868   69.1648 O   0  0  0  0  0  0
    2.3360   61.2610   69.9910 C   0  0  0  0  0  0
    2.1816   60.0574   70.7052 C   0  0  0  0  0  0
    1.0937   59.8814   71.5627 C   0  0  0  0  0  0
    0.1451   60.9030   71.7211 C   0  0  0  0  0  0
    0.3027   62.1039   71.0182 C   0  0  0  0  0  0
    1.3932   62.2913   70.1618 C   0  0  0  0  0  0
    3.8980   62.5103   65.9824 H   0  0  0  0  0  0
    5.0400   61.6176   66.9795 H   0  0  0  0  0  0
    1.9897   62.5131   67.4053 C   0  0  0  0  0  0
    2.9204   59.2427   70.5798 H   0  0  0  0  0  0
    0.9794   58.9301   72.1176 H   0  0  0  0  0  0
   -0.7170   60.7611   72.4002 H   0  0  0  0  0  0
   -0.4380   62.9164   71.1493 H   0  0  0  0  0  0
    1.5043   63.2620   69.6464 H   0  0  0  0  0  0
    4.9170   67.4352   65.6976 H   0  0  0  0  0  0
    1.2417   61.8253   67.8173 H   0  0  0  0  0  0
    1.6688   63.5555   67.5482 H   0  0  0  0  0  0
    1.9674   62.3016   66.3226 H   0  0  0  0  0  0
    4.8093   67.3382   63.2103 H   0  0  0  0  0  0
    2.2696   70.1746   63.8838 H   0  0  0  0  0  0
    3.3686   67.8216   61.1122 H   0  0  0  0  0  0
    3.8674   69.0930   59.9938 H   0  0  0  0  0  0
    6.2202   68.3377   63.5646 H   0  0  0  0  0  0
    4.9408   70.7862   63.8043 C   0  0  0  0  0  0
    5.0260   71.2219   62.3209 C   0  0  0  0  0  0
    5.8908   70.2029   61.5408 C   0  0  0  0  0  0
    3.6035   71.2555   61.7163 C   0  0  0  0  0  0
    4.3472   71.5298   64.3698 H   0  0  0  0  0  0
    5.9582   70.8138   64.2389 H   0  0  0  0  0  0
    5.4838   72.2269   62.2594 H   0  0  0  0  0  0
    6.9250   70.1962   61.9303 H   0  0  0  0  0  0
    5.9685   70.4988   60.4781 H   0  0  0  0  0  0
    3.6420   71.5672   60.6560 H   0  0  0  0  0  0
    2.9821   72.0097   62.2323 H   0  0  0  0  0  0
  1  2  1  0  0  0
  1 15  1  0  0  0
  1 16  1  0  0  0
  1 31  1  0  0  0
  2  3  1  0  0  0
  2  7  1  0  0  0
  2 17  1  0  0  0
  3  4  1  0  0  0
  3 18  1  0  0  0
  3 19  1  0  0  0
  4  5  1  0  0  0
  4 20  1  0  0  0
  4 21  1  0  0  0
  5  6  1  0  0  0
  5  8  1  0  0  0
  5 49  1  0  0  0
  6  7  1  0  0  0
  6 22  1  0  0  0
  6 23  1  0  0  0
  7 24  1  0  0  0
  7 25  1  0  0  0
  8  9  1  0  0  0
  8 26  1  0  0  0
  8 27  1  0  0  0
  9 10  1  0  0  0
  9 14  1  0  0  0
  9 58  1  0  0  0
 10 11  1  0  0  0
 10 28  1  0  0  0
 10 54  1  0  0  0
 11 12  1  0  0  0
 11 29  1  0  0  0
 11 61  1  0  0  0
 12 13  1  0  0  0
 12 55  1  0  0  0
 12 56  1  0  0  0
 13 14  1  0  0  0
 13 30  1  0  0  0
 13 60  1  0  0  0
 14 53  1  0  0  0
 14 57  1  0  0  0
 31 32  1  0  0  0
 31 41  1  0  0  0
 31 42  1  0  0  0
 32 33  1  0  0  0
 32 43  1  0  0  0
 33 34  2  0  0  0
 33 35  1  0  0  0
 35 36  2  0  0  0
 35 40  1  0  0  0
 36 37  1  0  0  0
 36 44  1  0  0  0
 37 38  2  0  0  0
 37 45  1  0  0  0
 38 39  1  0  0  0
 38 46  1  0  0  0
 39 40  2  0  0  0
 39 47  1  0  0  0
 40 48  1  0  0  0
 43 50  1  0  0  0
 43 51  1  0  0  0
 43 52  1  0  0  0
 58 59  1  0  0  0
 58 62  1  0  0  0
 58 63  1  0  0  0
 59 60  1  0  0  0
 59 61  1  0  0  0
 59 64  1  0  0  0
 60 65  1  0  0  0
 60 66  1  0  0  0
 61 67  1  0  0  0
 61 68  1  0  0  0
M  CHG  1   5   1
M  END
>  <ACTIVITY>
4.62

>  <SET>
2

>  <Min_dist>
0.08

>  <Avg_dist>
0.4

$$$$
2-3b
  Cerius2 12110213523D 1   1.00000                          
Structure written by Cerius2 SD Exporter
 54 56  0  0  0  0  0  0  0  0999 V2000
    5.1741   63.7666   67.2298 C   0  0  0  0  0  0
    4.3855   65.0953   67.1679 C   0  0  0  0  0  0
    5.2770   66.2628   67.6398 C   0  0  0  0  0  0
    4.5857   67.6253   67.4818 C   0  0  0  0  0  0
    4.1925   67.8073   66.0805 N   0  3  0  0  0  0
    3.1996   66.8221   65.6392 C   0  0  0  0  0  0
    3.8229   65.4102   65.7568 C   0  0  0  0  0  0
    4.3302   69.1509   65.5151 C   0  0  0  0  0  0
    4.2612   69.1992   64.0021 C   0  0  0  0  0  0
    3.0583   69.6122   63.4103 C   0  0  0  0  0  0
    2.9137   69.6073   62.0214 C   0  0  0  0  0  0
    3.9685   69.1928   61.2101 C   0  0  0  0  0  0
    5.1698   68.7828   61.7855 C   0  0  0  0  0  0
    5.3166   68.7866   63.1737 C   0  0  0  0  0  0
    5.6679   63.6802   68.2153 H   0  0  0  0  0  0
    5.9893   63.7965   66.4837 H   0  0  0  0  0  0
    3.5310   65.0411   67.8689 H   0  0  0  0  0  0
    5.5824   66.1197   68.6906 H   0  0  0  0  0  0
    6.2068   66.2717   67.0398 H   0  0  0  0  0  0
    3.7145   67.7004   68.1590 H   0  0  0  0  0  0
    5.2829   68.4214   67.7923 H   0  0  0  0  0  0
    2.2727   66.8895   66.2384 H   0  0  0  0  0  0
    2.9028   66.9965   64.5928 H   0  0  0  0  0  0
    4.6504   65.3441   65.0247 H   0  0  0  0  0  0
    3.0777   64.6579   65.4492 H   0  0  0  0  0  0
    3.5737   69.8400   65.9317 H   0  0  0  0  0  0
    5.3143   69.5451   65.8234 H   0  0  0  0  0  0
    2.2062   69.9310   64.0444 H   0  0  0  0  0  0
    1.9555   69.9248   61.5679 H   0  0  0  0  0  0
    3.8512   69.1849   60.1094 H   0  0  0  0  0  0
    6.0072   68.4449   61.1453 H   0  0  0  0  0  0
    6.2681   68.4425   63.6279 H   0  0  0  0  0  0
    4.3640   62.4886   66.9831 C   0  0  0  0  0  0
    3.3310   62.2808   67.9859 N   0  0  0  0  0  0
    3.5065   61.3987   69.0541 C   0  0  0  0  0  0
    4.5000   60.6868   69.1648 O   0  0  0  0  0  0
    2.3360   61.2610   69.9910 C   0  0  0  0  0  0
    2.1816   60.0574   70.7052 C   0  0  0  0  0  0
    1.0937   59.8814   71.5627 C   0  0  0  0  0  0
    0.1451   60.9030   71.7211 C   0  0  0  0  0  0
    0.3027   62.1039   71.0182 C   0  0  0  0  0  0
    1.3932   62.2913   70.1618 C   0  0  0  0  0  0
    3.8980   62.5103   65.9824 H   0  0  0  0  0  0
    5.0400   61.6176   66.9795 H   0  0  0  0  0  0
    2.4816   62.8088   67.9313 H   0  0  0  0  0  0
    3.1002   58.8397   70.5928 C   0  0  0  0  0  0
    0.9794   58.9301   72.1176 H   0  0  0  0  0  0
   -0.7170   60.7611   72.4002 H   0  0  0  0  0  0
   -0.4380   62.9164   71.1493 H   0  0  0  0  0  0
    1.5043   63.2620   69.6464 H   0  0  0  0  0  0
    2.6667   57.9767   71.1189 H   0  0  0  0  0  0
    3.2492   58.5365   69.5450 H   0  0  0  0  0  0
    4.0881   59.0331   71.0399 H   0  0  0  0  0  0
    4.9170   67.4352   65.6976 H   0  0  0  0  0  0
  1  2  1  0  0  0
  1 15  1  0  0  0
  1 16  1  0  0  0
  1 33  1  0  0  0
  2  3  1  0  0  0
  2  7  1  0  0  0
  2 17  1  0  0  0
  3  4  1  0  0  0
  3 18  1  0  0  0
  3 19  1  0  0  0
  4  5  1  0  0  0
  4 20  1  0  0  0
  4 21  1  0  0  0
  5  6  1  0  0  0
  5  8  1  0  0  0
  5 54  1  0  0  0
  6  7  1  0  0  0
  6 22  1  0  0  0
  6 23  1  0  0  0
  7 24  1  0  0  0
  7 25  1  0  0  0
  8  9  1  0  0  0
  8 26  1  0  0  0
  8 27  1  0  0  0
  9 10  1  0  0  0
  9 14  2  0  0  0
 10 11  2  0  0  0
 10 28  1  0  0  0
 11 12  1  0  0  0
 11 29  1  0  0  0
 12 13  2  0  0  0
 12 30  1  0  0  0
 13 14  1  0  0  0
 13 31  1  0  0  0
 14 32  1  0  0  0
 33 34  1  0  0  0
 33 43  1  0  0  0
 33 44  1  0  0  0
 34 35  1  0  0  0
 34 45  1  0  0  0
 35 36  2  0  0  0
 35 37  1  0  0  0
 37 38  2  0  0  0
 37 42  1  0  0  0
 38 39  1  0  0  0
 38 46  1  0  0  0
 39 40  2  0  0  0
 39 47  1  0  0  0
 40 41  1  0  0  0
 40 48  1  0  0  0
 41 42  2  0  0  0
 41 49  1  0  0  0
 42 50  1  0  0  0
 46 51  1  0  0  0
 46 52  1  0  0  0
 46 53  1  0  0  0
M  CHG  1   5   1
M  END
>  <ACTIVITY>
6

>  <SET>
2

>  <Min_dist>
0.11

>  <Avg_dist>
0.41

$$$$
2-3c
  Cerius2 12110213523D 1   1.00000                          
Structure written by Cerius2 SD Exporter
 54 56  0  0  0  0  0  0  0  0999 V2000
    5.1741   63.7666   67.2298 C   0  0  0  0  0  0
    4.3855   65.0953   67.1679 C   0  0  0  0  0  0
    5.2770   66.2628   67.6398 C   0  0  0  0  0  0
    4.5857   67.6253   67.4818 C   0  0  0  0  0  0
    4.1925   67.8073   66.0805 N   0  3  0  0  0  0
    3.1996   66.8221   65.6392 C   0  0  0  0  0  0
    3.8229   65.4102   65.7568 C   0  0  0  0  0  0
    4.3302   69.1509   65.5151 C   0  0  0  0  0  0
    4.2612   69.1992   64.0021 C   0  0  0  0  0  0
    3.0583   69.6122   63.4103 C   0  0  0  0  0  0
    2.9137   69.6073   62.0214 C   0  0  0  0  0  0
    3.9685   69.1928   61.2101 C   0  0  0  0  0  0
    5.1698   68.7828   61.7855 C   0  0  0  0  0  0
    5.3166   68.7866   63.1737 C   0  0  0  0  0  0
    5.6679   63.6802   68.2153 H   0  0  0  0  0  0
    5.9893   63.7965   66.4837 H   0  0  0  0  0  0
    3.5310   65.0411   67.8689 H   0  0  0  0  0  0
    5.5824   66.1197   68.6906 H   0  0  0  0  0  0
    6.2068   66.2717   67.0398 H   0  0  0  0  0  0
    3.7145   67.7004   68.1590 H   0  0  0  0  0  0
    5.2829   68.4214   67.7923 H   0  0  0  0  0  0
    2.2727   66.8895   66.2384 H   0  0  0  0  0  0
    2.9028   66.9965   64.5928 H   0  0  0  0  0  0
    4.6504   65.3441   65.0247 H   0  0  0  0  0  0
    3.0777   64.6579   65.4492 H   0  0  0  0  0  0
    3.5737   69.8400   65.9317 H   0  0  0  0  0  0
    5.3143   69.5451   65.8234 H   0  0  0  0  0  0
    2.2062   69.9310   64.0444 H   0  0  0  0  0  0
    1.9555   69.9248   61.5679 H   0  0  0  0  0  0
    3.8512   69.1849   60.1094 H   0  0  0  0  0  0
    6.0072   68.4449   61.1453 H   0  0  0  0  0  0
    6.2681   68.4425   63.6279 H   0  0  0  0  0  0
    4.3640   62.4886   66.9831 C   0  0  0  0  0  0
    3.3310   62.2808   67.9859 N   0  0  0  0  0  0
    3.5065   61.3987   69.0541 C   0  0  0  0  0  0
    4.5000   60.6868   69.1648 O   0  0  0  0  0  0
    2.3360   61.2610   69.9910 C   0  0  0  0  0  0
    2.1816   60.0574   70.7052 C   0  0  0  0  0  0
    1.0937   59.8814   71.5627 C   0  0  0  0  0  0
    0.1451   60.9030   71.7211 C   0  0  0  0  0  0
    0.3027   62.1039   71.0182 C   0  0  0  0  0  0
    1.3932   62.2913   70.1618 C   0  0  0  0  0  0
    3.8980   62.5103   65.9824 H   0  0  0  0  0  0
    5.0400   61.6176   66.9795 H   0  0  0  0  0  0
    2.4816   62.8088   67.9313 H   0  0  0  0  0  0
    2.9204   59.2427   70.5798 H   0  0  0  0  0  0
    0.9421   58.5737   72.3214 C   0  0  0  0  0  0
   -0.7170   60.7611   72.4002 H   0  0  0  0  0  0
   -0.4380   62.9164   71.1493 H   0  0  0  0  0  0
    1.5043   63.2620   69.6464 H   0  0  0  0  0  0
    0.0437   58.5815   72.9536 H   0  0  0  0  0  0
    0.8638   57.7261   71.6226 H   0  0  0  0  0  0
    1.8160   58.3967   72.9681 H   0  0  0  0  0  0
    4.9170   67.4352   65.6976 H   0  0  0  0  0  0
  1  2  1  0  0  0
  1 15  1  0  0  0
  1 16  1  0  0  0
  1 33  1  0  0  0
  2  3  1  0  0  0
  2  7  1  0  0  0
  2 17  1  0  0  0
  3  4  1  0  0  0
  3 18  1  0  0  0
  3 19  1  0  0  0
  4  5  1  0  0  0
  4 20  1  0  0  0
  4 21  1  0  0  0
  5  6  1  0  0  0
  5  8  1  0  0  0
  5 54  1  0  0  0
  6  7  1  0  0  0
  6 22  1  0  0  0
  6 23  1  0  0  0
  7 24  1  0  0  0
  7 25  1  0  0  0
  8  9  1  0  0  0
  8 26  1  0  0  0
  8 27  1  0  0  0
  9 10  1  0  0  0
  9 14  2  0  0  0
 10 11  2  0  0  0
 10 28  1  0  0  0
 11 12  1  0  0  0
 11 29  1  0  0  0
 12 13  2  0  0  0
 12 30  1  0  0  0
 13 14  1  0  0  0
 13 31  1  0  0  0
 14 32  1  0  0  0
 33 34  1  0  0  0
 33 43  1  0  0  0
 33 44  1  0  0  0
 34 35  1  0  0  0
 34 45  1  0  0  0
 35 36  2  0  0  0
 35 37  1  0  0  0
 37 38  2  0  0  0
 37 42  1  0  0  0
 38 39  1  0  0  0
 38 46  1  0  0  0
 39 40  2  0  0  0
 39 47  1  0  0  0
 40 41  1  0  0  0
 40 48  1  0  0  0
 41 42  2  0  0  0
 41 49  1  0  0  0
 42 50  1  0  0  0
 47 51  1  0  0  0
 47 52  1  0  0  0
 47 53  1  0  0  0
M  CHG  1   5   1
M  END
>  <ACTIVITY>
6.33

>  <SET>
1

>  <Min_dist>
999.9

>  <Avg_dist>
999.9

$$$$
2-3d
  Cerius2 12110213523D 1   1.00000                          
Structure written by Cerius2 SD Exporter
 54 56  0  0  0  0  0  0  0  0999 V2000
    5.1741   63.7666   67.2298 C   0  0  0  0  0  0
    4.3855   65.0953   67.1679 C   0  0  0  0  0  0
    5.2770   66.2628   67.6398 C   0  0  0  0  0  0
    4.5857   67.6253   67.4818 C   0  0  0  0  0  0
    4.1925   67.8073   66.0805 N   0  3  0  0  0  0
    3.1996   66.8221   65.6392 C   0  0  0  0  0  0
    3.8229   65.4102   65.7568 C   0  0  0  0  0  0
    4.3302   69.1509   65.5151 C   0  0  0  0  0  0
    4.2612   69.1992   64.0021 C   0  0  0  0  0  0
    3.0583   69.6122   63.4103 C   0  0  0  0  0  0
    2.9137   69.6073   62.0214 C   0  0  0  0  0  0
    3.9685   69.1928   61.2101 C   0  0  0  0  0  0
    5.1698   68.7828   61.7855 C   0  0  0  0  0  0
    5.3166   68.7866   63.1737 C   0  0  0  0  0  0
    5.6679   63.6802   68.2153 H   0  0  0  0  0  0
    5.9893   63.7965   66.4837 H   0  0  0  0  0  0
    3.5310   65.0411   67.8689 H   0  0  0  0  0  0
    5.5824   66.1197   68.6906 H   0  0  0  0  0  0
    6.2068   66.2717   67.0398 H   0  0  0  0  0  0
    3.7145   67.7004   68.1590 H   0  0  0  0  0  0
    5.2829   68.4214   67.7923 H   0  0  0  0  0  0
    2.2727   66.8895   66.2384 H   0  0  0  0  0  0
    2.9028   66.9965   64.5928 H   0  0  0  0  0  0
    4.6504   65.3441   65.0247 H   0  0  0  0  0  0
    3.0777   64.6579   65.4492 H   0  0  0  0  0  0
    3.5737   69.8400   65.9317 H   0  0  0  0  0  0
    5.3143   69.5451   65.8234 H   0  0  0  0  0  0
    2.2062   69.9310   64.0444 H   0  0  0  0  0  0
    1.9555   69.9248   61.5679 H   0  0  0  0  0  0
    3.8512   69.1849   60.1094 H   0  0  0  0  0  0
    6.0072   68.4449   61.1453 H   0  0  0  0  0  0
    6.2681   68.4425   63.6279 H   0  0  0  0  0  0
    4.3640   62.4886   66.9831 C   0  0  0  0  0  0
    3.3310   62.2808   67.9859 N   0  0  0  0  0  0
    3.5065   61.3987   69.0541 C   0  0  0  0  0  0
    4.5000   60.6868   69.1648 O   0  0  0  0  0  0
    2.3360   61.2610   69.9910 C   0  0  0  0  0  0
    2.1816   60.0574   70.7052 C   0  0  0  0  0  0
    1.0937   59.8814   71.5627 C   0  0  0  0  0  0
    0.1451   60.9030   71.7211 C   0  0  0  0  0  0
    0.3027   62.1039   71.0182 C   0  0  0  0  0  0
    1.3932   62.2913   70.1618 C   0  0  0  0  0  0
    3.8980   62.5103   65.9824 H   0  0  0  0  0  0
    5.0400   61.6176   66.9795 H   0  0  0  0  0  0
    2.4816   62.8088   67.9313 H   0  0  0  0  0  0
    2.9204   59.2427   70.5798 H   0  0  0  0  0  0
    0.9794   58.9301   72.1176 H   0  0  0  0  0  0
   -1.0418   60.7064   72.6470 C   0  0  0  0  0  0
   -0.4380   62.9164   71.1493 H   0  0  0  0  0  0
    1.5043   63.2620   69.6464 H   0  0  0  0  0  0
   -1.8822   61.3519   72.3540 H   0  0  0  0  0  0
   -1.3872   59.6621   72.6220 H   0  0  0  0  0  0
   -0.7721   60.9485   73.6877 H   0  0  0  0  0  0
    4.9170   67.4352   65.6976 H   0  0  0  0  0  0
  1  2  1  0  0  0
  1 15  1  0  0  0
  1 16  1  0  0  0
  1 33  1  0  0  0
  2  3  1  0  0  0
  2  7  1  0  0  0
  2 17  1  0  0  0
  3  4  1  0  0  0
  3 18  1  0  0  0
  3 19  1  0  0  0
  4  5  1  0  0  0
  4 20  1  0  0  0
  4 21  1  0  0  0
  5  6  1  0  0  0
  5  8  1  0  0  0
  5 54  1  0  0  0
  6  7  1  0  0  0
  6 22  1  0  0  0
  6 23  1  0  0  0
  7 24  1  0  0  0
  7 25  1  0  0  0
  8  9  1  0  0  0
  8 26  1  0  0  0
  8 27  1  0  0  0
  9 10  1  0  0  0
  9 14  2  0  0  0
 10 11  2  0  0  0
 10 28  1  0  0  0
 11 12  1  0  0  0
 11 29  1  0  0  0
 12 13  2  0  0  0
 12 30  1  0  0  0
 13 14  1  0  0  0
 13 31  1  0  0  0
 14 32  1  0  0  0
 33 34  1  0  0  0
 33 43  1  0  0  0
 33 44  1  0  0  0
 34 35  1  0  0  0
 34 45  1  0  0  0
 35 36  2  0  0  0
 35 37  1  0  0  0
 37 38  2  0  0  0
 37 42  1  0  0  0
 38 39  1  0  0  0
 38 46  1  0  0  0
 39 40  2  0  0  0
 39 47  1  0  0  0
 40 41  1  0  0  0
 40 48  1  0  0  0
 41 42  2  0  0  0
 41 49  1  0  0  0
 42 50  1  0  0  0
 48 51  1  0  0  0
 48 52  1  0  0  0
 48 53  1  0  0  0
M  CHG  1   5   1
M  END
>  <ACTIVITY>
6.74

>  <SET>
1

>  <Min_dist>
999.9

>  <Avg_dist>
999.9

$$$$
2-3e
  Cerius2 12110213523D 1   1.00000                          
Structure written by Cerius2 SD Exporter
 53 55  0  0  0  0  0  0  0  0999 V2000
    5.1741   63.7666   67.2298 C   0  0  0  0  0  0
    4.3855   65.0953   67.1679 C   0  0  0  0  0  0
    5.2770   66.2628   67.6398 C   0  0  0  0  0  0
    4.5857   67.6253   67.4818 C   0  0  0  0  0  0
    4.1925   67.8073   66.0805 N   0  3  0  0  0  0
    3.1996   66.8221   65.6392 C   0  0  0  0  0  0
    3.8229   65.4102   65.7568 C   0  0  0  0  0  0
    4.3302   69.1509   65.5151 C   0  0  0  0  0  0
    4.2612   69.1992   64.0021 C   0  0  0  0  0  0
    3.0583   69.6122   63.4103 C   0  0  0  0  0  0
    2.9137   69.6073   62.0214 C   0  0  0  0  0  0
    3.9685   69.1928   61.2101 C   0  0  0  0  0  0
    5.1698   68.7828   61.7855 C   0  0  0  0  0  0
    5.3166   68.7866   63.1737 C   0  0  0  0  0  0
    5.6679   63.6802   68.2153 H   0  0  0  0  0  0
    5.9893   63.7965   66.4837 H   0  0  0  0  0  0
    3.5310   65.0411   67.8689 H   0  0  0  0  0  0
    5.5824   66.1197   68.6906 H   0  0  0  0  0  0
    6.2068   66.2717   67.0398 H   0  0  0  0  0  0
    3.7145   67.7004   68.1590 H   0  0  0  0  0  0
    5.2829   68.4214   67.7923 H   0  0  0  0  0  0
    2.2727   66.8895   66.2384 H   0  0  0  0  0  0
    2.9028   66.9965   64.5928 H   0  0  0  0  0  0
    4.6504   65.3441   65.0247 H   0  0  0  0  0  0
    3.0777   64.6579   65.4492 H   0  0  0  0  0  0
    3.5737   69.8400   65.9317 H   0  0  0  0  0  0
    5.3143   69.5451   65.8234 H   0  0  0  0  0  0
    2.2062   69.9310   64.0444 H   0  0  0  0  0  0
    1.9555   69.9248   61.5679 H   0  0  0  0  0  0
    3.8512   69.1849   60.1094 H   0  0  0  0  0  0
    6.0072   68.4449   61.1453 H   0  0  0  0  0  0
    6.2681   68.4425   63.6279 H   0  0  0  0  0  0
    4.3640   62.4886   66.9831 C   0  0  0  0  0  0
    3.3310   62.2808   67.9859 N   0  0  0  0  0  0
    3.5065   61.3987   69.0541 C   0  0  0  0  0  0
    4.5000   60.6868   69.1648 O   0  0  0  0  0  0
    2.3360   61.2610   69.9910 C   0  0  0  0  0  0
    2.1816   60.0574   70.7052 C   0  0  0  0  0  0
    1.0937   59.8814   71.5627 C   0  0  0  0  0  0
    0.1451   60.9030   71.7211 C   0  0  0  0  0  0
    0.3027   62.1039   71.0182 C   0  0  0  0  0  0
    1.3932   62.2913   70.1618 C   0  0  0  0  0  0
    3.8980   62.5103   65.9824 H   0  0  0  0  0  0
    5.0400   61.6176   66.9795 H   0  0  0  0  0  0
    2.4816   62.8088   67.9313 H   0  0  0  0  0  0
    0.9794   58.9301   72.1176 H   0  0  0  0  0  0
   -0.7170   60.7611   72.4002 H   0  0  0  0  0  0
   -0.4380   62.9164   71.1493 H   0  0  0  0  0  0
    1.5043   63.2620   69.6464 H   0  0  0  0  0  0
    2.9935   58.8244   70.6052 N   0  3  0  0  0  0
    2.8915   58.1640   69.5900 O   0  0  0  0  0  0
    3.6289   58.4985   71.5904 O   0  5  0  0  0  0
    4.9170   67.4352   65.6976 H   0  0  0  0  0  0
  1  2  1  0  0  0
  1 15  1  0  0  0
  1 16  1  0  0  0
  1 33  1  0  0  0
  2  3  1  0  0  0
  2  7  1  0  0  0
  2 17  1  0  0  0
  3  4  1  0  0  0
  3 18  1  0  0  0
  3 19  1  0  0  0
  4  5  1  0  0  0
  4 20  1  0  0  0
  4 21  1  0  0  0
  5  6  1  0  0  0
  5  8  1  0  0  0
  5 53  1  0  0  0
  6  7  1  0  0  0
  6 22  1  0  0  0
  6 23  1  0  0  0
  7 24  1  0  0  0
  7 25  1  0  0  0
  8  9  1  0  0  0
  8 26  1  0  0  0
  8 27  1  0  0  0
  9 10  1  0  0  0
  9 14  2  0  0  0
 10 11  2  0  0  0
 10 28  1  0  0  0
 11 12  1  0  0  0
 11 29  1  0  0  0
 12 13  2  0  0  0
 12 30  1  0  0  0
 13 14  1  0  0  0
 13 31  1  0  0  0
 14 32  1  0  0  0
 33 34  1  0  0  0
 33 43  1  0  0  0
 33 44  1  0  0  0
 34 35  1  0  0  0
 34 45  1  0  0  0
 35 36  2  0  0  0
 35 37  1  0  0  0
 37 38  2  0  0  0
 37 42  1  0  0  0
 38 39  1  0  0  0
 38 50  1  0  0  0
 39 40  2  0  0  0
 39 46  1  0  0  0
 40 41  1  0  0  0
 40 47  1  0  0  0
 41 42  2  0  0  0
 41 48  1  0  0  0
 42 49  1  0  0  0
 50 51  2  0  0  0
 50 52  1  0  0  0
M  CHG  3   5   1  50   1  52  -1
M  END
>  <ACTIVITY>
6.06

>  <SET>
2

>  <Min_dist>
0.1

>  <Avg_dist>
0.45

$$$$
2-3f
  Cerius2 12110213523D 1   1.00000                          
Structure written by Cerius2 SD Exporter
 53 55  0  0  0  0  0  0  0  0999 V2000
    5.1741   63.7666   67.2298 C   0  0  0  0  0  0
    4.3855   65.0953   67.1679 C   0  0  0  0  0  0
    5.2770   66.2628   67.6398 C   0  0  0  0  0  0
    4.5857   67.6253   67.4818 C   0  0  0  0  0  0
    4.1925   67.8073   66.0805 N   0  3  0  0  0  0
    3.1996   66.8221   65.6392 C   0  0  0  0  0  0
    3.8229   65.4102   65.7568 C   0  0  0  0  0  0
    4.3302   69.1509   65.5151 C   0  0  0  0  0  0
    4.2612   69.1992   64.0021 C   0  0  0  0  0  0
    3.0583   69.6122   63.4103 C   0  0  0  0  0  0
    2.9137   69.6073   62.0214 C   0  0  0  0  0  0
    3.9685   69.1928   61.2101 C   0  0  0  0  0  0
    5.1698   68.7828   61.7855 C   0  0  0  0  0  0
    5.3166   68.7866   63.1737 C   0  0  0  0  0  0
    5.6679   63.6802   68.2153 H   0  0  0  0  0  0
    5.9893   63.7965   66.4837 H   0  0  0  0  0  0
    3.5310   65.0411   67.8689 H   0  0  0  0  0  0
    5.5824   66.1197   68.6906 H   0  0  0  0  0  0
    6.2068   66.2717   67.0398 H   0  0  0  0  0  0
    3.7145   67.7004   68.1590 H   0  0  0  0  0  0
    5.2829   68.4214   67.7923 H   0  0  0  0  0  0
    2.2727   66.8895   66.2384 H   0  0  0  0  0  0
    2.9028   66.9965   64.5928 H   0  0  0  0  0  0
    4.6504   65.3441   65.0247 H   0  0  0  0  0  0
    3.0777   64.6579   65.4492 H   0  0  0  0  0  0
    3.5737   69.8400   65.9317 H   0  0  0  0  0  0
    5.3143   69.5451   65.8234 H   0  0  0  0  0  0
    2.2062   69.9310   64.0444 H   0  0  0  0  0  0
    1.9555   69.9248   61.5679 H   0  0  0  0  0  0
    3.8512   69.1849   60.1094 H   0  0  0  0  0  0
    6.0072   68.4449   61.1453 H   0  0  0  0  0  0
    6.2681   68.4425   63.6279 H   0  0  0  0  0  0
    4.3640   62.4886   66.9831 C   0  0  0  0  0  0
    3.3310   62.2808   67.9859 N   0  0  0  0  0  0
    3.5065   61.3987   69.0541 C   0  0  0  0  0  0
    4.5000   60.6868   69.1648 O   0  0  0  0  0  0
    2.3360   61.2610   69.9910 C   0  0  0  0  0  0
    2.1816   60.0574   70.7052 C   0  0  0  0  0  0
    1.0937   59.8814   71.5627 C   0  0  0  0  0  0
    0.1451   60.9030   71.7211 C   0  0  0  0  0  0
    0.3027   62.1039   71.0182 C   0  0  0  0  0  0
    1.3932   62.2913   70.1618 C   0  0  0  0  0  0
    3.8980   62.5103   65.9824 H   0  0  0  0  0  0
    5.0400   61.6176   66.9795 H   0  0  0  0  0  0
    2.4816   62.8088   67.9313 H   0  0  0  0  0  0
    2.9204   59.2427   70.5798 H   0  0  0  0  0  0
   -0.7170   60.7611   72.4002 H   0  0  0  0  0  0
   -0.4380   62.9164   71.1493 H   0  0  0  0  0  0
    1.5043   63.2620   69.6464 H   0  0  0  0  0  0
    0.9316   58.6083   72.3044 N   0  3  0  0  0  0
    1.7588   57.7304   72.1271 O   0  0  0  0  0  0
   -0.0247   58.5027   73.0546 O   0  5  0  0  0  0
    4.9170   67.4352   65.6976 H   0  0  0  0  0  0
  1  2  1  0  0  0
  1 15  1  0  0  0
  1 16  1  0  0  0
  1 33  1  0  0  0
  2  3  1  0  0  0
  2  7  1  0  0  0
  2 17  1  0  0  0
  3  4  1  0  0  0
  3 18  1  0  0  0
  3 19  1  0  0  0
  4  5  1  0  0  0
  4 20  1  0  0  0
  4 21  1  0  0  0
  5  6  1  0  0  0
  5  8  1  0  0  0
  5 53  1  0  0  0
  6  7  1  0  0  0
  6 22  1  0  0  0
  6 23  1  0  0  0
  7 24  1  0  0  0
  7 25  1  0  0  0
  8  9  1  0  0  0
  8 26  1  0  0  0
  8 27  1  0  0  0
  9 10  1  0  0  0
  9 14  2  0  0  0
 10 11  2  0  0  0
 10 28  1  0  0  0
 11 12  1  0  0  0
 11 29  1  0  0  0
 12 13  2  0  0  0
 12 30  1  0  0  0
 13 14  1  0  0  0
 13 31  1  0  0  0
 14 32  1  0  0  0
 33 34  1  0  0  0
 33 43  1  0  0  0
 33 44  1  0  0  0
 34 35  1  0  0  0
 34 45  1  0  0  0
 35 36  2  0  0  0
 35 37  1  0  0  0
 37 38  2  0  0  0
 37 42  1  0  0  0
 38 39  1  0  0  0
 38 46  1  0  0  0
 39 40  2  0  0  0
 39 50  1  0  0  0
 40 41  1  0  0  0
 40 47  1  0  0  0
 41 42  2  0  0  0
 41 48  1  0  0  0
 42 49  1  0  0  0
 50 51  2  0  0  0
 50 52  1  0  0  0
M  CHG  3   5   1  50   1  52  -1
M  END
>  <ACTIVITY>
6.64

>  <SET>
1

>  <Min_dist>
999.9

>  <Avg_dist>
999.9

$$$$
2-3g
  Cerius2 12110213523D 1   1.00000                          
Structure written by Cerius2 SD Exporter
 53 55  0  0  0  0  0  0  0  0999 V2000
    5.1741   63.7666   67.2298 C   0  0  0  0  0  0
    4.3855   65.0953   67.1679 C   0  0  0  0  0  0
    5.2770   66.2628   67.6398 C   0  0  0  0  0  0
    4.5857   67.6253   67.4818 C   0  0  0  0  0  0
    4.1925   67.8073   66.0805 N   0  3  0  0  0  0
    3.1996   66.8221   65.6392 C   0  0  0  0  0  0
    3.8229   65.4102   65.7568 C   0  0  0  0  0  0
    4.3302   69.1509   65.5151 C   0  0  0  0  0  0
    4.2612   69.1992   64.0021 C   0  0  0  0  0  0
    3.0583   69.6122   63.4103 C   0  0  0  0  0  0
    2.9137   69.6073   62.0214 C   0  0  0  0  0  0
    3.9685   69.1928   61.2101 C   0  0  0  0  0  0
    5.1698   68.7828   61.7855 C   0  0  0  0  0  0
    5.3166   68.7866   63.1737 C   0  0  0  0  0  0
    5.6679   63.6802   68.2153 H   0  0  0  0  0  0
    5.9893   63.7965   66.4837 H   0  0  0  0  0  0
    3.5310   65.0411   67.8689 H   0  0  0  0  0  0
    5.5824   66.1197   68.6906 H   0  0  0  0  0  0
    6.2068   66.2717   67.0398 H   0  0  0  0  0  0
    3.7145   67.7004   68.1590 H   0  0  0  0  0  0
    5.2829   68.4214   67.7923 H   0  0  0  0  0  0
    2.2727   66.8895   66.2384 H   0  0  0  0  0  0
    2.9028   66.9965   64.5928 H   0  0  0  0  0  0
    4.6504   65.3441   65.0247 H   0  0  0  0  0  0
    3.0777   64.6579   65.4492 H   0  0  0  0  0  0
    3.5737   69.8400   65.9317 H   0  0  0  0  0  0
    5.3143   69.5451   65.8234 H   0  0  0  0  0  0
    2.2062   69.9310   64.0444 H   0  0  0  0  0  0
    1.9555   69.9248   61.5679 H   0  0  0  0  0  0
    3.8512   69.1849   60.1094 H   0  0  0  0  0  0
    6.0072   68.4449   61.1453 H   0  0  0  0  0  0
    6.2681   68.4425   63.6279 H   0  0  0  0  0  0
    4.3640   62.4886   66.9831 C   0  0  0  0  0  0
    3.3310   62.2808   67.9859 N   0  0  0  0  0  0
    3.5065   61.3987   69.0541 C   0  0  0  0  0  0
    4.5000   60.6868   69.1648 O   0  0  0  0  0  0
    2.3360   61.2610   69.9910 C   0  0  0  0  0  0
    2.1816   60.0574   70.7052 C   0  0  0  0  0  0
    1.0937   59.8814   71.5627 C   0  0  0  0  0  0
    0.1451   60.9030   71.7211 C   0  0  0  0  0  0
    0.3027   62.1039   71.0182 C   0  0  0  0  0  0
    1.3932   62.2913   70.1618 C   0  0  0  0  0  0
    3.8980   62.5103   65.9824 H   0  0  0  0  0  0
    5.0400   61.6176   66.9795 H   0  0  0  0  0  0
    2.4816   62.8088   67.9313 H   0  0  0  0  0  0
    2.9204   59.2427   70.5798 H   0  0  0  0  0  0
    0.9794   58.9301   72.1176 H   0  0  0  0  0  0
   -0.4380   62.9164   71.1493 H   0  0  0  0  0  0
    1.5043   63.2620   69.6464 H   0  0  0  0  0  0
   -1.0098   60.7144   72.6265 N   0  3  0  0  0  0
   -1.1085   59.6514   73.2158 O   0  0  0  0  0  0
   -1.8046   61.6335   72.7339 O   0  5  0  0  0  0
    4.9170   67.4352   65.6976 H   0  0  0  0  0  0
  1  2  1  0  0  0
  1 15  1  0  0  0
  1 16  1  0  0  0
  1 33  1  0  0  0
  2  3  1  0  0  0
  2  7  1  0  0  0
  2 17  1  0  0  0
  3  4  1  0  0  0
  3 18  1  0  0  0
  3 19  1  0  0  0
  4  5  1  0  0  0
  4 20  1  0  0  0
  4 21  1  0  0  0
  5  6  1  0  0  0
  5  8  1  0  0  0
  5 53  1  0  0  0
  6  7  1  0  0  0
  6 22  1  0  0  0
  6 23  1  0  0  0
  7 24  1  0  0  0
  7 25  1  0  0  0
  8  9  1  0  0  0
  8 26  1  0  0  0
  8 27  1  0  0  0
  9 10  1  0  0  0
  9 14  2  0  0  0
 10 11  2  0  0  0
 10 28  1  0  0  0
 11 12  1  0  0  0
 11 29  1  0  0  0
 12 13  2  0  0  0
 12 30  1  0  0  0
 13 14  1  0  0  0
 13 31  1  0  0  0
 14 32  1  0  0  0
 33 34  1  0  0  0
 33 43  1  0  0  0
 33 44  1  0  0  0
 34 35  1  0  0  0
 34 45  1  0  0  0
 35 36  2  0  0  0
 35 37  1  0  0  0
 37 38  2  0  0  0
 37 42  1  0  0  0
 38 39  1  0  0  0
 38 46  1  0  0  0
 39 40  2  0  0  0
 39 47  1  0  0  0
 40 41  1  0  0  0
 40 50  1  0  0  0
 41 42  2  0  0  0
 41 48  1  0  0  0
 42 49  1  0  0  0
 50 51  2  0  0  0
 50 52  1  0  0  0
M  CHG  3   5   1  50   1  52  -1
M  END
>  <ACTIVITY>
7.26

>  <SET>
1

>  <Min_dist>
999.9

>  <Avg_dist>
999.9

$$$$
2-3h
  Cerius2 12110213523D 1   1.00000                          
Structure written by Cerius2 SD Exporter
 55 57  0  0  0  0  0  0  0  0999 V2000
    5.1741   63.7666   67.2298 C   0  0  0  0  0  0
    4.3855   65.0953   67.1679 C   0  0  0  0  0  0
    5.2770   66.2628   67.6398 C   0  0  0  0  0  0
    4.5857   67.6253   67.4818 C   0  0  0  0  0  0
    4.1925   67.8073   66.0805 N   0  3  0  0  0  0
    3.1996   66.8221   65.6392 C   0  0  0  0  0  0
    3.8229   65.4102   65.7568 C   0  0  0  0  0  0
    4.3302   69.1509   65.5151 C   0  0  0  0  0  0
    4.2612   69.1992   64.0021 C   0  0  0  0  0  0
    3.0583   69.6122   63.4103 C   0  0  0  0  0  0
    2.9137   69.6073   62.0214 C   0  0  0  0  0  0
    3.9685   69.1928   61.2101 C   0  0  0  0  0  0
    5.1698   68.7828   61.7855 C   0  0  0  0  0  0
    5.3166   68.7866   63.1737 C   0  0  0  0  0  0
    5.6679   63.6802   68.2153 H   0  0  0  0  0  0
    5.9893   63.7965   66.4837 H   0  0  0  0  0  0
    3.5310   65.0411   67.8689 H   0  0  0  0  0  0
    5.5824   66.1197   68.6906 H   0  0  0  0  0  0
    6.2068   66.2717   67.0398 H   0  0  0  0  0  0
    3.7145   67.7004   68.1590 H   0  0  0  0  0  0
    5.2829   68.4214   67.7923 H   0  0  0  0  0  0
    2.2727   66.8895   66.2384 H   0  0  0  0  0  0
    2.9028   66.9965   64.5928 H   0  0  0  0  0  0
    4.6504   65.3441   65.0247 H   0  0  0  0  0  0
    3.0777   64.6579   65.4492 H   0  0  0  0  0  0
    3.5737   69.8400   65.9317 H   0  0  0  0  0  0
    5.3143   69.5451   65.8234 H   0  0  0  0  0  0
    2.2062   69.9310   64.0444 H   0  0  0  0  0  0
    1.9555   69.9248   61.5679 H   0  0  0  0  0  0
    3.8512   69.1849   60.1094 H   0  0  0  0  0  0
    6.0072   68.4449   61.1453 H   0  0  0  0  0  0
    6.2681   68.4425   63.6279 H   0  0  0  0  0  0
    4.3640   62.4886   66.9831 C   0  0  0  0  0  0
    3.3310   62.2808   67.9859 N   0  0  0  0  0  0
    3.5065   61.3987   69.0541 C   0  0  0  0  0  0
    4.5000   60.6868   69.1648 O   0  0  0  0  0  0
    2.3360   61.2610   69.9910 C   0  0  0  0  0  0
    2.1816   60.0574   70.7052 C   0  0  0  0  0  0
    1.0937   59.8814   71.5627 C   0  0  0  0  0  0
    0.1451   60.9030   71.7211 C   0  0  0  0  0  0
    0.3027   62.1039   71.0182 C   0  0  0  0  0  0
    1.3932   62.2913   70.1618 C   0  0  0  0  0  0
    3.8980   62.5103   65.9824 H   0  0  0  0  0  0
    5.0400   61.6176   66.9795 H   0  0  0  0  0  0
    2.4816   62.8088   67.9313 H   0  0  0  0  0  0
    2.9204   59.2427   70.5798 H   0  0  0  0  0  0
    0.9794   58.9301   72.1176 H   0  0  0  0  0  0
   -0.8897   60.6459   72.5750 O   0  0  0  0  0  0
   -0.4380   62.9164   71.1493 H   0  0  0  0  0  0
    1.5043   63.2620   69.6464 H   0  0  0  0  0  0
    4.9170   67.4352   65.6976 H   0  0  0  0  0  0
   -1.9190   61.6001   72.8101 C   0  0  0  0  0  0
   -2.6132   61.1323   73.5229 H   0  0  0  0  0  0
   -1.5235   62.5260   73.2540 H   0  0  0  0  0  0
   -2.4673   61.8449   71.8880 H   0  0  0  0  0  0
  1  2  1  0  0  0
  1 15  1  0  0  0
  1 16  1  0  0  0
  1 33  1  0  0  0
  2  3  1  0  0  0
  2  7  1  0  0  0
  2 17  1  0  0  0
  3  4  1  0  0  0
  3 18  1  0  0  0
  3 19  1  0  0  0
  4  5  1  0  0  0
  4 20  1  0  0  0
  4 21  1  0  0  0
  5  6  1  0  0  0
  5  8  1  0  0  0
  5 51  1  0  0  0
  6  7  1  0  0  0
  6 22  1  0  0  0
  6 23  1  0  0  0
  7 24  1  0  0  0
  7 25  1  0  0  0
  8  9  1  0  0  0
  8 26  1  0  0  0
  8 27  1  0  0  0
  9 10  1  0  0  0
  9 14  2  0  0  0
 10 11  2  0  0  0
 10 28  1  0  0  0
 11 12  1  0  0  0
 11 29  1  0  0  0
 12 13  2  0  0  0
 12 30  1  0  0  0
 13 14  1  0  0  0
 13 31  1  0  0  0
 14 32  1  0  0  0
 33 34  1  0  0  0
 33 43  1  0  0  0
 33 44  1  0  0  0
 34 35  1  0  0  0
 34 45  1  0  0  0
 35 36  2  0  0  0
 35 37  1  0  0  0
 37 38  2  0  0  0
 37 42  1  0  0  0
 38 39  1  0  0  0
 38 46  1  0  0  0
 39 40  2  0  0  0
 39 47  1  0  0  0
 40 41  1  0  0  0
 40 48  1  0  0  0
 41 42  2  0  0  0
 41 49  1  0  0  0
 42 50  1  0  0  0
 48 52  1  0  0  0
 52 53  1  0  0  0
 52 54  1  0  0  0
 52 55  1  0  0  0
M  CHG  1   5   1
M  END
>  <ACTIVITY>
7.06

>  <SET>
2

>  <Min_dist>
0.11

>  <Avg_dist>
0.39

$$$$
2-3i
  Cerius2 12110213523D 1   1.00000                          
Structure written by Cerius2 SD Exporter
 53 55  0  0  0  0  0  0  0  0999 V2000
    5.1741   63.7666   67.2298 C   0  0  0  0  0  0
    4.3855   65.0953   67.1679 C   0  0  0  0  0  0
    5.2770   66.2628   67.6398 C   0  0  0  0  0  0
    4.5857   67.6253   67.4818 C   0  0  0  0  0  0
    4.1925   67.8073   66.0805 N   0  3  0  0  0  0
    3.1996   66.8221   65.6392 C   0  0  0  0  0  0
    3.8229   65.4102   65.7568 C   0  0  0  0  0  0
    4.3302   69.1509   65.5151 C   0  0  0  0  0  0
    4.2612   69.1992   64.0021 C   0  0  0  0  0  0
    3.0583   69.6122   63.4103 C   0  0  0  0  0  0
    2.9137   69.6073   62.0214 C   0  0  0  0  0  0
    3.9685   69.1928   61.2101 C   0  0  0  0  0  0
    5.1698   68.7828   61.7855 C   0  0  0  0  0  0
    5.3166   68.7866   63.1737 C   0  0  0  0  0  0
    5.6679   63.6802   68.2153 H   0  0  0  0  0  0
    5.9893   63.7965   66.4837 H   0  0  0  0  0  0
    3.5310   65.0411   67.8689 H   0  0  0  0  0  0
    5.5824   66.1197   68.6906 H   0  0  0  0  0  0
    6.2068   66.2717   67.0398 H   0  0  0  0  0  0
    3.7145   67.7004   68.1590 H   0  0  0  0  0  0
    5.2829   68.4214   67.7923 H   0  0  0  0  0  0
    2.2727   66.8895   66.2384 H   0  0  0  0  0  0
    2.9028   66.9965   64.5928 H   0  0  0  0  0  0
    4.6504   65.3441   65.0247 H   0  0  0  0  0  0
    3.0777   64.6579   65.4492 H   0  0  0  0  0  0
    3.5737   69.8400   65.9317 H   0  0  0  0  0  0
    5.3143   69.5451   65.8234 H   0  0  0  0  0  0
    2.2062   69.9310   64.0444 H   0  0  0  0  0  0
    1.9555   69.9248   61.5679 H   0  0  0  0  0  0
    3.8512   69.1849   60.1094 H   0  0  0  0  0  0
    6.0072   68.4449   61.1453 H   0  0  0  0  0  0
    6.2681   68.4425   63.6279 H   0  0  0  0  0  0
    4.3640   62.4886   66.9831 C   0  0  0  0  0  0
    3.3310   62.2808   67.9859 N   0  0  0  0  0  0
    3.5065   61.3987   69.0541 C   0  0  0  0  0  0
    4.5000   60.6868   69.1648 O   0  0  0  0  0  0
    2.3360   61.2610   69.9910 C   0  0  0  0  0  0
    2.1816   60.0574   70.7052 C   0  0  0  0  0  0
    1.0937   59.8814   71.5627 C   0  0  0  0  0  0
    0.1451   60.9030   71.7211 C   0  0  0  0  0  0
    0.3027   62.1039   71.0182 C   0  0  0  0  0  0
    1.3932   62.2913   70.1618 C   0  0  0  0  0  0
    3.8980   62.5103   65.9824 H   0  0  0  0  0  0
    5.0400   61.6176   66.9795 H   0  0  0  0  0  0
    2.4816   62.8088   67.9313 H   0  0  0  0  0  0
    2.9204   59.2427   70.5798 H   0  0  0  0  0  0
    0.9794   58.9301   72.1176 H   0  0  0  0  0  0
   -1.0583   60.8058   72.6171 C   0  0  0  0  0  0
   -0.4380   62.9164   71.1493 H   0  0  0  0  0  0
    1.5043   63.2620   69.6464 H   0  0  0  0  0  0
    4.9170   67.4352   65.6976 H   0  0  0  0  0  0
   -1.8709   61.6938   72.7497 O   0  0  0  0  0  0
   -1.1657   59.8368   73.1728 H   0  0  0  0  0  0
  1  2  1  0  0  0
  1 15  1  0  0  0
  1 16  1  0  0  0
  1 33  1  0  0  0
  2  3  1  0  0  0
  2  7  1  0  0  0
  2 17  1  0  0  0
  3  4  1  0  0  0
  3 18  1  0  0  0
  3 19  1  0  0  0
  4  5  1  0  0  0
  4 20  1  0  0  0
  4 21  1  0  0  0
  5  6  1  0  0  0
  5  8  1  0  0  0
  5 51  1  0  0  0
  6  7  1  0  0  0
  6 22  1  0  0  0
  6 23  1  0  0  0
  7 24  1  0  0  0
  7 25  1  0  0  0
  8  9  1  0  0  0
  8 26  1  0  0  0
  8 27  1  0  0  0
  9 10  1  0  0  0
  9 14  2  0  0  0
 10 11  2  0  0  0
 10 28  1  0  0  0
 11 12  1  0  0  0
 11 29  1  0  0  0
 12 13  2  0  0  0
 12 30  1  0  0  0
 13 14  1  0  0  0
 13 31  1  0  0  0
 14 32  1  0  0  0
 33 34  1  0  0  0
 33 43  1  0  0  0
 33 44  1  0  0  0
 34 35  1  0  0  0
 34 45  1  0  0  0
 35 36  2  0  0  0
 35 37  1  0  0  0
 37 38  2  0  0  0
 37 42  1  0  0  0
 38 39  1  0  0  0
 38 46  1  0  0  0
 39 40  2  0  0  0
 39 47  1  0  0  0
 40 41  1  0  0  0
 40 48  1  0  0  0
 41 42  2  0  0  0
 41 49  1  0  0  0
 42 50  1  0  0  0
 48 52  2  0  0  0
 48 53  1  0  0  0
M  CHG  1   5   1
M  END
>  <ACTIVITY>
6.92

>  <SET>
1

>  <Min_dist>
999.9

>  <Avg_dist>
999.9

$$$$
2-3j
  Cerius2 12110213523D 1   1.00000                          
Structure written by Cerius2 SD Exporter
 51 53  0  0  0  0  0  0  0  0999 V2000
    5.1741   63.7666   67.2298 C   0  0  0  0  0  0
    4.3855   65.0953   67.1679 C   0  0  0  0  0  0
    5.2770   66.2628   67.6398 C   0  0  0  0  0  0
    4.5857   67.6253   67.4818 C   0  0  0  0  0  0
    4.1925   67.8073   66.0805 N   0  3  0  0  0  0
    3.1996   66.8221   65.6392 C   0  0  0  0  0  0
    3.8229   65.4102   65.7568 C   0  0  0  0  0  0
    4.3302   69.1509   65.5151 C   0  0  0  0  0  0
    4.2612   69.1992   64.0021 C   0  0  0  0  0  0
    3.0583   69.6122   63.4103 C   0  0  0  0  0  0
    2.9137   69.6073   62.0214 C   0  0  0  0  0  0
    3.9685   69.1928   61.2101 C   0  0  0  0  0  0
    5.1698   68.7828   61.7855 C   0  0  0  0  0  0
    5.3166   68.7866   63.1737 C   0  0  0  0  0  0
    5.6679   63.6802   68.2153 H   0  0  0  0  0  0
    5.9893   63.7965   66.4837 H   0  0  0  0  0  0
    3.5310   65.0411   67.8689 H   0  0  0  0  0  0
    5.5824   66.1197   68.6906 H   0  0  0  0  0  0
    6.2068   66.2717   67.0398 H   0  0  0  0  0  0
    3.7145   67.7004   68.1590 H   0  0  0  0  0  0
    5.2829   68.4214   67.7923 H   0  0  0  0  0  0
    2.2727   66.8895   66.2384 H   0  0  0  0  0  0
    2.9028   66.9965   64.5928 H   0  0  0  0  0  0
    4.6504   65.3441   65.0247 H   0  0  0  0  0  0
    3.0777   64.6579   65.4492 H   0  0  0  0  0  0
    3.5737   69.8400   65.9317 H   0  0  0  0  0  0
    5.3143   69.5451   65.8234 H   0  0  0  0  0  0
    2.2062   69.9310   64.0444 H   0  0  0  0  0  0
    1.9555   69.9248   61.5679 H   0  0  0  0  0  0
    3.8512   69.1849   60.1094 H   0  0  0  0  0  0
    6.0072   68.4449   61.1453 H   0  0  0  0  0  0
    6.2681   68.4425   63.6279 H   0  0  0  0  0  0
    4.3640   62.4886   66.9831 C   0  0  0  0  0  0
    3.3310   62.2808   67.9859 N   0  0  0  0  0  0
    3.5065   61.3987   69.0541 C   0  0  0  0  0  0
    4.5000   60.6868   69.1648 O   0  0  0  0  0  0
    2.3360   61.2610   69.9910 C   0  0  0  0  0  0
    2.1816   60.0574   70.7052 C   0  0  0  0  0  0
    1.0937   59.8814   71.5627 C   0  0  0  0  0  0
    0.1451   60.9030   71.7211 C   0  0  0  0  0  0
    0.3027   62.1039   71.0182 C   0  0  0  0  0  0
    1.3932   62.2913   70.1618 C   0  0  0  0  0  0
    3.8980   62.5103   65.9824 H   0  0  0  0  0  0
    5.0400   61.6176   66.9795 H   0  0  0  0  0  0
    2.4816   62.8088   67.9313 H   0  0  0  0  0  0
    2.9204   59.2427   70.5798 H   0  0  0  0  0  0
    0.9794   58.9301   72.1176 H   0  0  0  0  0  0
   -1.2008   60.6911   72.7750 Cl  0  0  0  0  0  0
   -0.4380   62.9164   71.1493 H   0  0  0  0  0  0
    1.5043   63.2620   69.6464 H   0  0  0  0  0  0
    4.9170   67.4352   65.6976 H   0  0  0  0  0  0
  1  2  1  0  0  0
  1 15  1  0  0  0
  1 16  1  0  0  0
  1 33  1  0  0  0
  2  3  1  0  0  0
  2  7  1  0  0  0
  2 17  1  0  0  0
  3  4  1  0  0  0
  3 18  1  0  0  0
  3 19  1  0  0  0
  4  5  1  0  0  0
  4 20  1  0  0  0
  4 21  1  0  0  0
  5  6  1  0  0  0
  5  8  1  0  0  0
  5 51  1  0  0  0
  6  7  1  0  0  0
  6 22  1  0  0  0
  6 23  1  0  0  0
  7 24  1  0  0  0
  7 25  1  0  0  0
  8  9  1  0  0  0
  8 26  1  0  0  0
  8 27  1  0  0  0
  9 10  1  0  0  0
  9 14  2  0  0  0
 10 11  2  0  0  0
 10 28  1  0  0  0
 11 12  1  0  0  0
 11 29  1  0  0  0
 12 13  2  0  0  0
 12 30  1  0  0  0
 13 14  1  0  0  0
 13 31  1  0  0  0
 14 32  1  0  0  0
 33 34  1  0  0  0
 33 43  1  0  0  0
 33 44  1  0  0  0
 34 35  1  0  0  0
 34 45  1  0  0  0
 35 36  2  0  0  0
 35 37  1  0  0  0
 37 38  2  0  0  0
 37 42  1  0  0  0
 38 39  1  0  0  0
 38 46  1  0  0  0
 39 40  2  0  0  0
 39 47  1  0  0  0
 40 41  1  0  0  0
 40 48  1  0  0  0
 41 42  2  0  0  0
 41 49  1  0  0  0
 42 50  1  0  0  0
M  CHG  1   5   1
M  END
>  <ACTIVITY>
6.74

>  <SET>
1

>  <Min_dist>
999.9

>  <Avg_dist>
999.9

$$$$
2-3k
  Cerius2 12110213523D 1   1.00000                          
Structure written by Cerius2 SD Exporter
 51 53  0  0  0  0  0  0  0  0999 V2000
    5.1741   63.7666   67.2298 C   0  0  0  0  0  0
    4.3855   65.0953   67.1679 C   0  0  0  0  0  0
    5.2770   66.2628   67.6398 C   0  0  0  0  0  0
    4.5857   67.6253   67.4818 C   0  0  0  0  0  0
    4.1925   67.8073   66.0805 N   0  3  0  0  0  0
    3.1996   66.8221   65.6392 C   0  0  0  0  0  0
    3.8229   65.4102   65.7568 C   0  0  0  0  0  0
    4.3302   69.1509   65.5151 C   0  0  0  0  0  0
    4.2612   69.1992   64.0021 C   0  0  0  0  0  0
    3.0583   69.6122   63.4103 C   0  0  0  0  0  0
    2.9137   69.6073   62.0214 C   0  0  0  0  0  0
    3.9685   69.1928   61.2101 C   0  0  0  0  0  0
    5.1698   68.7828   61.7855 C   0  0  0  0  0  0
    5.3166   68.7866   63.1737 C   0  0  0  0  0  0
    5.6679   63.6802   68.2153 H   0  0  0  0  0  0
    5.9893   63.7965   66.4837 H   0  0  0  0  0  0
    3.5310   65.0411   67.8689 H   0  0  0  0  0  0
    5.5824   66.1197   68.6906 H   0  0  0  0  0  0
    6.2068   66.2717   67.0398 H   0  0  0  0  0  0
    3.7145   67.7004   68.1590 H   0  0  0  0  0  0
    5.2829   68.4214   67.7923 H   0  0  0  0  0  0
    2.2727   66.8895   66.2384 H   0  0  0  0  0  0
    2.9028   66.9965   64.5928 H   0  0  0  0  0  0
    4.6504   65.3441   65.0247 H   0  0  0  0  0  0
    3.0777   64.6579   65.4492 H   0  0  0  0  0  0
    3.5737   69.8400   65.9317 H   0  0  0  0  0  0
    5.3143   69.5451   65.8234 H   0  0  0  0  0  0
    2.2062   69.9310   64.0444 H   0  0  0  0  0  0
    1.9555   69.9248   61.5679 H   0  0  0  0  0  0
    3.8512   69.1849   60.1094 H   0  0  0  0  0  0
    6.0072   68.4449   61.1453 H   0  0  0  0  0  0
    6.2681   68.4425   63.6279 H   0  0  0  0  0  0
    4.3640   62.4886   66.9831 C   0  0  0  0  0  0
    3.3310   62.2808   67.9859 N   0  0  0  0  0  0
    3.5065   61.3987   69.0541 C   0  0  0  0  0  0
    4.5000   60.6868   69.1648 O   0  0  0  0  0  0
    2.3360   61.2610   69.9910 C   0  0  0  0  0  0
    2.1816   60.0574   70.7052 C   0  0  0  0  0  0
    1.0937   59.8814   71.5627 C   0  0  0  0  0  0
    0.1451   60.9030   71.7211 C   0  0  0  0  0  0
    0.3027   62.1039   71.0182 C   0  0  0  0  0  0
    1.3932   62.2913   70.1618 C   0  0  0  0  0  0
    3.8980   62.5103   65.9824 H   0  0  0  0  0  0
    5.0400   61.6176   66.9795 H   0  0  0  0  0  0
    2.4816   62.8088   67.9313 H   0  0  0  0  0  0
    2.9204   59.2427   70.5798 H   0  0  0  0  0  0
    0.9794   58.9301   72.1176 H   0  0  0  0  0  0
   -0.9094   60.7399   72.5459 F   0  0  0  0  0  0
   -0.4380   62.9164   71.1493 H   0  0  0  0  0  0
    1.5043   63.2620   69.6464 H   0  0  0  0  0  0
    4.9170   67.4352   65.6976 H   0  0  0  0  0  0
  1  2  1  0  0  0
  1 15  1  0  0  0
  1 16  1  0  0  0
  1 33  1  0  0  0
  2  3  1  0  0  0
  2  7  1  0  0  0
  2 17  1  0  0  0
  3  4  1  0  0  0
  3 18  1  0  0  0
  3 19  1  0  0  0
  4  5  1  0  0  0
  4 20  1  0  0  0
  4 21  1  0  0  0
  5  6  1  0  0  0
  5  8  1  0  0  0
  5 51  1  0  0  0
  6  7  1  0  0  0
  6 22  1  0  0  0
  6 23  1  0  0  0
  7 24  1  0  0  0
  7 25  1  0  0  0
  8  9  1  0  0  0
  8 26  1  0  0  0
  8 27  1  0  0  0
  9 10  1  0  0  0
  9 14  2  0  0  0
 10 11  2  0  0  0
 10 28  1  0  0  0
 11 12  1  0  0  0
 11 29  1  0  0  0
 12 13  2  0  0  0
 12 30  1  0  0  0
 13 14  1  0  0  0
 13 31  1  0  0  0
 14 32  1  0  0  0
 33 34  1  0  0  0
 33 43  1  0  0  0
 33 44  1  0  0  0
 34 35  1  0  0  0
 34 45  1  0  0  0
 35 36  2  0  0  0
 35 37  1  0  0  0
 37 38  2  0  0  0
 37 42  1  0  0  0
 38 39  1  0  0  0
 38 46  1  0  0  0
 39 40  2  0  0  0
 39 47  1  0  0  0
 40 41  1  0  0  0
 40 48  1  0  0  0
 41 42  2  0  0  0
 41 49  1  0  0  0
 42 50  1  0  0  0
M  CHG  1   5   1
M  END
>  <ACTIVITY>
7.07

>  <SET>
1

>  <Min_dist>
999.9

>  <Avg_dist>
999.9

$$$$
2-3l
  Cerius2 12110213523D 1   1.00000                          
Structure written by Cerius2 SD Exporter
 56 58  0  0  0  0  0  0  0  0999 V2000
    5.1741   63.7666   67.2298 C   0  0  0  0  0  0
    4.3855   65.0953   67.1679 C   0  0  0  0  0  0
    5.2770   66.2628   67.6398 C   0  0  0  0  0  0
    4.5857   67.6253   67.4818 C   0  0  0  0  0  0
    4.1925   67.8073   66.0805 N   0  3  0  0  0  0
    3.1996   66.8221   65.6392 C   0  0  0  0  0  0
    3.8229   65.4102   65.7568 C   0  0  0  0  0  0
    4.3302   69.1509   65.5151 C   0  0  0  0  0  0
    4.2612   69.1992   64.0021 C   0  0  0  0  0  0
    3.0583   69.6122   63.4103 C   0  0  0  0  0  0
    2.9137   69.6073   62.0214 C   0  0  0  0  0  0
    3.9685   69.1928   61.2101 C   0  0  0  0  0  0
    5.1698   68.7828   61.7855 C   0  0  0  0  0  0
    5.3166   68.7866   63.1737 C   0  0  0  0  0  0
    5.6679   63.6802   68.2153 H   0  0  0  0  0  0
    5.9893   63.7965   66.4837 H   0  0  0  0  0  0
    3.5310   65.0411   67.8689 H   0  0  0  0  0  0
    5.5824   66.1197   68.6906 H   0  0  0  0  0  0
    6.2068   66.2717   67.0398 H   0  0  0  0  0  0
    3.7145   67.7004   68.1590 H   0  0  0  0  0  0
    5.2829   68.4214   67.7923 H   0  0  0  0  0  0
    2.2727   66.8895   66.2384 H   0  0  0  0  0  0
    2.9028   66.9965   64.5928 H   0  0  0  0  0  0
    4.6504   65.3441   65.0247 H   0  0  0  0  0  0
    3.0777   64.6579   65.4492 H   0  0  0  0  0  0
    3.5737   69.8400   65.9317 H   0  0  0  0  0  0
    5.3143   69.5451   65.8234 H   0  0  0  0  0  0
    2.2062   69.9310   64.0444 H   0  0  0  0  0  0
    1.9555   69.9248   61.5679 H   0  0  0  0  0  0
    3.8512   69.1849   60.1094 H   0  0  0  0  0  0
    6.0072   68.4449   61.1453 H   0  0  0  0  0  0
    6.2681   68.4425   63.6279 H   0  0  0  0  0  0
    4.3640   62.4886   66.9831 C   0  0  0  0  0  0
    3.3310   62.2808   67.9859 N   0  0  0  0  0  0
    3.5065   61.3987   69.0541 C   0  0  0  0  0  0
    4.5000   60.6868   69.1648 O   0  0  0  0  0  0
    2.3360   61.2610   69.9910 C   0  0  0  0  0  0
    2.1816   60.0574   70.7052 C   0  0  0  0  0  0
    1.0937   59.8814   71.5627 C   0  0  0  0  0  0
    0.1451   60.9030   71.7211 C   0  0  0  0  0  0
    0.3027   62.1039   71.0182 C   0  0  0  0  0  0
    1.3932   62.2913   70.1618 C   0  0  0  0  0  0
    3.8980   62.5103   65.9824 H   0  0  0  0  0  0
    5.0400   61.6176   66.9795 H   0  0  0  0  0  0
    2.4816   62.8088   67.9313 H   0  0  0  0  0  0
    2.9204   59.2427   70.5798 H   0  0  0  0  0  0
    0.9794   58.9301   72.1176 H   0  0  0  0  0  0
   -1.0583   60.8058   72.6171 C   0  0  0  0  0  0
   -0.4380   62.9164   71.1493 H   0  0  0  0  0  0
    1.5043   63.2620   69.6464 H   0  0  0  0  0  0
    4.9170   67.4352   65.6976 H   0  0  0  0  0  0
   -1.8709   61.6938   72.7497 O   0  0  0  0  0  0
   -1.3304   59.5417   73.4349 C   0  0  0  0  0  0
   -2.3512   59.2618   73.1261 H   0  0  0  0  0  0
   -0.7173   58.6336   73.4524 H   0  0  0  0  0  0
   -1.4072   59.9251   74.4659 H   0  0  0  0  0  0
  1  2  1  0  0  0
  1 15  1  0  0  0
  1 16  1  0  0  0
  1 33  1  0  0  0
  2  3  1  0  0  0
  2  7  1  0  0  0
  2 17  1  0  0  0
  3  4  1  0  0  0
  3 18  1  0  0  0
  3 19  1  0  0  0
  4  5  1  0  0  0
  4 20  1  0  0  0
  4 21  1  0  0  0
  5  6  1  0  0  0
  5  8  1  0  0  0
  5 51  1  0  0  0
  6  7  1  0  0  0
  6 22  1  0  0  0
  6 23  1  0  0  0
  7 24  1  0  0  0
  7 25  1  0  0  0
  8  9  1  0  0  0
  8 26  1  0  0  0
  8 27  1  0  0  0
  9 10  1  0  0  0
  9 14  2  0  0  0
 10 11  2  0  0  0
 10 28  1  0  0  0
 11 12  1  0  0  0
 11 29  1  0  0  0
 12 13  2  0  0  0
 12 30  1  0  0  0
 13 14  1  0  0  0
 13 31  1  0  0  0
 14 32  1  0  0  0
 33 34  1  0  0  0
 33 43  1  0  0  0
 33 44  1  0  0  0
 34 35  1  0  0  0
 34 45  1  0  0  0
 35 36  2  0  0  0
 35 37  1  0  0  0
 37 38  2  0  0  0
 37 42  1  0  0  0
 38 39  1  0  0  0
 38 46  1  0  0  0
 39 40  2  0  0  0
 39 47  1  0  0  0
 40 41  1  0  0  0
 40 48  1  0  0  0
 41 42  2  0  0  0
 41 49  1  0  0  0
 42 50  1  0  0  0
 48 52  2  0  0  0
 48 53  1  0  0  0
 53 54  1  0  0  0
 53 55  1  0  0  0
 53 56  1  0  0  0
M  CHG  1   5   1
M  END
>  <ACTIVITY>
7.29

>  <SET>
1

>  <Min_dist>
999.9

>  <Avg_dist>
999.9

$$$$
2-3m
  Cerius2 12110213523D 1   1.00000                          
Structure written by Cerius2 SD Exporter
 67 70  0  0  0  0  0  0  0  0999 V2000
    5.1741   63.7666   67.2298 C   0  0  0  0  0  0
    4.3855   65.0953   67.1679 C   0  0  0  0  0  0
    5.2770   66.2628   67.6398 C   0  0  0  0  0  0
    4.5857   67.6253   67.4818 C   0  0  0  0  0  0
    4.1925   67.8073   66.0805 N   0  3  0  0  0  0
    3.1996   66.8221   65.6392 C   0  0  0  0  0  0
    3.8229   65.4102   65.7568 C   0  0  0  0  0  0
    4.3302   69.1509   65.5151 C   0  0  0  0  0  0
    4.2612   69.1992   64.0021 C   0  0  0  0  0  0
    3.0693   69.6458   63.4050 C   0  0  0  0  0  0
    2.9210   69.6419   62.0193 C   0  0  0  0  0  0
    3.9685   69.1928   61.2101 C   0  0  0  0  0  0
    5.1698   68.7828   61.7855 C   0  0  0  0  0  0
    5.3166   68.7866   63.1737 C   0  0  0  0  0  0
    5.6679   63.6802   68.2153 H   0  0  0  0  0  0
    5.9893   63.7965   66.4837 H   0  0  0  0  0  0
    3.5310   65.0411   67.8689 H   0  0  0  0  0  0
    5.5824   66.1197   68.6906 H   0  0  0  0  0  0
    6.2068   66.2717   67.0398 H   0  0  0  0  0  0
    3.7145   67.7004   68.1590 H   0  0  0  0  0  0
    5.2829   68.4214   67.7923 H   0  0  0  0  0  0
    2.2727   66.8895   66.2384 H   0  0  0  0  0  0
    2.9028   66.9965   64.5928 H   0  0  0  0  0  0
    4.6504   65.3441   65.0247 H   0  0  0  0  0  0
    3.0777   64.6579   65.4492 H   0  0  0  0  0  0
    3.5538   69.7962   65.9465 H   0  0  0  0  0  0
    5.3143   69.5451   65.8234 H   0  0  0  0  0  0
    2.2216   70.0128   64.0215 H   0  0  0  0  0  0
    1.9761   69.9903   61.5567 H   0  0  0  0  0  0
    3.8512   69.1849   60.1094 H   0  0  0  0  0  0
    6.0072   68.4449   61.1453 H   0  0  0  0  0  0
    6.2681   68.4425   63.6279 H   0  0  0  0  0  0
    4.3640   62.4886   66.9831 C   0  0  0  0  0  0
    3.3310   62.2808   67.9859 N   0  0  0  0  0  0
    3.5065   61.3987   69.0541 C   0  0  0  0  0  0
    4.5000   60.6868   69.1648 O   0  0  0  0  0  0
    2.3360   61.2610   69.9910 C   0  0  0  0  0  0
    2.1816   60.0574   70.7052 C   0  0  0  0  0  0
    1.0937   59.8814   71.5627 C   0  0  0  0  0  0
    0.1451   60.9030   71.7211 C   0  0  0  0  0  0
    0.3027   62.1039   71.0182 C   0  0  0  0  0  0
    1.3932   62.2913   70.1618 C   0  0  0  0  0  0
    3.8980   62.5103   65.9824 H   0  0  0  0  0  0
    5.0400   61.6176   66.9795 H   0  0  0  0  0  0
    2.4816   62.8088   67.9313 H   0  0  0  0  0  0
    2.9204   59.2427   70.5798 H   0  0  0  0  0  0
    0.9794   58.9301   72.1176 H   0  0  0  0  0  0
   -0.4380   62.9164   71.1493 H   0  0  0  0  0  0
    1.5043   63.2620   69.6464 H   0  0  0  0  0  0
    4.9170   67.4352   65.6976 H   0  0  0  0  0  0
   -1.1848   60.7205   72.8493 S   0  0  0  0  0  0
   -0.5778   60.5042   74.1285 O   0  0  0  0  0  0
   -2.0693   61.8280   72.6123 O   0  0  0  0  0  0
   -2.0041   59.2295   72.3190 C   0  0  0  0  0  0
   -3.1913   58.9115   73.2038 C   0  0  0  0  0  0
   -3.0042   58.2436   74.4231 C   0  0  0  0  0  0
   -4.0923   57.9415   75.2493 C   0  0  0  0  0  0
   -5.3918   58.3015   74.8695 C   0  0  0  0  0  0
   -5.5831   58.9709   73.6545 C   0  0  0  0  0  0
   -4.4922   59.2724   72.8299 C   0  0  0  0  0  0
   -2.3222   59.3819   71.2792 H   0  0  0  0  0  0
   -1.2771   58.4070   72.3596 H   0  0  0  0  0  0
   -1.9838   57.9572   74.7524 H   0  0  0  0  0  0
   -3.9183   57.4191   76.2094 H   0  0  0  0  0  0
   -6.2525   58.0657   75.5228 H   0  0  0  0  0  0
   -6.6013   59.2696   73.3403 H   0  0  0  0  0  0
   -4.6744   59.8080   71.8765 H   0  0  0  0  0  0
  1  2  1  0  0  0
  1 15  1  0  0  0
  1 16  1  0  0  0
  1 33  1  0  0  0
  2  3  1  0  0  0
  2  7  1  0  0  0
  2 17  1  0  0  0
  3  4  1  0  0  0
  3 18  1  0  0  0
  3 19  1  0  0  0
  4  5  1  0  0  0
  4 20  1  0  0  0
  4 21  1  0  0  0
  5  6  1  0  0  0
  5  8  1  0  0  0
  5 50  1  0  0  0
  6  7  1  0  0  0
  6 22  1  0  0  0
  6 23  1  0  0  0
  7 24  1  0  0  0
  7 25  1  0  0  0
  8  9  1  0  0  0
  8 26  1  0  0  0
  8 27  1  0  0  0
  9 10  1  0  0  0
  9 14  2  0  0  0
 10 11  2  0  0  0
 10 28  1  0  0  0
 11 12  1  0  0  0
 11 29  1  0  0  0
 12 13  2  0  0  0
 12 30  1  0  0  0
 13 14  1  0  0  0
 13 31  1  0  0  0
 14 32  1  0  0  0
 33 34  1  0  0  0
 33 43  1  0  0  0
 33 44  1  0  0  0
 34 35  1  0  0  0
 34 45  1  0  0  0
 35 36  2  0  0  0
 35 37  1  0  0  0
 37 38  2  0  0  0
 37 42  1  0  0  0
 38 39  1  0  0  0
 38 46  1  0  0  0
 39 40  2  0  0  0
 39 47  1  0  0  0
 40 41  1  0  0  0
 40 51  1  0  0  0
 41 42  2  0  0  0
 41 48  1  0  0  0
 42 49  1  0  0  0
 51 52  2  0  0  0
 51 53  2  0  0  0
 51 54  1  0  0  0
 54 55  1  0  0  0
 54 61  1  0  0  0
 54 62  1  0  0  0
 55 56  2  0  0  0
 55 60  1  0  0  0
 56 57  1  0  0  0
 56 63  1  0  0  0
 57 58  2  0  0  0
 57 64  1  0  0  0
 58 59  1  0  0  0
 58 65  1  0  0  0
 59 60  2  0  0  0
 59 66  1  0  0  0
 60 67  1  0  0  0
M  CHG  1   5   1
M  END
>  <ACTIVITY>
7.54

>  <SET>
1

>  <Min_dist>
999.9

>  <Avg_dist>
999.9

$$$$
2-3n
  Cerius2 12110213523D 1   1.00000                          
Structure written by Cerius2 SD Exporter
 50 52  0  0  0  0  0  0  0  0999 V2000
    5.1741   63.7666   67.2298 C   0  0  0  0  0  0
    4.3855   65.0953   67.1679 C   0  0  0  0  0  0
    5.2770   66.2628   67.6398 C   0  0  0  0  0  0
    4.5857   67.6253   67.4818 C   0  0  0  0  0  0
    4.1925   67.8073   66.0805 N   0  3  0  0  0  0
    3.1996   66.8221   65.6392 C   0  0  0  0  0  0
    3.8229   65.4102   65.7568 C   0  0  0  0  0  0
    4.3302   69.1509   65.5151 C   0  0  0  0  0  0
    4.2612   69.1992   64.0021 C   0  0  0  0  0  0
    3.0583   69.6122   63.4103 C   0  0  0  0  0  0
    2.9137   69.6073   62.0214 C   0  0  0  0  0  0
    3.9685   69.1928   61.2101 C   0  0  0  0  0  0
    5.1698   68.7828   61.7855 C   0  0  0  0  0  0
    5.3166   68.7866   63.1737 C   0  0  0  0  0  0
    5.6679   63.6802   68.2153 H   0  0  0  0  0  0
    5.9893   63.7965   66.4837 H   0  0  0  0  0  0
    3.5310   65.0411   67.8689 H   0  0  0  0  0  0
    5.5824   66.1197   68.6906 H   0  0  0  0  0  0
    6.2068   66.2717   67.0398 H   0  0  0  0  0  0
    3.7145   67.7004   68.1590 H   0  0  0  0  0  0
    5.2829   68.4214   67.7923 H   0  0  0  0  0  0
    2.2727   66.8895   66.2384 H   0  0  0  0  0  0
    2.9028   66.9965   64.5928 H   0  0  0  0  0  0
    4.6504   65.3441   65.0247 H   0  0  0  0  0  0
    3.0777   64.6579   65.4492 H   0  0  0  0  0  0
    3.5737   69.8400   65.9317 H   0  0  0  0  0  0
    5.3143   69.5451   65.8234 H   0  0  0  0  0  0
    2.2062   69.9310   64.0444 H   0  0  0  0  0  0
    1.9555   69.9248   61.5679 H   0  0  0  0  0  0
    3.8512   69.1849   60.1094 H   0  0  0  0  0  0
    6.0072   68.4449   61.1453 H   0  0  0  0  0  0
    6.2681   68.4425   63.6279 H   0  0  0  0  0  0
    4.3640   62.4886   66.9831 C   0  0  0  0  0  0
    3.3310   62.2808   67.9859 N   0  0  0  0  0  0
    3.5065   61.3987   69.0541 C   0  0  0  0  0  0
    4.5000   60.6868   69.1648 O   0  0  0  0  0  0
    2.3360   61.2610   69.9910 C   0  0  0  0  0  0
    2.1816   60.0574   70.7052 N   0  0  0  0  0  0
    1.0937   59.8814   71.5627 C   0  0  0  0  0  0
    0.1451   60.9030   71.7211 C   0  0  0  0  0  0
    0.3027   62.1039   71.0182 C   0  0  0  0  0  0
    1.3932   62.2913   70.1618 C   0  0  0  0  0  0
    3.8980   62.5103   65.9824 H   0  0  0  0  0  0
    5.0400   61.6176   66.9795 H   0  0  0  0  0  0
    2.4816   62.8088   67.9313 H   0  0  0  0  0  0
    0.9794   58.9301   72.1176 H   0  0  0  0  0  0
   -0.7170   60.7611   72.4002 H   0  0  0  0  0  0
   -0.4380   62.9164   71.1493 H   0  0  0  0  0  0
    1.5043   63.2620   69.6464 H   0  0  0  0  0  0
    4.9170   67.4352   65.6976 H   0  0  0  0  0  0
  1  2  1  0  0  0
  1 15  1  0  0  0
  1 16  1  0  0  0
  1 33  1  0  0  0
  2  3  1  0  0  0
  2  7  1  0  0  0
  2 17  1  0  0  0
  3  4  1  0  0  0
  3 18  1  0  0  0
  3 19  1  0  0  0
  4  5  1  0  0  0
  4 20  1  0  0  0
  4 21  1  0  0  0
  5  6  1  0  0  0
  5  8  1  0  0  0
  5 50  1  0  0  0
  6  7  1  0  0  0
  6 22  1  0  0  0
  6 23  1  0  0  0
  7 24  1  0  0  0
  7 25  1  0  0  0
  8  9  1  0  0  0
  8 26  1  0  0  0
  8 27  1  0  0  0
  9 10  1  0  0  0
  9 14  2  0  0  0
 10 11  2  0  0  0
 10 28  1  0  0  0
 11 12  1  0  0  0
 11 29  1  0  0  0
 12 13  2  0  0  0
 12 30  1  0  0  0
 13 14  1  0  0  0
 13 31  1  0  0  0
 14 32  1  0  0  0
 33 34  1  0  0  0
 33 43  1  0  0  0
 33 44  1  0  0  0
 34 35  1  0  0  0
 34 45  1  0  0  0
 35 36  2  0  0  0
 35 37  1  0  0  0
 37 38  2  0  0  0
 37 42  1  0  0  0
 38 39  1  0  0  0
 39 40  2  0  0  0
 39 46  1  0  0  0
 40 41  1  0  0  0
 40 47  1  0  0  0
 41 42  2  0  0  0
 41 48  1  0  0  0
 42 49  1  0  0  0
M  CHG  1   5   1
M  END
>  <ACTIVITY>
6.1

>  <SET>
1

>  <Min_dist>
999.9

>  <Avg_dist>
999.9

$$$$
2-3o
  Cerius2 12110213523D 1   1.00000                          
Structure written by Cerius2 SD Exporter
 50 52  0  0  0  0  0  0  0  0999 V2000
    5.1741   63.7666   67.2298 C   0  0  0  0  0  0
    4.3855   65.0953   67.1679 C   0  0  0  0  0  0
    5.2770   66.2628   67.6398 C   0  0  0  0  0  0
    4.5857   67.6253   67.4818 C   0  0  0  0  0  0
    4.1925   67.8073   66.0805 N   0  3  0  0  0  0
    3.1996   66.8221   65.6392 C   0  0  0  0  0  0
    3.8229   65.4102   65.7568 C   0  0  0  0  0  0
    4.3302   69.1509   65.5151 C   0  0  0  0  0  0
    4.2612   69.1992   64.0021 C   0  0  0  0  0  0
    3.0583   69.6122   63.4103 C   0  0  0  0  0  0
    2.9137   69.6073   62.0214 C   0  0  0  0  0  0
    3.9685   69.1928   61.2101 C   0  0  0  0  0  0
    5.1698   68.7828   61.7855 C   0  0  0  0  0  0
    5.3166   68.7866   63.1737 C   0  0  0  0  0  0
    5.6679   63.6802   68.2153 H   0  0  0  0  0  0
    5.9893   63.7965   66.4837 H   0  0  0  0  0  0
    3.5310   65.0411   67.8689 H   0  0  0  0  0  0
    5.5824   66.1197   68.6906 H   0  0  0  0  0  0
    6.2068   66.2717   67.0398 H   0  0  0  0  0  0
    3.7145   67.7004   68.1590 H   0  0  0  0  0  0
    5.2829   68.4214   67.7923 H   0  0  0  0  0  0
    2.2727   66.8895   66.2384 H   0  0  0  0  0  0
    2.9028   66.9965   64.5928 H   0  0  0  0  0  0
    4.6504   65.3441   65.0247 H   0  0  0  0  0  0
    3.0777   64.6579   65.4492 H   0  0  0  0  0  0
    3.5737   69.8400   65.9317 H   0  0  0  0  0  0
    5.3143   69.5451   65.8234 H   0  0  0  0  0  0
    2.2062   69.9310   64.0444 H   0  0  0  0  0  0
    1.9555   69.9248   61.5679 H   0  0  0  0  0  0
    3.8512   69.1849   60.1094 H   0  0  0  0  0  0
    6.0072   68.4449   61.1453 H   0  0  0  0  0  0
    6.2681   68.4425   63.6279 H   0  0  0  0  0  0
    4.3640   62.4886   66.9831 C   0  0  0  0  0  0
    3.3310   62.2808   67.9859 N   0  0  0  0  0  0
    3.5065   61.3987   69.0541 C   0  0  0  0  0  0
    4.5000   60.6868   69.1648 O   0  0  0  0  0  0
    2.3360   61.2610   69.9910 C   0  0  0  0  0  0
    2.1816   60.0574   70.7052 C   0  0  0  0  0  0
    1.0937   59.8814   71.5627 N   0  0  0  0  0  0
    0.1451   60.9030   71.7211 C   0  0  0  0  0  0
    0.3027   62.1039   71.0182 C   0  0  0  0  0  0
    1.3932   62.2913   70.1618 C   0  0  0  0  0  0
    3.8980   62.5103   65.9824 H   0  0  0  0  0  0
    5.0400   61.6176   66.9795 H   0  0  0  0  0  0
    2.4816   62.8088   67.9313 H   0  0  0  0  0  0
    2.9204   59.2427   70.5798 H   0  0  0  0  0  0
   -0.7170   60.7611   72.4002 H   0  0  0  0  0  0
   -0.4380   62.9164   71.1493 H   0  0  0  0  0  0
    1.5043   63.2620   69.6464 H   0  0  0  0  0  0
    4.9170   67.4352   65.6976 H   0  0  0  0  0  0
  1  2  1  0  0  0
  1 15  1  0  0  0
  1 16  1  0  0  0
  1 33  1  0  0  0
  2  3  1  0  0  0
  2  7  1  0  0  0
  2 17  1  0  0  0
  3  4  1  0  0  0
  3 18  1  0  0  0
  3 19  1  0  0  0
  4  5  1  0  0  0
  4 20  1  0  0  0
  4 21  1  0  0  0
  5  6  1  0  0  0
  5  8  1  0  0  0
  5 50  1  0  0  0
  6  7  1  0  0  0
  6 22  1  0  0  0
  6 23  1  0  0  0
  7 24  1  0  0  0
  7 25  1  0  0  0
  8  9  1  0  0  0
  8 26  1  0  0  0
  8 27  1  0  0  0
  9 10  1  0  0  0
  9 14  2  0  0  0
 10 11  2  0  0  0
 10 28  1  0  0  0
 11 12  1  0  0  0
 11 29  1  0  0  0
 12 13  2  0  0  0
 12 30  1  0  0  0
 13 14  1  0  0  0
 13 31  1  0  0  0
 14 32  1  0  0  0
 33 34  1  0  0  0
 33 43  1  0  0  0
 33 44  1  0  0  0
 34 35  1  0  0  0
 34 45  1  0  0  0
 35 36  2  0  0  0
 35 37  1  0  0  0
 37 38  2  0  0  0
 37 42  1  0  0  0
 38 39  1  0  0  0
 38 46  1  0  0  0
 39 40  2  0  0  0
 40 41  1  0  0  0
 40 47  1  0  0  0
 41 42  2  0  0  0
 41 48  1  0  0  0
 42 49  1  0  0  0
M  CHG  1   5   1
M  END
>  <ACTIVITY>
7.16

>  <SET>
2

>  <Min_dist>
0.09

>  <Avg_dist>
0.41

$$$$
2-3p
  Cerius2 12110213523D 1   1.00000                          
Structure written by Cerius2 SD Exporter
 50 52  0  0  0  0  0  0  0  0999 V2000
    5.1741   63.7666   67.2298 C   0  0  0  0  0  0
    4.3855   65.0953   67.1679 C   0  0  0  0  0  0
    5.2770   66.2628   67.6398 C   0  0  0  0  0  0
    4.5857   67.6253   67.4818 C   0  0  0  0  0  0
    4.1925   67.8073   66.0805 N   0  3  0  0  0  0
    3.1996   66.8221   65.6392 C   0  0  0  0  0  0
    3.8229   65.4102   65.7568 C   0  0  0  0  0  0
    4.3302   69.1509   65.5151 C   0  0  0  0  0  0
    4.2612   69.1992   64.0021 C   0  0  0  0  0  0
    3.0583   69.6122   63.4103 C   0  0  0  0  0  0
    2.9137   69.6073   62.0214 C   0  0  0  0  0  0
    3.9685   69.1928   61.2101 C   0  0  0  0  0  0
    5.1698   68.7828   61.7855 C   0  0  0  0  0  0
    5.3166   68.7866   63.1737 C   0  0  0  0  0  0
    5.6679   63.6802   68.2153 H   0  0  0  0  0  0
    5.9893   63.7965   66.4837 H   0  0  0  0  0  0
    3.5310   65.0411   67.8689 H   0  0  0  0  0  0
    5.5824   66.1197   68.6906 H   0  0  0  0  0  0
    6.2068   66.2717   67.0398 H   0  0  0  0  0  0
    3.7145   67.7004   68.1590 H   0  0  0  0  0  0
    5.2829   68.4214   67.7923 H   0  0  0  0  0  0
    2.2727   66.8895   66.2384 H   0  0  0  0  0  0
    2.9028   66.9965   64.5928 H   0  0  0  0  0  0
    4.6504   65.3441   65.0247 H   0  0  0  0  0  0
    3.0777   64.6579   65.4492 H   0  0  0  0  0  0
    3.5737   69.8400   65.9317 H   0  0  0  0  0  0
    5.3143   69.5451   65.8234 H   0  0  0  0  0  0
    2.2062   69.9310   64.0444 H   0  0  0  0  0  0
    1.9555   69.9248   61.5679 H   0  0  0  0  0  0
    3.8512   69.1849   60.1094 H   0  0  0  0  0  0
    6.0072   68.4449   61.1453 H   0  0  0  0  0  0
    6.2681   68.4425   63.6279 H   0  0  0  0  0  0
    4.3640   62.4886   66.9831 C   0  0  0  0  0  0
    3.3310   62.2808   67.9859 N   0  0  0  0  0  0
    3.5065   61.3987   69.0541 C   0  0  0  0  0  0
    4.5000   60.6868   69.1648 O   0  0  0  0  0  0
    2.3360   61.2610   69.9910 C   0  0  0  0  0  0
    2.1816   60.0574   70.7052 C   0  0  0  0  0  0
    1.0937   59.8814   71.5627 C   0  0  0  0  0  0
    0.1451   60.9030   71.7211 N   0  0  0  0  0  0
    0.3027   62.1039   71.0182 C   0  0  0  0  0  0
    1.3932   62.2913   70.1618 C   0  0  0  0  0  0
    3.8980   62.5103   65.9824 H   0  0  0  0  0  0
    5.0400   61.6176   66.9795 H   0  0  0  0  0  0
    2.4816   62.8088   67.9313 H   0  0  0  0  0  0
    2.9204   59.2427   70.5798 H   0  0  0  0  0  0
    0.9794   58.9301   72.1176 H   0  0  0  0  0  0
   -0.4380   62.9164   71.1493 H   0  0  0  0  0  0
    1.5043   63.2620   69.6464 H   0  0  0  0  0  0
    4.9170   67.4352   65.6976 H   0  0  0  0  0  0
  1  2  1  0  0  0
  1 15  1  0  0  0
  1 16  1  0  0  0
  1 33  1  0  0  0
  2  3  1  0  0  0
  2  7  1  0  0  0
  2 17  1  0  0  0
  3  4  1  0  0  0
  3 18  1  0  0  0
  3 19  1  0  0  0
  4  5  1  0  0  0
  4 20  1  0  0  0
  4 21  1  0  0  0
  5  6  1  0  0  0
  5  8  1  0  0  0
  5 50  1  0  0  0
  6  7  1  0  0  0
  6 22  1  0  0  0
  6 23  1  0  0  0
  7 24  1  0  0  0
  7 25  1  0  0  0
  8  9  1  0  0  0
  8 26  1  0  0  0
  8 27  1  0  0  0
  9 10  1  0  0  0
  9 14  2  0  0  0
 10 11  2  0  0  0
 10 28  1  0  0  0
 11 12  1  0  0  0
 11 29  1  0  0  0
 12 13  2  0  0  0
 12 30  1  0  0  0
 13 14  1  0  0  0
 13 31  1  0  0  0
 14 32  1  0  0  0
 33 34  1  0  0  0
 33 43  1  0  0  0
 33 44  1  0  0  0
 34 35  1  0  0  0
 34 45  1  0  0  0
 35 36  2  0  0  0
 35 37  1  0  0  0
 37 38  2  0  0  0
 37 42  1  0  0  0
 38 39  1  0  0  0
 38 46  1  0  0  0
 39 40  2  0  0  0
 39 47  1  0  0  0
 40 41  1  0  0  0
 41 42  2  0  0  0
 41 48  1  0  0  0
 42 49  1  0  0  0
M  CHG  1   5   1
M  END
>  <ACTIVITY>
7.41

>  <SET>
1

>  <Min_dist>
999.9

>  <Avg_dist>
999.9

$$$$
2-3r
  Cerius2 12110213523D 1   1.00000                          
Structure written by Cerius2 SD Exporter
 57 59  0  0  0  0  0  0  0  0999 V2000
    5.1741   63.7666   67.2298 C   0  0  0  0  0  0
    4.3855   65.0953   67.1679 C   0  0  0  0  0  0
    5.2770   66.2628   67.6398 C   0  0  0  0  0  0
    4.5857   67.6253   67.4818 C   0  0  0  0  0  0
    4.1925   67.8073   66.0805 N   0  3  0  0  0  0
    3.1996   66.8221   65.6392 C   0  0  0  0  0  0
    3.8229   65.4102   65.7568 C   0  0  0  0  0  0
    4.3302   69.1509   65.5151 C   0  0  0  0  0  0
    4.2612   69.1992   64.0021 C   0  0  0  0  0  0
    3.0583   69.6122   63.4103 C   0  0  0  0  0  0
    2.9137   69.6073   62.0214 C   0  0  0  0  0  0
    3.9685   69.1928   61.2101 C   0  0  0  0  0  0
    5.1698   68.7828   61.7855 C   0  0  0  0  0  0
    5.3166   68.7866   63.1737 C   0  0  0  0  0  0
    5.6679   63.6802   68.2153 H   0  0  0  0  0  0
    5.9893   63.7965   66.4837 H   0  0  0  0  0  0
    3.5310   65.0411   67.8689 H   0  0  0  0  0  0
    5.5824   66.1197   68.6906 H   0  0  0  0  0  0
    6.2068   66.2717   67.0398 H   0  0  0  0  0  0
    3.7145   67.7004   68.1590 H   0  0  0  0  0  0
    5.2829   68.4214   67.7923 H   0  0  0  0  0  0
    2.2727   66.8895   66.2384 H   0  0  0  0  0  0
    2.9028   66.9965   64.5928 H   0  0  0  0  0  0
    4.6504   65.3441   65.0247 H   0  0  0  0  0  0
    3.0777   64.6579   65.4492 H   0  0  0  0  0  0
    3.5737   69.8400   65.9317 H   0  0  0  0  0  0
    5.3143   69.5451   65.8234 H   0  0  0  0  0  0
    2.2062   69.9310   64.0444 H   0  0  0  0  0  0
    1.9555   69.9248   61.5679 H   0  0  0  0  0  0
    3.8512   69.1849   60.1094 H   0  0  0  0  0  0
    6.0072   68.4449   61.1453 H   0  0  0  0  0  0
    6.2681   68.4425   63.6279 H   0  0  0  0  0  0
    4.3640   62.4886   66.9831 C   0  0  0  0  0  0
    3.3310   62.2808   67.9859 N   0  0  0  0  0  0
    3.5065   61.3987   69.0541 C   0  0  0  0  0  0
    4.5000   60.6868   69.1648 O   0  0  0  0  0  0
    2.3360   61.2610   69.9910 C   0  0  0  0  0  0
    2.7911   61.1903   71.4712 C   0  0  0  0  0  0
    1.5871   60.9952   72.4164 C   0  0  0  0  0  0
    0.7725   59.7437   72.0286 C   0  0  0  0  0  0
    0.3200   59.7980   70.5549 C   0  0  0  0  0  0
    1.5197   60.0007   69.6057 C   0  0  0  0  0  0
    3.8980   62.5103   65.9824 H   0  0  0  0  0  0
    5.0400   61.6176   66.9795 H   0  0  0  0  0  0
    2.4816   62.8088   67.9313 H   0  0  0  0  0  0
    3.4871   60.3414   71.5991 H   0  0  0  0  0  0
    1.9286   60.9182   73.4640 H   0  0  0  0  0  0
   -0.1003   59.6281   72.6959 H   0  0  0  0  0  0
   -0.3928   60.6321   70.4242 H   0  0  0  0  0  0
    1.1777   60.0711   68.5588 H   0  0  0  0  0  0
    4.9170   67.4352   65.6976 H   0  0  0  0  0  0
    1.6715   62.1404   69.8980 H   0  0  0  0  0  0
    3.3546   62.1010   71.7380 H   0  0  0  0  0  0
    0.9341   61.8851   72.3659 H   0  0  0  0  0  0
    1.3974   58.8444   72.1818 H   0  0  0  0  0  0
   -0.2282   58.8762   70.2901 H   0  0  0  0  0  0
    2.1805   59.1164   69.6620 H   0  0  0  0  0  0
  1  2  1  0  0  0
  1 15  1  0  0  0
  1 16  1  0  0  0
  1 33  1  0  0  0
  2  3  1  0  0  0
  2  7  1  0  0  0
  2 17  1  0  0  0
  3  4  1  0  0  0
  3 18  1  0  0  0
  3 19  1  0  0  0
  4  5  1  0  0  0
  4 20  1  0  0  0
  4 21  1  0  0  0
  5  6  1  0  0  0
  5  8  1  0  0  0
  5 51  1  0  0  0
  6  7  1  0  0  0
  6 22  1  0  0  0
  6 23  1  0  0  0
  7 24  1  0  0  0
  7 25  1  0  0  0
  8  9  1  0  0  0
  8 26  1  0  0  0
  8 27  1  0  0  0
  9 10  1  0  0  0
  9 14  2  0  0  0
 10 11  2  0  0  0
 10 28  1  0  0  0
 11 12  1  0  0  0
 11 29  1  0  0  0
 12 13  2  0  0  0
 12 30  1  0  0  0
 13 14  1  0  0  0
 13 31  1  0  0  0
 14 32  1  0  0  0
 33 34  1  0  0  0
 33 43  1  0  0  0
 33 44  1  0  0  0
 34 35  1  0  0  0
 34 45  1  0  0  0
 35 36  2  0  0  0
 35 37  1  0  0  0
 37 38  1  0  0  0
 37 42  1  0  0  0
 37 52  1  0  0  0
 38 39  1  0  0  0
 38 46  1  0  0  0
 38 53  1  0  0  0
 39 40  1  0  0  0
 39 47  1  0  0  0
 39 54  1  0  0  0
 40 41  1  0  0  0
 40 48  1  0  0  0
 40 55  1  0  0  0
 41 42  1  0  0  0
 41 49  1  0  0  0
 41 56  1  0  0  0
 42 50  1  0  0  0
 42 57  1  0  0  0
M  CHG  1   5   1
M  END
>  <ACTIVITY>
5.8

>  <SET>
1

>  <Min_dist>
999.9

>  <Avg_dist>
999.9

$$$$
2-9
  Cerius2 12110213523D 1   1.00000                          
Structure written by Cerius2 SD Exporter
 52 54  0  0  0  0  0  0  0  0999 V2000
    5.1741   63.7666   67.2298 C   0  0  0  0  0  0
    4.3855   65.0953   67.1679 C   0  0  0  0  0  0
    5.2770   66.2628   67.6398 C   0  0  0  0  0  0
    4.5857   67.6253   67.4818 C   0  0  0  0  0  0
    4.1925   67.8073   66.0805 N   0  3  0  0  0  0
    3.1996   66.8221   65.6392 C   0  0  0  0  0  0
    3.8229   65.4102   65.7568 C   0  0  0  0  0  0
    4.3302   69.1509   65.5151 C   0  0  0  0  0  0
    4.2612   69.1992   64.0021 C   0  0  0  0  0  0
    3.0583   69.6122   63.4103 C   0  0  0  0  0  0
    2.9137   69.6073   62.0214 C   0  0  0  0  0  0
    3.9685   69.1928   61.2101 C   0  0  0  0  0  0
    5.1698   68.7828   61.7855 C   0  0  0  0  0  0
    5.3166   68.7866   63.1737 C   0  0  0  0  0  0
    5.6679   63.6802   68.2153 H   0  0  0  0  0  0
    5.9893   63.7965   66.4837 H   0  0  0  0  0  0
    3.5310   65.0411   67.8689 H   0  0  0  0  0  0
    5.5824   66.1197   68.6906 H   0  0  0  0  0  0
    6.2068   66.2717   67.0398 H   0  0  0  0  0  0
    3.7145   67.7004   68.1590 H   0  0  0  0  0  0
    5.2829   68.4214   67.7923 H   0  0  0  0  0  0
    2.2727   66.8895   66.2384 H   0  0  0  0  0  0
    2.9028   66.9965   64.5928 H   0  0  0  0  0  0
    4.6504   65.3441   65.0247 H   0  0  0  0  0  0
    3.0777   64.6579   65.4492 H   0  0  0  0  0  0
    3.5737   69.8400   65.9317 H   0  0  0  0  0  0
    5.3143   69.5451   65.8234 H   0  0  0  0  0  0
    2.2062   69.9310   64.0444 H   0  0  0  0  0  0
    1.9555   69.9248   61.5679 H   0  0  0  0  0  0
    3.8512   69.1849   60.1094 H   0  0  0  0  0  0
    6.0072   68.4449   61.1453 H   0  0  0  0  0  0
    6.2681   68.4425   63.6279 H   0  0  0  0  0  0
    4.3640   62.4886   66.9831 C   0  0  0  0  0  0
    3.1628   62.2395   67.8598 C   0  0  0  0  0  0
    3.5065   61.3987   69.0541 C   0  0  0  0  0  0
    4.5000   60.6868   69.1648 O   0  0  0  0  0  0
    2.3360   61.2610   69.9910 C   0  0  0  0  0  0
    2.1816   60.0574   70.7052 C   0  0  0  0  0  0
    1.0937   59.8814   71.5627 C   0  0  0  0  0  0
    0.1451   60.9030   71.7211 C   0  0  0  0  0  0
    0.3027   62.1039   71.0182 C   0  0  0  0  0  0
    1.3932   62.2913   70.1618 C   0  0  0  0  0  0
    3.8980   62.5103   65.9824 H   0  0  0  0  0  0
    5.0400   61.6176   66.9795 H   0  0  0  0  0  0
    2.5809   63.1607   67.9852 H   0  0  0  0  0  0
    2.9204   59.2427   70.5798 H   0  0  0  0  0  0
    0.9794   58.9301   72.1176 H   0  0  0  0  0  0
   -0.7170   60.7611   72.4002 H   0  0  0  0  0  0
   -0.4380   62.9164   71.1493 H   0  0  0  0  0  0
    1.5043   63.2620   69.6464 H   0  0  0  0  0  0
    4.9170   67.4352   65.6976 H   0  0  0  0  0  0
    2.4784   61.5824   67.2835 H   0  0  0  0  0  0
  1  2  1  0  0  0
  1 15  1  0  0  0
  1 16  1  0  0  0
  1 33  1  0  0  0
  2  3  1  0  0  0
  2  7  1  0  0  0
  2 17  1  0  0  0
  3  4  1  0  0  0
  3 18  1  0  0  0
  3 19  1  0  0  0
  4  5  1  0  0  0
  4 20  1  0  0  0
  4 21  1  0  0  0
  5  6  1  0  0  0
  5  8  1  0  0  0
  5 51  1  0  0  0
  6  7  1  0  0  0
  6 22  1  0  0  0
  6 23  1  0  0  0
  7 24  1  0  0  0
  7 25  1  0  0  0
  8  9  1  0  0  0
  8 26  1  0  0  0
  8 27  1  0  0  0
  9 10  1  0  0  0
  9 14  2  0  0  0
 10 11  2  0  0  0
 10 28  1  0  0  0
 11 12  1  0  0  0
 11 29  1  0  0  0
 12 13  2  0  0  0
 12 30  1  0  0  0
 13 14  1  0  0  0
 13 31  1  0  0  0
 14 32  1  0  0  0
 33 34  1  0  0  0
 33 43  1  0  0  0
 33 44  1  0  0  0
 34 35  1  0  0  0
 34 45  1  0  0  0
 34 52  1  0  0  0
 35 36  2  0  0  0
 35 37  1  0  0  0
 37 38  2  0  0  0
 37 42  1  0  0  0
 38 39  1  0  0  0
 38 46  1  0  0  0
 39 40  2  0  0  0
 39 47  1  0  0  0
 40 41  1  0  0  0
 40 48  1  0  0  0
 41 42  2  0  0  0
 41 49  1  0  0  0
 42 50  1  0  0  0
M  CHG  1   5   1
M  END
>  <ACTIVITY>
6.28

>  <SET>
2

>  <Min_dist>
0.29

>  <Avg_dist>
0.48

$$$$
3-12a
  Cerius2 12110213523D 1   1.00000                          
Structure written by Cerius2 SD Exporter
 56 59  0  0  0  0  0  0  0  0999 V2000
    1.1840   59.8832   71.5292 C   0  0  0  0  0  0
    0.1890   60.8918   71.6610 C   0  0  0  0  0  0
    0.3161   62.1072   70.9710 C   0  0  0  0  0  0
    1.4220   62.3006   70.1561 C   0  0  0  0  0  0
    2.3811   61.3057   70.0405 C   0  0  0  0  0  0
    2.2956   60.0957   70.7075 C   0  0  0  0  0  0
    3.4174   61.7703   69.1240 C   0  0  0  0  0  0
    3.1391   63.2232   68.8414 C   0  0  0  0  0  0
    1.7403   63.5260   69.3051 C   0  0  0  0  0  0
    4.0625   64.0956   68.3873 C   0  0  0  0  0  0
    3.8096   65.5196   68.0230 C   0  0  0  0  0  0
    5.0113   66.4609   68.1933 C   0  0  0  0  0  0
    4.7431   67.8356   67.5802 C   0  0  0  0  0  0
    4.4019   67.7239   66.1508 N   0  3  0  0  0  0
    3.1944   66.8955   65.9805 C   0  0  0  0  0  0
    3.3999   65.4862   66.5449 C   0  0  0  0  0  0
    4.2023   69.0768   65.5863 C   0  0  0  0  0  0
    4.1336   69.0906   64.0719 C   0  0  0  0  0  0
    2.9764   69.5327   63.4138 C   0  0  0  0  0  0
    2.9196   69.5558   62.0188 C   0  0  0  0  0  0
    4.0176   69.1404   61.2674 C   0  0  0  0  0  0
    5.1743   68.7016   61.9090 C   0  0  0  0  0  0
    5.2333   68.6774   63.3036 C   0  0  0  0  0  0
    4.4304   61.1373   68.8649 O   0  0  0  0  0  0
    0.9635   58.7327   72.2501 O   0  0  0  0  0  0
    1.9433   57.7011   72.1503 C   0  0  0  0  0  0
   -0.8609   60.5832   72.4944 O   0  0  0  0  0  0
   -1.8878   61.5617   72.6429 C   0  0  0  0  0  0
   -0.4165   62.9040   71.0555 H   0  0  0  0  0  0
    3.0809   59.3614   70.5701 H   0  0  0  0  0  0
    1.0354   63.6123   68.4625 H   0  0  0  0  0  0
    1.6904   64.4563   69.8878 H   0  0  0  0  0  0
    5.0608   63.6995   68.1226 H   0  0  0  0  0  0
    2.9750   65.9362   68.6014 H   0  0  0  0  0  0
    5.2420   66.5807   69.2588 H   0  0  0  0  0  0
    5.9013   66.0217   67.7236 H   0  0  0  0  0  0
    3.9420   68.3396   68.1367 H   0  0  0  0  0  0
    5.6514   68.4393   67.6977 H   0  0  0  0  0  0
    2.3282   67.3624   66.4680 H   0  0  0  0  0  0
    2.9506   66.7895   64.9173 H   0  0  0  0  0  0
    4.1668   64.9666   65.9558 H   0  0  0  0  0  0
    2.4674   64.9243   66.4214 H   0  0  0  0  0  0
    3.3086   69.5486   66.0164 H   0  0  0  0  0  0
    5.0485   69.7219   65.8599 H   0  0  0  0  0  0
    2.1088   69.8618   63.9847 H   0  0  0  0  0  0
    2.0162   69.8994   61.5174 H   0  0  0  0  0  0
    3.9718   69.1590   60.1799 H   0  0  0  0  0  0
    6.0325   68.3771   61.3230 H   0  0  0  0  0  0
    6.1420   68.3311   63.7950 H   0  0  0  0  0  0
    1.6166   56.8703   72.7829 H   0  0  0  0  0  0
    2.0191   57.3287   71.1235 H   0  0  0  0  0  0
    2.9141   58.0430   72.5236 H   0  0  0  0  0  0
   -2.6397   61.1530   73.3248 H   0  0  0  0  0  0
   -1.4944   62.4795   73.0919 H   0  0  0  0  0  0
   -2.3803   61.7638   71.6862 H   0  0  0  0  0  0
    5.0864   67.3290   65.7202 H   0  0  0  0  0  0
  1  2  2  0  0  0
  1  6  1  0  0  0
  1 25  1  0  0  0
  2  3  1  0  0  0
  2 27  1  0  0  0
  3  4  2  0  0  0
  3 29  1  0  0  0
  4  5  1  0  0  0
  4  9  1  0  0  0
  5  6  2  0  0  0
  5  7  1  0  0  0
  6 30  1  0  0  0
  7  8  1  0  0  0
  7 24  2  0  0  0
  8  9  1  0  0  0
  8 10  2  0  0  0
  9 31  1  0  0  0
  9 32  1  0  0  0
 10 11  1  0  0  0
 10 33  1  0  0  0
 11 12  1  0  0  0
 11 16  1  0  0  0
 11 34  1  0  0  0
 12 13  1  0  0  0
 12 35  1  0  0  0
 12 36  1  0  0  0
 13 14  1  0  0  0
 13 37  1  0  0  0
 13 38  1  0  0  0
 14 15  1  0  0  0
 14 17  1  0  0  0
 14 56  1  0  0  0
 15 16  1  0  0  0
 15 39  1  0  0  0
 15 40  1  0  0  0
 16 41  1  0  0  0
 16 42  1  0  0  0
 17 18  1  0  0  0
 17 43  1  0  0  0
 17 44  1  0  0  0
 18 19  1  0  0  0
 18 23  2  0  0  0
 19 20  2  0  0  0
 19 45  1  0  0  0
 20 21  1  0  0  0
 20 46  1  0  0  0
 21 22  2  0  0  0
 21 47  1  0  0  0
 22 23  1  0  0  0
 22 48  1  0  0  0
 23 49  1  0  0  0
 25 26  1  0  0  0
 26 50  1  0  0  0
 26 51  1  0  0  0
 26 52  1  0  0  0
 27 28  1  0  0  0
 28 53  1  0  0  0
 28 54  1  0  0  0
 28 55  1  0  0  0
M  CHG  1  14   1
M  END
>  <ACTIVITY>
7.89

>  <SET>
2

>  <Min_dist>
0.13

>  <Avg_dist>
0.51

$$$$
3-13a
  Cerius2 12110213523D 1   1.00000                          
Structure written by Cerius2 SD Exporter
 56 59  0  0  0  0  0  0  0  0999 V2000
    1.1840   59.8832   71.5292 C   0  0  0  0  0  0
    0.1890   60.8918   71.6610 C   0  0  0  0  0  0
    0.3161   62.1072   70.9710 C   0  0  0  0  0  0
    1.4220   62.3006   70.1561 C   0  0  0  0  0  0
    2.3811   61.3057   70.0405 C   0  0  0  0  0  0
    2.2956   60.0957   70.7075 C   0  0  0  0  0  0
    3.4174   61.7703   69.1240 C   0  0  0  0  0  0
    3.0031   63.1117   68.5362 C   0  0  0  0  0  0
    1.7711   63.5283   69.3728 C   0  0  0  0  0  0
    4.1529   64.1227   68.5769 C   0  0  0  0  0  0
    3.8096   65.5196   68.0230 C   0  0  0  0  0  0
    5.0113   66.4609   68.1933 C   0  0  0  0  0  0
    4.6825   67.8780   67.6759 C   0  0  0  0  0  0
    4.1459   67.9018   66.3038 N   0  0  0  0  0  0
    3.1383   66.8945   65.9575 C   0  0  0  0  0  0
    3.3999   65.4862   66.5449 C   0  0  0  0  0  0
    4.4233   69.0458   65.5491 C   0  0  0  0  0  0
    4.1336   69.0906   64.0719 C   0  0  0  0  0  0
    2.9764   69.5327   63.4138 C   0  0  0  0  0  0
    2.9196   69.5558   62.0188 C   0  0  0  0  0  0
    4.0176   69.1404   61.2674 C   0  0  0  0  0  0
    5.1743   68.7016   61.9090 C   0  0  0  0  0  0
    5.2333   68.6774   63.3036 C   0  0  0  0  0  0
    4.4304   61.1373   68.8649 O   0  0  0  0  0  0
    0.9635   58.7327   72.2501 O   0  0  0  0  0  0
    1.9433   57.7011   72.1503 C   0  0  0  0  0  0
   -0.8609   60.5832   72.4944 O   0  0  0  0  0  0
   -1.8878   61.5617   72.6429 C   0  0  0  0  0  0
   -0.4165   62.9040   71.0555 H   0  0  0  0  0  0
    3.0809   59.3614   70.5701 H   0  0  0  0  0  0
    2.6952   62.9134   67.5022 H   0  0  0  0  0  0
    0.9459   63.8317   68.7204 H   0  0  0  0  0  0
    2.0008   64.3456   70.0649 H   0  0  0  0  0  0
    4.5017   64.2243   69.6137 H   0  0  0  0  0  0
    5.0050   63.7123   68.0184 H   0  0  0  0  0  0
    2.9750   65.9362   68.6014 H   0  0  0  0  0  0
    5.2420   66.5807   69.2588 H   0  0  0  0  0  0
    5.9013   66.0217   67.7236 H   0  0  0  0  0  0
    3.9563   68.3428   68.3705 H   0  0  0  0  0  0
    5.5955   68.4909   67.7235 H   0  0  0  0  0  0
    2.1473   67.2345   66.3162 H   0  0  0  0  0  0
    3.0585   66.8318   64.8614 H   0  0  0  0  0  0
    4.1668   64.9666   65.9558 H   0  0  0  0  0  0
    2.4674   64.9243   66.4214 H   0  0  0  0  0  0
    5.0245   70.0144   66.0016 O   0  0  0  0  0  0
    2.1088   69.8618   63.9847 H   0  0  0  0  0  0
    2.0162   69.8994   61.5174 H   0  0  0  0  0  0
    3.9718   69.1590   60.1799 H   0  0  0  0  0  0
    6.0325   68.3771   61.3230 H   0  0  0  0  0  0
    1.6166   56.8703   72.7829 H   0  0  0  0  0  0
    2.0191   57.3287   71.1235 H   0  0  0  0  0  0
    2.9141   58.0430   72.5236 H   0  0  0  0  0  0
   -2.6397   61.1530   73.3248 H   0  0  0  0  0  0
   -1.4944   62.4795   73.0919 H   0  0  0  0  0  0
   -2.3803   61.7638   71.6862 H   0  0  0  0  0  0
    6.0265   68.3780   63.7321 H   0  0  0  0  0  0
  1  2  2  0  0  0
  1  6  1  0  0  0
  1 25  1  0  0  0
  2  3  1  0  0  0
  2 27  1  0  0  0
  3  4  2  0  0  0
  3 29  1  0  0  0
  4  5  1  0  0  0
  4  9  1  0  0  0
  5  6  2  0  0  0
  5  7  1  0  0  0
  6 30  1  0  0  0
  7  8  1  0  0  0
  7 24  2  0  0  0
  8  9  1  0  0  0
  8 10  1  0  0  0
  8 31  1  0  0  0
  9 32  1  0  0  0
  9 33  1  0  0  0
 10 11  1  0  0  0
 10 34  1  0  0  0
 10 35  1  0  0  0
 11 12  1  0  0  0
 11 16  1  0  0  0
 11 36  1  0  0  0
 12 13  1  0  0  0
 12 37  1  0  0  0
 12 38  1  0  0  0
 13 14  1  0  0  0
 13 39  1  0  0  0
 13 40  1  0  0  0
 14 15  1  0  0  0
 14 17  1  0  0  0
 15 16  1  0  0  0
 15 41  1  0  0  0
 15 42  1  0  0  0
 16 43  1  0  0  0
 16 44  1  0  0  0
 17 18  1  0  0  0
 17 45  2  0  0  0
 18 19  1  0  0  0
 18 23  2  0  0  0
 19 20  2  0  0  0
 19 46  1  0  0  0
 20 21  1  0  0  0
 20 47  1  0  0  0
 21 22  2  0  0  0
 21 48  1  0  0  0
 22 23  1  0  0  0
 22 49  1  0  0  0
 23 56  1  0  0  0
 25 26  1  0  0  0
 26 50  1  0  0  0
 26 51  1  0  0  0
 26 52  1  0  0  0
 27 28  1  0  0  0
 28 53  1  0  0  0
 28 54  1  0  0  0
 28 55  1  0  0  0
M  END
>  <ACTIVITY>
4.3

>  <SET>
2

>  <Min_dist>
0.12

>  <Avg_dist>
0.48

$$$$
3-13b
  Cerius2 12110213523D 1   1.00000                          
Structure written by Cerius2 SD Exporter
 45 47  0  0  0  0  0  0  0  0999 V2000
    1.1840   59.8832   71.5292 C   0  0  0  0  0  0
    0.1890   60.8918   71.6610 C   0  0  0  0  0  0
    0.3161   62.1072   70.9710 C   0  0  0  0  0  0
    1.4220   62.3006   70.1561 C   0  0  0  0  0  0
    2.3811   61.3057   70.0405 C   0  0  0  0  0  0
    2.2956   60.0957   70.7075 C   0  0  0  0  0  0
    3.4174   61.7703   69.1240 C   0  0  0  0  0  0
    3.0031   63.1117   68.5362 C   0  0  0  0  0  0
    1.7711   63.5283   69.3728 C   0  0  0  0  0  0
    4.1529   64.1227   68.5769 C   0  0  0  0  0  0
    3.8096   65.5196   68.0230 C   0  0  0  0  0  0
    5.0113   66.4609   68.1933 C   0  0  0  0  0  0
    4.7431   67.8356   67.5802 C   0  0  0  0  0  0
    4.4019   67.7239   66.1508 N   0  3  0  0  0  0
    3.1944   66.8955   65.9805 C   0  0  0  0  0  0
    3.3999   65.4862   66.5449 C   0  0  0  0  0  0
    4.4304   61.1373   68.8649 O   0  0  0  0  0  0
    0.9635   58.7327   72.2501 O   0  0  0  0  0  0
    1.9433   57.7011   72.1503 C   0  0  0  0  0  0
   -0.8609   60.5832   72.4944 O   0  0  0  0  0  0
   -1.8878   61.5617   72.6429 C   0  0  0  0  0  0
   -0.4165   62.9040   71.0555 H   0  0  0  0  0  0
    3.0809   59.3614   70.5701 H   0  0  0  0  0  0
    2.6952   62.9134   67.5022 H   0  0  0  0  0  0
    0.9459   63.8317   68.7204 H   0  0  0  0  0  0
    2.0008   64.3456   70.0649 H   0  0  0  0  0  0
    4.5017   64.2243   69.6137 H   0  0  0  0  0  0
    5.0050   63.7123   68.0184 H   0  0  0  0  0  0
    2.9750   65.9362   68.6014 H   0  0  0  0  0  0
    5.2420   66.5807   69.2588 H   0  0  0  0  0  0
    5.9013   66.0217   67.7236 H   0  0  0  0  0  0
    3.9420   68.3396   68.1367 H   0  0  0  0  0  0
    5.6514   68.4393   67.6977 H   0  0  0  0  0  0
    2.3282   67.3624   66.4680 H   0  0  0  0  0  0
    2.9506   66.7895   64.9173 H   0  0  0  0  0  0
    4.1668   64.9666   65.9558 H   0  0  0  0  0  0
    2.4674   64.9243   66.4214 H   0  0  0  0  0  0
    1.6166   56.8703   72.7829 H   0  0  0  0  0  0
    2.0191   57.3287   71.1235 H   0  0  0  0  0  0
    2.9141   58.0430   72.5236 H   0  0  0  0  0  0
   -2.6397   61.1530   73.3248 H   0  0  0  0  0  0
   -1.4944   62.4795   73.0919 H   0  0  0  0  0  0
   -2.3803   61.7638   71.6862 H   0  0  0  0  0  0
    5.0864   67.3290   65.7202 H   0  0  0  0  0  0
    4.2591   68.5435   65.8075 H   0  0  0  0  0  0
  1  2  2  0  0  0
  1  6  1  0  0  0
  1 18  1  0  0  0
  2  3  1  0  0  0
  2 20  1  0  0  0
  3  4  2  0  0  0
  3 22  1  0  0  0
  4  5  1  0  0  0
  4  9  1  0  0  0
  5  6  2  0  0  0
  5  7  1  0  0  0
  6 23  1  0  0  0
  7  8  1  0  0  0
  7 17  2  0  0  0
  8  9  1  0  0  0
  8 10  1  0  0  0
  8 24  1  0  0  0
  9 25  1  0  0  0
  9 26  1  0  0  0
 10 11  1  0  0  0
 10 27  1  0  0  0
 10 28  1  0  0  0
 11 12  1  0  0  0
 11 16  1  0  0  0
 11 29  1  0  0  0
 12 13  1  0  0  0
 12 30  1  0  0  0
 12 31  1  0  0  0
 13 14  1  0  0  0
 13 32  1  0  0  0
 13 33  1  0  0  0
 14 15  1  0  0  0
 14 44  1  0  0  0
 14 45  1  0  0  0
 15 16  1  0  0  0
 15 34  1  0  0  0
 15 35  1  0  0  0
 16 36  1  0  0  0
 16 37  1  0  0  0
 18 19  1  0  0  0
 19 38  1  0  0  0
 19 39  1  0  0  0
 19 40  1  0  0  0
 20 21  1  0  0  0
 21 41  1  0  0  0
 21 42  1  0  0  0
 21 43  1  0  0  0
M  CHG  1  14   1
M  END
>  <ACTIVITY>
5.27

>  <SET>
2

>  <Min_dist>
0.16

>  <Avg_dist>
0.58

$$$$
3-13c
  Cerius2 12110213523D 1   1.00000                          
Structure written by Cerius2 SD Exporter
 53 56  0  0  0  0  0  0  0  0999 V2000
    2.1239   59.4264   71.8079 C   0  0  0  0  0  0
    0.7880   59.8240   71.9394 C   0  0  0  0  0  0
    0.2909   60.8551   71.1417 C   0  0  0  0  0  0
    1.1059   61.5091   70.2099 C   0  0  0  0  0  0
    2.4437   61.1179   70.0847 C   0  0  0  0  0  0
    2.9468   60.0688   70.8855 C   0  0  0  0  0  0
    3.4174   61.7703   69.1240 C   0  0  0  0  0  0
    2.9965   63.0942   68.5065 C   0  0  0  0  0  0
    4.1529   64.1227   68.5769 C   0  0  0  0  0  0
    3.8096   65.5196   68.0230 C   0  0  0  0  0  0
    5.0113   66.4609   68.1933 C   0  0  0  0  0  0
    4.7431   67.8356   67.5802 C   0  0  0  0  0  0
    4.4019   67.7239   66.1508 N   0  3  0  0  0  0
    3.1944   66.8955   65.9805 C   0  0  0  0  0  0
    3.3999   65.4862   66.5449 C   0  0  0  0  0  0
    4.2023   69.0768   65.5863 C   0  0  0  0  0  0
    4.1336   69.0906   64.0719 C   0  0  0  0  0  0
    2.9764   69.5327   63.4138 C   0  0  0  0  0  0
    2.9196   69.5558   62.0188 C   0  0  0  0  0  0
    4.0176   69.1404   61.2674 C   0  0  0  0  0  0
    5.1743   68.7016   61.9090 C   0  0  0  0  0  0
    5.2333   68.6774   63.3036 C   0  0  0  0  0  0
    4.4304   61.1373   68.8649 O   0  0  0  0  0  0
   -0.7712   61.1584   71.2463 H   0  0  0  0  0  0
    4.0020   59.7471   70.8009 H   0  0  0  0  0  0
    2.8377   62.8114   67.4501 H   0  0  0  0  0  0
    4.5017   64.2243   69.6137 H   0  0  0  0  0  0
    5.0050   63.7123   68.0184 H   0  0  0  0  0  0
    2.9750   65.9362   68.6014 H   0  0  0  0  0  0
    5.2420   66.5807   69.2588 H   0  0  0  0  0  0
    5.9013   66.0217   67.7236 H   0  0  0  0  0  0
    3.9420   68.3396   68.1367 H   0  0  0  0  0  0
    5.6514   68.4393   67.6977 H   0  0  0  0  0  0
    2.3282   67.3624   66.4680 H   0  0  0  0  0  0
    2.9506   66.7895   64.9173 H   0  0  0  0  0  0
    4.1668   64.9666   65.9558 H   0  0  0  0  0  0
    2.4674   64.9243   66.4214 H   0  0  0  0  0  0
    3.3086   69.5486   66.0164 H   0  0  0  0  0  0
    5.0485   69.7219   65.8599 H   0  0  0  0  0  0
    2.1088   69.8618   63.9847 H   0  0  0  0  0  0
    2.0162   69.8994   61.5174 H   0  0  0  0  0  0
    3.9718   69.1590   60.1799 H   0  0  0  0  0  0
    6.0325   68.3771   61.3230 H   0  0  0  0  0  0
    6.1420   68.3311   63.7950 H   0  0  0  0  0  0
    1.6774   63.6674   69.0849 C   0  0  0  0  0  0
    0.5749   62.6185   69.3119 C   0  0  0  0  0  0
    1.8940   64.1484   70.0576 H   0  0  0  0  0  0
    1.2955   64.4619   68.4232 H   0  0  0  0  0  0
    0.2498   62.1873   68.3484 H   0  0  0  0  0  0
   -0.3120   63.0843   69.7710 H   0  0  0  0  0  0
    2.5255   58.6063   72.4340 H   0  0  0  0  0  0
    0.1263   59.3192   72.6695 H   0  0  0  0  0  0
    5.0864   67.3290   65.7202 H   0  0  0  0  0  0
  1  2  2  0  0  0
  1  6  1  0  0  0
  1 51  1  0  0  0
  2  3  1  0  0  0
  2 52  1  0  0  0
  3  4  2  0  0  0
  3 24  1  0  0  0
  4  5  1  0  0  0
  4 46  1  0  0  0
  5  6  2  0  0  0
  5  7  1  0  0  0
  6 25  1  0  0  0
  7  8  1  0  0  0
  7 23  2  0  0  0
  8  9  1  0  0  0
  8 26  1  0  0  0
  8 45  1  0  0  0
  9 10  1  0  0  0
  9 27  1  0  0  0
  9 28  1  0  0  0
 10 11  1  0  0  0
 10 15  1  0  0  0
 10 29  1  0  0  0
 11 12  1  0  0  0
 11 30  1  0  0  0
 11 31  1  0  0  0
 12 13  1  0  0  0
 12 32  1  0  0  0
 12 33  1  0  0  0
 13 14  1  0  0  0
 13 16  1  0  0  0
 13 53  1  0  0  0
 14 15  1  0  0  0
 14 34  1  0  0  0
 14 35  1  0  0  0
 15 36  1  0  0  0
 15 37  1  0  0  0
 16 17  1  0  0  0
 16 38  1  0  0  0
 16 39  1  0  0  0
 17 18  1  0  0  0
 17 22  2  0  0  0
 18 19  2  0  0  0
 18 40  1  0  0  0
 19 20  1  0  0  0
 19 41  1  0  0  0
 20 21  2  0  0  0
 20 42  1  0  0  0
 21 22  1  0  0  0
 21 43  1  0  0  0
 22 44  1  0  0  0
 45 46  1  0  0  0
 45 47  1  0  0  0
 45 48  1  0  0  0
 46 49  1  0  0  0
 46 50  1  0  0  0
M  CHG  1  13   1
M  END
>  <ACTIVITY>
5.68

>  <SET>
1

>  <Min_dist>
999.9

>  <Avg_dist>
999.9

$$$$
3-13d
  Cerius2 12110213523D 1   1.00000                          
Structure written by Cerius2 SD Exporter
 56 59  0  0  0  0  0  0  0  0999 V2000
    2.5898   60.0698   72.3856 C   0  0  0  0  0  0
    1.1989   59.9258   72.3292 C   0  0  0  0  0  0
    0.5022   60.3461   71.1947 C   0  0  0  0  0  0
    1.1635   60.9314   70.1076 C   0  0  0  0  0  0
    2.5524   61.1059   70.1819 C   0  0  0  0  0  0
    3.2600   60.6554   71.3132 C   0  0  0  0  0  0
    3.4174   61.7703   69.1240 C   0  0  0  0  0  0
    2.9901   63.0742   68.4606 C   0  0  0  0  0  0
    4.1529   64.1227   68.5769 C   0  0  0  0  0  0
    3.8096   65.5196   68.0230 C   0  0  0  0  0  0
    5.0113   66.4609   68.1933 C   0  0  0  0  0  0
    4.7431   67.8356   67.5802 C   0  0  0  0  0  0
    4.4019   67.7239   66.1508 N   0  3  0  0  0  0
    3.1944   66.8955   65.9805 C   0  0  0  0  0  0
    3.3999   65.4862   66.5449 C   0  0  0  0  0  0
    4.2023   69.0768   65.5863 C   0  0  0  0  0  0
    4.1336   69.0906   64.0719 C   0  0  0  0  0  0
    2.9764   69.5327   63.4138 C   0  0  0  0  0  0
    2.9196   69.5558   62.0188 C   0  0  0  0  0  0
    4.0176   69.1404   61.2674 C   0  0  0  0  0  0
    5.1743   68.7016   61.9090 C   0  0  0  0  0  0
    5.2333   68.6774   63.3036 C   0  0  0  0  0  0
    4.4304   61.1373   68.8649 O   0  0  0  0  0  0
   -0.5977   60.2058   71.1555 H   0  0  0  0  0  0
    4.3582   60.7828   71.3685 H   0  0  0  0  0  0
    2.9228   62.7752   67.3989 H   0  0  0  0  0  0
    4.5017   64.2243   69.6137 H   0  0  0  0  0  0
    5.0050   63.7123   68.0184 H   0  0  0  0  0  0
    2.9750   65.9362   68.6014 H   0  0  0  0  0  0
    5.2420   66.5807   69.2588 H   0  0  0  0  0  0
    5.9013   66.0217   67.7236 H   0  0  0  0  0  0
    3.9420   68.3396   68.1367 H   0  0  0  0  0  0
    5.6514   68.4393   67.6977 H   0  0  0  0  0  0
    2.3282   67.3624   66.4680 H   0  0  0  0  0  0
    2.9506   66.7895   64.9173 H   0  0  0  0  0  0
    4.1668   64.9666   65.9558 H   0  0  0  0  0  0
    2.4674   64.9243   66.4214 H   0  0  0  0  0  0
    3.3086   69.5486   66.0164 H   0  0  0  0  0  0
    5.0485   69.7219   65.8599 H   0  0  0  0  0  0
    2.1088   69.8618   63.9847 H   0  0  0  0  0  0
    2.0162   69.8994   61.5174 H   0  0  0  0  0  0
    3.9718   69.1590   60.1799 H   0  0  0  0  0  0
    6.0325   68.3771   61.3230 H   0  0  0  0  0  0
    6.1420   68.3311   63.7950 H   0  0  0  0  0  0
    0.4253   61.3185   68.8379 C   0  0  0  0  0  0
    0.9554   60.8689   67.9794 H   0  0  0  0  0  0
   -0.5864   60.8816   68.8378 H   0  0  0  0  0  0
    3.1521   59.7253   73.2748 H   0  0  0  0  0  0
    0.6518   59.4647   73.1740 H   0  0  0  0  0  0
    0.3327   62.8409   68.6348 C   0  0  0  0  0  0
    1.6190   63.6481   68.9270 C   0  0  0  0  0  0
    0.0077   63.0338   67.5969 H   0  0  0  0  0  0
   -0.4660   63.2479   69.2824 H   0  0  0  0  0  0
    1.6806   63.8365   70.0147 H   0  0  0  0  0  0
    1.4471   64.6351   68.4710 H   0  0  0  0  0  0
    5.0864   67.3290   65.7202 H   0  0  0  0  0  0
  1  2  2  0  0  0
  1  6  1  0  0  0
  1 48  1  0  0  0
  2  3  1  0  0  0
  2 49  1  0  0  0
  3  4  2  0  0  0
  3 24  1  0  0  0
  4  5  1  0  0  0
  4 45  1  0  0  0
  5  6  2  0  0  0
  5  7  1  0  0  0
  6 25  1  0  0  0
  7  8  1  0  0  0
  7 23  2  0  0  0
  8  9  1  0  0  0
  8 26  1  0  0  0
  8 51  1  0  0  0
  9 10  1  0  0  0
  9 27  1  0  0  0
  9 28  1  0  0  0
 10 11  1  0  0  0
 10 15  1  0  0  0
 10 29  1  0  0  0
 11 12  1  0  0  0
 11 30  1  0  0  0
 11 31  1  0  0  0
 12 13  1  0  0  0
 12 32  1  0  0  0
 12 33  1  0  0  0
 13 14  1  0  0  0
 13 16  1  0  0  0
 13 56  1  0  0  0
 14 15  1  0  0  0
 14 34  1  0  0  0
 14 35  1  0  0  0
 15 36  1  0  0  0
 15 37  1  0  0  0
 16 17  1  0  0  0
 16 38  1  0  0  0
 16 39  1  0  0  0
 17 18  1  0  0  0
 17 22  2  0  0  0
 18 19  2  0  0  0
 18 40  1  0  0  0
 19 20  1  0  0  0
 19 41  1  0  0  0
 20 21  2  0  0  0
 20 42  1  0  0  0
 21 22  1  0  0  0
 21 43  1  0  0  0
 22 44  1  0  0  0
 45 46  1  0  0  0
 45 47  1  0  0  0
 45 50  1  0  0  0
 50 51  1  0  0  0
 50 52  1  0  0  0
 50 53  1  0  0  0
 51 54  1  0  0  0
 51 55  1  0  0  0
M  CHG  1  13   1
M  END
>  <ACTIVITY>
4.82

>  <SET>
1

>  <Min_dist>
999.9

>  <Avg_dist>
999.9

$$$$
3-13e_E2020
  Cerius2 12110213523D 1   1.00000                          
Structure written by Cerius2 SD Exporter
 58 61  0  0  0  0  0  0  0  0999 V2000
    1.1840   59.8832   71.5292 C   0  0  0  0  0  0
    0.1890   60.8918   71.6610 C   0  0  0  0  0  0
    0.3161   62.1072   70.9710 C   0  0  0  0  0  0
    1.4220   62.3006   70.1561 C   0  0  0  0  0  0
    2.3811   61.3057   70.0405 C   0  0  0  0  0  0
    2.2956   60.0957   70.7075 C   0  0  0  0  0  0
    3.4174   61.7703   69.1240 C   0  0  0  0  0  0
    3.0031   63.1117   68.5362 C   0  0  0  0  0  0
    1.7711   63.5283   69.3728 C   0  0  0  0  0  0
    4.1529   64.1227   68.5769 C   0  0  0  0  0  0
    3.8096   65.5196   68.0230 C   0  0  0  0  0  0
    5.0113   66.4609   68.1933 C   0  0  0  0  0  0
    4.7431   67.8356   67.5802 C   0  0  0  0  0  0
    4.4019   67.7239   66.1508 N   0  3  0  0  0  0
    3.1944   66.8955   65.9805 C   0  0  0  0  0  0
    3.3999   65.4862   66.5449 C   0  0  0  0  0  0
    4.2023   69.0768   65.5863 C   0  0  0  0  0  0
    4.1336   69.0906   64.0719 C   0  0  0  0  0  0
    2.9764   69.5327   63.4138 C   0  0  0  0  0  0
    2.9196   69.5558   62.0188 C   0  0  0  0  0  0
    4.0176   69.1404   61.2674 C   0  0  0  0  0  0
    5.1743   68.7016   61.9090 C   0  0  0  0  0  0
    5.2333   68.6774   63.3036 C   0  0  0  0  0  0
    4.4304   61.1373   68.8649 O   0  0  0  0  0  0
    0.9635   58.7327   72.2501 O   0  0  0  0  0  0
    1.9433   57.7011   72.1503 C   0  0  0  0  0  0
   -0.8609   60.5832   72.4944 O   0  0  0  0  0  0
   -1.8878   61.5617   72.6429 C   0  0  0  0  0  0
   -0.4165   62.9040   71.0555 H   0  0  0  0  0  0
    3.0809   59.3614   70.5701 H   0  0  0  0  0  0
    2.6952   62.9134   67.5022 H   0  0  0  0  0  0
    0.9459   63.8317   68.7204 H   0  0  0  0  0  0
    2.0008   64.3456   70.0649 H   0  0  0  0  0  0
    4.5017   64.2243   69.6137 H   0  0  0  0  0  0
    5.0050   63.7123   68.0184 H   0  0  0  0  0  0
    2.9750   65.9362   68.6014 H   0  0  0  0  0  0
    5.2420   66.5807   69.2588 H   0  0  0  0  0  0
    5.9013   66.0217   67.7236 H   0  0  0  0  0  0
    3.9420   68.3396   68.1367 H   0  0  0  0  0  0
    5.6514   68.4393   67.6977 H   0  0  0  0  0  0
    2.3282   67.3624   66.4680 H   0  0  0  0  0  0
    2.9506   66.7895   64.9173 H   0  0  0  0  0  0
    4.1668   64.9666   65.9558 H   0  0  0  0  0  0
    2.4674   64.9243   66.4214 H   0  0  0  0  0  0
    3.3086   69.5486   66.0164 H   0  0  0  0  0  0
    5.0485   69.7219   65.8599 H   0  0  0  0  0  0
    2.1088   69.8618   63.9847 H   0  0  0  0  0  0
    2.0162   69.8994   61.5174 H   0  0  0  0  0  0
    3.9718   69.1590   60.1799 H   0  0  0  0  0  0
    6.0325   68.3771   61.3230 H   0  0  0  0  0  0
    6.1420   68.3311   63.7950 H   0  0  0  0  0  0
    1.6166   56.8703   72.7829 H   0  0  0  0  0  0
    2.0191   57.3287   71.1235 H   0  0  0  0  0  0
    2.9141   58.0430   72.5236 H   0  0  0  0  0  0
   -2.6397   61.1530   73.3248 H   0  0  0  0  0  0
   -1.4944   62.4795   73.0919 H   0  0  0  0  0  0
   -2.3803   61.7638   71.6862 H   0  0  0  0  0  0
    5.0864   67.3290   65.7202 H   0  0  0  0  0  0
  1  2  2  0  0  0
  1  6  1  0  0  0
  1 25  1  0  0  0
  2  3  1  0  0  0
  2 27  1  0  0  0
  3  4  2  0  0  0
  3 29  1  0  0  0
  4  5  1  0  0  0
  4  9  1  0  0  0
  5  6  2  0  0  0
  5  7  1  0  0  0
  6 30  1  0  0  0
  7  8  1  0  0  0
  7 24  2  0  0  0
  8  9  1  0  0  0
  8 10  1  0  0  0
  8 31  1  0  0  0
  9 32  1  0  0  0
  9 33  1  0  0  0
 10 11  1  0  0  0
 10 34  1  0  0  0
 10 35  1  0  0  0
 11 12  1  0  0  0
 11 16  1  0  0  0
 11 36  1  0  0  0
 12 13  1  0  0  0
 12 37  1  0  0  0
 12 38  1  0  0  0
 13 14  1  0  0  0
 13 39  1  0  0  0
 13 40  1  0  0  0
 14 15  1  0  0  0
 14 17  1  0  0  0
 14 58  1  0  0  0
 15 16  1  0  0  0
 15 41  1  0  0  0
 15 42  1  0  0  0
 16 43  1  0  0  0
 16 44  1  0  0  0
 17 18  1  0  0  0
 17 45  1  0  0  0
 17 46  1  0  0  0
 18 19  1  0  0  0
 18 23  2  0  0  0
 19 20  2  0  0  0
 19 47  1  0  0  0
 20 21  1  0  0  0
 20 48  1  0  0  0
 21 22  2  0  0  0
 21 49  1  0  0  0
 22 23  1  0  0  0
 22 50  1  0  0  0
 23 51  1  0  0  0
 25 26  1  0  0  0
 26 52  1  0  0  0
 26 53  1  0  0  0
 26 54  1  0  0  0
 27 28  1  0  0  0
 28 55  1  0  0  0
 28 56  1  0  0  0
 28 57  1  0  0  0
M  CHG  1  14   1
M  END
>  <ACTIVITY>
8.24

>  <SET>
1

>  <Min_dist>
999.9

>  <Avg_dist>
999.9

$$$$
3-13f
  Cerius2 12110213523D 1   1.00000                          
Structure written by Cerius2 SD Exporter
 54 57  0  0  0  0  0  0  0  0999 V2000
    1.1840   59.8832   71.5292 C   0  0  0  0  0  0
    0.1890   60.8918   71.6610 C   0  0  0  0  0  0
    0.3161   62.1072   70.9710 C   0  0  0  0  0  0
    1.4220   62.3006   70.1561 C   0  0  0  0  0  0
    2.3811   61.3057   70.0405 C   0  0  0  0  0  0
    2.2956   60.0957   70.7075 C   0  0  0  0  0  0
    3.4174   61.7703   69.1240 C   0  0  0  0  0  0
    3.0031   63.1117   68.5362 C   0  0  0  0  0  0
    1.7711   63.5283   69.3728 C   0  0  0  0  0  0
    4.1529   64.1227   68.5769 C   0  0  0  0  0  0
    3.8096   65.5196   68.0230 C   0  0  0  0  0  0
    5.0113   66.4609   68.1933 C   0  0  0  0  0  0
    4.7431   67.8356   67.5802 C   0  0  0  0  0  0
    4.4019   67.7239   66.1508 N   0  3  0  0  0  0
    3.1944   66.8955   65.9805 C   0  0  0  0  0  0
    3.3999   65.4862   66.5449 C   0  0  0  0  0  0
    4.2023   69.0768   65.5863 C   0  0  0  0  0  0
    4.1336   69.0906   64.0719 C   0  0  0  0  0  0
    2.9764   69.5327   63.4138 C   0  0  0  0  0  0
    2.9196   69.5558   62.0188 C   0  0  0  0  0  0
    4.0176   69.1404   61.2674 C   0  0  0  0  0  0
    5.1743   68.7016   61.9090 C   0  0  0  0  0  0
    5.2333   68.6774   63.3036 C   0  0  0  0  0  0
    4.4304   61.1373   68.8649 O   0  0  0  0  0  0
    0.9635   58.7327   72.2501 O   0  0  0  0  0  0
    1.9433   57.7011   72.1503 C   0  0  0  0  0  0
   -0.4165   62.9040   71.0555 H   0  0  0  0  0  0
    3.0809   59.3614   70.5701 H   0  0  0  0  0  0
    2.6952   62.9134   67.5022 H   0  0  0  0  0  0
    0.9459   63.8317   68.7204 H   0  0  0  0  0  0
    2.0008   64.3456   70.0649 H   0  0  0  0  0  0
    4.5017   64.2243   69.6137 H   0  0  0  0  0  0
    5.0050   63.7123   68.0184 H   0  0  0  0  0  0
    2.9750   65.9362   68.6014 H   0  0  0  0  0  0
    5.2420   66.5807   69.2588 H   0  0  0  0  0  0
    5.9013   66.0217   67.7236 H   0  0  0  0  0  0
    3.9420   68.3396   68.1367 H   0  0  0  0  0  0
    5.6514   68.4393   67.6977 H   0  0  0  0  0  0
    2.3282   67.3624   66.4680 H   0  0  0  0  0  0
    2.9506   66.7895   64.9173 H   0  0  0  0  0  0
    4.1668   64.9666   65.9558 H   0  0  0  0  0  0
    2.4674   64.9243   66.4214 H   0  0  0  0  0  0
    3.3086   69.5486   66.0164 H   0  0  0  0  0  0
    5.0485   69.7219   65.8599 H   0  0  0  0  0  0
    2.1088   69.8618   63.9847 H   0  0  0  0  0  0
    2.0162   69.8994   61.5174 H   0  0  0  0  0  0
    3.9718   69.1590   60.1799 H   0  0  0  0  0  0
    6.0325   68.3771   61.3230 H   0  0  0  0  0  0
    6.1420   68.3311   63.7950 H   0  0  0  0  0  0
    1.6166   56.8703   72.7829 H   0  0  0  0  0  0
    2.0191   57.3287   71.1235 H   0  0  0  0  0  0
    2.9141   58.0430   72.5236 H   0  0  0  0  0  0
   -0.6785   60.6957   72.3199 H   0  0  0  0  0  0
    5.0864   67.3290   65.7202 H   0  0  0  0  0  0
  1  2  2  0  0  0
  1  6  1  0  0  0
  1 25  1  0  0  0
  2  3  1  0  0  0
  2 53  1  0  0  0
  3  4  2  0  0  0
  3 27  1  0  0  0
  4  5  1  0  0  0
  4  9  1  0  0  0
  5  6  2  0  0  0
  5  7  1  0  0  0
  6 28  1  0  0  0
  7  8  1  0  0  0
  7 24  2  0  0  0
  8  9  1  0  0  0
  8 10  1  0  0  0
  8 29  1  0  0  0
  9 30  1  0  0  0
  9 31  1  0  0  0
 10 11  1  0  0  0
 10 32  1  0  0  0
 10 33  1  0  0  0
 11 12  1  0  0  0
 11 16  1  0  0  0
 11 34  1  0  0  0
 12 13  1  0  0  0
 12 35  1  0  0  0
 12 36  1  0  0  0
 13 14  1  0  0  0
 13 37  1  0  0  0
 13 38  1  0  0  0
 14 15  1  0  0  0
 14 17  1  0  0  0
 14 54  1  0  0  0
 15 16  1  0  0  0
 15 39  1  0  0  0
 15 40  1  0  0  0
 16 41  1  0  0  0
 16 42  1  0  0  0
 17 18  1  0  0  0
 17 43  1  0  0  0
 17 44  1  0  0  0
 18 19  1  0  0  0
 18 23  2  0  0  0
 19 20  2  0  0  0
 19 45  1  0  0  0
 20 21  1  0  0  0
 20 46  1  0  0  0
 21 22  2  0  0  0
 21 47  1  0  0  0
 22 23  1  0  0  0
 22 48  1  0  0  0
 23 49  1  0  0  0
 25 26  1  0  0  0
 26 50  1  0  0  0
 26 51  1  0  0  0
 26 52  1  0  0  0
M  CHG  1  14   1
M  END
>  <ACTIVITY>
7.09

>  <SET>
2

>  <Min_dist>
0.03

>  <Avg_dist>
0.45

$$$$
3-13g
  Cerius2 12110213523D 1   1.00000                          
Structure written by Cerius2 SD Exporter
 54 57  0  0  0  0  0  0  0  0999 V2000
    1.1840   59.8832   71.5292 C   0  0  0  0  0  0
    0.1890   60.8918   71.6610 C   0  0  0  0  0  0
    0.3161   62.1072   70.9710 C   0  0  0  0  0  0
    1.4220   62.3006   70.1561 C   0  0  0  0  0  0
    2.3811   61.3057   70.0405 C   0  0  0  0  0  0
    2.2956   60.0957   70.7075 C   0  0  0  0  0  0
    3.4174   61.7703   69.1240 C   0  0  0  0  0  0
    3.0031   63.1117   68.5362 C   0  0  0  0  0  0
    1.7711   63.5283   69.3728 C   0  0  0  0  0  0
    4.1529   64.1227   68.5769 C   0  0  0  0  0  0
    3.8096   65.5196   68.0230 C   0  0  0  0  0  0
    5.0113   66.4609   68.1933 C   0  0  0  0  0  0
    4.7431   67.8356   67.5802 C   0  0  0  0  0  0
    4.4019   67.7239   66.1508 N   0  3  0  0  0  0
    3.1944   66.8955   65.9805 C   0  0  0  0  0  0
    3.3999   65.4862   66.5449 C   0  0  0  0  0  0
    4.2023   69.0768   65.5863 C   0  0  0  0  0  0
    4.1336   69.0906   64.0719 C   0  0  0  0  0  0
    2.9764   69.5327   63.4138 C   0  0  0  0  0  0
    2.9196   69.5558   62.0188 C   0  0  0  0  0  0
    4.0176   69.1404   61.2674 C   0  0  0  0  0  0
    5.1743   68.7016   61.9090 C   0  0  0  0  0  0
    5.2333   68.6774   63.3036 C   0  0  0  0  0  0
    4.4304   61.1373   68.8649 O   0  0  0  0  0  0
   -0.8609   60.5832   72.4944 O   0  0  0  0  0  0
   -1.8878   61.5617   72.6429 C   0  0  0  0  0  0
   -0.4165   62.9040   71.0555 H   0  0  0  0  0  0
    3.0809   59.3614   70.5701 H   0  0  0  0  0  0
    2.6952   62.9134   67.5022 H   0  0  0  0  0  0
    0.9459   63.8317   68.7204 H   0  0  0  0  0  0
    2.0008   64.3456   70.0649 H   0  0  0  0  0  0
    4.5017   64.2243   69.6137 H   0  0  0  0  0  0
    5.0050   63.7123   68.0184 H   0  0  0  0  0  0
    2.9750   65.9362   68.6014 H   0  0  0  0  0  0
    5.2420   66.5807   69.2588 H   0  0  0  0  0  0
    5.9013   66.0217   67.7236 H   0  0  0  0  0  0
    3.9420   68.3396   68.1367 H   0  0  0  0  0  0
    5.6514   68.4393   67.6977 H   0  0  0  0  0  0
    2.3282   67.3624   66.4680 H   0  0  0  0  0  0
    2.9506   66.7895   64.9173 H   0  0  0  0  0  0
    4.1668   64.9666   65.9558 H   0  0  0  0  0  0
    2.4674   64.9243   66.4214 H   0  0  0  0  0  0
    3.3086   69.5486   66.0164 H   0  0  0  0  0  0
    5.0485   69.7219   65.8599 H   0  0  0  0  0  0
    2.1088   69.8618   63.9847 H   0  0  0  0  0  0
    2.0162   69.8994   61.5174 H   0  0  0  0  0  0
    3.9718   69.1590   60.1799 H   0  0  0  0  0  0
    6.0325   68.3771   61.3230 H   0  0  0  0  0  0
    6.1420   68.3311   63.7950 H   0  0  0  0  0  0
   -2.6397   61.1530   73.3248 H   0  0  0  0  0  0
   -1.4944   62.4795   73.0919 H   0  0  0  0  0  0
   -2.3803   61.7638   71.6862 H   0  0  0  0  0  0
    1.0553   58.9366   72.0885 H   0  0  0  0  0  0
    5.0864   67.3290   65.7202 H   0  0  0  0  0  0
  1  2  2  0  0  0
  1  6  1  0  0  0
  1 53  1  0  0  0
  2  3  1  0  0  0
  2 25  1  0  0  0
  3  4  2  0  0  0
  3 27  1  0  0  0
  4  5  1  0  0  0
  4  9  1  0  0  0
  5  6  2  0  0  0
  5  7  1  0  0  0
  6 28  1  0  0  0
  7  8  1  0  0  0
  7 24  2  0  0  0
  8  9  1  0  0  0
  8 10  1  0  0  0
  8 29  1  0  0  0
  9 30  1  0  0  0
  9 31  1  0  0  0
 10 11  1  0  0  0
 10 32  1  0  0  0
 10 33  1  0  0  0
 11 12  1  0  0  0
 11 16  1  0  0  0
 11 34  1  0  0  0
 12 13  1  0  0  0
 12 35  1  0  0  0
 12 36  1  0  0  0
 13 14  1  0  0  0
 13 37  1  0  0  0
 13 38  1  0  0  0
 14 15  1  0  0  0
 14 17  1  0  0  0
 14 54  1  0  0  0
 15 16  1  0  0  0
 15 39  1  0  0  0
 15 40  1  0  0  0
 16 41  1  0  0  0
 16 42  1  0  0  0
 17 18  1  0  0  0
 17 43  1  0  0  0
 17 44  1  0  0  0
 18 19  1  0  0  0
 18 23  2  0  0  0
 19 20  2  0  0  0
 19 45  1  0  0  0
 20 21  1  0  0  0
 20 46  1  0  0  0
 21 22  2  0  0  0
 21 47  1  0  0  0
 22 23  1  0  0  0
 22 48  1  0  0  0
 23 49  1  0  0  0
 25 26  1  0  0  0
 26 50  1  0  0  0
 26 51  1  0  0  0
 26 52  1  0  0  0
M  CHG  1  14   1
M  END
>  <ACTIVITY>
8.19

>  <SET>
1

>  <Min_dist>
999.9

>  <Avg_dist>
999.9

$$$$
3-13h
  Cerius2 12110213523D 1   1.00000                          
Structure written by Cerius2 SD Exporter
 54 57  0  0  0  0  0  0  0  0999 V2000
    1.1840   59.8832   71.5292 C   0  0  0  0  0  0
    0.1890   60.8918   71.6610 C   0  0  0  0  0  0
    0.3161   62.1072   70.9710 C   0  0  0  0  0  0
    1.4220   62.3006   70.1561 C   0  0  0  0  0  0
    2.3811   61.3057   70.0405 C   0  0  0  0  0  0
    2.2956   60.0957   70.7075 C   0  0  0  0  0  0
    3.4174   61.7703   69.1240 C   0  0  0  0  0  0
    3.0031   63.1117   68.5362 C   0  0  0  0  0  0
    1.7711   63.5283   69.3728 C   0  0  0  0  0  0
    4.1529   64.1227   68.5769 C   0  0  0  0  0  0
    3.8096   65.5196   68.0230 C   0  0  0  0  0  0
    5.0113   66.4609   68.1933 C   0  0  0  0  0  0
    4.7431   67.8356   67.5802 C   0  0  0  0  0  0
    4.4019   67.7239   66.1508 N   0  3  0  0  0  0
    3.1944   66.8955   65.9805 C   0  0  0  0  0  0
    3.3999   65.4862   66.5449 C   0  0  0  0  0  0
    4.2023   69.0768   65.5863 C   0  0  0  0  0  0
    4.1336   69.0906   64.0719 C   0  0  0  0  0  0
    2.9764   69.5327   63.4138 C   0  0  0  0  0  0
    2.9196   69.5558   62.0188 C   0  0  0  0  0  0
    4.0176   69.1404   61.2674 C   0  0  0  0  0  0
    5.1743   68.7016   61.9090 C   0  0  0  0  0  0
    5.2333   68.6774   63.3036 C   0  0  0  0  0  0
    4.4304   61.1373   68.8649 O   0  0  0  0  0  0
    3.0809   59.3614   70.5701 H   0  0  0  0  0  0
    2.6952   62.9134   67.5022 H   0  0  0  0  0  0
    0.9459   63.8317   68.7204 H   0  0  0  0  0  0
    2.0008   64.3456   70.0649 H   0  0  0  0  0  0
    4.5017   64.2243   69.6137 H   0  0  0  0  0  0
    5.0050   63.7123   68.0184 H   0  0  0  0  0  0
    2.9750   65.9362   68.6014 H   0  0  0  0  0  0
    5.2420   66.5807   69.2588 H   0  0  0  0  0  0
    5.9013   66.0217   67.7236 H   0  0  0  0  0  0
    3.9420   68.3396   68.1367 H   0  0  0  0  0  0
    5.6514   68.4393   67.6977 H   0  0  0  0  0  0
    2.3282   67.3624   66.4680 H   0  0  0  0  0  0
    2.9506   66.7895   64.9173 H   0  0  0  0  0  0
    4.1668   64.9666   65.9558 H   0  0  0  0  0  0
    2.4674   64.9243   66.4214 H   0  0  0  0  0  0
    3.3086   69.5486   66.0164 H   0  0  0  0  0  0
    5.0485   69.7219   65.8599 H   0  0  0  0  0  0
    2.1088   69.8618   63.9847 H   0  0  0  0  0  0
    2.0162   69.8994   61.5174 H   0  0  0  0  0  0
    3.9718   69.1590   60.1799 H   0  0  0  0  0  0
    6.0325   68.3771   61.3230 H   0  0  0  0  0  0
    6.1420   68.3311   63.7950 H   0  0  0  0  0  0
   -1.7697   62.9917   71.8524 C   0  0  0  0  0  0
   -0.5980   63.1232   71.0557 O   0  0  0  0  0  0
   -1.5255   62.8486   72.9160 H   0  0  0  0  0  0
   -2.3263   63.9318   71.7380 H   0  0  0  0  0  0
   -2.4030   62.1586   71.5115 H   0  0  0  0  0  0
    1.0702   58.9301   72.0821 H   0  0  0  0  0  0
   -0.6787   60.6990   72.3177 H   0  0  0  0  0  0
    5.0864   67.3290   65.7202 H   0  0  0  0  0  0
  1  2  2  0  0  0
  1  6  1  0  0  0
  1 52  1  0  0  0
  2  3  1  0  0  0
  2 53  1  0  0  0
  3  4  2  0  0  0
  3 48  1  0  0  0
  4  5  1  0  0  0
  4  9  1  0  0  0
  5  6  2  0  0  0
  5  7  1  0  0  0
  6 25  1  0  0  0
  7  8  1  0  0  0
  7 24  2  0  0  0
  8  9  1  0  0  0
  8 10  1  0  0  0
  8 26  1  0  0  0
  9 27  1  0  0  0
  9 28  1  0  0  0
 10 11  1  0  0  0
 10 29  1  0  0  0
 10 30  1  0  0  0
 11 12  1  0  0  0
 11 16  1  0  0  0
 11 31  1  0  0  0
 12 13  1  0  0  0
 12 32  1  0  0  0
 12 33  1  0  0  0
 13 14  1  0  0  0
 13 34  1  0  0  0
 13 35  1  0  0  0
 14 15  1  0  0  0
 14 17  1  0  0  0
 14 54  1  0  0  0
 15 16  1  0  0  0
 15 36  1  0  0  0
 15 37  1  0  0  0
 16 38  1  0  0  0
 16 39  1  0  0  0
 17 18  1  0  0  0
 17 40  1  0  0  0
 17 41  1  0  0  0
 18 19  1  0  0  0
 18 23  2  0  0  0
 19 20  2  0  0  0
 19 42  1  0  0  0
 20 21  1  0  0  0
 20 43  1  0  0  0
 21 22  2  0  0  0
 21 44  1  0  0  0
 22 23  1  0  0  0
 22 45  1  0  0  0
 23 46  1  0  0  0
 47 48  1  0  0  0
 47 49  1  0  0  0
 47 50  1  0  0  0
 47 51  1  0  0  0
M  CHG  1  14   1
M  END
>  <ACTIVITY>
7.92

>  <SET>
1

>  <Min_dist>
999.9

>  <Avg_dist>
999.9

$$$$
3-13i
  Cerius2 12110213523D 1   1.00000                          
Structure written by Cerius2 SD Exporter
 58 61  0  0  0  0  0  0  0  0999 V2000
    1.1840   59.8832   71.5292 C   0  0  0  0  0  0
    0.1890   60.8918   71.6610 C   0  0  0  0  0  0
    0.3161   62.1072   70.9710 C   0  0  0  0  0  0
    1.4220   62.3006   70.1561 C   0  0  0  0  0  0
    2.3811   61.3057   70.0405 C   0  0  0  0  0  0
    2.2956   60.0957   70.7075 C   0  0  0  0  0  0
    3.4174   61.7703   69.1240 C   0  0  0  0  0  0
    3.0031   63.1117   68.5362 C   0  0  0  0  0  0
    1.7711   63.5283   69.3728 C   0  0  0  0  0  0
    4.1529   64.1227   68.5769 C   0  0  0  0  0  0
    3.8096   65.5196   68.0230 C   0  0  0  0  0  0
    5.0113   66.4609   68.1933 C   0  0  0  0  0  0
    4.7431   67.8356   67.5802 C   0  0  0  0  0  0
    4.4019   67.7239   66.1508 N   0  3  0  0  0  0
    3.1944   66.8955   65.9805 C   0  0  0  0  0  0
    3.3999   65.4862   66.5449 C   0  0  0  0  0  0
    4.2023   69.0768   65.5863 C   0  0  0  0  0  0
    4.1336   69.0906   64.0719 C   0  0  0  0  0  0
    2.9764   69.5327   63.4138 C   0  0  0  0  0  0
    2.9196   69.5558   62.0188 C   0  0  0  0  0  0
    4.0176   69.1404   61.2674 C   0  0  0  0  0  0
    5.1743   68.7016   61.9090 C   0  0  0  0  0  0
    5.2333   68.6774   63.3036 C   0  0  0  0  0  0
    4.4304   61.1373   68.8649 O   0  0  0  0  0  0
    0.9635   58.7327   72.2501 O   0  0  0  0  0  0
    1.9433   57.7011   72.1503 C   0  0  0  0  0  0
   -0.4165   62.9040   71.0555 H   0  0  0  0  0  0
    2.6952   62.9134   67.5022 H   0  0  0  0  0  0
    0.9459   63.8317   68.7204 H   0  0  0  0  0  0
    2.0008   64.3456   70.0649 H   0  0  0  0  0  0
    4.5017   64.2243   69.6137 H   0  0  0  0  0  0
    5.0050   63.7123   68.0184 H   0  0  0  0  0  0
    2.9750   65.9362   68.6014 H   0  0  0  0  0  0
    5.2420   66.5807   69.2588 H   0  0  0  0  0  0
    5.9013   66.0217   67.7236 H   0  0  0  0  0  0
    3.9420   68.3396   68.1367 H   0  0  0  0  0  0
    5.6514   68.4393   67.6977 H   0  0  0  0  0  0
    2.3282   67.3624   66.4680 H   0  0  0  0  0  0
    2.9506   66.7895   64.9173 H   0  0  0  0  0  0
    4.1668   64.9666   65.9558 H   0  0  0  0  0  0
    2.4674   64.9243   66.4214 H   0  0  0  0  0  0
    3.3086   69.5486   66.0164 H   0  0  0  0  0  0
    5.0485   69.7219   65.8599 H   0  0  0  0  0  0
    2.1088   69.8618   63.9847 H   0  0  0  0  0  0
    2.0162   69.8994   61.5174 H   0  0  0  0  0  0
    3.9718   69.1590   60.1799 H   0  0  0  0  0  0
    6.0325   68.3771   61.3230 H   0  0  0  0  0  0
    6.1420   68.3311   63.7950 H   0  0  0  0  0  0
    1.6166   56.8703   72.7829 H   0  0  0  0  0  0
    2.0191   57.3287   71.1235 H   0  0  0  0  0  0
    2.9141   58.0430   72.5236 H   0  0  0  0  0  0
    4.5412   59.5060   71.3652 C   0  0  0  0  0  0
    3.3737   59.2258   70.5734 O   0  0  0  0  0  0
    5.0278   60.4493   71.0832 H   0  0  0  0  0  0
    4.3037   59.5746   72.4368 H   0  0  0  0  0  0
    5.2422   58.6781   71.1983 H   0  0  0  0  0  0
   -0.6807   60.6975   72.3195 H   0  0  0  0  0  0
    5.0864   67.3290   65.7202 H   0  0  0  0  0  0
  1  2  2  0  0  0
  1  6  1  0  0  0
  1 25  1  0  0  0
  2  3  1  0  0  0
  2 57  1  0  0  0
  3  4  2  0  0  0
  3 27  1  0  0  0
  4  5  1  0  0  0
  4  9  1  0  0  0
  5  6  2  0  0  0
  5  7  1  0  0  0
  6 53  1  0  0  0
  7  8  1  0  0  0
  7 24  2  0  0  0
  8  9  1  0  0  0
  8 10  1  0  0  0
  8 28  1  0  0  0
  9 29  1  0  0  0
  9 30  1  0  0  0
 10 11  1  0  0  0
 10 31  1  0  0  0
 10 32  1  0  0  0
 11 12  1  0  0  0
 11 16  1  0  0  0
 11 33  1  0  0  0
 12 13  1  0  0  0
 12 34  1  0  0  0
 12 35  1  0  0  0
 13 14  1  0  0  0
 13 36  1  0  0  0
 13 37  1  0  0  0
 14 15  1  0  0  0
 14 17  1  0  0  0
 14 58  1  0  0  0
 15 16  1  0  0  0
 15 38  1  0  0  0
 15 39  1  0  0  0
 16 40  1  0  0  0
 16 41  1  0  0  0
 17 18  1  0  0  0
 17 42  1  0  0  0
 17 43  1  0  0  0
 18 19  1  0  0  0
 18 23  2  0  0  0
 19 20  2  0  0  0
 19 44  1  0  0  0
 20 21  1  0  0  0
 20 45  1  0  0  0
 21 22  2  0  0  0
 21 46  1  0  0  0
 22 23  1  0  0  0
 22 47  1  0  0  0
 23 48  1  0  0  0
 25 26  1  0  0  0
 26 49  1  0  0  0
 26 50  1  0  0  0
 26 51  1  0  0  0
 52 53  1  0  0  0
 52 54  1  0  0  0
 52 55  1  0  0  0
 52 56  1  0  0  0
M  CHG  1  14   1
M  END
>  <ACTIVITY>
7.07

>  <SET>
1

>  <Min_dist>
999.9

>  <Avg_dist>
999.9

$$$$
3-13j
  Cerius2 12110213523D 1   1.00000                          
Structure written by Cerius2 SD Exporter
 58 61  0  0  0  0  0  0  0  0999 V2000
    1.1840   59.8832   71.5292 C   0  0  0  0  0  0
    0.1890   60.8918   71.6610 C   0  0  0  0  0  0
    0.3161   62.1072   70.9710 C   0  0  0  0  0  0
    1.4220   62.3006   70.1561 C   0  0  0  0  0  0
    2.3811   61.3057   70.0405 C   0  0  0  0  0  0
    2.2956   60.0957   70.7075 C   0  0  0  0  0  0
    3.4174   61.7703   69.1240 C   0  0  0  0  0  0
    3.0031   63.1117   68.5362 C   0  0  0  0  0  0
    1.7711   63.5283   69.3728 C   0  0  0  0  0  0
    4.1529   64.1227   68.5769 C   0  0  0  0  0  0
    3.8096   65.5196   68.0230 C   0  0  0  0  0  0
    5.0113   66.4609   68.1933 C   0  0  0  0  0  0
    4.7431   67.8356   67.5802 C   0  0  0  0  0  0
    4.4019   67.7239   66.1508 N   0  3  0  0  0  0
    3.1944   66.8955   65.9805 C   0  0  0  0  0  0
    3.3999   65.4862   66.5449 C   0  0  0  0  0  0
    4.2023   69.0768   65.5863 C   0  0  0  0  0  0
    4.1336   69.0906   64.0719 C   0  0  0  0  0  0
    2.9764   69.5327   63.4138 C   0  0  0  0  0  0
    2.9196   69.5558   62.0188 C   0  0  0  0  0  0
    4.0176   69.1404   61.2674 C   0  0  0  0  0  0
    5.1743   68.7016   61.9090 C   0  0  0  0  0  0
    5.2333   68.6774   63.3036 C   0  0  0  0  0  0
    4.4304   61.1373   68.8649 O   0  0  0  0  0  0
   -0.8609   60.5832   72.4944 O   0  0  0  0  0  0
   -1.8878   61.5617   72.6429 C   0  0  0  0  0  0
   -0.4165   62.9040   71.0555 H   0  0  0  0  0  0
    2.6952   62.9134   67.5022 H   0  0  0  0  0  0
    0.9459   63.8317   68.7204 H   0  0  0  0  0  0
    2.0008   64.3456   70.0649 H   0  0  0  0  0  0
    4.5017   64.2243   69.6137 H   0  0  0  0  0  0
    5.0050   63.7123   68.0184 H   0  0  0  0  0  0
    2.9750   65.9362   68.6014 H   0  0  0  0  0  0
    5.2420   66.5807   69.2588 H   0  0  0  0  0  0
    5.9013   66.0217   67.7236 H   0  0  0  0  0  0
    3.9420   68.3396   68.1367 H   0  0  0  0  0  0
    5.6514   68.4393   67.6977 H   0  0  0  0  0  0
    2.3282   67.3624   66.4680 H   0  0  0  0  0  0
    2.9506   66.7895   64.9173 H   0  0  0  0  0  0
    4.1668   64.9666   65.9558 H   0  0  0  0  0  0
    2.4674   64.9243   66.4214 H   0  0  0  0  0  0
    3.3086   69.5486   66.0164 H   0  0  0  0  0  0
    5.0485   69.7219   65.8599 H   0  0  0  0  0  0
    2.1088   69.8618   63.9847 H   0  0  0  0  0  0
    2.0162   69.8994   61.5174 H   0  0  0  0  0  0
    3.9718   69.1590   60.1799 H   0  0  0  0  0  0
    6.0325   68.3771   61.3230 H   0  0  0  0  0  0
    6.1420   68.3311   63.7950 H   0  0  0  0  0  0
   -2.6397   61.1530   73.3248 H   0  0  0  0  0  0
   -1.4944   62.4795   73.0919 H   0  0  0  0  0  0
   -2.3803   61.7638   71.6862 H   0  0  0  0  0  0
    4.2848   59.0694   71.5479 C   0  0  0  0  0  0
    3.2228   59.0774   70.5903 O   0  0  0  0  0  0
    3.8983   58.9519   72.5714 H   0  0  0  0  0  0
    4.9317   58.2169   71.3030 H   0  0  0  0  0  0
    4.8738   59.9976   71.4958 H   0  0  0  0  0  0
    1.0648   58.9289   72.0750 H   0  0  0  0  0  0
    5.0864   67.3290   65.7202 H   0  0  0  0  0  0
  1  2  2  0  0  0
  1  6  1  0  0  0
  1 57  1  0  0  0
  2  3  1  0  0  0
  2 25  1  0  0  0
  3  4  2  0  0  0
  3 27  1  0  0  0
  4  5  1  0  0  0
  4  9  1  0  0  0
  5  6  2  0  0  0
  5  7  1  0  0  0
  6 53  1  0  0  0
  7  8  1  0  0  0
  7 24  2  0  0  0
  8  9  1  0  0  0
  8 10  1  0  0  0
  8 28  1  0  0  0
  9 29  1  0  0  0
  9 30  1  0  0  0
 10 11  1  0  0  0
 10 31  1  0  0  0
 10 32  1  0  0  0
 11 12  1  0  0  0
 11 16  1  0  0  0
 11 33  1  0  0  0
 12 13  1  0  0  0
 12 34  1  0  0  0
 12 35  1  0  0  0
 13 14  1  0  0  0
 13 36  1  0  0  0
 13 37  1  0  0  0
 14 15  1  0  0  0
 14 17  1  0  0  0
 14 58  1  0  0  0
 15 16  1  0  0  0
 15 38  1  0  0  0
 15 39  1  0  0  0
 16 40  1  0  0  0
 16 41  1  0  0  0
 17 18  1  0  0  0
 17 42  1  0  0  0
 17 43  1  0  0  0
 18 19  1  0  0  0
 18 23  2  0  0  0
 19 20  2  0  0  0
 19 44  1  0  0  0
 20 21  1  0  0  0
 20 45  1  0  0  0
 21 22  2  0  0  0
 21 46  1  0  0  0
 22 23  1  0  0  0
 22 47  1  0  0  0
 23 48  1  0  0  0
 25 26  1  0  0  0
 26 49  1  0  0  0
 26 50  1  0  0  0
 26 51  1  0  0  0
 52 53  1  0  0  0
 52 54  1  0  0  0
 52 55  1  0  0  0
 52 56  1  0  0  0
M  CHG  1  14   1
M  END
>  <ACTIVITY>
7.6

>  <SET>
1

>  <Min_dist>
999.9

>  <Avg_dist>
999.9

$$$$
3-13k
  Cerius2 12110213523D 1   1.00000                          
Structure written by Cerius2 SD Exporter
 58 61  0  0  0  0  0  0  0  0999 V2000
    1.1840   59.8832   71.5292 C   0  0  0  0  0  0
    0.1890   60.8918   71.6610 C   0  0  0  0  0  0
    0.3161   62.1072   70.9710 C   0  0  0  0  0  0
    1.4220   62.3006   70.1561 C   0  0  0  0  0  0
    2.3811   61.3057   70.0405 C   0  0  0  0  0  0
    2.2956   60.0957   70.7075 C   0  0  0  0  0  0
    3.4174   61.7703   69.1240 C   0  0  0  0  0  0
    3.0031   63.1117   68.5362 C   0  0  0  0  0  0
    1.7711   63.5283   69.3728 C   0  0  0  0  0  0
    4.1529   64.1227   68.5769 C   0  0  0  0  0  0
    3.8096   65.5196   68.0230 C   0  0  0  0  0  0
    5.0113   66.4609   68.1933 C   0  0  0  0  0  0
    4.7431   67.8356   67.5802 C   0  0  0  0  0  0
    4.4019   67.7239   66.1508 N   0  3  0  0  0  0
    3.1944   66.8955   65.9805 C   0  0  0  0  0  0
    3.3999   65.4862   66.5449 C   0  0  0  0  0  0
    4.2023   69.0768   65.5863 C   0  0  0  0  0  0
    4.1336   69.0906   64.0719 C   0  0  0  0  0  0
    2.9764   69.5327   63.4138 C   0  0  0  0  0  0
    2.9196   69.5558   62.0188 C   0  0  0  0  0  0
    4.0176   69.1404   61.2674 C   0  0  0  0  0  0
    5.1743   68.7016   61.9090 C   0  0  0  0  0  0
    5.2333   68.6774   63.3036 C   0  0  0  0  0  0
    4.4304   61.1373   68.8649 O   0  0  0  0  0  0
    2.6952   62.9134   67.5022 H   0  0  0  0  0  0
    0.9459   63.8317   68.7204 H   0  0  0  0  0  0
    2.0008   64.3456   70.0649 H   0  0  0  0  0  0
    4.5017   64.2243   69.6137 H   0  0  0  0  0  0
    5.0050   63.7123   68.0184 H   0  0  0  0  0  0
    2.9750   65.9362   68.6014 H   0  0  0  0  0  0
    5.2420   66.5807   69.2588 H   0  0  0  0  0  0
    5.9013   66.0217   67.7236 H   0  0  0  0  0  0
    3.9420   68.3396   68.1367 H   0  0  0  0  0  0
    5.6514   68.4393   67.6977 H   0  0  0  0  0  0
    2.3282   67.3624   66.4680 H   0  0  0  0  0  0
    2.9506   66.7895   64.9173 H   0  0  0  0  0  0
    4.1668   64.9666   65.9558 H   0  0  0  0  0  0
    2.4674   64.9243   66.4214 H   0  0  0  0  0  0
    3.3086   69.5486   66.0164 H   0  0  0  0  0  0
    5.0485   69.7219   65.8599 H   0  0  0  0  0  0
    2.1088   69.8618   63.9847 H   0  0  0  0  0  0
    2.0162   69.8994   61.5174 H   0  0  0  0  0  0
    3.9718   69.1590   60.1799 H   0  0  0  0  0  0
    6.0325   68.3771   61.3230 H   0  0  0  0  0  0
    6.1420   68.3311   63.7950 H   0  0  0  0  0  0
    4.2920   59.0780   71.5394 C   0  0  0  0  0  0
    3.2249   59.0777   70.5880 O   0  0  0  0  0  0
    3.9115   58.9624   72.5653 H   0  0  0  0  0  0
    4.9418   58.2279   71.2941 H   0  0  0  0  0  0
    4.8763   60.0089   71.4811 H   0  0  0  0  0  0
   -1.7735   62.9883   71.8454 C   0  0  0  0  0  0
   -0.5976   63.1235   71.0558 O   0  0  0  0  0  0
   -1.5352   62.8424   72.9098 H   0  0  0  0  0  0
   -2.3308   63.9280   71.7304 H   0  0  0  0  0  0
   -2.4037   62.1553   71.4984 H   0  0  0  0  0  0
    1.0812   58.9210   72.0686 H   0  0  0  0  0  0
   -0.6814   60.6997   72.3164 H   0  0  0  0  0  0
    5.0864   67.3290   65.7202 H   0  0  0  0  0  0
  1  2  2  0  0  0
  1  6  1  0  0  0
  1 56  1  0  0  0
  2  3  1  0  0  0
  2 57  1  0  0  0
  3  4  2  0  0  0
  3 52  1  0  0  0
  4  5  1  0  0  0
  4  9  1  0  0  0
  5  6  2  0  0  0
  5  7  1  0  0  0
  6 47  1  0  0  0
  7  8  1  0  0  0
  7 24  2  0  0  0
  8  9  1  0  0  0
  8 10  1  0  0  0
  8 25  1  0  0  0
  9 26  1  0  0  0
  9 27  1  0  0  0
 10 11  1  0  0  0
 10 28  1  0  0  0
 10 29  1  0  0  0
 11 12  1  0  0  0
 11 16  1  0  0  0
 11 30  1  0  0  0
 12 13  1  0  0  0
 12 31  1  0  0  0
 12 32  1  0  0  0
 13 14  1  0  0  0
 13 33  1  0  0  0
 13 34  1  0  0  0
 14 15  1  0  0  0
 14 17  1  0  0  0
 14 58  1  0  0  0
 15 16  1  0  0  0
 15 35  1  0  0  0
 15 36  1  0  0  0
 16 37  1  0  0  0
 16 38  1  0  0  0
 17 18  1  0  0  0
 17 39  1  0  0  0
 17 40  1  0  0  0
 18 19  1  0  0  0
 18 23  2  0  0  0
 19 20  2  0  0  0
 19 41  1  0  0  0
 20 21  1  0  0  0
 20 42  1  0  0  0
 21 22  2  0  0  0
 21 43  1  0  0  0
 22 23  1  0  0  0
 22 44  1  0  0  0
 23 45  1  0  0  0
 46 47  1  0  0  0
 46 48  1  0  0  0
 46 49  1  0  0  0
 46 50  1  0  0  0
 51 52  1  0  0  0
 51 53  1  0  0  0
 51 54  1  0  0  0
 51 55  1  0  0  0
M  CHG  1  14   1
M  END
>  <ACTIVITY>
7.44

>  <SET>
1

>  <Min_dist>
999.9

>  <Avg_dist>
999.9

$$$$
3-13l
  Cerius2 12110213523D 1   1.00000                          
Structure written by Cerius2 SD Exporter
 58 61  0  0  0  0  0  0  0  0999 V2000
    1.1840   59.8832   71.5292 C   0  0  0  0  0  0
    0.1890   60.8918   71.6610 C   0  0  0  0  0  0
    0.3161   62.1072   70.9710 C   0  0  0  0  0  0
    1.4220   62.3006   70.1561 C   0  0  0  0  0  0
    2.3811   61.3057   70.0405 C   0  0  0  0  0  0
    2.2956   60.0957   70.7075 C   0  0  0  0  0  0
    3.4174   61.7703   69.1240 C   0  0  0  0  0  0
    3.0031   63.1117   68.5362 C   0  0  0  0  0  0
    1.7711   63.5283   69.3728 C   0  0  0  0  0  0
    4.1529   64.1227   68.5769 C   0  0  0  0  0  0
    3.8096   65.5196   68.0230 C   0  0  0  0  0  0
    5.0113   66.4609   68.1933 C   0  0  0  0  0  0
    4.7431   67.8356   67.5802 C   0  0  0  0  0  0
    4.4019   67.7239   66.1508 N   0  3  0  0  0  0
    3.1944   66.8955   65.9805 C   0  0  0  0  0  0
    3.3999   65.4862   66.5449 C   0  0  0  0  0  0
    4.2023   69.0768   65.5863 C   0  0  0  0  0  0
    4.1336   69.0906   64.0719 C   0  0  0  0  0  0
    2.9764   69.5327   63.4138 C   0  0  0  0  0  0
    2.9196   69.5558   62.0188 C   0  0  0  0  0  0
    4.0176   69.1404   61.2674 C   0  0  0  0  0  0
    5.1743   68.7016   61.9090 C   0  0  0  0  0  0
    5.2333   68.6774   63.3036 C   0  0  0  0  0  0
    4.4304   61.1373   68.8649 O   0  0  0  0  0  0
   -0.8609   60.5832   72.4944 O   0  0  0  0  0  0
   -1.8878   61.5617   72.6429 C   0  0  0  0  0  0
    3.0809   59.3614   70.5701 H   0  0  0  0  0  0
    2.6952   62.9134   67.5022 H   0  0  0  0  0  0
    0.9459   63.8317   68.7204 H   0  0  0  0  0  0
    2.0008   64.3456   70.0649 H   0  0  0  0  0  0
    4.5017   64.2243   69.6137 H   0  0  0  0  0  0
    5.0050   63.7123   68.0184 H   0  0  0  0  0  0
    2.9750   65.9362   68.6014 H   0  0  0  0  0  0
    5.2420   66.5807   69.2588 H   0  0  0  0  0  0
    5.9013   66.0217   67.7236 H   0  0  0  0  0  0
    3.9420   68.3396   68.1367 H   0  0  0  0  0  0
    5.6514   68.4393   67.6977 H   0  0  0  0  0  0
    2.3282   67.3624   66.4680 H   0  0  0  0  0  0
    2.9506   66.7895   64.9173 H   0  0  0  0  0  0
    4.1668   64.9666   65.9558 H   0  0  0  0  0  0
    2.4674   64.9243   66.4214 H   0  0  0  0  0  0
    3.3086   69.5486   66.0164 H   0  0  0  0  0  0
    5.0485   69.7219   65.8599 H   0  0  0  0  0  0
    2.1088   69.8618   63.9847 H   0  0  0  0  0  0
    2.0162   69.8994   61.5174 H   0  0  0  0  0  0
    3.9718   69.1590   60.1799 H   0  0  0  0  0  0
    6.0325   68.3771   61.3230 H   0  0  0  0  0  0
    6.1420   68.3311   63.7950 H   0  0  0  0  0  0
   -2.6397   61.1530   73.3248 H   0  0  0  0  0  0
   -1.4944   62.4795   73.0919 H   0  0  0  0  0  0
   -2.3803   61.7638   71.6862 H   0  0  0  0  0  0
   -0.2606   64.3453   71.7241 C   0  0  0  0  0  0
   -0.5957   63.1612   70.9990 O   0  0  0  0  0  0
    0.2321   65.0847   71.0757 H   0  0  0  0  0  0
    0.3933   64.1331   72.5831 H   0  0  0  0  0  0
   -1.2008   64.7806   72.0931 H   0  0  0  0  0  0
    1.0568   58.9345   72.0876 H   0  0  0  0  0  0
    5.0864   67.3290   65.7202 H   0  0  0  0  0  0
  1  2  2  0  0  0
  1  6  1  0  0  0
  1 57  1  0  0  0
  2  3  1  0  0  0
  2 25  1  0  0  0
  3  4  2  0  0  0
  3 53  1  0  0  0
  4  5  1  0  0  0
  4  9  1  0  0  0
  5  6  2  0  0  0
  5  7  1  0  0  0
  6 27  1  0  0  0
  7  8  1  0  0  0
  7 24  2  0  0  0
  8  9  1  0  0  0
  8 10  1  0  0  0
  8 28  1  0  0  0
  9 29  1  0  0  0
  9 30  1  0  0  0
 10 11  1  0  0  0
 10 31  1  0  0  0
 10 32  1  0  0  0
 11 12  1  0  0  0
 11 16  1  0  0  0
 11 33  1  0  0  0
 12 13  1  0  0  0
 12 34  1  0  0  0
 12 35  1  0  0  0
 13 14  1  0  0  0
 13 36  1  0  0  0
 13 37  1  0  0  0
 14 15  1  0  0  0
 14 17  1  0  0  0
 14 58  1  0  0  0
 15 16  1  0  0  0
 15 38  1  0  0  0
 15 39  1  0  0  0
 16 40  1  0  0  0
 16 41  1  0  0  0
 17 18  1  0  0  0
 17 42  1  0  0  0
 17 43  1  0  0  0
 18 19  1  0  0  0
 18 23  2  0  0  0
 19 20  2  0  0  0
 19 44  1  0  0  0
 20 21  1  0  0  0
 20 45  1  0  0  0
 21 22  2  0  0  0
 21 46  1  0  0  0
 22 23  1  0  0  0
 22 47  1  0  0  0
 23 48  1  0  0  0
 25 26  1  0  0  0
 26 49  1  0  0  0
 26 50  1  0  0  0
 26 51  1  0  0  0
 52 53  1  0  0  0
 52 54  1  0  0  0
 52 55  1  0  0  0
 52 56  1  0  0  0
M  CHG  1  14   1
M  END
>  <ACTIVITY>
7.7

>  <SET>
1

>  <Min_dist>
999.9

>  <Avg_dist>
999.9

$$$$
3-13m
  Cerius2 12110213523D 1   1.00000                          
Structure written by Cerius2 SD Exporter
 62 65  0  0  0  0  0  0  0  0999 V2000
    1.1840   59.8832   71.5292 C   0  0  0  0  0  0
    0.1890   60.8918   71.6610 C   0  0  0  0  0  0
    0.3161   62.1072   70.9710 C   0  0  0  0  0  0
    1.4220   62.3006   70.1561 C   0  0  0  0  0  0
    2.3811   61.3057   70.0405 C   0  0  0  0  0  0
    2.2956   60.0957   70.7075 C   0  0  0  0  0  0
    3.4174   61.7703   69.1240 C   0  0  0  0  0  0
    3.0031   63.1117   68.5362 C   0  0  0  0  0  0
    1.7711   63.5283   69.3728 C   0  0  0  0  0  0
    4.1529   64.1227   68.5769 C   0  0  0  0  0  0
    3.8096   65.5196   68.0230 C   0  0  0  0  0  0
    5.0113   66.4609   68.1933 C   0  0  0  0  0  0
    4.7431   67.8356   67.5802 C   0  0  0  0  0  0
    4.4019   67.7239   66.1508 N   0  3  0  0  0  0
    3.1944   66.8955   65.9805 C   0  0  0  0  0  0
    3.3999   65.4862   66.5449 C   0  0  0  0  0  0
    4.2023   69.0768   65.5863 C   0  0  0  0  0  0
    4.1336   69.0906   64.0719 C   0  0  0  0  0  0
    2.9764   69.5327   63.4138 C   0  0  0  0  0  0
    2.9196   69.5558   62.0188 C   0  0  0  0  0  0
    4.0176   69.1404   61.2674 C   0  0  0  0  0  0
    5.1743   68.7016   61.9090 C   0  0  0  0  0  0
    5.2333   68.6774   63.3036 C   0  0  0  0  0  0
    4.4304   61.1373   68.8649 O   0  0  0  0  0  0
    0.9635   58.7327   72.2501 O   0  0  0  0  0  0
    1.9433   57.7011   72.1503 C   0  0  0  0  0  0
   -0.8609   60.5832   72.4944 O   0  0  0  0  0  0
   -1.8878   61.5617   72.6429 C   0  0  0  0  0  0
   -0.4165   62.9040   71.0555 H   0  0  0  0  0  0
    2.6952   62.9134   67.5022 H   0  0  0  0  0  0
    0.9459   63.8317   68.7204 H   0  0  0  0  0  0
    2.0008   64.3456   70.0649 H   0  0  0  0  0  0
    4.5017   64.2243   69.6137 H   0  0  0  0  0  0
    5.0050   63.7123   68.0184 H   0  0  0  0  0  0
    2.9750   65.9362   68.6014 H   0  0  0  0  0  0
    5.2420   66.5807   69.2588 H   0  0  0  0  0  0
    5.9013   66.0217   67.7236 H   0  0  0  0  0  0
    3.9420   68.3396   68.1367 H   0  0  0  0  0  0
    5.6514   68.4393   67.6977 H   0  0  0  0  0  0
    2.3282   67.3624   66.4680 H   0  0  0  0  0  0
    2.9506   66.7895   64.9173 H   0  0  0  0  0  0
    4.1668   64.9666   65.9558 H   0  0  0  0  0  0
    2.4674   64.9243   66.4214 H   0  0  0  0  0  0
    3.3086   69.5486   66.0164 H   0  0  0  0  0  0
    5.0485   69.7219   65.8599 H   0  0  0  0  0  0
    2.1088   69.8618   63.9847 H   0  0  0  0  0  0
    2.0162   69.8994   61.5174 H   0  0  0  0  0  0
    3.9718   69.1590   60.1799 H   0  0  0  0  0  0
    6.0325   68.3771   61.3230 H   0  0  0  0  0  0
    6.1420   68.3311   63.7950 H   0  0  0  0  0  0
    1.6166   56.8703   72.7829 H   0  0  0  0  0  0
    2.0191   57.3287   71.1235 H   0  0  0  0  0  0
    2.9141   58.0430   72.5236 H   0  0  0  0  0  0
   -2.6397   61.1530   73.3248 H   0  0  0  0  0  0
   -1.4944   62.4795   73.0919 H   0  0  0  0  0  0
   -2.3803   61.7638   71.6862 H   0  0  0  0  0  0
    4.5404   59.5058   71.3656 C   0  0  0  0  0  0
    3.3725   59.2262   70.5742 O   0  0  0  0  0  0
    5.0276   60.4487   71.0832 H   0  0  0  0  0  0
    4.3032   59.5748   72.4372 H   0  0  0  0  0  0
    5.2407   58.6774   71.1987 H   0  0  0  0  0  0
    5.0864   67.3290   65.7202 H   0  0  0  0  0  0
  1  2  2  0  0  0
  1  6  1  0  0  0
  1 25  1  0  0  0
  2  3  1  0  0  0
  2 27  1  0  0  0
  3  4  2  0  0  0
  3 29  1  0  0  0
  4  5  1  0  0  0
  4  9  1  0  0  0
  5  6  2  0  0  0
  5  7  1  0  0  0
  6 58  1  0  0  0
  7  8  1  0  0  0
  7 24  2  0  0  0
  8  9  1  0  0  0
  8 10  1  0  0  0
  8 30  1  0  0  0
  9 31  1  0  0  0
  9 32  1  0  0  0
 10 11  1  0  0  0
 10 33  1  0  0  0
 10 34  1  0  0  0
 11 12  1  0  0  0
 11 16  1  0  0  0
 11 35  1  0  0  0
 12 13  1  0  0  0
 12 36  1  0  0  0
 12 37  1  0  0  0
 13 14  1  0  0  0
 13 38  1  0  0  0
 13 39  1  0  0  0
 14 15  1  0  0  0
 14 17  1  0  0  0
 14 62  1  0  0  0
 15 16  1  0  0  0
 15 40  1  0  0  0
 15 41  1  0  0  0
 16 42  1  0  0  0
 16 43  1  0  0  0
 17 18  1  0  0  0
 17 44  1  0  0  0
 17 45  1  0  0  0
 18 19  1  0  0  0
 18 23  2  0  0  0
 19 20  2  0  0  0
 19 46  1  0  0  0
 20 21  1  0  0  0
 20 47  1  0  0  0
 21 22  2  0  0  0
 21 48  1  0  0  0
 22 23  1  0  0  0
 22 49  1  0  0  0
 23 50  1  0  0  0
 25 26  1  0  0  0
 26 51  1  0  0  0
 26 52  1  0  0  0
 26 53  1  0  0  0
 27 28  1  0  0  0
 28 54  1  0  0  0
 28 55  1  0  0  0
 28 56  1  0  0  0
 57 58  1  0  0  0
 57 59  1  0  0  0
 57 60  1  0  0  0
 57 61  1  0  0  0
M  CHG  1  14   1
M  END
>  <ACTIVITY>
7.89

>  <SET>
2

>  <Min_dist>
0.02

>  <Avg_dist>
0.5

$$$$
3-13n
  Cerius2 12110213523D 1   1.00000                          
Structure written by Cerius2 SD Exporter
 55 58  0  0  0  0  0  0  0  0999 V2000
    1.5091   60.8539   71.3223 C   0  0  0  0  0  0
    0.5141   61.8625   71.4541 C   0  0  0  0  0  0
    0.6412   63.0779   70.7641 C   0  0  0  0  0  0
    1.7471   63.2713   69.9492 C   0  0  0  0  0  0
    2.7062   62.2764   69.8336 C   0  0  0  0  0  0
    2.6208   61.0664   70.5006 C   0  0  0  0  0  0
    3.7425   62.7410   68.9171 C   0  0  0  0  0  0
    3.3282   64.0824   68.3293 C   0  0  0  0  0  0
    2.0962   64.4990   69.1658 C   0  0  0  0  0  0
    3.8096   65.5196   68.0230 C   0  0  0  0  0  0
    5.0113   66.4609   68.1933 C   0  0  0  0  0  0
    4.7431   67.8356   67.5802 C   0  0  0  0  0  0
    4.4019   67.7239   66.1508 N   0  3  0  0  0  0
    3.1944   66.8955   65.9805 C   0  0  0  0  0  0
    3.3999   65.4862   66.5449 C   0  0  0  0  0  0
    4.2023   69.0768   65.5863 C   0  0  0  0  0  0
    4.1336   69.0906   64.0719 C   0  0  0  0  0  0
    2.9764   69.5327   63.4138 C   0  0  0  0  0  0
    2.9196   69.5558   62.0188 C   0  0  0  0  0  0
    4.0176   69.1404   61.2674 C   0  0  0  0  0  0
    5.1743   68.7016   61.9090 C   0  0  0  0  0  0
    5.2333   68.6774   63.3036 C   0  0  0  0  0  0
    4.7556   62.1080   68.6580 O   0  0  0  0  0  0
    1.2886   59.7034   72.0432 O   0  0  0  0  0  0
    2.2685   58.6718   71.9434 C   0  0  0  0  0  0
   -0.5358   61.5539   72.2875 O   0  0  0  0  0  0
   -1.5627   62.5324   72.4360 C   0  0  0  0  0  0
   -0.0913   63.8747   70.8486 H   0  0  0  0  0  0
    3.4061   60.3321   70.3632 H   0  0  0  0  0  0
    3.0204   63.8841   67.2953 H   0  0  0  0  0  0
    1.2710   64.8024   68.5135 H   0  0  0  0  0  0
    2.3259   65.3163   69.8580 H   0  0  0  0  0  0
    2.9750   65.9362   68.6014 H   0  0  0  0  0  0
    5.2420   66.5807   69.2588 H   0  0  0  0  0  0
    5.9013   66.0217   67.7236 H   0  0  0  0  0  0
    3.9420   68.3396   68.1367 H   0  0  0  0  0  0
    5.6514   68.4393   67.6977 H   0  0  0  0  0  0
    2.3282   67.3624   66.4680 H   0  0  0  0  0  0
    2.9506   66.7895   64.9173 H   0  0  0  0  0  0
    4.1668   64.9666   65.9558 H   0  0  0  0  0  0
    2.4674   64.9243   66.4214 H   0  0  0  0  0  0
    3.3086   69.5486   66.0164 H   0  0  0  0  0  0
    5.0485   69.7219   65.8599 H   0  0  0  0  0  0
    2.1088   69.8618   63.9847 H   0  0  0  0  0  0
    2.0162   69.8994   61.5174 H   0  0  0  0  0  0
    3.9718   69.1590   60.1799 H   0  0  0  0  0  0
    6.0325   68.3771   61.3230 H   0  0  0  0  0  0
    6.1420   68.3311   63.7950 H   0  0  0  0  0  0
    1.9417   57.8410   72.5760 H   0  0  0  0  0  0
    2.3442   58.2995   70.9166 H   0  0  0  0  0  0
    3.2392   59.0137   72.3167 H   0  0  0  0  0  0
   -2.3145   62.1237   73.1179 H   0  0  0  0  0  0
   -1.1693   63.4502   72.8850 H   0  0  0  0  0  0
   -2.0552   62.7345   71.4793 H   0  0  0  0  0  0
    5.0864   67.3290   65.7202 H   0  0  0  0  0  0
  1  2  2  0  0  0
  1  6  1  0  0  0
  1 24  1  0  0  0
  2  3  1  0  0  0
  2 26  1  0  0  0
  3  4  2  0  0  0
  3 28  1  0  0  0
  4  5  1  0  0  0
  4  9  1  0  0  0
  5  6  2  0  0  0
  5  7  1  0  0  0
  6 29  1  0  0  0
  7  8  1  0  0  0
  7 23  2  0  0  0
  8  9  1  0  0  0
  8 10  1  0  0  0
  8 30  1  0  0  0
  9 31  1  0  0  0
  9 32  1  0  0  0
 10 11  1  0  0  0
 10 15  1  0  0  0
 10 33  1  0  0  0
 11 12  1  0  0  0
 11 34  1  0  0  0
 11 35  1  0  0  0
 12 13  1  0  0  0
 12 36  1  0  0  0
 12 37  1  0  0  0
 13 14  1  0  0  0
 13 16  1  0  0  0
 13 55  1  0  0  0
 14 15  1  0  0  0
 14 38  1  0  0  0
 14 39  1  0  0  0
 15 40  1  0  0  0
 15 41  1  0  0  0
 16 17  1  0  0  0
 16 42  1  0  0  0
 16 43  1  0  0  0
 17 18  1  0  0  0
 17 22  2  0  0  0
 18 19  2  0  0  0
 18 44  1  0  0  0
 19 20  1  0  0  0
 19 45  1  0  0  0
 20 21  2  0  0  0
 20 46  1  0  0  0
 21 22  1  0  0  0
 21 47  1  0  0  0
 22 48  1  0  0  0
 24 25  1  0  0  0
 25 49  1  0  0  0
 25 50  1  0  0  0
 25 51  1  0  0  0
 26 27  1  0  0  0
 27 52  1  0  0  0
 27 53  1  0  0  0
 27 54  1  0  0  0
M  CHG  1  13   1
M  END
>  <ACTIVITY>
5.48

>  <SET>
1

>  <Min_dist>
999.9

>  <Avg_dist>
999.9

$$$$
3-13o
  Cerius2 12110213523D 1   1.00000                          
Structure written by Cerius2 SD Exporter
 61 64  0  0  0  0  0  0  0  0999 V2000
    4.9012   63.6570   67.1245 C   0  0  0  0  0  0
    4.3855   65.0953   67.1679 C   0  0  0  0  0  0
    5.2770   66.2628   67.6398 C   0  0  0  0  0  0
    4.5857   67.6253   67.4818 C   0  0  0  0  0  0
    4.1925   67.8073   66.0805 N   0  3  0  0  0  0
    3.1996   66.8221   65.6392 C   0  0  0  0  0  0
    3.8229   65.4102   65.7568 C   0  0  0  0  0  0
    4.3302   69.1509   65.5151 C   0  0  0  0  0  0
    4.2612   69.1992   64.0021 C   0  0  0  0  0  0
    3.0583   69.6122   63.4103 C   0  0  0  0  0  0
    2.9137   69.6073   62.0214 C   0  0  0  0  0  0
    3.9685   69.1928   61.2101 C   0  0  0  0  0  0
    5.1698   68.7828   61.7855 C   0  0  0  0  0  0
    5.3166   68.7866   63.1737 C   0  0  0  0  0  0
    5.5383   63.3911   67.9873 H   0  0  0  0  0  0
    5.5118   63.4701   66.2240 H   0  0  0  0  0  0
    3.5310   65.0411   67.8689 H   0  0  0  0  0  0
    5.5824   66.1197   68.6906 H   0  0  0  0  0  0
    6.2068   66.2717   67.0398 H   0  0  0  0  0  0
    3.7145   67.7004   68.1590 H   0  0  0  0  0  0
    5.2829   68.4214   67.7923 H   0  0  0  0  0  0
    2.2727   66.8895   66.2384 H   0  0  0  0  0  0
    2.9028   66.9965   64.5928 H   0  0  0  0  0  0
    4.6504   65.3441   65.0247 H   0  0  0  0  0  0
    3.0777   64.6579   65.4492 H   0  0  0  0  0  0
    3.5737   69.8400   65.9317 H   0  0  0  0  0  0
    5.3143   69.5451   65.8234 H   0  0  0  0  0  0
    2.2062   69.9310   64.0444 H   0  0  0  0  0  0
    1.9555   69.9248   61.5679 H   0  0  0  0  0  0
    3.8512   69.1849   60.1094 H   0  0  0  0  0  0
    6.0072   68.4449   61.1453 H   0  0  0  0  0  0
    6.2681   68.4425   63.6279 H   0  0  0  0  0  0
    3.6505   62.7522   67.1188 C   0  0  0  0  0  0
    3.1447   62.8703   68.5822 C   0  0  0  0  0  0
    3.4351   61.5249   69.0750 C   0  0  0  0  0  0
    4.4126   60.8107   68.8753 O   0  0  0  0  0  0
    2.3360   61.2610   69.9910 C   0  0  0  0  0  0
    2.1816   60.0574   70.7052 C   0  0  0  0  0  0
    1.0937   59.8814   71.5627 C   0  0  0  0  0  0
    0.1451   60.9030   71.7211 C   0  0  0  0  0  0
    0.3027   62.1039   71.0182 C   0  0  0  0  0  0
    1.3932   62.2913   70.1618 C   0  0  0  0  0  0
    2.8904   63.0298   66.3777 H   0  0  0  0  0  0
    3.9249   61.7316   66.8036 H   0  0  0  0  0  0
    2.9204   59.2427   70.5798 H   0  0  0  0  0  0
   -0.4380   62.9164   71.1493 H   0  0  0  0  0  0
    4.9170   67.4352   65.6976 H   0  0  0  0  0  0
    1.7182   63.3461   69.0819 C   0  0  0  0  0  0
   -1.9461   61.6499   72.7498 C   0  0  0  0  0  0
   -0.9124   60.6890   72.5698 O   0  0  0  0  0  0
   -2.4715   61.8676   71.8078 H   0  0  0  0  0  0
   -2.6580   61.2011   73.4573 H   0  0  0  0  0  0
   -1.5628   62.5877   73.1789 H   0  0  0  0  0  0
    1.8063   57.6159   72.1658 C   0  0  0  0  0  0
    0.9121   58.7179   72.2712 O   0  0  0  0  0  0
    2.8230   57.8784   72.4948 H   0  0  0  0  0  0
    1.4096   56.8375   72.8330 H   0  0  0  0  0  0
    1.8466   57.2157   71.1415 H   0  0  0  0  0  0
    3.8712   63.4334   69.2034 H   0  0  0  0  0  0
    1.7561   64.3626   69.5005 H   0  0  0  0  0  0
    0.9359   63.3348   68.3061 H   0  0  0  0  0  0
  1  2  1  0  0  0
  1 15  1  0  0  0
  1 16  1  0  0  0
  1 33  1  0  0  0
  2  3  1  0  0  0
  2  7  1  0  0  0
  2 17  1  0  0  0
  3  4  1  0  0  0
  3 18  1  0  0  0
  3 19  1  0  0  0
  4  5  1  0  0  0
  4 20  1  0  0  0
  4 21  1  0  0  0
  5  6  1  0  0  0
  5  8  1  0  0  0
  5 47  1  0  0  0
  6  7  1  0  0  0
  6 22  1  0  0  0
  6 23  1  0  0  0
  7 24  1  0  0  0
  7 25  1  0  0  0
  8  9  1  0  0  0
  8 26  1  0  0  0
  8 27  1  0  0  0
  9 10  1  0  0  0
  9 14  2  0  0  0
 10 11  2  0  0  0
 10 28  1  0  0  0
 11 12  1  0  0  0
 11 29  1  0  0  0
 12 13  2  0  0  0
 12 30  1  0  0  0
 13 14  1  0  0  0
 13 31  1  0  0  0
 14 32  1  0  0  0
 33 34  1  0  0  0
 33 43  1  0  0  0
 33 44  1  0  0  0
 34 35  1  0  0  0
 34 48  1  0  0  0
 34 59  1  0  0  0
 35 36  2  0  0  0
 35 37  1  0  0  0
 37 38  2  0  0  0
 37 42  1  0  0  0
 38 39  1  0  0  0
 38 45  1  0  0  0
 39 40  2  0  0  0
 39 55  1  0  0  0
 40 41  1  0  0  0
 40 50  1  0  0  0
 41 42  2  0  0  0
 41 46  1  0  0  0
 42 48  1  0  0  0
 48 60  1  0  0  0
 48 61  1  0  0  0
 49 50  1  0  0  0
 49 51  1  0  0  0
 49 52  1  0  0  0
 49 53  1  0  0  0
 54 55  1  0  0  0
 54 56  1  0  0  0
 54 57  1  0  0  0
 54 58  1  0  0  0
M  CHG  1   5   1
M  END
>  <ACTIVITY>
7.52

>  <SET>
1

>  <Min_dist>
999.9

>  <Avg_dist>
999.9

$$$$
3-15a
  Cerius2 12110213523D 1   1.00000                          
Structure written by Cerius2 SD Exporter
 58 61  0  0  0  0  0  0  0  0999 V2000
    1.1840   59.8832   71.5292 C   0  0  0  0  0  0
    0.1890   60.8918   71.6610 C   0  0  0  0  0  0
    0.3161   62.1072   70.9710 C   0  0  0  0  0  0
    1.4220   62.3006   70.1561 C   0  0  0  0  0  0
    2.3811   61.3057   70.0405 C   0  0  0  0  0  0
    2.2956   60.0957   70.7075 C   0  0  0  0  0  0
    3.4174   61.7703   69.1240 C   0  0  0  0  0  0
    3.0031   63.1117   68.5362 C   0  0  0  0  0  0
    1.7711   63.5283   69.3728 C   0  0  0  0  0  0
    4.1529   64.1227   68.5769 C   0  0  0  0  0  0
    3.8096   65.5196   68.0230 N   0  3  0  0  0  0
    5.0113   66.4609   68.1933 C   0  0  0  0  0  0
    4.7431   67.8356   67.5802 C   0  0  0  0  0  0
    4.4019   67.7239   66.1508 C   0  0  0  0  0  0
    3.1944   66.8955   65.9805 C   0  0  0  0  0  0
    3.3999   65.4862   66.5449 C   0  0  0  0  0  0
    4.2023   69.0768   65.5863 C   0  0  0  0  0  0
    4.1336   69.0906   64.0719 C   0  0  0  0  0  0
    2.9764   69.5327   63.4138 C   0  0  0  0  0  0
    2.9196   69.5558   62.0188 C   0  0  0  0  0  0
    4.0176   69.1404   61.2674 C   0  0  0  0  0  0
    5.1743   68.7016   61.9090 C   0  0  0  0  0  0
    5.2333   68.6774   63.3036 C   0  0  0  0  0  0
    4.4304   61.1373   68.8649 O   0  0  0  0  0  0
    0.9635   58.7327   72.2501 O   0  0  0  0  0  0
    1.9433   57.7011   72.1503 C   0  0  0  0  0  0
   -0.8609   60.5832   72.4944 O   0  0  0  0  0  0
   -1.8878   61.5617   72.6429 C   0  0  0  0  0  0
   -0.4165   62.9040   71.0555 H   0  0  0  0  0  0
    3.0809   59.3614   70.5701 H   0  0  0  0  0  0
    2.6952   62.9134   67.5022 H   0  0  0  0  0  0
    0.9459   63.8317   68.7204 H   0  0  0  0  0  0
    2.0008   64.3456   70.0649 H   0  0  0  0  0  0
    4.5017   64.2243   69.6137 H   0  0  0  0  0  0
    5.0050   63.7123   68.0184 H   0  0  0  0  0  0
    2.9750   65.9362   68.6014 H   0  0  0  0  0  0
    5.2420   66.5807   69.2588 H   0  0  0  0  0  0
    5.9013   66.0217   67.7236 H   0  0  0  0  0  0
    3.9420   68.3396   68.1367 H   0  0  0  0  0  0
    5.6514   68.4393   67.6977 H   0  0  0  0  0  0
    2.3282   67.3624   66.4680 H   0  0  0  0  0  0
    2.9506   66.7895   64.9173 H   0  0  0  0  0  0
    4.1668   64.9666   65.9558 H   0  0  0  0  0  0
    2.4674   64.9243   66.4214 H   0  0  0  0  0  0
    3.3086   69.5486   66.0164 H   0  0  0  0  0  0
    5.0485   69.7219   65.8599 H   0  0  0  0  0  0
    2.1088   69.8618   63.9847 H   0  0  0  0  0  0
    2.0162   69.8994   61.5174 H   0  0  0  0  0  0
    3.9718   69.1590   60.1799 H   0  0  0  0  0  0
    6.0325   68.3771   61.3230 H   0  0  0  0  0  0
    6.1420   68.3311   63.7950 H   0  0  0  0  0  0
    1.6166   56.8703   72.7829 H   0  0  0  0  0  0
    2.0191   57.3287   71.1235 H   0  0  0  0  0  0
    2.9141   58.0430   72.5236 H   0  0  0  0  0  0
   -2.6397   61.1530   73.3248 H   0  0  0  0  0  0
   -1.4944   62.4795   73.0919 H   0  0  0  0  0  0
   -2.3803   61.7638   71.6862 H   0  0  0  0  0  0
    5.1245   67.3071   65.6962 H   0  0  0  0  0  0
  1  2  2  0  0  0
  1  6  1  0  0  0
  1 25  1  0  0  0
  2  3  1  0  0  0
  2 27  1  0  0  0
  3  4  2  0  0  0
  3 29  1  0  0  0
  4  5  1  0  0  0
  4  9  1  0  0  0
  5  6  2  0  0  0
  5  7  1  0  0  0
  6 30  1  0  0  0
  7  8  1  0  0  0
  7 24  2  0  0  0
  8  9  1  0  0  0
  8 10  1  0  0  0
  8 31  1  0  0  0
  9 32  1  0  0  0
  9 33  1  0  0  0
 10 11  1  0  0  0
 10 34  1  0  0  0
 10 35  1  0  0  0
 11 12  1  0  0  0
 11 16  1  0  0  0
 11 36  1  0  0  0
 12 13  1  0  0  0
 12 37  1  0  0  0
 12 38  1  0  0  0
 13 14  1  0  0  0
 13 39  1  0  0  0
 13 40  1  0  0  0
 14 15  1  0  0  0
 14 17  1  0  0  0
 14 58  1  0  0  0
 15 16  1  0  0  0
 15 41  1  0  0  0
 15 42  1  0  0  0
 16 43  1  0  0  0
 16 44  1  0  0  0
 17 18  1  0  0  0
 17 45  1  0  0  0
 17 46  1  0  0  0
 18 19  1  0  0  0
 18 23  2  0  0  0
 19 20  2  0  0  0
 19 47  1  0  0  0
 20 21  1  0  0  0
 20 48  1  0  0  0
 21 22  2  0  0  0
 21 49  1  0  0  0
 22 23  1  0  0  0
 22 50  1  0  0  0
 23 51  1  0  0  0
 25 26  1  0  0  0
 26 52  1  0  0  0
 26 53  1  0  0  0
 26 54  1  0  0  0
 27 28  1  0  0  0
 28 55  1  0  0  0
 28 56  1  0  0  0
 28 57  1  0  0  0
M  CHG  1  11   1
M  END
>  <ACTIVITY>
6.32

>  <SET>
1

>  <Min_dist>
999.9

>  <Avg_dist>
999.9

$$$$
3-15b
  Cerius2 12110213523D 1   1.00000                          
Structure written by Cerius2 SD Exporter
 58 61  0  0  0  0  0  0  0  0999 V2000
    1.1840   59.8832   71.5292 C   0  0  0  0  0  0
    0.1890   60.8918   71.6610 C   0  0  0  0  0  0
    0.3161   62.1072   70.9710 C   0  0  0  0  0  0
    1.4220   62.3006   70.1561 C   0  0  0  0  0  0
    2.3811   61.3057   70.0405 C   0  0  0  0  0  0
    2.2956   60.0957   70.7075 C   0  0  0  0  0  0
    3.4174   61.7703   69.1240 C   0  0  0  0  0  0
    3.0031   63.1117   68.5362 C   0  0  0  0  0  0
    1.7711   63.5283   69.3728 C   0  0  0  0  0  0
    4.1529   64.1227   68.5769 C   0  0  0  0  0  0
    3.8096   65.5196   68.0230 N   0  3  0  0  0  0
    5.0113   66.4609   68.1933 C   0  0  0  0  0  0
    4.7431   67.8356   67.5802 C   0  0  0  0  0  0
    4.4019   67.7239   66.1508 N   0  3  0  0  0  0
    3.1944   66.8955   65.9805 C   0  0  0  0  0  0
    3.3999   65.4862   66.5449 C   0  0  0  0  0  0
    4.2023   69.0768   65.5863 C   0  0  0  0  0  0
    4.1336   69.0906   64.0719 C   0  0  0  0  0  0
    2.9764   69.5327   63.4138 C   0  0  0  0  0  0
    2.9196   69.5558   62.0188 C   0  0  0  0  0  0
    4.0176   69.1404   61.2674 C   0  0  0  0  0  0
    5.1743   68.7016   61.9090 C   0  0  0  0  0  0
    5.2333   68.6774   63.3036 C   0  0  0  0  0  0
    4.4304   61.1373   68.8649 O   0  0  0  0  0  0
    0.9635   58.7327   72.2501 O   0  0  0  0  0  0
    1.9433   57.7011   72.1503 C   0  0  0  0  0  0
   -0.8609   60.5832   72.4944 O   0  0  0  0  0  0
   -1.8878   61.5617   72.6429 C   0  0  0  0  0  0
   -0.4165   62.9040   71.0555 H   0  0  0  0  0  0
    3.0809   59.3614   70.5701 H   0  0  0  0  0  0
    2.6952   62.9134   67.5022 H   0  0  0  0  0  0
    0.9459   63.8317   68.7204 H   0  0  0  0  0  0
    2.0008   64.3456   70.0649 H   0  0  0  0  0  0
    4.5017   64.2243   69.6137 H   0  0  0  0  0  0
    5.0050   63.7123   68.0184 H   0  0  0  0  0  0
    2.9750   65.9362   68.6014 H   0  0  0  0  0  0
    5.2420   66.5807   69.2588 H   0  0  0  0  0  0
    5.9013   66.0217   67.7236 H   0  0  0  0  0  0
    3.9420   68.3396   68.1367 H   0  0  0  0  0  0
    5.6514   68.4393   67.6977 H   0  0  0  0  0  0
    2.3282   67.3624   66.4680 H   0  0  0  0  0  0
    2.9506   66.7895   64.9173 H   0  0  0  0  0  0
    4.1668   64.9666   65.9558 H   0  0  0  0  0  0
    2.4674   64.9243   66.4214 H   0  0  0  0  0  0
    3.3086   69.5486   66.0164 H   0  0  0  0  0  0
    5.0485   69.7219   65.8599 H   0  0  0  0  0  0
    2.1088   69.8618   63.9847 H   0  0  0  0  0  0
    2.0162   69.8994   61.5174 H   0  0  0  0  0  0
    3.9718   69.1590   60.1799 H   0  0  0  0  0  0
    6.0325   68.3771   61.3230 H   0  0  0  0  0  0
    6.1420   68.3311   63.7950 H   0  0  0  0  0  0
    1.6166   56.8703   72.7829 H   0  0  0  0  0  0
    2.0191   57.3287   71.1235 H   0  0  0  0  0  0
    2.9141   58.0430   72.5236 H   0  0  0  0  0  0
   -2.6397   61.1530   73.3248 H   0  0  0  0  0  0
   -1.4944   62.4795   73.0919 H   0  0  0  0  0  0
   -2.3803   61.7638   71.6862 H   0  0  0  0  0  0
    5.0864   67.3290   65.7202 H   0  0  0  0  0  0
  1  2  2  0  0  0
  1  6  1  0  0  0
  1 25  1  0  0  0
  2  3  1  0  0  0
  2 27  1  0  0  0
  3  4  2  0  0  0
  3 29  1  0  0  0
  4  5  1  0  0  0
  4  9  1  0  0  0
  5  6  2  0  0  0
  5  7  1  0  0  0
  6 30  1  0  0  0
  7  8  1  0  0  0
  7 24  2  0  0  0
  8  9  1  0  0  0
  8 10  1  0  0  0
  8 31  1  0  0  0
  9 32  1  0  0  0
  9 33  1  0  0  0
 10 11  1  0  0  0
 10 34  1  0  0  0
 10 35  1  0  0  0
 11 12  1  0  0  0
 11 16  1  0  0  0
 11 36  1  0  0  0
 12 13  1  0  0  0
 12 37  1  0  0  0
 12 38  1  0  0  0
 13 14  1  0  0  0
 13 39  1  0  0  0
 13 40  1  0  0  0
 14 15  1  0  0  0
 14 17  1  0  0  0
 14 58  1  0  0  0
 15 16  1  0  0  0
 15 41  1  0  0  0
 15 42  1  0  0  0
 16 43  1  0  0  0
 16 44  1  0  0  0
 17 18  1  0  0  0
 17 45  1  0  0  0
 17 46  1  0  0  0
 18 19  1  0  0  0
 18 23  2  0  0  0
 19 20  2  0  0  0
 19 47  1  0  0  0
 20 21  1  0  0  0
 20 48  1  0  0  0
 21 22  2  0  0  0
 21 49  1  0  0  0
 22 23  1  0  0  0
 22 50  1  0  0  0
 23 51  1  0  0  0
 25 26  1  0  0  0
 26 52  1  0  0  0
 26 53  1  0  0  0
 26 54  1  0  0  0
 27 28  1  0  0  0
 28 55  1  0  0  0
 28 56  1  0  0  0
 28 57  1  0  0  0
M  CHG  2  11   1  14   1
M  END
>  <ACTIVITY>
7.03

>  <SET>
2

>  <Min_dist>
0.15

>  <Avg_dist>
0.55

$$$$
3-16a
  Cerius2 12110213523D 1   1.00000                          
Structure written by Cerius2 SD Exporter
 61 64  0  0  0  0  0  0  0  0999 V2000
    1.1840   59.8832   71.5292 C   0  0  0  0  0  0
    0.1890   60.8918   71.6610 C   0  0  0  0  0  0
    0.3161   62.1072   70.9710 C   0  0  0  0  0  0
    1.4220   62.3006   70.1561 C   0  0  0  0  0  0
    2.3811   61.3057   70.0405 C   0  0  0  0  0  0
    2.2956   60.0957   70.7075 C   0  0  0  0  0  0
    3.4174   61.7703   69.1240 C   0  0  0  0  0  0
    3.0031   63.1117   68.5362 C   0  0  0  0  0  0
    1.7711   63.5283   69.3728 C   0  0  0  0  0  0
    4.1529   64.1227   68.5769 C   0  0  0  0  0  0
    3.8096   65.5196   68.0230 C   0  0  0  0  0  0
    5.0113   66.4609   68.1933 C   0  0  0  0  0  0
    4.7431   67.8356   67.5802 C   0  0  0  0  0  0
    4.4019   67.7239   66.1508 N   0  3  0  0  0  0
    3.1944   66.8955   65.9805 C   0  0  0  0  0  0
    3.3999   65.4862   66.5449 C   0  0  0  0  0  0
    4.2023   69.0768   65.5863 C   0  0  0  0  0  0
    4.1336   69.0906   64.0719 C   0  0  0  0  0  0
    2.9764   69.5327   63.4138 C   0  0  0  0  0  0
    2.9196   69.5558   62.0188 C   0  0  0  0  0  0
    4.0176   69.1404   61.2674 C   0  0  0  0  0  0
    5.1743   68.7016   61.9090 C   0  0  0  0  0  0
    5.2333   68.6774   63.3036 C   0  0  0  0  0  0
    4.4304   61.1373   68.8649 O   0  0  0  0  0  0
    0.9635   58.7327   72.2501 O   0  0  0  0  0  0
    1.9433   57.7011   72.1503 C   0  0  0  0  0  0
   -0.8609   60.5832   72.4944 O   0  0  0  0  0  0
   -1.8878   61.5617   72.6429 C   0  0  0  0  0  0
   -0.4165   62.9040   71.0555 H   0  0  0  0  0  0
    3.0809   59.3614   70.5701 H   0  0  0  0  0  0
    2.6952   62.9134   67.5022 H   0  0  0  0  0  0
    0.9459   63.8317   68.7204 H   0  0  0  0  0  0
    2.0008   64.3456   70.0649 H   0  0  0  0  0  0
    4.5017   64.2243   69.6137 H   0  0  0  0  0  0
    5.0050   63.7123   68.0184 H   0  0  0  0  0  0
    2.9750   65.9362   68.6014 H   0  0  0  0  0  0
    5.2420   66.5807   69.2588 H   0  0  0  0  0  0
    5.9013   66.0217   67.7236 H   0  0  0  0  0  0
    3.9420   68.3396   68.1367 H   0  0  0  0  0  0
    5.6514   68.4393   67.6977 H   0  0  0  0  0  0
    2.3282   67.3624   66.4680 H   0  0  0  0  0  0
    2.9506   66.7895   64.9173 H   0  0  0  0  0  0
    4.1668   64.9666   65.9558 H   0  0  0  0  0  0
    2.4674   64.9243   66.4214 H   0  0  0  0  0  0
    3.3086   69.5486   66.0164 H   0  0  0  0  0  0
    5.0485   69.7219   65.8599 H   0  0  0  0  0  0
    2.1088   69.8618   63.9847 H   0  0  0  0  0  0
    2.0162   69.8994   61.5174 H   0  0  0  0  0  0
    3.9718   69.1590   60.1799 H   0  0  0  0  0  0
    6.0325   68.3771   61.3230 H   0  0  0  0  0  0
    6.1420   68.3311   63.7950 C   0  0  0  0  0  0
    1.6166   56.8703   72.7829 H   0  0  0  0  0  0
    2.0191   57.3287   71.1235 H   0  0  0  0  0  0
    2.9141   58.0430   72.5236 H   0  0  0  0  0  0
   -2.6397   61.1530   73.3248 H   0  0  0  0  0  0
   -1.4944   62.4795   73.0919 H   0  0  0  0  0  0
   -2.3803   61.7638   71.6862 H   0  0  0  0  0  0
    5.0864   67.3290   65.7202 H   0  0  0  0  0  0
    7.0670   68.2442   63.1738 H   0  0  0  0  0  0
    6.5530   68.9300   64.6379 H   0  0  0  0  0  0
    6.1056   67.3015   64.2195 H   0  0  0  0  0  0
  1  2  2  0  0  0
  1  6  1  0  0  0
  1 25  1  0  0  0
  2  3  1  0  0  0
  2 27  1  0  0  0
  3  4  2  0  0  0
  3 29  1  0  0  0
  4  5  1  0  0  0
  4  9  1  0  0  0
  5  6  2  0  0  0
  5  7  1  0  0  0
  6 30  1  0  0  0
  7  8  1  0  0  0
  7 24  2  0  0  0
  8  9  1  0  0  0
  8 10  1  0  0  0
  8 31  1  0  0  0
  9 32  1  0  0  0
  9 33  1  0  0  0
 10 11  1  0  0  0
 10 34  1  0  0  0
 10 35  1  0  0  0
 11 12  1  0  0  0
 11 16  1  0  0  0
 11 36  1  0  0  0
 12 13  1  0  0  0
 12 37  1  0  0  0
 12 38  1  0  0  0
 13 14  1  0  0  0
 13 39  1  0  0  0
 13 40  1  0  0  0
 14 15  1  0  0  0
 14 17  1  0  0  0
 14 58  1  0  0  0
 15 16  1  0  0  0
 15 41  1  0  0  0
 15 42  1  0  0  0
 16 43  1  0  0  0
 16 44  1  0  0  0
 17 18  1  0  0  0
 17 45  1  0  0  0
 17 46  1  0  0  0
 18 19  1  0  0  0
 18 23  2  0  0  0
 19 20  2  0  0  0
 19 47  1  0  0  0
 20 21  1  0  0  0
 20 48  1  0  0  0
 21 22  2  0  0  0
 21 49  1  0  0  0
 22 23  1  0  0  0
 22 50  1  0  0  0
 23 51  1  0  0  0
 25 26  1  0  0  0
 26 52  1  0  0  0
 26 53  1  0  0  0
 26 54  1  0  0  0
 27 28  1  0  0  0
 28 55  1  0  0  0
 28 56  1  0  0  0
 28 57  1  0  0  0
 51 59  1  0  0  0
 51 60  1  0  0  0
 51 61  1  0  0  0
M  CHG  1  14   1
M  END
>  <ACTIVITY>
8

>  <SET>
1

>  <Min_dist>
999.9

>  <Avg_dist>
999.9

$$$$
3-16b
  Cerius2 12110213523D 1   1.00000                          
Structure written by Cerius2 SD Exporter
 61 64  0  0  0  0  0  0  0  0999 V2000
    1.1840   59.8832   71.5292 C   0  0  0  0  0  0
    0.1890   60.8918   71.6610 C   0  0  0  0  0  0
    0.3161   62.1072   70.9710 C   0  0  0  0  0  0
    1.4220   62.3006   70.1561 C   0  0  0  0  0  0
    2.3811   61.3057   70.0405 C   0  0  0  0  0  0
    2.2956   60.0957   70.7075 C   0  0  0  0  0  0
    3.4174   61.7703   69.1240 C   0  0  0  0  0  0
    3.0031   63.1117   68.5362 C   0  0  0  0  0  0
    1.7711   63.5283   69.3728 C   0  0  0  0  0  0
    4.1529   64.1227   68.5769 C   0  0  0  0  0  0
    3.8096   65.5196   68.0230 C   0  0  0  0  0  0
    5.0113   66.4609   68.1933 C   0  0  0  0  0  0
    4.7431   67.8356   67.5802 C   0  0  0  0  0  0
    4.4019   67.7239   66.1508 N   0  3  0  0  0  0
    3.1944   66.8955   65.9805 C   0  0  0  0  0  0
    3.3999   65.4862   66.5449 C   0  0  0  0  0  0
    4.2023   69.0768   65.5863 C   0  0  0  0  0  0
    4.1336   69.0906   64.0719 C   0  0  0  0  0  0
    2.9764   69.5327   63.4138 C   0  0  0  0  0  0
    2.9196   69.5558   62.0188 C   0  0  0  0  0  0
    4.0176   69.1404   61.2674 C   0  0  0  0  0  0
    5.1743   68.7016   61.9090 C   0  0  0  0  0  0
    5.2333   68.6774   63.3036 C   0  0  0  0  0  0
    4.4304   61.1373   68.8649 O   0  0  0  0  0  0
    0.9635   58.7327   72.2501 O   0  0  0  0  0  0
    1.9433   57.7011   72.1503 C   0  0  0  0  0  0
   -0.8609   60.5832   72.4944 O   0  0  0  0  0  0
   -1.8878   61.5617   72.6429 C   0  0  0  0  0  0
   -0.4165   62.9040   71.0555 H   0  0  0  0  0  0
    3.0809   59.3614   70.5701 H   0  0  0  0  0  0
    2.6952   62.9134   67.5022 H   0  0  0  0  0  0
    0.9459   63.8317   68.7204 H   0  0  0  0  0  0
    2.0008   64.3456   70.0649 H   0  0  0  0  0  0
    4.5017   64.2243   69.6137 H   0  0  0  0  0  0
    5.0050   63.7123   68.0184 H   0  0  0  0  0  0
    2.9750   65.9362   68.6014 H   0  0  0  0  0  0
    5.2420   66.5807   69.2588 H   0  0  0  0  0  0
    5.9013   66.0217   67.7236 H   0  0  0  0  0  0
    3.9420   68.3396   68.1367 H   0  0  0  0  0  0
    5.6514   68.4393   67.6977 H   0  0  0  0  0  0
    2.3282   67.3624   66.4680 H   0  0  0  0  0  0
    2.9506   66.7895   64.9173 H   0  0  0  0  0  0
    4.1668   64.9666   65.9558 H   0  0  0  0  0  0
    2.4674   64.9243   66.4214 H   0  0  0  0  0  0
    3.3086   69.5486   66.0164 H   0  0  0  0  0  0
    5.0485   69.7219   65.8599 H   0  0  0  0  0  0
    2.1088   69.8618   63.9847 H   0  0  0  0  0  0
    2.0162   69.8994   61.5174 H   0  0  0  0  0  0
    3.9718   69.1590   60.1799 H   0  0  0  0  0  0
    6.3753   68.2592   61.0896 C   0  0  0  0  0  0
    1.6166   56.8703   72.7829 H   0  0  0  0  0  0
    2.0191   57.3287   71.1235 H   0  0  0  0  0  0
    2.9141   58.0430   72.5236 H   0  0  0  0  0  0
   -2.6397   61.1530   73.3248 H   0  0  0  0  0  0
   -1.4944   62.4795   73.0919 H   0  0  0  0  0  0
   -2.3803   61.7638   71.6862 H   0  0  0  0  0  0
    5.0864   67.3290   65.7202 H   0  0  0  0  0  0
    6.1824   68.3515   63.7819 H   0  0  0  0  0  0
    7.3148   68.4392   61.6323 H   0  0  0  0  0  0
    6.3187   67.1836   60.8552 H   0  0  0  0  0  0
    6.4235   68.8079   60.1367 H   0  0  0  0  0  0
  1  2  2  0  0  0
  1  6  1  0  0  0
  1 25  1  0  0  0
  2  3  1  0  0  0
  2 27  1  0  0  0
  3  4  2  0  0  0
  3 29  1  0  0  0
  4  5  1  0  0  0
  4  9  1  0  0  0
  5  6  2  0  0  0
  5  7  1  0  0  0
  6 30  1  0  0  0
  7  8  1  0  0  0
  7 24  2  0  0  0
  8  9  1  0  0  0
  8 10  1  0  0  0
  8 31  1  0  0  0
  9 32  1  0  0  0
  9 33  1  0  0  0
 10 11  1  0  0  0
 10 34  1  0  0  0
 10 35  1  0  0  0
 11 12  1  0  0  0
 11 16  1  0  0  0
 11 36  1  0  0  0
 12 13  1  0  0  0
 12 37  1  0  0  0
 12 38  1  0  0  0
 13 14  1  0  0  0
 13 39  1  0  0  0
 13 40  1  0  0  0
 14 15  1  0  0  0
 14 17  1  0  0  0
 14 57  1  0  0  0
 15 16  1  0  0  0
 15 41  1  0  0  0
 15 42  1  0  0  0
 16 43  1  0  0  0
 16 44  1  0  0  0
 17 18  1  0  0  0
 17 45  1  0  0  0
 17 46  1  0  0  0
 18 19  1  0  0  0
 18 23  2  0  0  0
 19 20  2  0  0  0
 19 47  1  0  0  0
 20 21  1  0  0  0
 20 48  1  0  0  0
 21 22  2  0  0  0
 21 49  1  0  0  0
 22 23  1  0  0  0
 22 50  1  0  0  0
 23 58  1  0  0  0
 25 26  1  0  0  0
 26 51  1  0  0  0
 26 52  1  0  0  0
 26 53  1  0  0  0
 27 28  1  0  0  0
 28 54  1  0  0  0
 28 55  1  0  0  0
 28 56  1  0  0  0
 50 59  1  0  0  0
 50 60  1  0  0  0
 50 61  1  0  0  0
M  CHG  1  14   1
M  END
>  <ACTIVITY>
8.7

>  <SET>
1

>  <Min_dist>
999.9

>  <Avg_dist>
999.9

$$$$
3-16c
  Cerius2 12110213523D 1   1.00000                          
Structure written by Cerius2 SD Exporter
 61 64  0  0  0  0  0  0  0  0999 V2000
    1.1840   59.8832   71.5292 C   0  0  0  0  0  0
    0.1890   60.8918   71.6610 C   0  0  0  0  0  0
    0.3161   62.1072   70.9710 C   0  0  0  0  0  0
    1.4220   62.3006   70.1561 C   0  0  0  0  0  0
    2.3811   61.3057   70.0405 C   0  0  0  0  0  0
    2.2956   60.0957   70.7075 C   0  0  0  0  0  0
    3.4174   61.7703   69.1240 C   0  0  0  0  0  0
    3.0031   63.1117   68.5362 C   0  0  0  0  0  0
    1.7711   63.5283   69.3728 C   0  0  0  0  0  0
    4.1529   64.1227   68.5769 C   0  0  0  0  0  0
    3.8096   65.5196   68.0230 C   0  0  0  0  0  0
    5.0113   66.4609   68.1933 C   0  0  0  0  0  0
    4.7431   67.8356   67.5802 C   0  0  0  0  0  0
    4.4019   67.7239   66.1508 N   0  3  0  0  0  0
    3.1944   66.8955   65.9805 C   0  0  0  0  0  0
    3.3999   65.4862   66.5449 C   0  0  0  0  0  0
    4.2023   69.0768   65.5863 C   0  0  0  0  0  0
    4.1336   69.0906   64.0719 C   0  0  0  0  0  0
    2.9764   69.5327   63.4138 C   0  0  0  0  0  0
    2.9196   69.5558   62.0188 C   0  0  0  0  0  0
    4.0176   69.1404   61.2674 C   0  0  0  0  0  0
    5.1743   68.7016   61.9090 C   0  0  0  0  0  0
    5.2333   68.6774   63.3036 C   0  0  0  0  0  0
    4.4304   61.1373   68.8649 O   0  0  0  0  0  0
    0.9635   58.7327   72.2501 O   0  0  0  0  0  0
    1.9433   57.7011   72.1503 C   0  0  0  0  0  0
   -0.8609   60.5832   72.4944 O   0  0  0  0  0  0
   -1.8878   61.5617   72.6429 C   0  0  0  0  0  0
   -0.4165   62.9040   71.0555 H   0  0  0  0  0  0
    3.0809   59.3614   70.5701 H   0  0  0  0  0  0
    2.6952   62.9134   67.5022 H   0  0  0  0  0  0
    0.9459   63.8317   68.7204 H   0  0  0  0  0  0
    2.0008   64.3456   70.0649 H   0  0  0  0  0  0
    4.5017   64.2243   69.6137 H   0  0  0  0  0  0
    5.0050   63.7123   68.0184 H   0  0  0  0  0  0
    2.9750   65.9362   68.6014 H   0  0  0  0  0  0
    5.2420   66.5807   69.2588 H   0  0  0  0  0  0
    5.9013   66.0217   67.7236 H   0  0  0  0  0  0
    3.9420   68.3396   68.1367 H   0  0  0  0  0  0
    5.6514   68.4393   67.6977 H   0  0  0  0  0  0
    2.3282   67.3624   66.4680 H   0  0  0  0  0  0
    2.9506   66.7895   64.9173 H   0  0  0  0  0  0
    4.1668   64.9666   65.9558 H   0  0  0  0  0  0
    2.4674   64.9243   66.4214 H   0  0  0  0  0  0
    3.3086   69.5486   66.0164 H   0  0  0  0  0  0
    5.0485   69.7219   65.8599 H   0  0  0  0  0  0
    2.1088   69.8618   63.9847 H   0  0  0  0  0  0
    2.0162   69.8994   61.5174 H   0  0  0  0  0  0
    3.9552   69.1719   59.7493 C   0  0  0  0  0  0
    6.0325   68.3771   61.3230 H   0  0  0  0  0  0
    1.6166   56.8703   72.7829 H   0  0  0  0  0  0
    2.0191   57.3287   71.1235 H   0  0  0  0  0  0
    2.9141   58.0430   72.5236 H   0  0  0  0  0  0
   -2.6397   61.1530   73.3248 H   0  0  0  0  0  0
   -1.4944   62.4795   73.0919 H   0  0  0  0  0  0
   -2.3803   61.7638   71.6862 H   0  0  0  0  0  0
    5.0864   67.3290   65.7202 H   0  0  0  0  0  0
    6.0265   68.3780   63.7321 H   0  0  0  0  0  0
    4.9538   69.3325   59.3165 H   0  0  0  0  0  0
    3.5626   68.2222   59.3508 H   0  0  0  0  0  0
    3.2988   69.9822   59.3983 H   0  0  0  0  0  0
  1  2  2  0  0  0
  1  6  1  0  0  0
  1 25  1  0  0  0
  2  3  1  0  0  0
  2 27  1  0  0  0
  3  4  2  0  0  0
  3 29  1  0  0  0
  4  5  1  0  0  0
  4  9  1  0  0  0
  5  6  2  0  0  0
  5  7  1  0  0  0
  6 30  1  0  0  0
  7  8  1  0  0  0
  7 24  2  0  0  0
  8  9  1  0  0  0
  8 10  1  0  0  0
  8 31  1  0  0  0
  9 32  1  0  0  0
  9 33  1  0  0  0
 10 11  1  0  0  0
 10 34  1  0  0  0
 10 35  1  0  0  0
 11 12  1  0  0  0
 11 16  1  0  0  0
 11 36  1  0  0  0
 12 13  1  0  0  0
 12 37  1  0  0  0
 12 38  1  0  0  0
 13 14  1  0  0  0
 13 39  1  0  0  0
 13 40  1  0  0  0
 14 15  1  0  0  0
 14 17  1  0  0  0
 14 57  1  0  0  0
 15 16  1  0  0  0
 15 41  1  0  0  0
 15 42  1  0  0  0
 16 43  1  0  0  0
 16 44  1  0  0  0
 17 18  1  0  0  0
 17 45  1  0  0  0
 17 46  1  0  0  0
 18 19  1  0  0  0
 18 23  2  0  0  0
 19 20  2  0  0  0
 19 47  1  0  0  0
 20 21  1  0  0  0
 20 48  1  0  0  0
 21 22  2  0  0  0
 21 49  1  0  0  0
 22 23  1  0  0  0
 22 50  1  0  0  0
 23 58  1  0  0  0
 25 26  1  0  0  0
 26 51  1  0  0  0
 26 52  1  0  0  0
 26 53  1  0  0  0
 27 28  1  0  0  0
 28 54  1  0  0  0
 28 55  1  0  0  0
 28 56  1  0  0  0
 49 59  1  0  0  0
 49 60  1  0  0  0
 49 61  1  0  0  0
M  CHG  1  14   1
M  END
>  <ACTIVITY>
7.4

>  <SET>
1

>  <Min_dist>
999.9

>  <Avg_dist>
999.9

$$$$
3-16d
  Cerius2 12110213523D 1   1.00000                          
Structure written by Cerius2 SD Exporter
 60 63  0  0  0  0  0  0  0  0999 V2000
    1.1840   59.8832   71.5292 C   0  0  0  0  0  0
    0.1890   60.8918   71.6610 C   0  0  0  0  0  0
    0.3161   62.1072   70.9710 C   0  0  0  0  0  0
    1.4220   62.3006   70.1561 C   0  0  0  0  0  0
    2.3811   61.3057   70.0405 C   0  0  0  0  0  0
    2.2956   60.0957   70.7075 C   0  0  0  0  0  0
    3.4174   61.7703   69.1240 C   0  0  0  0  0  0
    3.0031   63.1117   68.5362 C   0  0  0  0  0  0
    1.7711   63.5283   69.3728 C   0  0  0  0  0  0
    4.1529   64.1227   68.5769 C   0  0  0  0  0  0
    3.8096   65.5196   68.0230 C   0  0  0  0  0  0
    5.0113   66.4609   68.1933 C   0  0  0  0  0  0
    4.7431   67.8356   67.5802 C   0  0  0  0  0  0
    4.4019   67.7239   66.1508 N   0  3  0  0  0  0
    3.1944   66.8955   65.9805 C   0  0  0  0  0  0
    3.3999   65.4862   66.5449 C   0  0  0  0  0  0
    4.2023   69.0768   65.5863 C   0  0  0  0  0  0
    4.1336   69.0906   64.0719 C   0  0  0  0  0  0
    2.9764   69.5327   63.4138 C   0  0  0  0  0  0
    2.9196   69.5558   62.0188 C   0  0  0  0  0  0
    4.0176   69.1404   61.2674 C   0  0  0  0  0  0
    5.1743   68.7016   61.9090 C   0  0  0  0  0  0
    5.2333   68.6774   63.3036 C   0  0  0  0  0  0
    4.4304   61.1373   68.8649 O   0  0  0  0  0  0
    0.9635   58.7327   72.2501 O   0  0  0  0  0  0
    1.9433   57.7011   72.1503 C   0  0  0  0  0  0
   -0.8609   60.5832   72.4944 O   0  0  0  0  0  0
   -1.8878   61.5617   72.6429 C   0  0  0  0  0  0
   -0.4165   62.9040   71.0555 H   0  0  0  0  0  0
    3.0809   59.3614   70.5701 H   0  0  0  0  0  0
    2.6952   62.9134   67.5022 H   0  0  0  0  0  0
    0.9459   63.8317   68.7204 H   0  0  0  0  0  0
    2.0008   64.3456   70.0649 H   0  0  0  0  0  0
    4.5017   64.2243   69.6137 H   0  0  0  0  0  0
    5.0050   63.7123   68.0184 H   0  0  0  0  0  0
    2.9750   65.9362   68.6014 H   0  0  0  0  0  0
    5.2420   66.5807   69.2588 H   0  0  0  0  0  0
    5.9013   66.0217   67.7236 H   0  0  0  0  0  0
    3.9420   68.3396   68.1367 H   0  0  0  0  0  0
    5.6514   68.4393   67.6977 H   0  0  0  0  0  0
    2.3282   67.3624   66.4680 H   0  0  0  0  0  0
    2.9506   66.7895   64.9173 H   0  0  0  0  0  0
    4.1668   64.9666   65.9558 H   0  0  0  0  0  0
    2.4674   64.9243   66.4214 H   0  0  0  0  0  0
    3.3086   69.5486   66.0164 H   0  0  0  0  0  0
    5.0485   69.7219   65.8599 H   0  0  0  0  0  0
    2.1088   69.8618   63.9847 H   0  0  0  0  0  0
    2.0162   69.8994   61.5174 H   0  0  0  0  0  0
    3.9718   69.1590   60.1799 H   0  0  0  0  0  0
    6.0325   68.3771   61.3230 H   0  0  0  0  0  0
    1.6166   56.8703   72.7829 H   0  0  0  0  0  0
    2.0191   57.3287   71.1235 H   0  0  0  0  0  0
    2.9141   58.0430   72.5236 H   0  0  0  0  0  0
   -2.6397   61.1530   73.3248 H   0  0  0  0  0  0
   -1.4944   62.4795   73.0919 H   0  0  0  0  0  0
   -2.3803   61.7638   71.6862 H   0  0  0  0  0  0
    5.0864   67.3290   65.7202 H   0  0  0  0  0  0
    6.4445   68.0776   63.9013 N   0  3  0  0  0  0
    6.7832   66.9912   63.4732 O   0  0  0  0  0  0
    6.9547   68.6271   64.8569 O   0  5  0  0  0  0
  1  2  2  0  0  0
  1  6  1  0  0  0
  1 25  1  0  0  0
  2  3  1  0  0  0
  2 27  1  0  0  0
  3  4  2  0  0  0
  3 29  1  0  0  0
  4  5  1  0  0  0
  4  9  1  0  0  0
  5  6  2  0  0  0
  5  7  1  0  0  0
  6 30  1  0  0  0
  7  8  1  0  0  0
  7 24  2  0  0  0
  8  9  1  0  0  0
  8 10  1  0  0  0
  8 31  1  0  0  0
  9 32  1  0  0  0
  9 33  1  0  0  0
 10 11  1  0  0  0
 10 34  1  0  0  0
 10 35  1  0  0  0
 11 12  1  0  0  0
 11 16  1  0  0  0
 11 36  1  0  0  0
 12 13  1  0  0  0
 12 37  1  0  0  0
 12 38  1  0  0  0
 13 14  1  0  0  0
 13 39  1  0  0  0
 13 40  1  0  0  0
 14 15  1  0  0  0
 14 17  1  0  0  0
 14 57  1  0  0  0
 15 16  1  0  0  0
 15 41  1  0  0  0
 15 42  1  0  0  0
 16 43  1  0  0  0
 16 44  1  0  0  0
 17 18  1  0  0  0
 17 45  1  0  0  0
 17 46  1  0  0  0
 18 19  1  0  0  0
 18 23  2  0  0  0
 19 20  2  0  0  0
 19 47  1  0  0  0
 20 21  1  0  0  0
 20 48  1  0  0  0
 21 22  2  0  0  0
 21 49  1  0  0  0
 22 23  1  0  0  0
 22 50  1  0  0  0
 23 58  1  0  0  0
 25 26  1  0  0  0
 26 51  1  0  0  0
 26 52  1  0  0  0
 26 53  1  0  0  0
 27 28  1  0  0  0
 28 54  1  0  0  0
 28 55  1  0  0  0
 28 56  1  0  0  0
 58 59  2  0  0  0
 58 60  1  0  0  0
M  CHG  3  14   1  58   1  60  -1
M  END
>  <ACTIVITY>
6.8

>  <SET>
1

>  <Min_dist>
999.9

>  <Avg_dist>
999.9

$$$$
3-16e
  Cerius2 12110213523D 1   1.00000                          
Structure written by Cerius2 SD Exporter
 60 63  0  0  0  0  0  0  0  0999 V2000
    1.1840   59.8832   71.5292 C   0  0  0  0  0  0
    0.1890   60.8918   71.6610 C   0  0  0  0  0  0
    0.3161   62.1072   70.9710 C   0  0  0  0  0  0
    1.4220   62.3006   70.1561 C   0  0  0  0  0  0
    2.3811   61.3057   70.0405 C   0  0  0  0  0  0
    2.2956   60.0957   70.7075 C   0  0  0  0  0  0
    3.4174   61.7703   69.1240 C   0  0  0  0  0  0
    3.0031   63.1117   68.5362 C   0  0  0  0  0  0
    1.7711   63.5283   69.3728 C   0  0  0  0  0  0
    4.1529   64.1227   68.5769 C   0  0  0  0  0  0
    3.8096   65.5196   68.0230 C   0  0  0  0  0  0
    5.0113   66.4609   68.1933 C   0  0  0  0  0  0
    4.7431   67.8356   67.5802 C   0  0  0  0  0  0
    4.4019   67.7239   66.1508 N   0  3  0  0  0  0
    3.1944   66.8955   65.9805 C   0  0  0  0  0  0
    3.3999   65.4862   66.5449 C   0  0  0  0  0  0
    4.2023   69.0768   65.5863 C   0  0  0  0  0  0
    4.1336   69.0906   64.0719 C   0  0  0  0  0  0
    2.9764   69.5327   63.4138 C   0  0  0  0  0  0
    2.9196   69.5558   62.0188 C   0  0  0  0  0  0
    4.0176   69.1404   61.2674 C   0  0  0  0  0  0
    5.1743   68.7016   61.9090 C   0  0  0  0  0  0
    5.2333   68.6774   63.3036 C   0  0  0  0  0  0
    4.4304   61.1373   68.8649 O   0  0  0  0  0  0
    0.9635   58.7327   72.2501 O   0  0  0  0  0  0
    1.9433   57.7011   72.1503 C   0  0  0  0  0  0
   -0.8609   60.5832   72.4944 O   0  0  0  0  0  0
   -1.8878   61.5617   72.6429 C   0  0  0  0  0  0
   -0.4165   62.9040   71.0555 H   0  0  0  0  0  0
    3.0809   59.3614   70.5701 H   0  0  0  0  0  0
    2.6952   62.9134   67.5022 H   0  0  0  0  0  0
    0.9459   63.8317   68.7204 H   0  0  0  0  0  0
    2.0008   64.3456   70.0649 H   0  0  0  0  0  0
    4.5017   64.2243   69.6137 H   0  0  0  0  0  0
    5.0050   63.7123   68.0184 H   0  0  0  0  0  0
    2.9750   65.9362   68.6014 H   0  0  0  0  0  0
    5.2420   66.5807   69.2588 H   0  0  0  0  0  0
    5.9013   66.0217   67.7236 H   0  0  0  0  0  0
    3.9420   68.3396   68.1367 H   0  0  0  0  0  0
    5.6514   68.4393   67.6977 H   0  0  0  0  0  0
    2.3282   67.3624   66.4680 H   0  0  0  0  0  0
    2.9506   66.7895   64.9173 H   0  0  0  0  0  0
    4.1668   64.9666   65.9558 H   0  0  0  0  0  0
    2.4674   64.9243   66.4214 H   0  0  0  0  0  0
    3.3086   69.5486   66.0164 H   0  0  0  0  0  0
    5.0485   69.7219   65.8599 H   0  0  0  0  0  0
    2.1088   69.8618   63.9847 H   0  0  0  0  0  0
    2.0162   69.8994   61.5174 H   0  0  0  0  0  0
    3.9718   69.1590   60.1799 H   0  0  0  0  0  0
    1.6166   56.8703   72.7829 H   0  0  0  0  0  0
    2.0191   57.3287   71.1235 H   0  0  0  0  0  0
    2.9141   58.0430   72.5236 H   0  0  0  0  0  0
   -2.6397   61.1530   73.3248 H   0  0  0  0  0  0
   -1.4944   62.4795   73.0919 H   0  0  0  0  0  0
   -2.3803   61.7638   71.6862 H   0  0  0  0  0  0
    5.0864   67.3290   65.7202 H   0  0  0  0  0  0
    6.0265   68.3780   63.7321 H   0  0  0  0  0  0
    6.3443   68.2465   61.1202 N   0  3  0  0  0  0
    7.3367   67.8956   61.7368 O   0  0  0  0  0  0
    6.2493   68.2430   59.9068 O   0  5  0  0  0  0
  1  2  2  0  0  0
  1  6  1  0  0  0
  1 25  1  0  0  0
  2  3  1  0  0  0
  2 27  1  0  0  0
  3  4  2  0  0  0
  3 29  1  0  0  0
  4  5  1  0  0  0
  4  9  1  0  0  0
  5  6  2  0  0  0
  5  7  1  0  0  0
  6 30  1  0  0  0
  7  8  1  0  0  0
  7 24  2  0  0  0
  8  9  1  0  0  0
  8 10  1  0  0  0
  8 31  1  0  0  0
  9 32  1  0  0  0
  9 33  1  0  0  0
 10 11  1  0  0  0
 10 34  1  0  0  0
 10 35  1  0  0  0
 11 12  1  0  0  0
 11 16  1  0  0  0
 11 36  1  0  0  0
 12 13  1  0  0  0
 12 37  1  0  0  0
 12 38  1  0  0  0
 13 14  1  0  0  0
 13 39  1  0  0  0
 13 40  1  0  0  0
 14 15  1  0  0  0
 14 17  1  0  0  0
 14 56  1  0  0  0
 15 16  1  0  0  0
 15 41  1  0  0  0
 15 42  1  0  0  0
 16 43  1  0  0  0
 16 44  1  0  0  0
 17 18  1  0  0  0
 17 45  1  0  0  0
 17 46  1  0  0  0
 18 19  1  0  0  0
 18 23  2  0  0  0
 19 20  2  0  0  0
 19 47  1  0  0  0
 20 21  1  0  0  0
 20 48  1  0  0  0
 21 22  2  0  0  0
 21 49  1  0  0  0
 22 23  1  0  0  0
 22 58  1  0  0  0
 23 57  1  0  0  0
 25 26  1  0  0  0
 26 50  1  0  0  0
 26 51  1  0  0  0
 26 52  1  0  0  0
 27 28  1  0  0  0
 28 53  1  0  0  0
 28 54  1  0  0  0
 28 55  1  0  0  0
 58 59  2  0  0  0
 58 60  1  0  0  0
M  CHG  3  14   1  58   1  60  -1
M  END
>  <ACTIVITY>
8.4

>  <SET>
2

>  <Min_dist>
0.11

>  <Avg_dist>
0.51

$$$$
3-16f
  Cerius2 12110213523D 1   1.00000                          
Structure written by Cerius2 SD Exporter
 60 63  0  0  0  0  0  0  0  0999 V2000
    1.1840   59.8832   71.5292 C   0  0  0  0  0  0
    0.1890   60.8918   71.6610 C   0  0  0  0  0  0
    0.3161   62.1072   70.9710 C   0  0  0  0  0  0
    1.4220   62.3006   70.1561 C   0  0  0  0  0  0
    2.3811   61.3057   70.0405 C   0  0  0  0  0  0
    2.2956   60.0957   70.7075 C   0  0  0  0  0  0
    3.4174   61.7703   69.1240 C   0  0  0  0  0  0
    3.0031   63.1117   68.5362 C   0  0  0  0  0  0
    1.7711   63.5283   69.3728 C   0  0  0  0  0  0
    4.1529   64.1227   68.5769 C   0  0  0  0  0  0
    3.8096   65.5196   68.0230 C   0  0  0  0  0  0
    5.0113   66.4609   68.1933 C   0  0  0  0  0  0
    4.7431   67.8356   67.5802 C   0  0  0  0  0  0
    4.4019   67.7239   66.1508 N   0  3  0  0  0  0
    3.1944   66.8955   65.9805 C   0  0  0  0  0  0
    3.3999   65.4862   66.5449 C   0  0  0  0  0  0
    4.2023   69.0768   65.5863 C   0  0  0  0  0  0
    4.1336   69.0906   64.0719 C   0  0  0  0  0  0
    2.9764   69.5327   63.4138 C   0  0  0  0  0  0
    2.9196   69.5558   62.0188 C   0  0  0  0  0  0
    4.0176   69.1404   61.2674 C   0  0  0  0  0  0
    5.1743   68.7016   61.9090 C   0  0  0  0  0  0
    5.2333   68.6774   63.3036 C   0  0  0  0  0  0
    4.4304   61.1373   68.8649 O   0  0  0  0  0  0
    0.9635   58.7327   72.2501 O   0  0  0  0  0  0
    1.9433   57.7011   72.1503 C   0  0  0  0  0  0
   -0.8609   60.5832   72.4944 O   0  0  0  0  0  0
   -1.8878   61.5617   72.6429 C   0  0  0  0  0  0
   -0.4165   62.9040   71.0555 H   0  0  0  0  0  0
    3.0809   59.3614   70.5701 H   0  0  0  0  0  0
    2.6952   62.9134   67.5022 H   0  0  0  0  0  0
    0.9459   63.8317   68.7204 H   0  0  0  0  0  0
    2.0008   64.3456   70.0649 H   0  0  0  0  0  0
    4.5017   64.2243   69.6137 H   0  0  0  0  0  0
    5.0050   63.7123   68.0184 H   0  0  0  0  0  0
    2.9750   65.9362   68.6014 H   0  0  0  0  0  0
    5.2420   66.5807   69.2588 H   0  0  0  0  0  0
    5.9013   66.0217   67.7236 H   0  0  0  0  0  0
    3.9420   68.3396   68.1367 H   0  0  0  0  0  0
    5.6514   68.4393   67.6977 H   0  0  0  0  0  0
    2.3282   67.3624   66.4680 H   0  0  0  0  0  0
    2.9506   66.7895   64.9173 H   0  0  0  0  0  0
    4.1668   64.9666   65.9558 H   0  0  0  0  0  0
    2.4674   64.9243   66.4214 H   0  0  0  0  0  0
    3.3086   69.5486   66.0164 H   0  0  0  0  0  0
    5.0485   69.7219   65.8599 H   0  0  0  0  0  0
    2.1088   69.8618   63.9847 H   0  0  0  0  0  0
    2.0162   69.8994   61.5174 H   0  0  0  0  0  0
    6.0325   68.3771   61.3230 H   0  0  0  0  0  0
    1.6166   56.8703   72.7829 H   0  0  0  0  0  0
    2.0191   57.3287   71.1235 H   0  0  0  0  0  0
    2.9141   58.0430   72.5236 H   0  0  0  0  0  0
   -2.6397   61.1530   73.3248 H   0  0  0  0  0  0
   -1.4944   62.4795   73.0919 H   0  0  0  0  0  0
   -2.3803   61.7638   71.6862 H   0  0  0  0  0  0
    5.0864   67.3290   65.7202 H   0  0  0  0  0  0
    6.0265   68.3780   63.7321 H   0  0  0  0  0  0
    3.9489   69.1492   59.7866 N   0  3  0  0  0  0
    4.9426   68.8069   59.1702 O   0  0  0  0  0  0
    2.9001   69.4911   59.2692 O   0  5  0  0  0  0
  1  2  2  0  0  0
  1  6  1  0  0  0
  1 25  1  0  0  0
  2  3  1  0  0  0
  2 27  1  0  0  0
  3  4  2  0  0  0
  3 29  1  0  0  0
  4  5  1  0  0  0
  4  9  1  0  0  0
  5  6  2  0  0  0
  5  7  1  0  0  0
  6 30  1  0  0  0
  7  8  1  0  0  0
  7 24  2  0  0  0
  8  9  1  0  0  0
  8 10  1  0  0  0
  8 31  1  0  0  0
  9 32  1  0  0  0
  9 33  1  0  0  0
 10 11  1  0  0  0
 10 34  1  0  0  0
 10 35  1  0  0  0
 11 12  1  0  0  0
 11 16  1  0  0  0
 11 36  1  0  0  0
 12 13  1  0  0  0
 12 37  1  0  0  0
 12 38  1  0  0  0
 13 14  1  0  0  0
 13 39  1  0  0  0
 13 40  1  0  0  0
 14 15  1  0  0  0
 14 17  1  0  0  0
 14 56  1  0  0  0
 15 16  1  0  0  0
 15 41  1  0  0  0
 15 42  1  0  0  0
 16 43  1  0  0  0
 16 44  1  0  0  0
 17 18  1  0  0  0
 17 45  1  0  0  0
 17 46  1  0  0  0
 18 19  1  0  0  0
 18 23  2  0  0  0
 19 20  2  0  0  0
 19 47  1  0  0  0
 20 21  1  0  0  0
 20 48  1  0  0  0
 21 22  2  0  0  0
 21 58  1  0  0  0
 22 23  1  0  0  0
 22 49  1  0  0  0
 23 57  1  0  0  0
 25 26  1  0  0  0
 26 50  1  0  0  0
 26 51  1  0  0  0
 26 52  1  0  0  0
 27 28  1  0  0  0
 28 53  1  0  0  0
 28 54  1  0  0  0
 28 55  1  0  0  0
 58 59  2  0  0  0
 58 60  1  0  0  0
M  CHG  3  14   1  58   1  60  -1
M  END
>  <ACTIVITY>
7

>  <SET>
1

>  <Min_dist>
999.9

>  <Avg_dist>
999.9

$$$$
3-16g
  Cerius2 12110213523D 1   1.00000                          
Structure written by Cerius2 SD Exporter
 64 67  0  0  0  0  0  0  0  0999 V2000
    1.1840   59.8832   71.5292 C   0  0  0  0  0  0
    0.1890   60.8918   71.6610 C   0  0  0  0  0  0
    0.3161   62.1072   70.9710 C   0  0  0  0  0  0
    1.4220   62.3006   70.1561 C   0  0  0  0  0  0
    2.3811   61.3057   70.0405 C   0  0  0  0  0  0
    2.2956   60.0957   70.7075 C   0  0  0  0  0  0
    3.4174   61.7703   69.1240 C   0  0  0  0  0  0
    3.0031   63.1117   68.5362 C   0  0  0  0  0  0
    1.7711   63.5283   69.3728 C   0  0  0  0  0  0
    4.1529   64.1227   68.5769 C   0  0  0  0  0  0
    3.8096   65.5196   68.0230 C   0  0  0  0  0  0
    5.0113   66.4609   68.1933 C   0  0  0  0  0  0
    4.7431   67.8356   67.5802 C   0  0  0  0  0  0
    4.4019   67.7239   66.1508 N   0  3  0  0  0  0
    3.1944   66.8955   65.9805 C   0  0  0  0  0  0
    3.3999   65.4862   66.5449 C   0  0  0  0  0  0
    4.2023   69.0768   65.5863 C   0  0  0  0  0  0
    4.0796   69.1475   64.0317 C   0  0  0  0  0  0
    2.6205   69.2401   63.5060 C   0  0  0  0  0  0
    2.5667   69.3440   61.9669 C   0  0  0  0  0  0
    3.3705   70.5555   61.4568 C   0  0  0  0  0  0
    4.8218   70.5095   61.9703 C   0  0  0  0  0  0
    4.8720   70.3815   63.5072 C   0  0  0  0  0  0
    4.4304   61.1373   68.8649 O   0  0  0  0  0  0
    0.9635   58.7327   72.2501 O   0  0  0  0  0  0
    1.9433   57.7011   72.1503 C   0  0  0  0  0  0
   -0.8609   60.5832   72.4944 O   0  0  0  0  0  0
   -1.8878   61.5617   72.6429 C   0  0  0  0  0  0
   -0.4165   62.9040   71.0555 H   0  0  0  0  0  0
    3.0809   59.3614   70.5701 H   0  0  0  0  0  0
    2.6952   62.9134   67.5022 H   0  0  0  0  0  0
    0.9459   63.8317   68.7204 H   0  0  0  0  0  0
    2.0008   64.3456   70.0649 H   0  0  0  0  0  0
    4.5017   64.2243   69.6137 H   0  0  0  0  0  0
    5.0050   63.7123   68.0184 H   0  0  0  0  0  0
    2.9750   65.9362   68.6014 H   0  0  0  0  0  0
    5.2420   66.5807   69.2588 H   0  0  0  0  0  0
    5.9013   66.0217   67.7236 H   0  0  0  0  0  0
    3.9420   68.3396   68.1367 H   0  0  0  0  0  0
    5.6514   68.4393   67.6977 H   0  0  0  0  0  0
    2.3282   67.3624   66.4680 H   0  0  0  0  0  0
    2.9506   66.7895   64.9173 H   0  0  0  0  0  0
    4.1668   64.9666   65.9558 H   0  0  0  0  0  0
    2.4674   64.9243   66.4214 H   0  0  0  0  0  0
    3.3086   69.5486   66.0164 H   0  0  0  0  0  0
    5.0485   69.7219   65.8599 H   0  0  0  0  0  0
    2.0029   68.3877   63.8342 H   0  0  0  0  0  0
    1.5176   69.4117   61.6269 H   0  0  0  0  0  0
    2.8887   71.4865   61.8072 H   0  0  0  0  0  0
    5.3396   69.6463   61.5137 H   0  0  0  0  0  0
    1.6166   56.8703   72.7829 H   0  0  0  0  0  0
    2.0191   57.3287   71.1235 H   0  0  0  0  0  0
    2.9141   58.0430   72.5236 H   0  0  0  0  0  0
   -2.6397   61.1530   73.3248 H   0  0  0  0  0  0
   -1.4944   62.4795   73.0919 H   0  0  0  0  0  0
   -2.3803   61.7638   71.6862 H   0  0  0  0  0  0
    5.0864   67.3290   65.7202 H   0  0  0  0  0  0
    5.9274   70.3349   63.8328 H   0  0  0  0  0  0
    4.5510   68.2631   63.5551 H   0  0  0  0  0  0
    2.1386   70.1417   63.9305 H   0  0  0  0  0  0
    2.9770   68.4214   61.5174 H   0  0  0  0  0  0
    3.3524   70.5952   60.3529 H   0  0  0  0  0  0
    5.3744   71.4091   61.6443 H   0  0  0  0  0  0
    4.4501   71.3019   63.9531 H   0  0  0  0  0  0
  1  2  2  0  0  0
  1  6  1  0  0  0
  1 25  1  0  0  0
  2  3  1  0  0  0
  2 27  1  0  0  0
  3  4  2  0  0  0
  3 29  1  0  0  0
  4  5  1  0  0  0
  4  9  1  0  0  0
  5  6  2  0  0  0
  5  7  1  0  0  0
  6 30  1  0  0  0
  7  8  1  0  0  0
  7 24  2  0  0  0
  8  9  1  0  0  0
  8 10  1  0  0  0
  8 31  1  0  0  0
  9 32  1  0  0  0
  9 33  1  0  0  0
 10 11  1  0  0  0
 10 34  1  0  0  0
 10 35  1  0  0  0
 11 12  1  0  0  0
 11 16  1  0  0  0
 11 36  1  0  0  0
 12 13  1  0  0  0
 12 37  1  0  0  0
 12 38  1  0  0  0
 13 14  1  0  0  0
 13 39  1  0  0  0
 13 40  1  0  0  0
 14 15  1  0  0  0
 14 17  1  0  0  0
 14 57  1  0  0  0
 15 16  1  0  0  0
 15 41  1  0  0  0
 15 42  1  0  0  0
 16 43  1  0  0  0
 16 44  1  0  0  0
 17 18  1  0  0  0
 17 45  1  0  0  0
 17 46  1  0  0  0
 18 19  1  0  0  0
 18 23  1  0  0  0
 18 59  1  0  0  0
 19 20  1  0  0  0
 19 47  1  0  0  0
 19 60  1  0  0  0
 20 21  1  0  0  0
 20 48  1  0  0  0
 20 61  1  0  0  0
 21 22  1  0  0  0
 21 49  1  0  0  0
 21 62  1  0  0  0
 22 23  1  0  0  0
 22 50  1  0  0  0
 22 63  1  0  0  0
 23 58  1  0  0  0
 23 64  1  0  0  0
 25 26  1  0  0  0
 26 51  1  0  0  0
 26 52  1  0  0  0
 26 53  1  0  0  0
 27 28  1  0  0  0
 28 54  1  0  0  0
 28 55  1  0  0  0
 28 56  1  0  0  0
M  CHG  1  14   1
M  END
>  <ACTIVITY>
8.05

>  <SET>
1

>  <Min_dist>
999.9

>  <Avg_dist>
999.9

$$$$
3-16h
  Cerius2 12110213523D 1   1.00000                          
Structure written by Cerius2 SD Exporter
 61 64  0  0  0  0  0  0  0  0999 V2000
    3.9228   69.2533   65.6043 C   0  0  0  0  0  0
    4.3912   69.8092   62.8621 C   0  0  0  0  0  0
    3.1883   70.2222   62.2703 C   0  0  0  0  0  0
    3.0437   70.2173   60.8814 C   0  0  0  0  0  0
    4.0985   69.8028   60.0701 C   0  0  0  0  0  0
    5.2998   69.3928   60.6455 C   0  0  0  0  0  0
    5.4466   69.3966   62.0337 C   0  0  0  0  0  0
    2.8216   69.3369   65.5667 H   0  0  0  0  0  0
    4.2475   69.8909   66.4537 H   0  0  0  0  0  0
    2.3362   70.5410   62.9044 H   0  0  0  0  0  0
    2.0855   70.5348   60.4279 H   0  0  0  0  0  0
    3.9812   69.7949   58.9694 H   0  0  0  0  0  0
    6.1372   69.0549   60.0053 H   0  0  0  0  0  0
    6.2696   69.1167   62.4168 H   0  0  0  0  0  0
    4.6303   69.9226   64.3817 C   0  0  0  0  0  0
    4.4312   70.9851   64.6255 H   0  0  0  0  0  0
    5.7199   69.8336   64.5451 H   0  0  0  0  0  0
    1.1840   59.8832   71.5292 C   0  0  0  0  0  0
    0.1890   60.8918   71.6610 C   0  0  0  0  0  0
    0.3161   62.1072   70.9710 C   0  0  0  0  0  0
    1.4220   62.3006   70.1561 C   0  0  0  0  0  0
    2.3811   61.3057   70.0405 C   0  0  0  0  0  0
    2.2956   60.0957   70.7075 C   0  0  0  0  0  0
    3.4174   61.7703   69.1240 C   0  0  0  0  0  0
    3.0031   63.1117   68.5362 C   0  0  0  0  0  0
    1.7711   63.5283   69.3728 C   0  0  0  0  0  0
    4.1529   64.1227   68.5769 C   0  0  0  0  0  0
    3.8096   65.5196   68.0230 C   0  0  0  0  0  0
    5.0113   66.4609   68.1933 C   0  0  0  0  0  0
    4.7431   67.8356   67.5802 C   0  0  0  0  0  0
    4.4019   67.7239   66.1508 N   0  3  0  0  0  0
    3.1944   66.8955   65.9805 C   0  0  0  0  0  0
    3.3999   65.4862   66.5449 C   0  0  0  0  0  0
    4.4304   61.1373   68.8649 O   0  0  0  0  0  0
    0.9635   58.7327   72.2501 O   0  0  0  0  0  0
    1.9433   57.7011   72.1503 C   0  0  0  0  0  0
   -0.8609   60.5832   72.4944 O   0  0  0  0  0  0
   -1.8878   61.5617   72.6429 C   0  0  0  0  0  0
   -0.4165   62.9040   71.0555 H   0  0  0  0  0  0
    3.0809   59.3614   70.5701 H   0  0  0  0  0  0
    2.6952   62.9134   67.5022 H   0  0  0  0  0  0
    0.9459   63.8317   68.7204 H   0  0  0  0  0  0
    2.0008   64.3456   70.0649 H   0  0  0  0  0  0
    4.5017   64.2243   69.6137 H   0  0  0  0  0  0
    5.0050   63.7123   68.0184 H   0  0  0  0  0  0
    2.9750   65.9362   68.6014 H   0  0  0  0  0  0
    5.2420   66.5807   69.2588 H   0  0  0  0  0  0
    5.9013   66.0217   67.7236 H   0  0  0  0  0  0
    3.9420   68.3396   68.1367 H   0  0  0  0  0  0
    5.6514   68.4393   67.6977 H   0  0  0  0  0  0
    2.3282   67.3624   66.4680 H   0  0  0  0  0  0
    2.9506   66.7895   64.9173 H   0  0  0  0  0  0
    4.1668   64.9666   65.9558 H   0  0  0  0  0  0
    2.4674   64.9243   66.4214 H   0  0  0  0  0  0
    1.6166   56.8703   72.7829 H   0  0  0  0  0  0
    2.0191   57.3287   71.1235 H   0  0  0  0  0  0
    2.9141   58.0430   72.5236 H   0  0  0  0  0  0
   -2.6397   61.1530   73.3248 H   0  0  0  0  0  0
   -1.4944   62.4795   73.0919 H   0  0  0  0  0  0
   -2.3803   61.7638   71.6862 H   0  0  0  0  0  0
    5.0864   67.3290   65.7202 H   0  0  0  0  0  0
  1  8  1  0  0  0
  1  9  1  0  0  0
  1 15  1  0  0  0
  1 31  1  0  0  0
  2  3  1  0  0  0
  2  7  2  0  0  0
  2 15  1  0  0  0
  3  4  2  0  0  0
  3 10  1  0  0  0
  4  5  1  0  0  0
  4 11  1  0  0  0
  5  6  2  0  0  0
  5 12  1  0  0  0
  6  7  1  0  0  0
  6 13  1  0  0  0
  7 14  1  0  0  0
 15 16  1  0  0  0
 15 17  1  0  0  0
 18 19  2  0  0  0
 18 23  1  0  0  0
 18 35  1  0  0  0
 19 20  1  0  0  0
 19 37  1  0  0  0
 20 21  2  0  0  0
 20 39  1  0  0  0
 21 22  1  0  0  0
 21 26  1  0  0  0
 22 23  2  0  0  0
 22 24  1  0  0  0
 23 40  1  0  0  0
 24 25  1  0  0  0
 24 34  2  0  0  0
 25 26  1  0  0  0
 25 27  1  0  0  0
 25 41  1  0  0  0
 26 42  1  0  0  0
 26 43  1  0  0  0
 27 28  1  0  0  0
 27 44  1  0  0  0
 27 45  1  0  0  0
 28 29  1  0  0  0
 28 33  1  0  0  0
 28 46  1  0  0  0
 29 30  1  0  0  0
 29 47  1  0  0  0
 29 48  1  0  0  0
 30 31  1  0  0  0
 30 49  1  0  0  0
 30 50  1  0  0  0
 31 32  1  0  0  0
 31 61  1  0  0  0
 32 33  1  0  0  0
 32 51  1  0  0  0
 32 52  1  0  0  0
 33 53  1  0  0  0
 33 54  1  0  0  0
 35 36  1  0  0  0
 36 55  1  0  0  0
 36 56  1  0  0  0
 36 57  1  0  0  0
 37 38  1  0  0  0
 38 58  1  0  0  0
 38 59  1  0  0  0
 38 60  1  0  0  0
M  CHG  1  31   1
M  END
>  <ACTIVITY>
6.74

>  <SET>
2

>  <Min_dist>
0.13

>  <Avg_dist>
0.48

$$$$
3-17
  Cerius2 12110213523D 1   1.00000                          
Structure written by Cerius2 SD Exporter
 60 63  0  0  0  0  0  0  0  0999 V2000
    1.1840   59.8832   71.5292 C   0  0  0  0  0  0
    0.1890   60.8918   71.6610 C   0  0  0  0  0  0
    0.3161   62.1072   70.9710 C   0  0  0  0  0  0
    1.4220   62.3006   70.1561 C   0  0  0  0  0  0
    2.3811   61.3057   70.0405 C   0  0  0  0  0  0
    2.2956   60.0957   70.7075 C   0  0  0  0  0  0
    3.4998   61.7288   69.0936 C   0  0  0  0  0  0
    3.0031   63.1117   68.5362 C   0  0  0  0  0  0
    1.7711   63.5283   69.3728 C   0  0  0  0  0  0
    4.1529   64.1227   68.5769 C   0  0  0  0  0  0
    3.8096   65.5196   68.0230 C   0  0  0  0  0  0
    5.0113   66.4609   68.1933 C   0  0  0  0  0  0
    4.7431   67.8356   67.5802 C   0  0  0  0  0  0
    4.4019   67.7239   66.1508 N   0  3  0  0  0  0
    3.1944   66.8955   65.9805 C   0  0  0  0  0  0
    3.3999   65.4862   66.5449 C   0  0  0  0  0  0
    4.2023   69.0768   65.5863 C   0  0  0  0  0  0
    4.1336   69.0906   64.0719 C   0  0  0  0  0  0
    2.9764   69.5327   63.4138 C   0  0  0  0  0  0
    2.9196   69.5558   62.0188 C   0  0  0  0  0  0
    4.0176   69.1404   61.2674 C   0  0  0  0  0  0
    5.1743   68.7016   61.9090 C   0  0  0  0  0  0
    5.2333   68.6774   63.3036 C   0  0  0  0  0  0
    3.7408   60.7436   68.0892 O   0  0  0  0  0  0
    0.9635   58.7327   72.2501 O   0  0  0  0  0  0
    1.9433   57.7011   72.1503 C   0  0  0  0  0  0
   -0.8609   60.5832   72.4944 O   0  0  0  0  0  0
   -1.8878   61.5617   72.6429 C   0  0  0  0  0  0
   -0.4165   62.9040   71.0555 H   0  0  0  0  0  0
    3.0809   59.3614   70.5701 H   0  0  0  0  0  0
    2.6952   62.9134   67.5022 H   0  0  0  0  0  0
    0.9459   63.8317   68.7204 H   0  0  0  0  0  0
    2.0008   64.3456   70.0649 H   0  0  0  0  0  0
    4.5017   64.2243   69.6137 H   0  0  0  0  0  0
    5.0050   63.7123   68.0184 H   0  0  0  0  0  0
    2.9750   65.9362   68.6014 H   0  0  0  0  0  0
    5.2420   66.5807   69.2588 H   0  0  0  0  0  0
    5.9013   66.0217   67.7236 H   0  0  0  0  0  0
    3.9420   68.3396   68.1367 H   0  0  0  0  0  0
    5.6514   68.4393   67.6977 H   0  0  0  0  0  0
    2.3282   67.3624   66.4680 H   0  0  0  0  0  0
    2.9506   66.7895   64.9173 H   0  0  0  0  0  0
    4.1668   64.9666   65.9558 H   0  0  0  0  0  0
    2.4674   64.9243   66.4214 H   0  0  0  0  0  0
    3.3086   69.5486   66.0164 H   0  0  0  0  0  0
    5.0485   69.7219   65.8599 H   0  0  0  0  0  0
    2.1088   69.8618   63.9847 H   0  0  0  0  0  0
    2.0162   69.8994   61.5174 H   0  0  0  0  0  0
    3.9718   69.1590   60.1799 H   0  0  0  0  0  0
    6.0325   68.3771   61.3230 H   0  0  0  0  0  0
    6.1420   68.3311   63.7950 H   0  0  0  0  0  0
    1.6166   56.8703   72.7829 H   0  0  0  0  0  0
    2.0191   57.3287   71.1235 H   0  0  0  0  0  0
    2.9141   58.0430   72.5236 H   0  0  0  0  0  0
   -2.6397   61.1530   73.3248 H   0  0  0  0  0  0
   -1.4944   62.4795   73.0919 H   0  0  0  0  0  0
   -2.3803   61.7638   71.6862 H   0  0  0  0  0  0
    4.4334   61.8202   69.6697 H   0  0  0  0  0  0
    2.8885   60.3076   67.9549 H   0  0  0  0  0  0
    5.0864   67.3290   65.7202 H   0  0  0  0  0  0
  1  2  2  0  0  0
  1  6  1  0  0  0
  1 25  1  0  0  0
  2  3  1  0  0  0
  2 27  1  0  0  0
  3  4  2  0  0  0
  3 29  1  0  0  0
  4  5  1  0  0  0
  4  9  1  0  0  0
  5  6  2  0  0  0
  5  7  1  0  0  0
  6 30  1  0  0  0
  7  8  1  0  0  0
  7 24  1  0  0  0
  7 58  1  0  0  0
  8  9  1  0  0  0
  8 10  1  0  0  0
  8 31  1  0  0  0
  9 32  1  0  0  0
  9 33  1  0  0  0
 10 11  1  0  0  0
 10 34  1  0  0  0
 10 35  1  0  0  0
 11 12  1  0  0  0
 11 16  1  0  0  0
 11 36  1  0  0  0
 12 13  1  0  0  0
 12 37  1  0  0  0
 12 38  1  0  0  0
 13 14  1  0  0  0
 13 39  1  0  0  0
 13 40  1  0  0  0
 14 15  1  0  0  0
 14 17  1  0  0  0
 14 60  1  0  0  0
 15 16  1  0  0  0
 15 41  1  0  0  0
 15 42  1  0  0  0
 16 43  1  0  0  0
 16 44  1  0  0  0
 17 18  1  0  0  0
 17 45  1  0  0  0
 17 46  1  0  0  0
 18 19  1  0  0  0
 18 23  2  0  0  0
 19 20  2  0  0  0
 19 47  1  0  0  0
 20 21  1  0  0  0
 20 48  1  0  0  0
 21 22  2  0  0  0
 21 49  1  0  0  0
 22 23  1  0  0  0
 22 50  1  0  0  0
 23 51  1  0  0  0
 24 59  1  0  0  0
 25 26  1  0  0  0
 26 52  1  0  0  0
 26 53  1  0  0  0
 26 54  1  0  0  0
 27 28  1  0  0  0
 28 55  1  0  0  0
 28 56  1  0  0  0
 28 57  1  0  0  0
M  CHG  1  14   1
M  END
>  <ACTIVITY>
6.52

>  <SET>
2

>  <Min_dist>
0.16

>  <Avg_dist>
0.52

$$$$
3-18
  Cerius2 12110213523D 1   1.00000                          
Structure written by Cerius2 SD Exporter
 57 60  0  0  0  0  0  0  0  0999 V2000
    1.1840   59.8832   71.5292 C   0  0  0  0  0  0
    0.1890   60.8918   71.6610 C   0  0  0  0  0  0
    0.3161   62.1072   70.9710 C   0  0  0  0  0  0
    1.4220   62.3006   70.1561 C   0  0  0  0  0  0
    2.3811   61.3057   70.0405 C   0  0  0  0  0  0
    2.2956   60.0957   70.7075 C   0  0  0  0  0  0
    3.4174   61.7703   69.1240 C   0  0  0  0  0  0
    3.0031   63.1117   68.5362 C   0  0  0  0  0  0
    1.7711   63.5283   69.3728 C   0  0  0  0  0  0
    4.1529   64.1227   68.5769 C   0  0  0  0  0  0
    3.8096   65.5196   68.0230 C   0  0  0  0  0  0
    5.0113   66.4609   68.1933 C   0  0  0  0  0  0
    4.7431   67.8356   67.5802 C   0  0  0  0  0  0
    4.4019   67.7239   66.1508 N   0  3  0  0  0  0
    3.1944   66.8955   65.9805 C   0  0  0  0  0  0
    3.3999   65.4862   66.5449 C   0  0  0  0  0  0
    4.2023   69.0768   65.5863 C   0  0  0  0  0  0
    4.1336   69.0906   64.0719 C   0  0  0  0  0  0
    2.9764   69.5327   63.4138 C   0  0  0  0  0  0
    2.9196   69.5558   62.0188 C   0  0  0  0  0  0
    4.0176   69.1404   61.2674 C   0  0  0  0  0  0
    5.1743   68.7016   61.9090 C   0  0  0  0  0  0
    5.2333   68.6774   63.3036 C   0  0  0  0  0  0
    0.9635   58.7327   72.2501 O   0  0  0  0  0  0
    1.9433   57.7011   72.1503 C   0  0  0  0  0  0
   -0.8609   60.5832   72.4944 O   0  0  0  0  0  0
   -1.8878   61.5617   72.6429 C   0  0  0  0  0  0
   -0.4165   62.9040   71.0555 H   0  0  0  0  0  0
    3.0809   59.3614   70.5701 H   0  0  0  0  0  0
    0.9459   63.8317   68.7204 H   0  0  0  0  0  0
    2.0008   64.3456   70.0649 H   0  0  0  0  0  0
    4.5017   64.2243   69.6137 H   0  0  0  0  0  0
    5.0050   63.7123   68.0184 H   0  0  0  0  0  0
    2.9750   65.9362   68.6014 H   0  0  0  0  0  0
    5.2420   66.5807   69.2588 H   0  0  0  0  0  0
    5.9013   66.0217   67.7236 H   0  0  0  0  0  0
    3.9420   68.3396   68.1367 H   0  0  0  0  0  0
    5.6514   68.4393   67.6977 H   0  0  0  0  0  0
    2.3282   67.3624   66.4680 H   0  0  0  0  0  0
    2.9506   66.7895   64.9173 H   0  0  0  0  0  0
    4.1668   64.9666   65.9558 H   0  0  0  0  0  0
    2.4674   64.9243   66.4214 H   0  0  0  0  0  0
    3.3086   69.5486   66.0164 H   0  0  0  0  0  0
    5.0485   69.7219   65.8599 H   0  0  0  0  0  0
    2.1088   69.8618   63.9847 H   0  0  0  0  0  0
    2.0162   69.8994   61.5174 H   0  0  0  0  0  0
    3.9718   69.1590   60.1799 H   0  0  0  0  0  0
    6.0325   68.3771   61.3230 H   0  0  0  0  0  0
    6.1420   68.3311   63.7950 H   0  0  0  0  0  0
    1.6166   56.8703   72.7829 H   0  0  0  0  0  0
    2.0191   57.3287   71.1235 H   0  0  0  0  0  0
    2.9141   58.0430   72.5236 H   0  0  0  0  0  0
   -2.6397   61.1530   73.3248 H   0  0  0  0  0  0
   -1.4944   62.4795   73.0919 H   0  0  0  0  0  0
   -2.3803   61.7638   71.6862 H   0  0  0  0  0  0
    4.1960   61.2449   68.9817 H   0  0  0  0  0  0
    5.0864   67.3290   65.7202 H   0  0  0  0  0  0
  1  2  2  0  0  0
  1  6  1  0  0  0
  1 24  1  0  0  0
  2  3  1  0  0  0
  2 26  1  0  0  0
  3  4  2  0  0  0
  3 28  1  0  0  0
  4  5  1  0  0  0
  4  9  1  0  0  0
  5  6  2  0  0  0
  5  7  1  0  0  0
  6 29  1  0  0  0
  7  8  2  0  0  0
  7 56  1  0  0  0
  8  9  1  0  0  0
  8 10  1  0  0  0
  9 30  1  0  0  0
  9 31  1  0  0  0
 10 11  1  0  0  0
 10 32  1  0  0  0
 10 33  1  0  0  0
 11 12  1  0  0  0
 11 16  1  0  0  0
 11 34  1  0  0  0
 12 13  1  0  0  0
 12 35  1  0  0  0
 12 36  1  0  0  0
 13 14  1  0  0  0
 13 37  1  0  0  0
 13 38  1  0  0  0
 14 15  1  0  0  0
 14 17  1  0  0  0
 14 57  1  0  0  0
 15 16  1  0  0  0
 15 39  1  0  0  0
 15 40  1  0  0  0
 16 41  1  0  0  0
 16 42  1  0  0  0
 17 18  1  0  0  0
 17 43  1  0  0  0
 17 44  1  0  0  0
 18 19  1  0  0  0
 18 23  2  0  0  0
 19 20  2  0  0  0
 19 45  1  0  0  0
 20 21  1  0  0  0
 20 46  1  0  0  0
 21 22  2  0  0  0
 21 47  1  0  0  0
 22 23  1  0  0  0
 22 48  1  0  0  0
 23 49  1  0  0  0
 24 25  1  0  0  0
 25 50  1  0  0  0
 25 51  1  0  0  0
 25 52  1  0  0  0
 26 27  1  0  0  0
 27 53  1  0  0  0
 27 54  1  0  0  0
 27 55  1  0  0  0
M  CHG  1  14   1
M  END
>  <ACTIVITY>
5.36

>  <SET>
2

>  <Min_dist>
0.28

>  <Avg_dist>
0.55

$$$$
3-9
  Cerius2 12110213523D 1   1.00000                          
Structure written by Cerius2 SD Exporter
 50 53  0  0  0  0  0  0  0  0999 V2000
    1.1840   59.8832   71.5292 C   0  0  0  0  0  0
    0.1890   60.8918   71.6610 C   0  0  0  0  0  0
    0.3161   62.1072   70.9710 C   0  0  0  0  0  0
    1.4220   62.3006   70.1561 C   0  0  0  0  0  0
    2.3811   61.3057   70.0405 C   0  0  0  0  0  0
    2.2956   60.0957   70.7075 C   0  0  0  0  0  0
    3.4174   61.7703   69.1240 C   0  0  0  0  0  0
    3.0031   63.1117   68.5362 C   0  0  0  0  0  0
    1.7711   63.5283   69.3728 C   0  0  0  0  0  0
    4.1529   64.1227   68.5769 C   0  0  0  0  0  0
    3.8096   65.5196   68.0230 C   0  0  0  0  0  0
    5.0113   66.4609   68.1933 C   0  0  0  0  0  0
    4.7431   67.8356   67.5802 C   0  0  0  0  0  0
    4.4019   67.7239   66.1508 N   0  3  0  0  0  0
    3.1944   66.8955   65.9805 C   0  0  0  0  0  0
    3.3999   65.4862   66.5449 C   0  0  0  0  0  0
    4.2023   69.0768   65.5863 C   0  0  0  0  0  0
    4.1336   69.0906   64.0719 C   0  0  0  0  0  0
    2.9764   69.5327   63.4138 C   0  0  0  0  0  0
    2.9196   69.5558   62.0188 C   0  0  0  0  0  0
    4.0176   69.1404   61.2674 C   0  0  0  0  0  0
    5.1743   68.7016   61.9090 C   0  0  0  0  0  0
    5.2333   68.6774   63.3036 C   0  0  0  0  0  0
    4.4304   61.1373   68.8649 O   0  0  0  0  0  0
   -0.4165   62.9040   71.0555 H   0  0  0  0  0  0
    3.0809   59.3614   70.5701 H   0  0  0  0  0  0
    2.6952   62.9134   67.5022 H   0  0  0  0  0  0
    0.9459   63.8317   68.7204 H   0  0  0  0  0  0
    2.0008   64.3456   70.0649 H   0  0  0  0  0  0
    4.5017   64.2243   69.6137 H   0  0  0  0  0  0
    5.0050   63.7123   68.0184 H   0  0  0  0  0  0
    2.9750   65.9362   68.6014 H   0  0  0  0  0  0
    5.2420   66.5807   69.2588 H   0  0  0  0  0  0
    5.9013   66.0217   67.7236 H   0  0  0  0  0  0
    3.9420   68.3396   68.1367 H   0  0  0  0  0  0
    5.6514   68.4393   67.6977 H   0  0  0  0  0  0
    2.3282   67.3624   66.4680 H   0  0  0  0  0  0
    2.9506   66.7895   64.9173 H   0  0  0  0  0  0
    4.1668   64.9666   65.9558 H   0  0  0  0  0  0
    2.4674   64.9243   66.4214 H   0  0  0  0  0  0
    3.3086   69.5486   66.0164 H   0  0  0  0  0  0
    5.0485   69.7219   65.8599 H   0  0  0  0  0  0
    2.1088   69.8618   63.9847 H   0  0  0  0  0  0
    2.0162   69.8994   61.5174 H   0  0  0  0  0  0
    3.9718   69.1590   60.1799 H   0  0  0  0  0  0
    6.0325   68.3771   61.3230 H   0  0  0  0  0  0
    6.1420   68.3311   63.7950 H   0  0  0  0  0  0
    1.0689   58.9314   72.0823 H   0  0  0  0  0  0
   -0.6841   60.7104   72.3164 H   0  0  0  0  0  0
    5.0864   67.3290   65.7202 H   0  0  0  0  0  0
  1  2  2  0  0  0
  1  6  1  0  0  0
  1 48  1  0  0  0
  2  3  1  0  0  0
  2 49  1  0  0  0
  3  4  2  0  0  0
  3 25  1  0  0  0
  4  5  1  0  0  0
  4  9  1  0  0  0
  5  6  2  0  0  0
  5  7  1  0  0  0
  6 26  1  0  0  0
  7  8  1  0  0  0
  7 24  2  0  0  0
  8  9  1  0  0  0
  8 10  1  0  0  0
  8 27  1  0  0  0
  9 28  1  0  0  0
  9 29  1  0  0  0
 10 11  1  0  0  0
 10 30  1  0  0  0
 10 31  1  0  0  0
 11 12  1  0  0  0
 11 16  1  0  0  0
 11 32  1  0  0  0
 12 13  1  0  0  0
 12 33  1  0  0  0
 12 34  1  0  0  0
 13 14  1  0  0  0
 13 35  1  0  0  0
 13 36  1  0  0  0
 14 15  1  0  0  0
 14 17  1  0  0  0
 14 50  1  0  0  0
 15 16  1  0  0  0
 15 37  1  0  0  0
 15 38  1  0  0  0
 16 39  1  0  0  0
 16 40  1  0  0  0
 17 18  1  0  0  0
 17 41  1  0  0  0
 17 42  1  0  0  0
 18 19  1  0  0  0
 18 23  2  0  0  0
 19 20  2  0  0  0
 19 43  1  0  0  0
 20 21  1  0  0  0
 20 44  1  0  0  0
 21 22  2  0  0  0
 21 45  1  0  0  0
 22 23  1  0  0  0
 22 46  1  0  0  0
 23 47  1  0  0  0
M  CHG  1  14   1
M  END
>  <ACTIVITY>
6.82

>  <SET>
1

>  <Min_dist>
999.9

>  <Avg_dist>
999.9

$$$$
