1-1
  Cerius2 12110214053D 1   1.00000                          
Structure written by Cerius2 SD Exporter
 39 41  0  0  0  0  0  0  0  0999 V2000
   27.7050   22.0400   17.0240 C   0  0  0  0  0  0
   26.4400   22.0980   16.4320 N   0  0  0  0  0  0
   25.5380   21.4420   17.2830 C   0  0  0  0  0  0
   26.2530   20.9750   18.3750 C   0  0  0  0  0  0
   25.8310   20.4350   19.2160 H   0  0  0  0  0  0
   27.5940   21.3610   18.2220 C   0  0  0  0  0  0
   28.4100   21.1480   18.9040 H   0  0  0  0  0  0
   24.0820   21.3670   17.1080 C   0  0  0  0  0  0
   23.4100   22.2670   16.2670 C   0  0  0  0  0  0
   23.9630   23.0300   15.7210 H   0  0  0  0  0  0
   22.0220   22.2010   16.1200 C   0  0  0  0  0  0
   21.5210   22.9040   15.4570 H   0  0  0  0  0  0
   21.2980   21.2410   16.8310 C   0  0  0  0  0  0
   21.9510   20.3400   17.6750 C   0  0  0  0  0  0
   21.3960   19.5860   18.2290 H   0  0  0  0  0  0
   23.3400   20.4120   17.8170 C   0  0  0  0  0  0
   23.8400   19.7080   18.4820 H   0  0  0  0  0  0
   19.5330   21.1460   16.6310 S   0  0  0  0  0  0
   19.0410   22.4850   16.3230 O   0  0  0  0  0  0
   18.9870   20.4580   17.7970 O   0  0  0  0  0  0
   19.3260   20.1150   15.2040 C   0  0  0  0  0  0
   18.2560   20.0120   15.0130 H   0  0  0  0  0  0
   19.7630   19.1360   15.4050 H   0  0  0  0  0  0
   19.8110   20.5900   14.3490 H   0  0  0  0  0  0
   26.1320   22.6820   15.1630 C   0  0  0  0  0  0
   26.3690   24.0460   14.9360 C   0  0  0  0  0  0
   26.7480   24.6960   15.7200 H   0  0  0  0  0  0
   26.0630   24.6120   13.6960 C   0  0  0  0  0  0
   26.2340   25.6700   13.5170 H   0  0  0  0  0  0
   25.5240   23.8180   12.6910 C   0  0  0  0  0  0
   25.2820   22.4660   12.9010 C   0  0  0  0  0  0
   24.8660   21.8590   12.1020 H   0  0  0  0  0  0
   25.5850   21.8940   14.1390 C   0  0  0  0  0  0
   25.4190   20.8270   14.2700 H   0  0  0  0  0  0
   25.2310   24.3640   11.5030 F   0  0  0  0  0  0
   28.9650   22.5440   16.4020 C   0  0  0  0  0  0
   29.8340   22.0390   16.8400 H   0  0  0  0  0  0
   29.0870   23.6160   16.5860 H   0  0  0  0  0  0
   28.9950   22.3510   15.3260 H   0  0  0  0  0  0
  1  2  1  0  0  0
  1  6  2  0  0  0
  1 36  1  0  0  0
  2  3  1  0  0  0
  2 25  1  0  0  0
  3  4  2  0  0  0
  3  8  1  0  0  0
  4  5  1  0  0  0
  4  6  1  0  0  0
  6  7  1  0  0  0
  8  9  1  0  0  0
  8 16  2  0  0  0
  9 10  1  0  0  0
  9 11  2  0  0  0
 11 12  1  0  0  0
 11 13  1  0  0  0
 13 14  2  0  0  0
 13 18  1  0  0  0
 14 15  1  0  0  0
 14 16  1  0  0  0
 16 17  1  0  0  0
 18 19  2  0  0  0
 18 20  2  0  0  0
 18 21  1  0  0  0
 21 22  1  0  0  0
 21 23  1  0  0  0
 21 24  1  0  0  0
 25 26  1  0  0  0
 25 33  2  0  0  0
 26 27  1  0  0  0
 26 28  2  0  0  0
 28 29  1  0  0  0
 28 30  1  0  0  0
 30 31  2  0  0  0
 30 35  1  0  0  0
 31 32  1  0  0  0
 31 33  1  0  0  0
 33 34  1  0  0  0
 36 37  1  0  0  0
 36 38  1  0  0  0
 36 39  1  0  0  0
M  END
>  <ACTIVITY>
7.22

>  <SET>
1

>  <Min_dist>
999.9

>  <Avg_dist>
999.9

$$$$
1-10
  Cerius2 12110214053D 1   1.00000                          
Structure written by Cerius2 SD Exporter
 42 44  0  0  0  0  0  0  0  0999 V2000
   26.4490   22.0540   16.4130 N   0  0  0  0  0  0
   25.5320   21.5430   17.3420 C   0  0  0  0  0  0
   26.2520   21.0350   18.4090 C   0  0  0  0  0  0
   25.8260   20.5490   19.2800 H   0  0  0  0  0  0
   27.6200   21.2210   18.1460 C   0  0  0  0  0  0
   28.4390   20.9300   18.7930 H   0  0  0  0  0  0
   27.7380   21.8810   16.9360 C   0  0  0  0  0  0
   28.9910   22.4040   16.2810 C   0  0  0  0  0  0
   28.7690   23.3040   15.6980 H   0  0  0  0  0  0
   29.3820   21.6440   15.5960 H   0  0  0  0  0  0
   30.0840   22.7770   17.2760 C   0  0  0  0  0  0
   30.9390   23.2120   16.7480 H   0  0  0  0  0  0
   30.4440   21.9000   17.8230 H   0  0  0  0  0  0
   29.7250   23.5120   18.0050 H   0  0  0  0  0  0
   24.0780   21.4480   17.1600 C   0  0  0  0  0  0
   23.4060   22.3000   16.2710 C   0  0  0  0  0  0
   23.9550   23.0530   15.7070 H   0  0  0  0  0  0
   22.0240   22.1950   16.0940 C   0  0  0  0  0  0
   21.5210   22.8680   15.4030 H   0  0  0  0  0  0
   21.3090   21.2300   16.8070 C   0  0  0  0  0  0
   21.9670   20.3570   17.6770 C   0  0  0  0  0  0
   21.4190   19.5940   18.2260 H   0  0  0  0  0  0
   23.3500   20.4690   17.8500 C   0  0  0  0  0  0
   23.8540   19.7880   18.5340 H   0  0  0  0  0  0
   19.5520   21.0790   16.5740 S   0  0  0  0  0  0
   19.0250   22.4050   16.2700 O   0  0  0  0  0  0
   19.0050   20.3610   17.7210 O   0  0  0  0  0  0
   19.4070   20.0550   15.1330 C   0  0  0  0  0  0
   18.3440   19.9090   14.9270 H   0  0  0  0  0  0
   19.8820   19.0930   15.3310 H   0  0  0  0  0  0
   19.8830   20.5580   14.2890 H   0  0  0  0  0  0
   26.1250   22.6670   15.1630 C   0  0  0  0  0  0
   25.5440   21.9080   14.1360 C   0  0  0  0  0  0
   25.3000   20.8570   14.2760 H   0  0  0  0  0  0
   25.2170   22.5120   12.9200 C   0  0  0  0  0  0
   24.7590   21.9320   12.1230 H   0  0  0  0  0  0
   25.4690   23.8660   12.7350 C   0  0  0  0  0  0
   26.0430   24.6310   13.7430 C   0  0  0  0  0  0
   26.2380   25.6870   13.5780 H   0  0  0  0  0  0
   26.3720   24.0340   14.9620 C   0  0  0  0  0  0
   26.8500   24.6430   15.7260 H   0  0  0  0  0  0
   25.1530   24.4420   11.5680 F   0  0  0  0  0  0
  1  2  1  0  0  0
  1  7  1  0  0  0
  1 32  1  0  0  0
  2  3  2  0  0  0
  2 15  1  0  0  0
  3  4  1  0  0  0
  3  5  1  0  0  0
  5  6  1  0  0  0
  5  7  2  0  0  0
  7  8  1  0  0  0
  8  9  1  0  0  0
  8 10  1  0  0  0
  8 11  1  0  0  0
 11 12  1  0  0  0
 11 13  1  0  0  0
 11 14  1  0  0  0
 15 16  1  0  0  0
 15 23  2  0  0  0
 16 17  1  0  0  0
 16 18  2  0  0  0
 18 19  1  0  0  0
 18 20  1  0  0  0
 20 21  2  0  0  0
 20 25  1  0  0  0
 21 22  1  0  0  0
 21 23  1  0  0  0
 23 24  1  0  0  0
 25 26  2  0  0  0
 25 27  2  0  0  0
 25 28  1  0  0  0
 28 29  1  0  0  0
 28 30  1  0  0  0
 28 31  1  0  0  0
 32 33  1  0  0  0
 32 40  2  0  0  0
 33 34  1  0  0  0
 33 35  2  0  0  0
 35 36  1  0  0  0
 35 37  1  0  0  0
 37 38  2  0  0  0
 37 42  1  0  0  0
 38 39  1  0  0  0
 38 40  1  0  0  0
 40 41  1  0  0  0
M  END
>  <ACTIVITY>
4

>  <SET>
3

>  <Min_dist>
0.08

>  <Avg_dist>
0.51

$$$$
1-16
  Cerius2 12110214053D 1   1.00000                          
Structure written by Cerius2 SD Exporter
 42 44  0  0  0  0  0  0  0  0999 V2000
   26.4190   22.0340   16.3890 N   0  0  0  0  0  0
   25.5010   21.5640   17.3390 C   0  0  0  0  0  0
   26.2230   21.1520   18.4520 C   0  0  0  0  0  0
   25.7930   20.7410   19.3590 H   0  0  0  0  0  0
   27.5930   21.2910   18.1720 C   0  0  0  0  0  0
   28.4250   21.0390   18.8200 H   0  0  0  0  0  0
   27.6890   21.8000   16.8990 C   0  0  0  0  0  0
   28.5750   22.0700   16.3400 H   0  0  0  0  0  0
   24.0530   21.4200   17.1590 C   0  0  0  0  0  0
   23.3380   20.4410   17.8640 C   0  0  0  0  0  0
   23.8530   19.7660   18.5470 H   0  0  0  0  0  0
   21.9550   20.3160   17.7020 C   0  0  0  0  0  0
   21.4200   19.5460   18.2540 H   0  0  0  0  0  0
   21.2820   21.1780   16.8330 C   0  0  0  0  0  0
   21.9760   22.1760   16.1440 C   0  0  0  0  0  0
   21.4580   22.8610   15.4770 H   0  0  0  0  0  0
   23.3590   22.2950   16.3110 C   0  0  0  0  0  0
   23.8930   23.0730   15.7660 H   0  0  0  0  0  0
   19.5200   21.0350   16.6360 S   0  0  0  0  0  0
   18.9930   22.3640   16.3420 O   0  0  0  0  0  0
   18.9940   20.3200   17.7940 O   0  0  0  0  0  0
   19.3410   20.0120   15.1990 C   0  0  0  0  0  0
   18.2740   19.8780   15.0090 H   0  0  0  0  0  0
   19.8100   19.0450   15.3900 H   0  0  0  0  0  0
   19.8100   20.5100   14.3470 H   0  0  0  0  0  0
   26.1680   22.6720   15.1290 C   0  0  0  0  0  0
   26.4240   24.0440   14.9750 C   0  0  0  0  0  0
   26.8550   24.6320   15.7820 H   0  0  0  0  0  0
   26.1640   24.6720   13.7500 C   0  0  0  0  0  0
   25.6560   23.9490   12.6700 C   0  0  0  0  0  0
   25.4570   24.4300   11.7140 H   0  0  0  0  0  0
   25.3860   22.5910   12.8250 C   0  0  0  0  0  0
   24.9700   22.0220   11.9950 H   0  0  0  0  0  0
   25.6350   21.9570   14.0470 C   0  0  0  0  0  0
   25.3580   20.9100   14.1300 H   0  0  0  0  0  0
   26.5290   26.4030   13.5590 S   0  0  0  0  0  0
   26.5920   27.0010   14.8890 O   0  0  0  0  0  0
   25.5820   26.9540   12.5950 O   0  0  0  0  0  0
   28.1530   26.4140   12.8480 C   0  0  0  0  0  0
   28.4510   27.4540   12.6990 H   0  0  0  0  0  0
   28.1260   25.8950   11.8890 H   0  0  0  0  0  0
   28.8450   25.9240   13.5360 H   0  0  0  0  0  0
  1  2  1  0  0  0
  1  7  1  0  0  0
  1 26  1  0  0  0
  2  3  2  0  0  0
  2  9  1  0  0  0
  3  4  1  0  0  0
  3  5  1  0  0  0
  5  6  1  0  0  0
  5  7  2  0  0  0
  7  8  1  0  0  0
  9 10  1  0  0  0
  9 17  2  0  0  0
 10 11  1  0  0  0
 10 12  2  0  0  0
 12 13  1  0  0  0
 12 14  1  0  0  0
 14 15  2  0  0  0
 14 19  1  0  0  0
 15 16  1  0  0  0
 15 17  1  0  0  0
 17 18  1  0  0  0
 19 20  2  0  0  0
 19 21  2  0  0  0
 19 22  1  0  0  0
 22 23  1  0  0  0
 22 24  1  0  0  0
 22 25  1  0  0  0
 26 27  1  0  0  0
 26 34  2  0  0  0
 27 28  1  0  0  0
 27 29  2  0  0  0
 29 30  1  0  0  0
 29 36  1  0  0  0
 30 31  1  0  0  0
 30 32  2  0  0  0
 32 33  1  0  0  0
 32 34  1  0  0  0
 34 35  1  0  0  0
 36 37  2  0  0  0
 36 38  2  0  0  0
 36 39  1  0  0  0
 39 40  1  0  0  0
 39 41  1  0  0  0
 39 42  1  0  0  0
M  END
>  <ACTIVITY>
4

>  <SET>
3

>  <Min_dist>
0.17

>  <Avg_dist>
0.53

$$$$
1-17
  Cerius2 12110214053D 1   1.00000                          
Structure written by Cerius2 SD Exporter
 45 47  0  0  0  0  0  0  0  0999 V2000
   26.4130   22.0400   16.3900 N   0  0  0  0  0  0
   25.4980   21.5620   17.3380 C   0  0  0  0  0  0
   26.2240   21.1430   18.4470 C   0  0  0  0  0  0
   25.7970   20.7260   19.3520 H   0  0  0  0  0  0
   27.5930   21.2830   18.1620 C   0  0  0  0  0  0
   28.4270   21.0270   18.8050 H   0  0  0  0  0  0
   27.6840   21.7990   16.8910 C   0  0  0  0  0  0
   28.5680   22.0710   16.3290 H   0  0  0  0  0  0
   24.0490   21.4170   17.1590 C   0  0  0  0  0  0
   23.3350   20.4370   17.8640 C   0  0  0  0  0  0
   23.8510   19.7640   18.5480 H   0  0  0  0  0  0
   21.9520   20.3120   17.7050 C   0  0  0  0  0  0
   21.4180   19.5430   18.2590 H   0  0  0  0  0  0
   21.2780   21.1750   16.8380 C   0  0  0  0  0  0
   21.9710   22.1730   16.1480 C   0  0  0  0  0  0
   21.4510   22.8580   15.4820 H   0  0  0  0  0  0
   23.3540   22.2920   16.3110 C   0  0  0  0  0  0
   23.8870   23.0700   15.7670 H   0  0  0  0  0  0
   19.5150   21.0350   16.6450 S   0  0  0  0  0  0
   18.9890   22.3650   16.3530 O   0  0  0  0  0  0
   18.9910   20.3210   17.8050 O   0  0  0  0  0  0
   19.3320   20.0140   15.2080 C   0  0  0  0  0  0
   18.2640   19.8830   15.0190 H   0  0  0  0  0  0
   19.7980   19.0450   15.3980 H   0  0  0  0  0  0
   19.8010   20.5100   14.3560 H   0  0  0  0  0  0
   26.1570   22.6910   15.1390 C   0  0  0  0  0  0
   25.6610   21.9490   14.0530 C   0  0  0  0  0  0
   25.4260   20.8900   14.1420 H   0  0  0  0  0  0
   25.4090   22.5680   12.8230 C   0  0  0  0  0  0
   25.0130   21.9760   12.0010 H   0  0  0  0  0  0
   25.6590   23.9320   12.6720 C   0  0  0  0  0  0
   26.1790   24.6770   13.7320 C   0  0  0  0  0  0
   26.4030   25.7350   13.6150 H   0  0  0  0  0  0
   26.4270   24.0560   14.9620 C   0  0  0  0  0  0
   26.8750   24.6580   15.7470 H   0  0  0  0  0  0
   25.3590   24.7240   11.1050 S   0  0  0  0  0  0
   25.2640   26.1600   11.3450 O   0  0  0  0  0  0
   24.2270   24.0440   10.4830 O   0  0  0  0  0  0
   26.8440   24.3790   10.1790 C   0  0  0  0  0  0
   26.9520   23.2920   10.1190 H   0  0  0  0  0  0
   27.6870   24.7950   10.7380 H   0  0  0  0  0  0
   26.7900   24.9790    8.7880 C   0  0  0  0  0  0
   27.7080   24.7490    8.2380 H   0  0  0  0  0  0
   26.6810   26.0670    8.8330 H   0  0  0  0  0  0
   25.9420   24.5820    8.2200 H   0  0  0  0  0  0
  1  2  1  0  0  0
  1  7  1  0  0  0
  1 26  1  0  0  0
  2  3  2  0  0  0
  2  9  1  0  0  0
  3  4  1  0  0  0
  3  5  1  0  0  0
  5  6  1  0  0  0
  5  7  2  0  0  0
  7  8  1  0  0  0
  9 10  1  0  0  0
  9 17  2  0  0  0
 10 11  1  0  0  0
 10 12  2  0  0  0
 12 13  1  0  0  0
 12 14  1  0  0  0
 14 15  2  0  0  0
 14 19  1  0  0  0
 15 16  1  0  0  0
 15 17  1  0  0  0
 17 18  1  0  0  0
 19 20  2  0  0  0
 19 21  2  0  0  0
 19 22  1  0  0  0
 22 23  1  0  0  0
 22 24  1  0  0  0
 22 25  1  0  0  0
 26 27  1  0  0  0
 26 34  2  0  0  0
 27 28  1  0  0  0
 27 29  2  0  0  0
 29 30  1  0  0  0
 29 31  1  0  0  0
 31 32  2  0  0  0
 31 36  1  0  0  0
 32 33  1  0  0  0
 32 34  1  0  0  0
 34 35  1  0  0  0
 36 37  2  0  0  0
 36 38  2  0  0  0
 36 39  1  0  0  0
 39 40  1  0  0  0
 39 41  1  0  0  0
 39 42  1  0  0  0
 42 43  1  0  0  0
 42 44  1  0  0  0
 42 45  1  0  0  0
M  END
>  <ACTIVITY>
4

>  <SET>
3

>  <Min_dist>
0.19

>  <Avg_dist>
0.56

$$$$
1-19
  Cerius2 12110214053D 1   1.00000                          
Structure written by Cerius2 SD Exporter
 42 44  0  0  0  0  0  0  0  0999 V2000
   26.4180   22.0320   16.3880 N   0  0  0  0  0  0
   25.5000   21.5640   17.3390 C   0  0  0  0  0  0
   26.2220   21.1570   18.4540 C   0  0  0  0  0  0
   25.7920   20.7490   19.3620 H   0  0  0  0  0  0
   27.5920   21.2970   18.1730 C   0  0  0  0  0  0
   28.4230   21.0490   18.8240 H   0  0  0  0  0  0
   27.6880   21.8010   16.8990 C   0  0  0  0  0  0
   28.5740   22.0700   16.3400 H   0  0  0  0  0  0
   24.0520   21.4170   17.1580 C   0  0  0  0  0  0
   23.3380   20.4370   17.8620 C   0  0  0  0  0  0
   23.8530   19.7630   18.5460 H   0  0  0  0  0  0
   21.9550   20.3120   17.7010 C   0  0  0  0  0  0
   21.4210   19.5410   18.2540 H   0  0  0  0  0  0
   21.2800   21.1750   16.8350 C   0  0  0  0  0  0
   21.9740   22.1730   16.1460 C   0  0  0  0  0  0
   21.4540   22.8590   15.4800 H   0  0  0  0  0  0
   23.3570   22.2920   16.3100 C   0  0  0  0  0  0
   23.8900   23.0700   15.7650 H   0  0  0  0  0  0
   19.5180   21.0370   16.6410 S   0  0  0  0  0  0
   18.9950   22.3680   16.3510 O   0  0  0  0  0  0
   18.9910   20.3220   17.7990 O   0  0  0  0  0  0
   19.3320   20.0170   15.2030 C   0  0  0  0  0  0
   18.2640   19.8800   15.0210 H   0  0  0  0  0  0
   19.8030   19.0500   15.3890 H   0  0  0  0  0  0
   19.7930   20.5170   14.3490 H   0  0  0  0  0  0
   26.1670   22.6660   15.1270 C   0  0  0  0  0  0
   26.4200   24.0380   14.9680 C   0  0  0  0  0  0
   26.8490   24.6220   15.7800 H   0  0  0  0  0  0
   26.1730   24.6860   13.7460 C   0  0  0  0  0  0
   25.6530   23.9600   12.6730 C   0  0  0  0  0  0
   25.3880   22.5920   12.8290 C   0  0  0  0  0  0
   24.9730   22.0040   12.0120 H   0  0  0  0  0  0
   25.6370   21.9520   14.0480 C   0  0  0  0  0  0
   25.3630   20.9040   14.1290 H   0  0  0  0  0  0
   25.3260   24.7050   11.0940 S   0  0  0  0  0  0
   25.5830   26.1380   11.2120 O   0  0  0  0  0  0
   23.9990   24.2920   10.6540 O   0  0  0  0  0  0
   26.5570   24.0350   10.0060 C   0  0  0  0  0  0
   26.4480   24.5250    9.0360 H   0  0  0  0  0  0
   26.4120   22.9620    9.8890 H   0  0  0  0  0  0
   27.5450   24.2510   10.4170 H   0  0  0  0  0  0
   26.5460   26.3730   13.6860 Cl  0  0  0  0  0  0
  1  2  1  0  0  0
  1  7  1  0  0  0
  1 26  1  0  0  0
  2  3  2  0  0  0
  2  9  1  0  0  0
  3  4  1  0  0  0
  3  5  1  0  0  0
  5  6  1  0  0  0
  5  7  2  0  0  0
  7  8  1  0  0  0
  9 10  1  0  0  0
  9 17  2  0  0  0
 10 11  1  0  0  0
 10 12  2  0  0  0
 12 13  1  0  0  0
 12 14  1  0  0  0
 14 15  2  0  0  0
 14 19  1  0  0  0
 15 16  1  0  0  0
 15 17  1  0  0  0
 17 18  1  0  0  0
 19 20  2  0  0  0
 19 21  2  0  0  0
 19 22  1  0  0  0
 22 23  1  0  0  0
 22 24  1  0  0  0
 22 25  1  0  0  0
 26 27  1  0  0  0
 26 33  2  0  0  0
 27 28  1  0  0  0
 27 29  2  0  0  0
 29 30  1  0  0  0
 29 42  1  0  0  0
 30 31  2  0  0  0
 30 35  1  0  0  0
 31 32  1  0  0  0
 31 33  1  0  0  0
 33 34  1  0  0  0
 35 36  2  0  0  0
 35 37  2  0  0  0
 35 38  1  0  0  0
 38 39  1  0  0  0
 38 40  1  0  0  0
 38 41  1  0  0  0
M  END
>  <ACTIVITY>
4

>  <SET>
3

>  <Min_dist>
0.21

>  <Avg_dist>
0.51

$$$$
1-20
  Cerius2 12110214053D 1   1.00000                          
Structure written by Cerius2 SD Exporter
 35 37  0  0  0  0  0  0  0  0999 V2000
   25.4850   21.5540   17.3080 N   0  0  0  0  0  0
   26.4420   21.9960   16.3830 C   0  0  0  0  0  0
   27.6950   21.7840   16.9440 C   0  0  0  0  0  0
   28.6410   22.0200   16.4690 H   0  0  0  0  0  0
   27.5220   21.2870   18.2480 C   0  0  0  0  0  0
   28.2970   21.0360   18.9630 H   0  0  0  0  0  0
   26.1680   21.1880   18.4590 C   0  0  0  0  0  0
   25.6400   20.8220   19.3300 H   0  0  0  0  0  0
   26.1790   22.6690   15.1070 C   0  0  0  0  0  0
   25.6250   21.9660   14.0270 C   0  0  0  0  0  0
   25.3950   20.9050   14.1170 H   0  0  0  0  0  0
   25.3570   22.6180   12.8220 C   0  0  0  0  0  0
   24.9330   22.0730   11.9830 H   0  0  0  0  0  0
   25.6320   23.9750   12.7010 C   0  0  0  0  0  0
   26.1670   24.6930   13.7630 C   0  0  0  0  0  0
   26.3720   25.7540   13.6530 H   0  0  0  0  0  0
   26.4360   24.0420   14.9690 C   0  0  0  0  0  0
   26.8550   24.6110   15.7980 H   0  0  0  0  0  0
   25.3730   24.6000   11.5450 F   0  0  0  0  0  0
   24.0640   21.4430   17.1510 C   0  0  0  0  0  0
   23.3580   20.4510   17.8540 C   0  0  0  0  0  0
   23.8540   19.7830   18.5550 H   0  0  0  0  0  0
   21.9730   20.3240   17.7040 C   0  0  0  0  0  0
   21.4400   19.5590   18.2660 H   0  0  0  0  0  0
   21.2870   21.1760   16.8370 C   0  0  0  0  0  0
   21.9760   22.1590   16.1250 C   0  0  0  0  0  0
   21.4530   22.8220   15.4400 H   0  0  0  0  0  0
   23.3620   22.2870   16.2790 C   0  0  0  0  0  0
   23.8660   23.0280   15.6650 H   0  0  0  0  0  0
   19.5300   21.0220   16.6740 S   0  0  0  0  0  0
   18.9530   22.3250   16.3920 O   0  0  0  0  0  0
   19.0230   20.2140   17.7690 O   0  0  0  0  0  0
   19.3830   20.1140   15.2750 N   0  0  0  0  0  0
   18.8900   20.6360   14.5460 H   0  0  0  0  0  0
   18.9290   19.2170   15.4630 H   0  0  0  0  0  0
  1  2  1  0  0  0
  1  7  1  0  0  0
  1 20  1  0  0  0
  2  3  2  0  0  0
  2  9  1  0  0  0
  3  4  1  0  0  0
  3  5  1  0  0  0
  5  6  1  0  0  0
  5  7  2  0  0  0
  7  8  1  0  0  0
  9 10  1  0  0  0
  9 17  2  0  0  0
 10 11  1  0  0  0
 10 12  2  0  0  0
 12 13  1  0  0  0
 12 14  1  0  0  0
 14 15  2  0  0  0
 14 19  1  0  0  0
 15 16  1  0  0  0
 15 17  1  0  0  0
 17 18  1  0  0  0
 20 21  1  0  0  0
 20 28  2  0  0  0
 21 22  1  0  0  0
 21 23  2  0  0  0
 23 24  1  0  0  0
 23 25  1  0  0  0
 25 26  2  0  0  0
 25 30  1  0  0  0
 26 27  1  0  0  0
 26 28  1  0  0  0
 28 29  1  0  0  0
 30 31  2  0  0  0
 30 32  2  0  0  0
 30 33  1  0  0  0
 33 34  1  0  0  0
 33 35  1  0  0  0
M  END
>  <ACTIVITY>
7.85

>  <SET>
2

>  <Min_dist>
0.17

>  <Avg_dist>
0.53

$$$$
1-21
  Cerius2 12110214053D 1   1.00000                          
Structure written by Cerius2 SD Exporter
 44 46  0  0  0  0  0  0  0  0999 V2000
   26.4130   22.0400   16.3900 N   0  0  0  0  0  0
   25.4980   21.5640   17.3390 C   0  0  0  0  0  0
   26.2240   21.1450   18.4470 C   0  0  0  0  0  0
   25.7960   20.7280   19.3530 H   0  0  0  0  0  0
   27.5930   21.2820   18.1620 C   0  0  0  0  0  0
   28.4270   21.0250   18.8060 H   0  0  0  0  0  0
   27.6850   21.7970   16.8910 C   0  0  0  0  0  0
   28.5680   22.0670   16.3270 H   0  0  0  0  0  0
   24.0500   21.4180   17.1580 C   0  0  0  0  0  0
   23.3360   20.4370   17.8630 C   0  0  0  0  0  0
   23.8510   19.7630   18.5450 H   0  0  0  0  0  0
   21.9530   20.3120   17.7030 C   0  0  0  0  0  0
   21.4190   19.5430   18.2560 H   0  0  0  0  0  0
   21.2790   21.1760   16.8370 C   0  0  0  0  0  0
   21.9730   22.1730   16.1460 C   0  0  0  0  0  0
   21.4530   22.8580   15.4790 H   0  0  0  0  0  0
   23.3560   22.2920   16.3100 C   0  0  0  0  0  0
   23.8890   23.0690   15.7640 H   0  0  0  0  0  0
   19.5170   21.0360   16.6450 S   0  0  0  0  0  0
   18.9900   22.3650   16.3540 O   0  0  0  0  0  0
   18.9940   20.3210   17.8060 O   0  0  0  0  0  0
   19.3330   20.0140   15.2080 C   0  0  0  0  0  0
   18.2650   19.8860   15.0180 H   0  0  0  0  0  0
   19.7960   19.0440   15.3990 H   0  0  0  0  0  0
   19.8040   20.5090   14.3570 H   0  0  0  0  0  0
   26.1560   22.6900   15.1390 C   0  0  0  0  0  0
   25.6580   21.9480   14.0540 C   0  0  0  0  0  0
   25.4220   20.8900   14.1430 H   0  0  0  0  0  0
   25.4030   22.5690   12.8250 C   0  0  0  0  0  0
   25.0010   21.9790   12.0040 H   0  0  0  0  0  0
   25.6540   23.9330   12.6740 C   0  0  0  0  0  0
   26.1770   24.6760   13.7350 C   0  0  0  0  0  0
   26.3980   25.7350   13.6160 H   0  0  0  0  0  0
   26.4270   24.0550   14.9630 C   0  0  0  0  0  0
   26.8760   24.6570   15.7480 H   0  0  0  0  0  0
   25.3420   24.7350   11.1240 S   0  0  0  0  0  0
   25.5670   26.1640   11.2700 O   0  0  0  0  0  0
   24.0720   24.2560   10.6040 O   0  0  0  0  0  0
   26.5490   24.1330   10.1130 N   0  0  0  0  0  0
   26.3350   23.1850    9.7880 H   0  0  0  0  0  0
   27.9480   24.3350   10.5110 C   0  0  0  0  0  0
   28.2290   23.6340   11.3010 H   0  0  0  0  0  0
   28.1270   25.3630   10.8370 H   0  0  0  0  0  0
   28.5880   24.1410    9.6450 H   0  0  0  0  0  0
  1  2  1  0  0  0
  1  7  1  0  0  0
  1 26  1  0  0  0
  2  3  2  0  0  0
  2  9  1  0  0  0
  3  4  1  0  0  0
  3  5  1  0  0  0
  5  6  1  0  0  0
  5  7  2  0  0  0
  7  8  1  0  0  0
  9 10  1  0  0  0
  9 17  2  0  0  0
 10 11  1  0  0  0
 10 12  2  0  0  0
 12 13  1  0  0  0
 12 14  1  0  0  0
 14 15  2  0  0  0
 14 19  1  0  0  0
 15 16  1  0  0  0
 15 17  1  0  0  0
 17 18  1  0  0  0
 19 20  2  0  0  0
 19 21  2  0  0  0
 19 22  1  0  0  0
 22 23  1  0  0  0
 22 24  1  0  0  0
 22 25  1  0  0  0
 26 27  1  0  0  0
 26 34  2  0  0  0
 27 28  1  0  0  0
 27 29  2  0  0  0
 29 30  1  0  0  0
 29 31  1  0  0  0
 31 32  2  0  0  0
 31 36  1  0  0  0
 32 33  1  0  0  0
 32 34  1  0  0  0
 34 35  1  0  0  0
 36 37  2  0  0  0
 36 38  2  0  0  0
 36 39  1  0  0  0
 39 40  1  0  0  0
 39 41  1  0  0  0
 41 42  1  0  0  0
 41 43  1  0  0  0
 41 44  1  0  0  0
M  END
>  <ACTIVITY>
4

>  <SET>
3

>  <Min_dist>
0.28

>  <Avg_dist>
0.57

$$$$
1-22
  Cerius2 12110214053D 1   1.00000                          
Structure written by Cerius2 SD Exporter
 47 49  0  0  0  0  0  0  0  0999 V2000
   26.4150   22.0370   16.3900 N   0  0  0  0  0  0
   25.5000   21.5670   17.3430 C   0  0  0  0  0  0
   26.2270   21.1450   18.4490 C   0  0  0  0  0  0
   25.8010   20.7320   19.3560 H   0  0  0  0  0  0
   27.5970   21.2740   18.1570 C   0  0  0  0  0  0
   28.4320   21.0120   18.7960 H   0  0  0  0  0  0
   27.6860   21.7840   16.8840 C   0  0  0  0  0  0
   28.5690   22.0450   16.3140 H   0  0  0  0  0  0
   24.0500   21.4280   17.1630 C   0  0  0  0  0  0
   23.3350   20.4500   17.8690 C   0  0  0  0  0  0
   23.8480   19.7770   18.5550 H   0  0  0  0  0  0
   21.9520   20.3240   17.7040 C   0  0  0  0  0  0
   21.4150   19.5570   18.2590 H   0  0  0  0  0  0
   21.2810   21.1830   16.8310 C   0  0  0  0  0  0
   21.9750   22.1800   16.1410 C   0  0  0  0  0  0
   21.4590   22.8620   15.4700 H   0  0  0  0  0  0
   23.3580   22.3010   16.3110 C   0  0  0  0  0  0
   23.8920   23.0770   15.7650 H   0  0  0  0  0  0
   19.5210   21.0210   16.6370 S   0  0  0  0  0  0
   18.9720   22.3390   16.3340 O   0  0  0  0  0  0
   19.0120   20.3080   17.8050 O   0  0  0  0  0  0
   19.3480   19.9900   15.2050 C   0  0  0  0  0  0
   18.2820   19.8560   15.0120 H   0  0  0  0  0  0
   19.8140   19.0230   15.4020 H   0  0  0  0  0  0
   19.8210   20.4830   14.3540 H   0  0  0  0  0  0
   26.1540   22.6870   15.1400 C   0  0  0  0  0  0
   25.6510   21.9490   14.0560 C   0  0  0  0  0  0
   25.4170   20.8900   14.1430 H   0  0  0  0  0  0
   25.3900   22.5730   12.8310 C   0  0  0  0  0  0
   24.9910   21.9840   12.0080 H   0  0  0  0  0  0
   25.6330   23.9400   12.6830 C   0  0  0  0  0  0
   26.1710   24.6760   13.7400 C   0  0  0  0  0  0
   26.4010   25.7330   13.6250 H   0  0  0  0  0  0
   26.4280   24.0510   14.9650 C   0  0  0  0  0  0
   26.8840   24.6500   15.7480 H   0  0  0  0  0  0
   25.3370   24.7300   11.1180 S   0  0  0  0  0  0
   25.3720   26.1710   11.3140 O   0  0  0  0  0  0
   24.1550   24.1340   10.5160 O   0  0  0  0  0  0
   26.6880   24.3030   10.1620 N   0  0  0  0  0  0
   26.8030   22.8710    9.7900 C   0  0  0  0  0  0
   27.5060   22.7680    8.9580 H   0  0  0  0  0  0
   25.8430   22.4770    9.4470 H   0  0  0  0  0  0
   27.1670   22.2720   10.6300 H   0  0  0  0  0  0
   27.9930   24.8610   10.5920 C   0  0  0  0  0  0
   28.7280   24.7320    9.7910 H   0  0  0  0  0  0
   28.3630   24.3540   11.4880 H   0  0  0  0  0  0
   27.9140   25.9350   10.7820 H   0  0  0  0  0  0
  1  2  1  0  0  0
  1  7  1  0  0  0
  1 26  1  0  0  0
  2  3  2  0  0  0
  2  9  1  0  0  0
  3  4  1  0  0  0
  3  5  1  0  0  0
  5  6  1  0  0  0
  5  7  2  0  0  0
  7  8  1  0  0  0
  9 10  1  0  0  0
  9 17  2  0  0  0
 10 11  1  0  0  0
 10 12  2  0  0  0
 12 13  1  0  0  0
 12 14  1  0  0  0
 14 15  2  0  0  0
 14 19  1  0  0  0
 15 16  1  0  0  0
 15 17  1  0  0  0
 17 18  1  0  0  0
 19 20  2  0  0  0
 19 21  2  0  0  0
 19 22  1  0  0  0
 22 23  1  0  0  0
 22 24  1  0  0  0
 22 25  1  0  0  0
 26 27  1  0  0  0
 26 34  2  0  0  0
 27 28  1  0  0  0
 27 29  2  0  0  0
 29 30  1  0  0  0
 29 31  1  0  0  0
 31 32  2  0  0  0
 31 36  1  0  0  0
 32 33  1  0  0  0
 32 34  1  0  0  0
 34 35  1  0  0  0
 36 37  2  0  0  0
 36 38  2  0  0  0
 36 39  1  0  0  0
 39 40  1  0  0  0
 39 44  1  0  0  0
 40 41  1  0  0  0
 40 42  1  0  0  0
 40 43  1  0  0  0
 44 45  1  0  0  0
 44 46  1  0  0  0
 44 47  1  0  0  0
M  END
>  <ACTIVITY>
4

>  <SET>
3

>  <Min_dist>
0.28

>  <Avg_dist>
0.57

$$$$
1-27
  Cerius2 12110214053D 1   1.00000                          
Structure written by Cerius2 SD Exporter
 39 41  0  0  0  0  0  0  0  0999 V2000
   26.4530   22.0460   16.4090 N   0  0  0  0  0  0
   25.5360   21.5390   17.3410 C   0  0  0  0  0  0
   26.2560   21.0540   18.4200 C   0  0  0  0  0  0
   25.8290   20.5820   19.2990 H   0  0  0  0  0  0
   27.6210   21.2500   18.1570 C   0  0  0  0  0  0
   28.4500   20.9890   18.8080 H   0  0  0  0  0  0
   27.7320   21.8810   16.9310 C   0  0  0  0  0  0
   28.9650   22.4010   16.2940 C   0  0  0  0  0  0
   29.4330   21.5780   15.3170 F   0  0  0  0  0  0
   29.9840   22.5230   17.1950 F   0  0  0  0  0  0
   28.8120   23.6340   15.7430 F   0  0  0  0  0  0
   24.0830   21.4420   17.1540 C   0  0  0  0  0  0
   23.4120   22.2980   16.2670 C   0  0  0  0  0  0
   23.9610   23.0510   15.7040 H   0  0  0  0  0  0
   22.0290   22.1960   16.0910 C   0  0  0  0  0  0
   21.5280   22.8730   15.4020 H   0  0  0  0  0  0
   21.3130   21.2310   16.8020 C   0  0  0  0  0  0
   21.9700   20.3540   17.6690 C   0  0  0  0  0  0
   21.4210   19.5910   18.2160 H   0  0  0  0  0  0
   23.3530   20.4620   17.8410 C   0  0  0  0  0  0
   23.8560   19.7790   18.5240 H   0  0  0  0  0  0
   19.5550   21.0860   16.5730 S   0  0  0  0  0  0
   19.0330   22.4150   16.2660 O   0  0  0  0  0  0
   19.0070   20.3740   17.7230 O   0  0  0  0  0  0
   19.4040   20.0590   15.1350 C   0  0  0  0  0  0
   18.3400   19.9190   14.9300 H   0  0  0  0  0  0
   19.8740   19.0950   15.3360 H   0  0  0  0  0  0
   19.8830   20.5570   14.2900 H   0  0  0  0  0  0
   26.1200   22.6600   15.1640 C   0  0  0  0  0  0
   25.5320   21.9060   14.1400 C   0  0  0  0  0  0
   25.2710   20.8600   14.2760 H   0  0  0  0  0  0
   25.2030   22.5180   12.9270 C   0  0  0  0  0  0
   24.7370   21.9440   12.1310 H   0  0  0  0  0  0
   25.4600   23.8720   12.7460 C   0  0  0  0  0  0
   26.0380   24.6310   13.7560 C   0  0  0  0  0  0
   26.2340   25.6880   13.5950 H   0  0  0  0  0  0
   26.3690   24.0280   14.9710 C   0  0  0  0  0  0
   26.8450   24.6330   15.7400 H   0  0  0  0  0  0
   25.1420   24.4530   11.5820 F   0  0  0  0  0  0
  1  2  1  0  0  0
  1  7  1  0  0  0
  1 29  1  0  0  0
  2  3  2  0  0  0
  2 12  1  0  0  0
  3  4  1  0  0  0
  3  5  1  0  0  0
  5  6  1  0  0  0
  5  7  2  0  0  0
  7  8  1  0  0  0
  8  9  1  0  0  0
  8 10  1  0  0  0
  8 11  1  0  0  0
 12 13  1  0  0  0
 12 20  2  0  0  0
 13 14  1  0  0  0
 13 15  2  0  0  0
 15 16  1  0  0  0
 15 17  1  0  0  0
 17 18  2  0  0  0
 17 22  1  0  0  0
 18 19  1  0  0  0
 18 20  1  0  0  0
 20 21  1  0  0  0
 22 23  2  0  0  0
 22 24  2  0  0  0
 22 25  1  0  0  0
 25 26  1  0  0  0
 25 27  1  0  0  0
 25 28  1  0  0  0
 29 30  1  0  0  0
 29 37  2  0  0  0
 30 31  1  0  0  0
 30 32  2  0  0  0
 32 33  1  0  0  0
 32 34  1  0  0  0
 34 35  2  0  0  0
 34 39  1  0  0  0
 35 36  1  0  0  0
 35 37  1  0  0  0
 37 38  1  0  0  0
M  END
>  <ACTIVITY>
4

>  <SET>
3

>  <Min_dist>
0.1

>  <Avg_dist>
0.48

$$$$
1-28
  Cerius2 12110214053D 1   1.00000                          
Structure written by Cerius2 SD Exporter
 44 46  0  0  0  0  0  0  0  0999 V2000
   26.4470   22.0590   16.4180 N   0  0  0  0  0  0
   25.5310   21.5430   17.3380 C   0  0  0  0  0  0
   26.2530   21.0210   18.3970 C   0  0  0  0  0  0
   25.8020   20.5210   19.2480 H   0  0  0  0  0  0
   27.6390   21.2000   18.1540 C   0  0  0  0  0  0
   27.7340   21.8930   16.9450 C   0  0  0  0  0  0
   28.9620   22.4700   16.3050 C   0  0  0  0  0  0
   29.6790   22.7950   17.0650 H   0  0  0  0  0  0
   28.7420   23.3590   15.7080 H   0  0  0  0  0  0
   29.4490   21.7220   15.6730 H   0  0  0  0  0  0
   28.7620   20.7630   19.0110 C   0  0  0  0  0  0
   28.5510   20.1510   20.0680 O   0  0  0  0  0  0
   30.1810   21.1150   18.5540 C   0  0  0  0  0  0
   30.4180   22.4640   18.5200 F   0  0  0  0  0  0
   31.1520   20.5960   19.3730 F   0  0  0  0  0  0
   30.4790   20.6520   17.2990 F   0  0  0  0  0  0
   24.0780   21.4470   17.1560 C   0  0  0  0  0  0
   23.4060   22.3000   16.2680 C   0  0  0  0  0  0
   23.9540   23.0520   15.7030 H   0  0  0  0  0  0
   22.0230   22.1970   16.0940 C   0  0  0  0  0  0
   21.5200   22.8720   15.4050 H   0  0  0  0  0  0
   21.3080   21.2320   16.8080 C   0  0  0  0  0  0
   21.9680   20.3570   17.6750 C   0  0  0  0  0  0
   21.4200   19.5930   18.2230 H   0  0  0  0  0  0
   23.3510   20.4670   17.8460 C   0  0  0  0  0  0
   23.8560   19.7850   18.5280 H   0  0  0  0  0  0
   19.5500   21.0810   16.5810 S   0  0  0  0  0  0
   19.0230   22.4100   16.2920 O   0  0  0  0  0  0
   19.0080   20.3520   17.7240 O   0  0  0  0  0  0
   19.3980   20.0690   15.1330 C   0  0  0  0  0  0
   18.3350   19.9240   14.9310 H   0  0  0  0  0  0
   19.8750   19.1050   15.3210 H   0  0  0  0  0  0
   19.8700   20.5780   14.2910 H   0  0  0  0  0  0
   26.1270   22.6680   15.1650 C   0  0  0  0  0  0
   25.5490   21.9040   14.1400 C   0  0  0  0  0  0
   25.3080   20.8530   14.2830 H   0  0  0  0  0  0
   25.2230   22.5030   12.9210 C   0  0  0  0  0  0
   24.7670   21.9210   12.1250 H   0  0  0  0  0  0
   25.4730   23.8570   12.7310 C   0  0  0  0  0  0
   26.0440   24.6270   13.7380 C   0  0  0  0  0  0
   26.2370   25.6830   13.5700 H   0  0  0  0  0  0
   26.3720   24.0340   14.9590 C   0  0  0  0  0  0
   26.8470   24.6470   15.7220 H   0  0  0  0  0  0
   25.1590   24.4290   11.5610 F   0  0  0  0  0  0
  1  2  1  0  0  0
  1  6  1  0  0  0
  1 34  1  0  0  0
  2  3  2  0  0  0
  2 17  1  0  0  0
  3  4  1  0  0  0
  3  5  1  0  0  0
  5  6  2  0  0  0
  5 11  1  0  0  0
  6  7  1  0  0  0
  7  8  1  0  0  0
  7  9  1  0  0  0
  7 10  1  0  0  0
 11 12  2  0  0  0
 11 13  1  0  0  0
 13 14  1  0  0  0
 13 15  1  0  0  0
 13 16  1  0  0  0
 17 18  1  0  0  0
 17 25  2  0  0  0
 18 19  1  0  0  0
 18 20  2  0  0  0
 20 21  1  0  0  0
 20 22  1  0  0  0
 22 23  2  0  0  0
 22 27  1  0  0  0
 23 24  1  0  0  0
 23 25  1  0  0  0
 25 26  1  0  0  0
 27 28  2  0  0  0
 27 29  2  0  0  0
 27 30  1  0  0  0
 30 31  1  0  0  0
 30 32  1  0  0  0
 30 33  1  0  0  0
 34 35  1  0  0  0
 34 42  2  0  0  0
 35 36  1  0  0  0
 35 37  2  0  0  0
 37 38  1  0  0  0
 37 39  1  0  0  0
 39 40  2  0  0  0
 39 44  1  0  0  0
 40 41  1  0  0  0
 40 42  1  0  0  0
 42 43  1  0  0  0
M  END
>  <ACTIVITY>
6.92

>  <SET>
1

>  <Min_dist>
999.9

>  <Avg_dist>
999.9

$$$$
1-29
  Cerius2 12110214053D 1   1.00000                          
Structure written by Cerius2 SD Exporter
 44 46  0  0  0  0  0  0  0  0999 V2000
   26.4470   22.0590   16.4180 N   0  0  0  0  0  0
   25.5310   21.5430   17.3380 C   0  0  0  0  0  0
   26.2530   21.0200   18.3960 C   0  0  0  0  0  0
   25.8090   20.5190   19.2490 H   0  0  0  0  0  0
   27.6380   21.2010   18.1510 C   0  0  0  0  0  0
   27.7330   21.8950   16.9460 C   0  0  0  0  0  0
   28.9620   22.4700   16.3090 C   0  0  0  0  0  0
   29.6820   22.7880   17.0690 H   0  0  0  0  0  0
   28.7450   23.3630   15.7160 H   0  0  0  0  0  0
   29.4470   21.7240   15.6720 H   0  0  0  0  0  0
   28.7510   20.7640   19.0100 C   0  0  0  0  0  0
   28.5650   20.1520   20.0660 O   0  0  0  0  0  0
   30.1570   21.1040   18.5760 C   0  0  0  0  0  0
   30.8720   20.6660   19.2800 H   0  0  0  0  0  0
   30.2950   22.1880   18.5710 H   0  0  0  0  0  0
   30.3550   20.6900   17.5840 H   0  0  0  0  0  0
   24.0780   21.4470   17.1550 C   0  0  0  0  0  0
   23.4050   22.3000   16.2680 C   0  0  0  0  0  0
   23.9530   23.0540   15.7040 H   0  0  0  0  0  0
   22.0220   22.1960   16.0940 C   0  0  0  0  0  0
   21.5190   22.8710   15.4050 H   0  0  0  0  0  0
   21.3080   21.2310   16.8080 C   0  0  0  0  0  0
   21.9680   20.3560   17.6750 C   0  0  0  0  0  0
   21.4210   19.5930   18.2240 H   0  0  0  0  0  0
   23.3510   20.4660   17.8450 C   0  0  0  0  0  0
   23.8570   19.7840   18.5270 H   0  0  0  0  0  0
   19.5500   21.0820   16.5820 S   0  0  0  0  0  0
   19.0250   22.4110   16.2830 O   0  0  0  0  0  0
   19.0070   20.3630   17.7300 O   0  0  0  0  0  0
   19.3980   20.0610   15.1400 C   0  0  0  0  0  0
   18.3340   19.9180   14.9380 H   0  0  0  0  0  0
   19.8720   19.0980   15.3350 H   0  0  0  0  0  0
   19.8720   20.5650   14.2960 H   0  0  0  0  0  0
   26.1270   22.6690   15.1650 C   0  0  0  0  0  0
   25.5490   21.9040   14.1400 C   0  0  0  0  0  0
   25.3100   20.8520   14.2830 H   0  0  0  0  0  0
   25.2230   22.5030   12.9210 C   0  0  0  0  0  0
   24.7670   21.9190   12.1260 H   0  0  0  0  0  0
   25.4730   23.8560   12.7310 C   0  0  0  0  0  0
   26.0440   24.6270   13.7370 C   0  0  0  0  0  0
   26.2380   25.6820   13.5680 H   0  0  0  0  0  0
   26.3720   24.0350   14.9590 C   0  0  0  0  0  0
   26.8480   24.6480   15.7210 H   0  0  0  0  0  0
   25.1590   24.4270   11.5610 F   0  0  0  0  0  0
  1  2  1  0  0  0
  1  6  1  0  0  0
  1 34  1  0  0  0
  2  3  2  0  0  0
  2 17  1  0  0  0
  3  4  1  0  0  0
  3  5  1  0  0  0
  5  6  2  0  0  0
  5 11  1  0  0  0
  6  7  1  0  0  0
  7  8  1  0  0  0
  7  9  1  0  0  0
  7 10  1  0  0  0
 11 12  2  0  0  0
 11 13  1  0  0  0
 13 14  1  0  0  0
 13 15  1  0  0  0
 13 16  1  0  0  0
 17 18  1  0  0  0
 17 25  2  0  0  0
 18 19  1  0  0  0
 18 20  2  0  0  0
 20 21  1  0  0  0
 20 22  1  0  0  0
 22 23  2  0  0  0
 22 27  1  0  0  0
 23 24  1  0  0  0
 23 25  1  0  0  0
 25 26  1  0  0  0
 27 28  2  0  0  0
 27 29  2  0  0  0
 27 30  1  0  0  0
 30 31  1  0  0  0
 30 32  1  0  0  0
 30 33  1  0  0  0
 34 35  1  0  0  0
 34 42  2  0  0  0
 35 36  1  0  0  0
 35 37  2  0  0  0
 37 38  1  0  0  0
 37 39  1  0  0  0
 39 40  2  0  0  0
 39 44  1  0  0  0
 40 41  1  0  0  0
 40 42  1  0  0  0
 42 43  1  0  0  0
M  END
>  <ACTIVITY>
5.79

>  <SET>
1

>  <Min_dist>
999.9

>  <Avg_dist>
999.9

$$$$
1-3
  Cerius2 12110214053D 1   1.00000                          
Structure written by Cerius2 SD Exporter
 36 38  0  0  0  0  0  0  0  0999 V2000
   25.4850   21.5400   17.3070 N   0  0  0  0  0  0
   26.4310   22.0070   16.3840 C   0  0  0  0  0  0
   27.6900   21.8140   16.9410 C   0  0  0  0  0  0
   28.6300   22.0720   16.4650 H   0  0  0  0  0  0
   27.5290   21.3020   18.2400 C   0  0  0  0  0  0
   28.3110   21.0600   18.9510 H   0  0  0  0  0  0
   26.1780   21.1760   18.4530 C   0  0  0  0  0  0
   25.6600   20.7920   19.3220 H   0  0  0  0  0  0
   26.1540   22.6870   15.1150 C   0  0  0  0  0  0
   26.4310   24.0530   14.9580 C   0  0  0  0  0  0
   26.8420   24.6330   15.7840 H   0  0  0  0  0  0
   26.1860   24.6890   13.7390 C   0  0  0  0  0  0
   26.3960   25.7480   13.6170 H   0  0  0  0  0  0
   25.6740   23.9560   12.6750 C   0  0  0  0  0  0
   25.4050   22.5990   12.8050 C   0  0  0  0  0  0
   25.0100   22.0400   11.9620 H   0  0  0  0  0  0
   25.6510   21.9620   14.0240 C   0  0  0  0  0  0
   25.4400   20.8980   14.1180 H   0  0  0  0  0  0
   25.4400   24.5660   11.5050 F   0  0  0  0  0  0
   24.0660   21.4030   17.1540 C   0  0  0  0  0  0
   23.3650   22.2810   16.3090 C   0  0  0  0  0  0
   23.8760   23.0420   15.7230 H   0  0  0  0  0  0
   21.9790   22.1690   16.1580 C   0  0  0  0  0  0
   21.4590   22.8490   15.4870 H   0  0  0  0  0  0
   21.2820   21.1890   16.8660 C   0  0  0  0  0  0
   21.9620   20.3140   17.7140 C   0  0  0  0  0  0
   21.4280   19.5500   18.2760 H   0  0  0  0  0  0
   23.3500   20.4270   17.8620 C   0  0  0  0  0  0
   23.8320   19.7630   18.5740 H   0  0  0  0  0  0
   19.5230   21.0380   16.6580 S   0  0  0  0  0  0
   18.9780   22.3730   16.4320 O   0  0  0  0  0  0
   19.0060   20.2590   17.7790 O   0  0  0  0  0  0
   19.3540   20.0910   15.1690 C   0  0  0  0  0  0
   18.2880   19.9570   14.9710 H   0  0  0  0  0  0
   19.8310   19.1190   15.3080 H   0  0  0  0  0  0
   19.8190   20.6370   14.3460 H   0  0  0  0  0  0
  1  2  1  0  0  0
  1  7  1  0  0  0
  1 20  1  0  0  0
  2  3  2  0  0  0
  2  9  1  0  0  0
  3  4  1  0  0  0
  3  5  1  0  0  0
  5  6  1  0  0  0
  5  7  2  0  0  0
  7  8  1  0  0  0
  9 10  1  0  0  0
  9 17  2  0  0  0
 10 11  1  0  0  0
 10 12  2  0  0  0
 12 13  1  0  0  0
 12 14  1  0  0  0
 14 15  2  0  0  0
 14 19  1  0  0  0
 15 16  1  0  0  0
 15 17  1  0  0  0
 17 18  1  0  0  0
 20 21  1  0  0  0
 20 28  2  0  0  0
 21 22  1  0  0  0
 21 23  2  0  0  0
 23 24  1  0  0  0
 23 25  1  0  0  0
 25 26  2  0  0  0
 25 30  1  0  0  0
 26 27  1  0  0  0
 26 28  1  0  0  0
 28 29  1  0  0  0
 30 31  2  0  0  0
 30 32  2  0  0  0
 30 33  1  0  0  0
 33 34  1  0  0  0
 33 35  1  0  0  0
 33 36  1  0  0  0
M  END
>  <ACTIVITY>
6.29

>  <SET>
1

>  <Min_dist>
999.9

>  <Avg_dist>
999.9

$$$$
1-31
  Cerius2 12110214053D 1   1.00000                          
Structure written by Cerius2 SD Exporter
 45 47  0  0  0  0  0  0  0  0999 V2000
   26.4490   22.0530   16.4150 N   0  0  0  0  0  0
   25.5320   21.5430   17.3420 C   0  0  0  0  0  0
   26.2510   21.0350   18.4100 C   0  0  0  0  0  0
   25.8180   20.5440   19.2750 H   0  0  0  0  0  0
   27.6270   21.2200   18.1510 C   0  0  0  0  0  0
   27.7410   21.8860   16.9340 C   0  0  0  0  0  0
   28.9700   22.4300   16.2710 C   0  0  0  0  0  0
   29.7350   22.6750   17.0150 H   0  0  0  0  0  0
   28.7690   23.3580   15.7280 H   0  0  0  0  0  0
   29.3950   21.6910   15.5850 H   0  0  0  0  0  0
   28.8940   20.6990   19.2380 S   0  0  0  0  0  0
   30.0120   20.3860   18.3460 O   0  0  0  0  0  0
   28.2720   19.6070   19.9900 O   0  0  0  0  0  0
   29.2010   22.1670   20.2720 C   0  0  0  0  0  0
   29.6070   23.2620   19.5500 F   0  0  0  0  0  0
   28.0950   22.5710   20.9790 F   0  0  0  0  0  0
   30.1830   21.9560   21.2100 F   0  0  0  0  0  0
   24.0790   21.4460   17.1570 C   0  0  0  0  0  0
   23.4070   22.2990   16.2690 C   0  0  0  0  0  0
   23.9560   23.0520   15.7050 H   0  0  0  0  0  0
   22.0250   22.1960   16.0930 C   0  0  0  0  0  0
   21.5230   22.8720   15.4040 H   0  0  0  0  0  0
   21.3100   21.2300   16.8050 C   0  0  0  0  0  0
   21.9680   20.3550   17.6720 C   0  0  0  0  0  0
   21.4200   19.5910   18.2200 H   0  0  0  0  0  0
   23.3510   20.4650   17.8450 C   0  0  0  0  0  0
   23.8550   19.7820   18.5280 H   0  0  0  0  0  0
   19.5520   21.0820   16.5760 S   0  0  0  0  0  0
   19.0270   22.4110   16.2780 O   0  0  0  0  0  0
   19.0060   20.3610   17.7210 O   0  0  0  0  0  0
   19.4020   20.0620   15.1330 C   0  0  0  0  0  0
   18.3390   19.9250   14.9250 H   0  0  0  0  0  0
   19.8700   19.0960   15.3290 H   0  0  0  0  0  0
   19.8830   20.5630   14.2910 H   0  0  0  0  0  0
   26.1230   22.6660   15.1650 C   0  0  0  0  0  0
   25.5420   21.9060   14.1390 C   0  0  0  0  0  0
   25.2990   20.8550   14.2790 H   0  0  0  0  0  0
   25.2130   22.5100   12.9230 C   0  0  0  0  0  0
   24.7530   21.9310   12.1270 H   0  0  0  0  0  0
   25.4650   23.8640   12.7370 C   0  0  0  0  0  0
   26.0410   24.6290   13.7440 C   0  0  0  0  0  0
   26.2360   25.6850   13.5780 H   0  0  0  0  0  0
   26.3700   24.0320   14.9630 C   0  0  0  0  0  0
   26.8480   24.6420   15.7270 H   0  0  0  0  0  0
   25.1480   24.4400   11.5700 F   0  0  0  0  0  0
  1  2  1  0  0  0
  1  6  1  0  0  0
  1 35  1  0  0  0
  2  3  2  0  0  0
  2 18  1  0  0  0
  3  4  1  0  0  0
  3  5  1  0  0  0
  5  6  2  0  0  0
  5 11  1  0  0  0
  6  7  1  0  0  0
  7  8  1  0  0  0
  7  9  1  0  0  0
  7 10  1  0  0  0
 11 12  2  0  0  0
 11 13  2  0  0  0
 11 14  1  0  0  0
 14 15  1  0  0  0
 14 16  1  0  0  0
 14 17  1  0  0  0
 18 19  1  0  0  0
 18 26  2  0  0  0
 19 20  1  0  0  0
 19 21  2  0  0  0
 21 22  1  0  0  0
 21 23  1  0  0  0
 23 24  2  0  0  0
 23 28  1  0  0  0
 24 25  1  0  0  0
 24 26  1  0  0  0
 26 27  1  0  0  0
 28 29  2  0  0  0
 28 30  2  0  0  0
 28 31  1  0  0  0
 31 32  1  0  0  0
 31 33  1  0  0  0
 31 34  1  0  0  0
 35 36  1  0  0  0
 35 43  2  0  0  0
 36 37  1  0  0  0
 36 38  2  0  0  0
 38 39  1  0  0  0
 38 40  1  0  0  0
 40 41  2  0  0  0
 40 45  1  0  0  0
 41 42  1  0  0  0
 41 43  1  0  0  0
 43 44  1  0  0  0
M  END
>  <ACTIVITY>
7.22

>  <SET>
2

>  <Min_dist>
0.32

>  <Avg_dist>
0.6

$$$$
1-32
  Cerius2 12110214053D 1   1.00000                          
Structure written by Cerius2 SD Exporter
 41 43  0  0  0  0  0  0  0  0999 V2000
   26.4480   22.0580   16.4170 N   0  0  0  0  0  0
   25.5300   21.5430   17.3400 C   0  0  0  0  0  0
   26.2520   21.0260   18.4010 C   0  0  0  0  0  0
   25.8190   20.5290   19.2620 H   0  0  0  0  0  0
   27.6330   21.2090   18.1510 C   0  0  0  0  0  0
   27.7350   21.8900   16.9420 C   0  0  0  0  0  0
   28.9680   22.4490   16.3010 C   0  0  0  0  0  0
   29.7050   22.7360   17.0570 H   0  0  0  0  0  0
   28.7610   23.3580   15.7280 H   0  0  0  0  0  0
   29.4280   21.7050   15.6450 H   0  0  0  0  0  0
   28.7150   20.7750   19.0270 C   0  0  0  0  0  0
   29.7290   21.0350   18.6760 H   0  0  0  0  0  0
   28.5580   20.1730   20.0900 O   0  0  0  0  0  0
   24.0780   21.4450   17.1550 C   0  0  0  0  0  0
   23.4060   22.2990   16.2690 C   0  0  0  0  0  0
   23.9540   23.0530   15.7050 H   0  0  0  0  0  0
   22.0230   22.1960   16.0940 C   0  0  0  0  0  0
   21.5200   22.8720   15.4060 H   0  0  0  0  0  0
   21.3080   21.2300   16.8070 C   0  0  0  0  0  0
   21.9680   20.3540   17.6730 C   0  0  0  0  0  0
   21.4210   19.5900   18.2210 H   0  0  0  0  0  0
   23.3510   20.4630   17.8440 C   0  0  0  0  0  0
   23.8560   19.7810   18.5260 H   0  0  0  0  0  0
   19.5510   21.0830   16.5810 S   0  0  0  0  0  0
   19.0260   22.4120   16.2850 O   0  0  0  0  0  0
   19.0070   20.3620   17.7280 O   0  0  0  0  0  0
   19.3980   20.0650   15.1380 C   0  0  0  0  0  0
   18.3340   19.9220   14.9350 H   0  0  0  0  0  0
   19.8710   19.1010   15.3310 H   0  0  0  0  0  0
   19.8720   20.5690   14.2940 H   0  0  0  0  0  0
   26.1270   22.6680   15.1650 C   0  0  0  0  0  0
   25.5490   21.9050   14.1390 C   0  0  0  0  0  0
   25.3070   20.8540   14.2810 H   0  0  0  0  0  0
   25.2210   22.5050   12.9210 C   0  0  0  0  0  0
   24.7650   21.9220   12.1260 H   0  0  0  0  0  0
   25.4720   23.8590   12.7320 C   0  0  0  0  0  0
   26.0440   24.6280   13.7380 C   0  0  0  0  0  0
   26.2380   25.6830   13.5700 H   0  0  0  0  0  0
   26.3720   24.0350   14.9600 C   0  0  0  0  0  0
   26.8480   24.6470   15.7220 H   0  0  0  0  0  0
   25.1570   24.4310   11.5620 F   0  0  0  0  0  0
  1  2  1  0  0  0
  1  6  1  0  0  0
  1 31  1  0  0  0
  2  3  2  0  0  0
  2 14  1  0  0  0
  3  4  1  0  0  0
  3  5  1  0  0  0
  5  6  2  0  0  0
  5 11  1  0  0  0
  6  7  1  0  0  0
  7  8  1  0  0  0
  7  9  1  0  0  0
  7 10  1  0  0  0
 11 12  1  0  0  0
 11 13  2  0  0  0
 14 15  1  0  0  0
 14 22  2  0  0  0
 15 16  1  0  0  0
 15 17  2  0  0  0
 17 18  1  0  0  0
 17 19  1  0  0  0
 19 20  2  0  0  0
 19 24  1  0  0  0
 20 21  1  0  0  0
 20 22  1  0  0  0
 22 23  1  0  0  0
 24 25  2  0  0  0
 24 26  2  0  0  0
 24 27  1  0  0  0
 27 28  1  0  0  0
 27 29  1  0  0  0
 27 30  1  0  0  0
 31 32  1  0  0  0
 31 39  2  0  0  0
 32 33  1  0  0  0
 32 34  2  0  0  0
 34 35  1  0  0  0
 34 36  1  0  0  0
 36 37  2  0  0  0
 36 41  1  0  0  0
 37 38  1  0  0  0
 37 39  1  0  0  0
 39 40  1  0  0  0
M  END
>  <ACTIVITY>
5.49

>  <SET>
2

>  <Min_dist>
0.1

>  <Avg_dist>
0.54

$$$$
1-33
  Cerius2 12110214053D 1   1.00000                          
Structure written by Cerius2 SD Exporter
 40 42  0  0  0  0  0  0  0  0999 V2000
   26.4480   22.0470   16.4100 N   0  0  0  0  0  0
   25.5290   21.5450   17.3410 C   0  0  0  0  0  0
   26.2480   21.0560   18.4190 C   0  0  0  0  0  0
   25.8160   20.5840   19.2960 H   0  0  0  0  0  0
   27.6180   21.2400   18.1570 C   0  0  0  0  0  0
   27.7350   21.8690   16.9280 C   0  0  0  0  0  0
   28.9830   22.3700   16.2730 C   0  0  0  0  0  0
   29.7710   22.5410   17.0140 H   0  0  0  0  0  0
   28.8220   23.3260   15.7660 H   0  0  0  0  0  0
   29.3620   21.6360   15.5550 H   0  0  0  0  0  0
   28.6980   20.8640   19.0210 C   0  0  0  0  0  0
   29.5750   20.5590   19.7230 N   0  0  0  0  0  0
   24.0760   21.4460   17.1570 C   0  0  0  0  0  0
   23.4020   22.2980   16.2690 C   0  0  0  0  0  0
   23.9490   23.0510   15.7040 H   0  0  0  0  0  0
   22.0190   22.1930   16.0950 C   0  0  0  0  0  0
   21.5160   22.8680   15.4070 H   0  0  0  0  0  0
   21.3070   21.2270   16.8080 C   0  0  0  0  0  0
   21.9670   20.3530   17.6750 C   0  0  0  0  0  0
   21.4210   19.5880   18.2240 H   0  0  0  0  0  0
   23.3500   20.4650   17.8460 C   0  0  0  0  0  0
   23.8550   19.7830   18.5290 H   0  0  0  0  0  0
   19.5490   21.0740   16.5840 S   0  0  0  0  0  0
   19.0170   22.4060   16.3140 O   0  0  0  0  0  0
   19.0110   20.3280   17.7170 O   0  0  0  0  0  0
   19.3980   20.0820   15.1210 C   0  0  0  0  0  0
   18.3340   19.9380   14.9180 H   0  0  0  0  0  0
   19.8770   19.1160   15.2960 H   0  0  0  0  0  0
   19.8680   20.6040   14.2860 H   0  0  0  0  0  0
   26.1270   22.6660   15.1610 C   0  0  0  0  0  0
   25.5500   21.9130   14.1280 C   0  0  0  0  0  0
   25.3010   20.8630   14.2600 H   0  0  0  0  0  0
   25.2290   22.5230   12.9130 C   0  0  0  0  0  0
   24.7720   21.9480   12.1120 H   0  0  0  0  0  0
   25.4840   23.8780   12.7350 C   0  0  0  0  0  0
   26.0550   24.6370   13.7490 C   0  0  0  0  0  0
   26.2530   25.6930   13.5880 H   0  0  0  0  0  0
   26.3770   24.0330   14.9670 C   0  0  0  0  0  0
   26.8520   24.6390   15.7350 H   0  0  0  0  0  0
   25.1740   24.4600   11.5690 F   0  0  0  0  0  0
  1  2  1  0  0  0
  1  6  1  0  0  0
  1 30  1  0  0  0
  2  3  2  0  0  0
  2 13  1  0  0  0
  3  4  1  0  0  0
  3  5  1  0  0  0
  5  6  2  0  0  0
  5 11  1  0  0  0
  6  7  1  0  0  0
  7  8  1  0  0  0
  7  9  1  0  0  0
  7 10  1  0  0  0
 11 12  3  0  0  0
 13 14  1  0  0  0
 13 21  2  0  0  0
 14 15  1  0  0  0
 14 16  2  0  0  0
 16 17  1  0  0  0
 16 18  1  0  0  0
 18 19  2  0  0  0
 18 23  1  0  0  0
 19 20  1  0  0  0
 19 21  1  0  0  0
 21 22  1  0  0  0
 23 24  2  0  0  0
 23 25  2  0  0  0
 23 26  1  0  0  0
 26 27  1  0  0  0
 26 28  1  0  0  0
 26 29  1  0  0  0
 30 31  1  0  0  0
 30 38  2  0  0  0
 31 32  1  0  0  0
 31 33  2  0  0  0
 33 34  1  0  0  0
 33 35  1  0  0  0
 35 36  2  0  0  0
 35 40  1  0  0  0
 36 37  1  0  0  0
 36 38  1  0  0  0
 38 39  1  0  0  0
M  END
>  <ACTIVITY>
6.12

>  <SET>
2

>  <Min_dist>
0.24

>  <Avg_dist>
0.55

$$$$
1-34
  Cerius2 12110214053D 1   1.00000                          
Structure written by Cerius2 SD Exporter
 39 41  0  0  0  0  0  0  0  0999 V2000
   26.4490   22.0480   16.4100 N   0  0  0  0  0  0
   25.5300   21.5460   17.3440 C   0  0  0  0  0  0
   26.2490   21.0540   18.4210 C   0  0  0  0  0  0
   25.8190   20.5820   19.2970 H   0  0  0  0  0  0
   27.6070   21.2400   18.1430 C   0  0  0  0  0  0
   27.7380   21.8670   16.9240 C   0  0  0  0  0  0
   28.9860   22.3630   16.2700 C   0  0  0  0  0  0
   29.7690   22.5530   17.0110 H   0  0  0  0  0  0
   28.8230   23.3110   15.7470 H   0  0  0  0  0  0
   29.3720   21.6220   15.5650 H   0  0  0  0  0  0
   28.9690   20.7110   19.3230 Br  0  0  0  0  0  0
   24.0770   21.4470   17.1600 C   0  0  0  0  0  0
   23.4040   22.2990   16.2730 C   0  0  0  0  0  0
   23.9520   23.0530   15.7090 H   0  0  0  0  0  0
   22.0220   22.1930   16.0960 C   0  0  0  0  0  0
   21.5190   22.8670   15.4060 H   0  0  0  0  0  0
   21.3080   21.2270   16.8080 C   0  0  0  0  0  0
   21.9670   20.3540   17.6760 C   0  0  0  0  0  0
   21.4200   19.5890   18.2240 H   0  0  0  0  0  0
   23.3500   20.4650   17.8490 C   0  0  0  0  0  0
   23.8550   19.7840   18.5320 H   0  0  0  0  0  0
   19.5510   21.0750   16.5750 S   0  0  0  0  0  0
   19.0210   22.4030   16.2840 O   0  0  0  0  0  0
   19.0060   20.3450   17.7160 O   0  0  0  0  0  0
   19.4060   20.0640   15.1250 C   0  0  0  0  0  0
   18.3430   19.9230   14.9160 H   0  0  0  0  0  0
   19.8790   19.0990   15.3150 H   0  0  0  0  0  0
   19.8850   20.5740   14.2870 H   0  0  0  0  0  0
   26.1250   22.6660   15.1610 C   0  0  0  0  0  0
   25.5460   21.9120   14.1300 C   0  0  0  0  0  0
   25.2970   20.8620   14.2630 H   0  0  0  0  0  0
   25.2220   22.5220   12.9150 C   0  0  0  0  0  0
   24.7640   21.9470   12.1160 H   0  0  0  0  0  0
   25.4770   23.8770   12.7360 C   0  0  0  0  0  0
   26.0500   24.6360   13.7490 C   0  0  0  0  0  0
   26.2470   25.6920   13.5880 H   0  0  0  0  0  0
   26.3750   24.0330   14.9660 C   0  0  0  0  0  0
   26.8520   24.6390   15.7320 H   0  0  0  0  0  0
   25.1660   24.4580   11.5700 F   0  0  0  0  0  0
  1  2  1  0  0  0
  1  6  1  0  0  0
  1 29  1  0  0  0
  2  3  2  0  0  0
  2 12  1  0  0  0
  3  4  1  0  0  0
  3  5  1  0  0  0
  5  6  2  0  0  0
  5 11  1  0  0  0
  6  7  1  0  0  0
  7  8  1  0  0  0
  7  9  1  0  0  0
  7 10  1  0  0  0
 12 13  1  0  0  0
 12 20  2  0  0  0
 13 14  1  0  0  0
 13 15  2  0  0  0
 15 16  1  0  0  0
 15 17  1  0  0  0
 17 18  2  0  0  0
 17 22  1  0  0  0
 18 19  1  0  0  0
 18 20  1  0  0  0
 20 21  1  0  0  0
 22 23  2  0  0  0
 22 24  2  0  0  0
 22 25  1  0  0  0
 25 26  1  0  0  0
 25 27  1  0  0  0
 25 28  1  0  0  0
 29 30  1  0  0  0
 29 37  2  0  0  0
 30 31  1  0  0  0
 30 32  2  0  0  0
 32 33  1  0  0  0
 32 34  1  0  0  0
 34 35  2  0  0  0
 34 39  1  0  0  0
 35 36  1  0  0  0
 35 37  1  0  0  0
 37 38  1  0  0  0
M  END
>  <ACTIVITY>
7.7

>  <SET>
2

>  <Min_dist>
0.1

>  <Avg_dist>
0.51

$$$$
1-37
  Cerius2 12110214053D 1   1.00000                          
Structure written by Cerius2 SD Exporter
 48 50  0  0  0  0  0  0  0  0999 V2000
   26.4470   22.0430   16.4080 N   0  0  0  0  0  0
   25.5300   21.5480   17.3420 C   0  0  0  0  0  0
   26.2490   21.0680   18.4230 C   0  0  0  0  0  0
   25.8140   20.6070   19.3030 H   0  0  0  0  0  0
   27.6290   21.2400   18.1670 C   0  0  0  0  0  0
   27.7330   21.8580   16.9270 C   0  0  0  0  0  0
   28.9830   22.3480   16.2650 C   0  0  0  0  0  0
   29.7770   22.5070   17.0040 H   0  0  0  0  0  0
   28.8300   23.3060   15.7610 H   0  0  0  0  0  0
   29.3510   21.6110   15.5460 H   0  0  0  0  0  0
   28.7420   20.8480   19.0910 C   0  0  0  0  0  0
   29.6350   20.6000   18.5040 H   0  0  0  0  0  0
   28.4470   19.9650   19.6710 H   0  0  0  0  0  0
   29.0370   21.9270   19.9880 O   0  0  0  0  0  0
   30.0520   21.6690   20.8550 C   0  0  0  0  0  0
   30.2880   22.8540   21.7390 C   0  0  0  0  0  0
   31.1080   22.6340   22.4290 H   0  0  0  0  0  0
   29.3900   23.0670   22.3240 H   0  0  0  0  0  0
   30.5670   23.7190   21.1320 H   0  0  0  0  0  0
   30.6870   20.6220   20.9130 O   0  0  0  0  0  0
   24.0770   21.4470   17.1580 C   0  0  0  0  0  0
   23.4040   22.2990   16.2710 C   0  0  0  0  0  0
   23.9510   23.0530   15.7070 H   0  0  0  0  0  0
   22.0210   22.1930   16.0950 C   0  0  0  0  0  0
   21.5180   22.8680   15.4060 H   0  0  0  0  0  0
   21.3080   21.2250   16.8070 C   0  0  0  0  0  0
   21.9690   20.3520   17.6740 C   0  0  0  0  0  0
   21.4220   19.5880   18.2220 H   0  0  0  0  0  0
   23.3510   20.4640   17.8470 C   0  0  0  0  0  0
   23.8570   19.7840   18.5300 H   0  0  0  0  0  0
   19.5510   21.0720   16.5810 S   0  0  0  0  0  0
   19.0190   22.4040   16.3120 O   0  0  0  0  0  0
   19.0130   20.3250   17.7130 O   0  0  0  0  0  0
   19.4020   20.0820   15.1170 C   0  0  0  0  0  0
   18.3390   19.9390   14.9120 H   0  0  0  0  0  0
   19.8810   19.1160   15.2920 H   0  0  0  0  0  0
   19.8750   20.6050   14.2840 H   0  0  0  0  0  0
   26.1250   22.6630   15.1600 C   0  0  0  0  0  0
   25.5460   21.9140   14.1260 C   0  0  0  0  0  0
   25.2940   20.8640   14.2560 H   0  0  0  0  0  0
   25.2250   22.5280   12.9130 C   0  0  0  0  0  0
   24.7680   21.9560   12.1100 H   0  0  0  0  0  0
   25.4830   23.8830   12.7380 C   0  0  0  0  0  0
   26.0550   24.6390   13.7530 C   0  0  0  0  0  0
   26.2540   25.6950   13.5970 H   0  0  0  0  0  0
   26.3780   24.0310   14.9680 C   0  0  0  0  0  0
   26.8560   24.6330   15.7380 H   0  0  0  0  0  0
   25.1730   24.4680   11.5730 F   0  0  0  0  0  0
  1  2  1  0  0  0
  1  6  1  0  0  0
  1 38  1  0  0  0
  2  3  2  0  0  0
  2 21  1  0  0  0
  3  4  1  0  0  0
  3  5  1  0  0  0
  5  6  2  0  0  0
  5 11  1  0  0  0
  6  7  1  0  0  0
  7  8  1  0  0  0
  7  9  1  0  0  0
  7 10  1  0  0  0
 11 12  1  0  0  0
 11 13  1  0  0  0
 11 14  1  0  0  0
 14 15  1  0  0  0
 15 16  1  0  0  0
 15 20  2  0  0  0
 16 17  1  0  0  0
 16 18  1  0  0  0
 16 19  1  0  0  0
 21 22  1  0  0  0
 21 29  2  0  0  0
 22 23  1  0  0  0
 22 24  2  0  0  0
 24 25  1  0  0  0
 24 26  1  0  0  0
 26 27  2  0  0  0
 26 31  1  0  0  0
 27 28  1  0  0  0
 27 29  1  0  0  0
 29 30  1  0  0  0
 31 32  2  0  0  0
 31 33  2  0  0  0
 31 34  1  0  0  0
 34 35  1  0  0  0
 34 36  1  0  0  0
 34 37  1  0  0  0
 38 39  1  0  0  0
 38 46  2  0  0  0
 39 40  1  0  0  0
 39 41  2  0  0  0
 41 42  1  0  0  0
 41 43  1  0  0  0
 43 44  2  0  0  0
 43 48  1  0  0  0
 44 45  1  0  0  0
 44 46  1  0  0  0
 46 47  1  0  0  0
M  END
>  <ACTIVITY>
6.33

>  <SET>
2

>  <Min_dist>
0.22

>  <Avg_dist>
0.59

$$$$
1-38
  Cerius2 12110214053D 1   1.00000                          
Structure written by Cerius2 SD Exporter
 43 45  0  0  0  0  0  0  0  0999 V2000
   26.4470   22.0470   16.4100 N   0  0  0  0  0  0
   25.5300   21.5460   17.3410 C   0  0  0  0  0  0
   26.2500   21.0610   18.4190 C   0  0  0  0  0  0
   25.8170   20.5930   19.2970 H   0  0  0  0  0  0
   27.6310   21.2370   18.1660 C   0  0  0  0  0  0
   27.7330   21.8650   16.9300 C   0  0  0  0  0  0
   28.9800   22.3680   16.2740 C   0  0  0  0  0  0
   29.7690   22.5330   17.0160 H   0  0  0  0  0  0
   28.8200   23.3280   15.7730 H   0  0  0  0  0  0
   29.3570   21.6380   15.5520 H   0  0  0  0  0  0
   28.7410   20.8350   19.0820 C   0  0  0  0  0  0
   29.6430   20.5900   18.5110 H   0  0  0  0  0  0
   28.4560   19.9530   19.6650 H   0  0  0  0  0  0
   29.0500   21.8910   19.9900 O   0  0  0  0  0  0
   29.7750   21.5380   20.5470 H   0  0  0  0  0  0
   24.0770   21.4450   17.1570 C   0  0  0  0  0  0
   23.4030   22.2980   16.2700 C   0  0  0  0  0  0
   23.9500   23.0520   15.7060 H   0  0  0  0  0  0
   22.0200   22.1920   16.0950 C   0  0  0  0  0  0
   21.5160   22.8680   15.4070 H   0  0  0  0  0  0
   21.3070   21.2250   16.8080 C   0  0  0  0  0  0
   21.9680   20.3510   17.6740 C   0  0  0  0  0  0
   21.4220   19.5860   18.2220 H   0  0  0  0  0  0
   23.3510   20.4620   17.8440 C   0  0  0  0  0  0
   23.8570   19.7800   18.5260 H   0  0  0  0  0  0
   19.5490   21.0760   16.5830 S   0  0  0  0  0  0
   19.0200   22.4070   16.3060 O   0  0  0  0  0  0
   19.0100   20.3370   17.7210 O   0  0  0  0  0  0
   19.3960   20.0770   15.1260 C   0  0  0  0  0  0
   18.3330   19.9370   14.9210 H   0  0  0  0  0  0
   19.8700   19.1100   15.3060 H   0  0  0  0  0  0
   19.8710   20.5930   14.2890 H   0  0  0  0  0  0
   26.1260   22.6650   15.1610 C   0  0  0  0  0  0
   25.5490   21.9130   14.1280 C   0  0  0  0  0  0
   25.2990   20.8630   14.2610 H   0  0  0  0  0  0
   25.2280   22.5230   12.9130 C   0  0  0  0  0  0
   24.7710   21.9490   12.1120 H   0  0  0  0  0  0
   25.4840   23.8780   12.7350 C   0  0  0  0  0  0
   26.0550   24.6370   13.7500 C   0  0  0  0  0  0
   26.2530   25.6930   13.5900 H   0  0  0  0  0  0
   26.3760   24.0330   14.9670 C   0  0  0  0  0  0
   26.8520   24.6380   15.7360 H   0  0  0  0  0  0
   25.1740   24.4600   11.5690 F   0  0  0  0  0  0
  1  2  1  0  0  0
  1  6  1  0  0  0
  1 33  1  0  0  0
  2  3  2  0  0  0
  2 16  1  0  0  0
  3  4  1  0  0  0
  3  5  1  0  0  0
  5  6  2  0  0  0
  5 11  1  0  0  0
  6  7  1  0  0  0
  7  8  1  0  0  0
  7  9  1  0  0  0
  7 10  1  0  0  0
 11 12  1  0  0  0
 11 13  1  0  0  0
 11 14  1  0  0  0
 14 15  1  0  0  0
 16 17  1  0  0  0
 16 24  2  0  0  0
 17 18  1  0  0  0
 17 19  2  0  0  0
 19 20  1  0  0  0
 19 21  1  0  0  0
 21 22  2  0  0  0
 21 26  1  0  0  0
 22 23  1  0  0  0
 22 24  1  0  0  0
 24 25  1  0  0  0
 26 27  2  0  0  0
 26 28  2  0  0  0
 26 29  1  0  0  0
 29 30  1  0  0  0
 29 31  1  0  0  0
 29 32  1  0  0  0
 33 34  1  0  0  0
 33 41  2  0  0  0
 34 35  1  0  0  0
 34 36  2  0  0  0
 36 37  1  0  0  0
 36 38  1  0  0  0
 38 39  2  0  0  0
 38 43  1  0  0  0
 39 40  1  0  0  0
 39 41  1  0  0  0
 41 42  1  0  0  0
M  END
>  <ACTIVITY>
5.41

>  <SET>
1

>  <Min_dist>
999.9

>  <Avg_dist>
999.9

$$$$
1-4
  Cerius2 12110214053D 1   1.00000                          
Structure written by Cerius2 SD Exporter
 36 38  0  0  0  0  0  0  0  0999 V2000
   26.4120   22.0400   16.3890 N   0  0  0  0  0  0
   25.4970   21.5620   17.3370 C   0  0  0  0  0  0
   26.2220   21.1440   18.4460 C   0  0  0  0  0  0
   25.7940   20.7280   19.3520 H   0  0  0  0  0  0
   27.5910   21.2840   18.1630 C   0  0  0  0  0  0
   28.4250   21.0290   18.8070 H   0  0  0  0  0  0
   27.6830   21.7990   16.8920 C   0  0  0  0  0  0
   28.5670   22.0700   16.3300 H   0  0  0  0  0  0
   24.0480   21.4160   17.1580 C   0  0  0  0  0  0
   23.3350   20.4360   17.8650 C   0  0  0  0  0  0
   23.8520   19.7620   18.5470 H   0  0  0  0  0  0
   21.9520   20.3110   17.7070 C   0  0  0  0  0  0
   21.4190   19.5410   18.2610 H   0  0  0  0  0  0
   21.2760   21.1740   16.8410 C   0  0  0  0  0  0
   21.9690   22.1710   16.1490 C   0  0  0  0  0  0
   21.4480   22.8560   15.4840 H   0  0  0  0  0  0
   23.3520   22.2900   16.3120 C   0  0  0  0  0  0
   23.8840   23.0690   15.7660 H   0  0  0  0  0  0
   19.5140   21.0350   16.6490 S   0  0  0  0  0  0
   18.9890   22.3670   16.3640 O   0  0  0  0  0  0
   18.9890   20.3150   17.8050 O   0  0  0  0  0  0
   19.3270   20.0190   15.2070 C   0  0  0  0  0  0
   18.2590   19.8820   15.0250 H   0  0  0  0  0  0
   19.8000   19.0520   15.3900 H   0  0  0  0  0  0
   19.7880   20.5220   14.3550 H   0  0  0  0  0  0
   26.1580   22.6920   15.1380 C   0  0  0  0  0  0
   25.6660   21.9520   14.0490 C   0  0  0  0  0  0
   25.4270   20.8940   14.1340 H   0  0  0  0  0  0
   25.4230   22.5740   12.8200 C   0  0  0  0  0  0
   25.0310   22.0040   11.9830 H   0  0  0  0  0  0
   25.6820   23.9300   12.6740 C   0  0  0  0  0  0
   26.1840   24.6760   13.7320 C   0  0  0  0  0  0
   26.3970   25.7330   13.5970 H   0  0  0  0  0  0
   26.4260   24.0580   14.9630 C   0  0  0  0  0  0
   26.8670   24.6640   15.7490 H   0  0  0  0  0  0
   25.4510   24.5250   11.4970 F   0  0  0  0  0  0
  1  2  1  0  0  0
  1  7  1  0  0  0
  1 26  1  0  0  0
  2  3  2  0  0  0
  2  9  1  0  0  0
  3  4  1  0  0  0
  3  5  1  0  0  0
  5  6  1  0  0  0
  5  7  2  0  0  0
  7  8  1  0  0  0
  9 10  1  0  0  0
  9 17  2  0  0  0
 10 11  1  0  0  0
 10 12  2  0  0  0
 12 13  1  0  0  0
 12 14  1  0  0  0
 14 15  2  0  0  0
 14 19  1  0  0  0
 15 16  1  0  0  0
 15 17  1  0  0  0
 17 18  1  0  0  0
 19 20  2  0  0  0
 19 21  2  0  0  0
 19 22  1  0  0  0
 22 23  1  0  0  0
 22 24  1  0  0  0
 22 25  1  0  0  0
 26 27  1  0  0  0
 26 34  2  0  0  0
 27 28  1  0  0  0
 27 29  2  0  0  0
 29 30  1  0  0  0
 29 31  1  0  0  0
 31 32  2  0  0  0
 31 36  1  0  0  0
 32 33  1  0  0  0
 32 34  1  0  0  0
 34 35  1  0  0  0
M  END
>  <ACTIVITY>
4.99

>  <SET>
2

>  <Min_dist>
0.12

>  <Avg_dist>
0.53

$$$$
1-41
  Cerius2 12110214053D 1   1.00000                          
Structure written by Cerius2 SD Exporter
 46 48  0  0  0  0  0  0  0  0999 V2000
   26.4480   22.0490   16.4120 N   0  0  0  0  0  0
   25.5300   21.5460   17.3400 C   0  0  0  0  0  0
   26.2500   21.0490   18.4120 C   0  0  0  0  0  0
   25.8130   20.5680   19.2800 H   0  0  0  0  0  0
   27.6350   21.2330   18.1680 C   0  0  0  0  0  0
   27.7350   21.8740   16.9350 C   0  0  0  0  0  0
   28.9750   22.3860   16.2680 C   0  0  0  0  0  0
   29.7620   22.5810   17.0030 H   0  0  0  0  0  0
   28.7990   23.3340   15.7500 H   0  0  0  0  0  0
   29.3620   21.6490   15.5590 H   0  0  0  0  0  0
   28.7380   20.8030   19.1140 C   0  0  0  0  0  0
   29.6110   20.4820   18.5380 H   0  0  0  0  0  0
   29.1530   21.9130   20.1090 C   0  0  0  0  0  0
   28.1270   22.3090   20.9060 F   0  0  0  0  0  0
   30.1390   21.4710   20.9390 F   0  0  0  0  0  0
   29.6360   23.0220   19.4940 F   0  0  0  0  0  0
   28.2350   19.6910   19.8960 O   0  0  0  0  0  0
   28.9720   19.4420   20.4930 H   0  0  0  0  0  0
   24.0780   21.4470   17.1570 C   0  0  0  0  0  0
   23.4040   22.2990   16.2700 C   0  0  0  0  0  0
   23.9510   23.0530   15.7060 H   0  0  0  0  0  0
   22.0210   22.1940   16.0950 C   0  0  0  0  0  0
   21.5170   22.8680   15.4060 H   0  0  0  0  0  0
   21.3080   21.2270   16.8070 C   0  0  0  0  0  0
   21.9680   20.3540   17.6750 C   0  0  0  0  0  0
   21.4210   19.5900   18.2230 H   0  0  0  0  0  0
   23.3510   20.4660   17.8460 C   0  0  0  0  0  0
   23.8560   19.7850   18.5300 H   0  0  0  0  0  0
   19.5500   21.0760   16.5810 S   0  0  0  0  0  0
   19.0200   22.4070   16.3000 O   0  0  0  0  0  0
   19.0100   20.3400   17.7210 O   0  0  0  0  0  0
   19.4000   20.0730   15.1270 C   0  0  0  0  0  0
   18.3370   19.9290   14.9220 H   0  0  0  0  0  0
   19.8780   19.1080   15.3090 H   0  0  0  0  0  0
   19.8730   20.5880   14.2890 H   0  0  0  0  0  0
   26.1250   22.6650   15.1620 C   0  0  0  0  0  0
   25.5470   21.9100   14.1310 C   0  0  0  0  0  0
   25.3000   20.8600   14.2670 H   0  0  0  0  0  0
   25.2260   22.5180   12.9150 C   0  0  0  0  0  0
   24.7700   21.9410   12.1150 H   0  0  0  0  0  0
   25.4810   23.8720   12.7340 C   0  0  0  0  0  0
   26.0510   24.6340   13.7470 C   0  0  0  0  0  0
   26.2480   25.6900   13.5850 H   0  0  0  0  0  0
   26.3740   24.0320   14.9660 C   0  0  0  0  0  0
   26.8490   24.6390   15.7330 H   0  0  0  0  0  0
   25.1720   24.4510   11.5660 F   0  0  0  0  0  0
  1  2  1  0  0  0
  1  6  1  0  0  0
  1 36  1  0  0  0
  2  3  2  0  0  0
  2 19  1  0  0  0
  3  4  1  0  0  0
  3  5  1  0  0  0
  5  6  2  0  0  0
  5 11  1  0  0  0
  6  7  1  0  0  0
  7  8  1  0  0  0
  7  9  1  0  0  0
  7 10  1  0  0  0
 11 12  1  0  0  0
 11 13  1  0  0  0
 11 17  1  0  0  0
 13 14  1  0  0  0
 13 15  1  0  0  0
 13 16  1  0  0  0
 17 18  1  0  0  0
 19 20  1  0  0  0
 19 27  2  0  0  0
 20 21  1  0  0  0
 20 22  2  0  0  0
 22 23  1  0  0  0
 22 24  1  0  0  0
 24 25  2  0  0  0
 24 29  1  0  0  0
 25 26  1  0  0  0
 25 27  1  0  0  0
 27 28  1  0  0  0
 29 30  2  0  0  0
 29 31  2  0  0  0
 29 32  1  0  0  0
 32 33  1  0  0  0
 32 34  1  0  0  0
 32 35  1  0  0  0
 36 37  1  0  0  0
 36 44  2  0  0  0
 37 38  1  0  0  0
 37 39  2  0  0  0
 39 40  1  0  0  0
 39 41  1  0  0  0
 41 42  2  0  0  0
 41 46  1  0  0  0
 42 43  1  0  0  0
 42 44  1  0  0  0
 44 45  1  0  0  0
M  END
>  <ACTIVITY>
5.84

>  <SET>
1

>  <Min_dist>
999.9

>  <Avg_dist>
999.9

$$$$
1-42
  Cerius2 12110214053D 1   1.00000                          
Structure written by Cerius2 SD Exporter
 45 47  0  0  0  0  0  0  0  0999 V2000
   26.4470   22.0460   16.4090 N   0  0  0  0  0  0
   25.5300   21.5470   17.3410 C   0  0  0  0  0  0
   26.2500   21.0560   18.4160 C   0  0  0  0  0  0
   25.8140   20.5820   19.2890 H   0  0  0  0  0  0
   27.6300   21.2410   18.1670 C   0  0  0  0  0  0
   27.7340   21.8670   16.9310 C   0  0  0  0  0  0
   28.9790   22.3680   16.2660 C   0  0  0  0  0  0
   29.7700   22.5380   17.0030 H   0  0  0  0  0  0
   28.8160   23.3260   15.7630 H   0  0  0  0  0  0
   29.3520   21.6350   15.5460 H   0  0  0  0  0  0
   28.7450   20.8270   19.0910 C   0  0  0  0  0  0
   29.6500   20.6230   18.5070 H   0  0  0  0  0  0
   28.4720   19.8790   19.5700 H   0  0  0  0  0  0
   29.0700   21.8430   20.1720 C   0  0  0  0  0  0
   28.0170   22.0850   20.9910 F   0  0  0  0  0  0
   30.0850   21.4030   20.9640 F   0  0  0  0  0  0
   29.4670   23.0350   19.6610 F   0  0  0  0  0  0
   24.0760   21.4480   17.1580 C   0  0  0  0  0  0
   23.4010   22.2990   16.2710 C   0  0  0  0  0  0
   23.9480   23.0520   15.7040 H   0  0  0  0  0  0
   22.0180   22.1930   16.0960 C   0  0  0  0  0  0
   21.5140   22.8670   15.4060 H   0  0  0  0  0  0
   21.3060   21.2270   16.8100 C   0  0  0  0  0  0
   21.9670   20.3550   17.6780 C   0  0  0  0  0  0
   21.4210   19.5900   18.2260 H   0  0  0  0  0  0
   23.3500   20.4670   17.8490 C   0  0  0  0  0  0
   23.8560   19.7860   18.5310 H   0  0  0  0  0  0
   19.5490   21.0710   16.5820 S   0  0  0  0  0  0
   19.0140   22.4020   16.3120 O   0  0  0  0  0  0
   19.0110   20.3240   17.7150 O   0  0  0  0  0  0
   19.4010   20.0790   15.1200 C   0  0  0  0  0  0
   18.3380   19.9330   14.9150 H   0  0  0  0  0  0
   19.8820   19.1150   15.2930 H   0  0  0  0  0  0
   19.8700   20.6030   14.2850 H   0  0  0  0  0  0
   26.1260   22.6650   15.1610 C   0  0  0  0  0  0
   25.5510   21.9130   14.1260 C   0  0  0  0  0  0
   25.3010   20.8630   14.2580 H   0  0  0  0  0  0
   25.2330   22.5240   12.9110 C   0  0  0  0  0  0
   24.7780   21.9500   12.1080 H   0  0  0  0  0  0
   25.4900   23.8780   12.7330 C   0  0  0  0  0  0
   26.0570   24.6370   13.7500 C   0  0  0  0  0  0
   26.2560   25.6930   13.5910 H   0  0  0  0  0  0
   26.3760   24.0320   14.9680 C   0  0  0  0  0  0
   26.8500   24.6370   15.7380 H   0  0  0  0  0  0
   25.1850   24.4610   11.5660 F   0  0  0  0  0  0
  1  2  1  0  0  0
  1  6  1  0  0  0
  1 35  1  0  0  0
  2  3  2  0  0  0
  2 18  1  0  0  0
  3  4  1  0  0  0
  3  5  1  0  0  0
  5  6  2  0  0  0
  5 11  1  0  0  0
  6  7  1  0  0  0
  7  8  1  0  0  0
  7  9  1  0  0  0
  7 10  1  0  0  0
 11 12  1  0  0  0
 11 13  1  0  0  0
 11 14  1  0  0  0
 14 15  1  0  0  0
 14 16  1  0  0  0
 14 17  1  0  0  0
 18 19  1  0  0  0
 18 26  2  0  0  0
 19 20  1  0  0  0
 19 21  2  0  0  0
 21 22  1  0  0  0
 21 23  1  0  0  0
 23 24  2  0  0  0
 23 28  1  0  0  0
 24 25  1  0  0  0
 24 26  1  0  0  0
 26 27  1  0  0  0
 28 29  2  0  0  0
 28 30  2  0  0  0
 28 31  1  0  0  0
 31 32  1  0  0  0
 31 33  1  0  0  0
 31 34  1  0  0  0
 35 36  1  0  0  0
 35 43  2  0  0  0
 36 37  1  0  0  0
 36 38  2  0  0  0
 38 39  1  0  0  0
 38 40  1  0  0  0
 40 41  2  0  0  0
 40 45  1  0  0  0
 41 42  1  0  0  0
 41 43  1  0  0  0
 43 44  1  0  0  0
M  END
>  <ACTIVITY>
6.85

>  <SET>
2

>  <Min_dist>
0.11

>  <Avg_dist>
0.53

$$$$
1-5
  Cerius2 12110214053D 1   1.00000                          
Structure written by Cerius2 SD Exporter
 39 41  0  0  0  0  0  0  0  0999 V2000
   26.4450   22.0420   16.4040 N   0  0  0  0  0  0
   25.5270   21.5490   17.3430 C   0  0  0  0  0  0
   26.2460   21.0740   18.4280 C   0  0  0  0  0  0
   25.8160   20.6170   19.3130 H   0  0  0  0  0  0
   27.6130   21.2460   18.1610 C   0  0  0  0  0  0
   28.4380   20.9800   18.8130 H   0  0  0  0  0  0
   27.7290   21.8510   16.9250 C   0  0  0  0  0  0
   28.9920   22.3220   16.2820 C   0  0  0  0  0  0
   29.7820   22.4330   17.0330 H   0  0  0  0  0  0
   28.8680   23.2990   15.8060 H   0  0  0  0  0  0
   29.3450   21.5970   15.5430 H   0  0  0  0  0  0
   24.0740   21.4470   17.1600 C   0  0  0  0  0  0
   23.3980   22.2970   16.2730 C   0  0  0  0  0  0
   23.9440   23.0520   15.7080 H   0  0  0  0  0  0
   22.0150   22.1890   16.0980 C   0  0  0  0  0  0
   21.5100   22.8620   15.4090 H   0  0  0  0  0  0
   21.3050   21.2210   16.8110 C   0  0  0  0  0  0
   21.9670   20.3480   17.6780 C   0  0  0  0  0  0
   21.4220   19.5830   18.2270 H   0  0  0  0  0  0
   23.3490   20.4630   17.8490 C   0  0  0  0  0  0
   23.8570   19.7830   18.5320 H   0  0  0  0  0  0
   19.5470   21.0680   16.5880 S   0  0  0  0  0  0
   19.0120   22.4020   16.3320 O   0  0  0  0  0  0
   19.0120   20.3110   17.7150 O   0  0  0  0  0  0
   19.3950   20.0900   15.1160 C   0  0  0  0  0  0
   18.3320   19.9480   14.9120 H   0  0  0  0  0  0
   19.8750   19.1240   15.2800 H   0  0  0  0  0  0
   19.8640   20.6210   14.2860 H   0  0  0  0  0  0
   26.1290   22.6660   15.1570 C   0  0  0  0  0  0
   25.5580   21.9220   14.1170 C   0  0  0  0  0  0
   25.3050   20.8720   14.2410 H   0  0  0  0  0  0
   25.2440   22.5380   12.9020 C   0  0  0  0  0  0
   24.7900   21.9580   12.1010 H   0  0  0  0  0  0
   25.4990   23.8960   12.7190 C   0  0  0  0  0  0
   25.2530   24.3740   11.7730 H   0  0  0  0  0  0
   26.0670   24.6420   13.7500 C   0  0  0  0  0  0
   26.2710   25.7010   13.6060 H   0  0  0  0  0  0
   26.3810   24.0320   14.9670 C   0  0  0  0  0  0
   26.8540   24.6350   15.7390 H   0  0  0  0  0  0
  1  2  1  0  0  0
  1  7  1  0  0  0
  1 29  1  0  0  0
  2  3  2  0  0  0
  2 12  1  0  0  0
  3  4  1  0  0  0
  3  5  1  0  0  0
  5  6  1  0  0  0
  5  7  2  0  0  0
  7  8  1  0  0  0
  8  9  1  0  0  0
  8 10  1  0  0  0
  8 11  1  0  0  0
 12 13  1  0  0  0
 12 20  2  0  0  0
 13 14  1  0  0  0
 13 15  2  0  0  0
 15 16  1  0  0  0
 15 17  1  0  0  0
 17 18  2  0  0  0
 17 22  1  0  0  0
 18 19  1  0  0  0
 18 20  1  0  0  0
 20 21  1  0  0  0
 22 23  2  0  0  0
 22 24  2  0  0  0
 22 25  1  0  0  0
 25 26  1  0  0  0
 25 27  1  0  0  0
 25 28  1  0  0  0
 29 30  1  0  0  0
 29 38  2  0  0  0
 30 31  1  0  0  0
 30 32  2  0  0  0
 32 33  1  0  0  0
 32 34  1  0  0  0
 34 35  1  0  0  0
 34 36  2  0  0  0
 36 37  1  0  0  0
 36 38  1  0  0  0
 38 39  1  0  0  0
M  END
>  <ACTIVITY>
7.22

>  <SET>
1

>  <Min_dist>
999.9

>  <Avg_dist>
999.9

$$$$
1-6
  Cerius2 12110214053D 1   1.00000                          
Structure written by Cerius2 SD Exporter
 42 44  0  0  0  0  0  0  0  0999 V2000
   26.4450   22.0410   16.4040 N   0  0  0  0  0  0
   25.5270   21.5480   17.3440 C   0  0  0  0  0  0
   26.2480   21.0750   18.4290 C   0  0  0  0  0  0
   25.8200   20.6190   19.3150 H   0  0  0  0  0  0
   27.6150   21.2480   18.1600 C   0  0  0  0  0  0
   28.4410   20.9830   18.8120 H   0  0  0  0  0  0
   27.7300   21.8520   16.9230 C   0  0  0  0  0  0
   28.9910   22.3230   16.2770 C   0  0  0  0  0  0
   29.7850   22.4280   17.0250 H   0  0  0  0  0  0
   28.8660   23.3030   15.8060 H   0  0  0  0  0  0
   29.3390   21.6010   15.5330 H   0  0  0  0  0  0
   24.0740   21.4450   17.1600 C   0  0  0  0  0  0
   23.3990   22.2970   16.2740 C   0  0  0  0  0  0
   23.9450   23.0520   15.7100 H   0  0  0  0  0  0
   22.0160   22.1890   16.0980 C   0  0  0  0  0  0
   21.5120   22.8630   15.4090 H   0  0  0  0  0  0
   21.3050   21.2210   16.8110 C   0  0  0  0  0  0
   21.9660   20.3480   17.6770 C   0  0  0  0  0  0
   21.4210   19.5810   18.2240 H   0  0  0  0  0  0
   23.3490   20.4610   17.8480 C   0  0  0  0  0  0
   23.8560   19.7790   18.5290 H   0  0  0  0  0  0
   19.5470   21.0700   16.5860 S   0  0  0  0  0  0
   19.0120   22.4040   16.3300 O   0  0  0  0  0  0
   19.0110   20.3120   17.7120 O   0  0  0  0  0  0
   19.3950   20.0940   15.1130 C   0  0  0  0  0  0
   18.3320   19.9520   14.9080 H   0  0  0  0  0  0
   19.8740   19.1270   15.2780 H   0  0  0  0  0  0
   19.8660   20.6250   14.2840 H   0  0  0  0  0  0
   26.1280   22.6660   15.1580 C   0  0  0  0  0  0
   25.5570   21.9220   14.1190 C   0  0  0  0  0  0
   25.3020   20.8720   14.2450 H   0  0  0  0  0  0
   25.2430   22.5380   12.9020 C   0  0  0  0  0  0
   24.7850   21.9440   12.1110 H   0  0  0  0  0  0
   25.5020   23.9010   12.7000 C   0  0  0  0  0  0
   26.0650   24.6420   13.7500 C   0  0  0  0  0  0
   26.2710   25.7040   13.6210 H   0  0  0  0  0  0
   26.3780   24.0310   14.9690 C   0  0  0  0  0  0
   26.8480   24.6340   15.7420 H   0  0  0  0  0  0
   25.1420   24.5660   11.3960 C   0  0  0  0  0  0
   25.9350   25.6370   11.0880 F   0  0  0  0  0  0
   23.8610   25.0460   11.3820 F   0  0  0  0  0  0
   25.2300   23.7330   10.3140 F   0  0  0  0  0  0
  1  2  1  0  0  0
  1  7  1  0  0  0
  1 29  1  0  0  0
  2  3  2  0  0  0
  2 12  1  0  0  0
  3  4  1  0  0  0
  3  5  1  0  0  0
  5  6  1  0  0  0
  5  7  2  0  0  0
  7  8  1  0  0  0
  8  9  1  0  0  0
  8 10  1  0  0  0
  8 11  1  0  0  0
 12 13  1  0  0  0
 12 20  2  0  0  0
 13 14  1  0  0  0
 13 15  2  0  0  0
 15 16  1  0  0  0
 15 17  1  0  0  0
 17 18  2  0  0  0
 17 22  1  0  0  0
 18 19  1  0  0  0
 18 20  1  0  0  0
 20 21  1  0  0  0
 22 23  2  0  0  0
 22 24  2  0  0  0
 22 25  1  0  0  0
 25 26  1  0  0  0
 25 27  1  0  0  0
 25 28  1  0  0  0
 29 30  1  0  0  0
 29 37  2  0  0  0
 30 31  1  0  0  0
 30 32  2  0  0  0
 32 33  1  0  0  0
 32 34  1  0  0  0
 34 35  2  0  0  0
 34 39  1  0  0  0
 35 36  1  0  0  0
 35 37  1  0  0  0
 37 38  1  0  0  0
 39 40  1  0  0  0
 39 41  1  0  0  0
 39 42  1  0  0  0
M  END
>  <ACTIVITY>
7.1

>  <SET>
1

>  <Min_dist>
999.9

>  <Avg_dist>
999.9

$$$$
1-8
  Cerius2 12110214053D 1   1.00000                          
Structure written by Cerius2 SD Exporter
 44 46  0  0  0  0  0  0  0  0999 V2000
   26.4450   22.0410   16.4040 N   0  0  0  0  0  0
   25.5280   21.5480   17.3430 C   0  0  0  0  0  0
   26.2480   21.0710   18.4270 C   0  0  0  0  0  0
   25.8190   20.6140   19.3120 H   0  0  0  0  0  0
   27.6150   21.2440   18.1580 C   0  0  0  0  0  0
   28.4410   20.9760   18.8090 H   0  0  0  0  0  0
   27.7300   21.8500   16.9230 C   0  0  0  0  0  0
   28.9920   22.3230   16.2790 C   0  0  0  0  0  0
   29.7840   22.4280   17.0290 H   0  0  0  0  0  0
   28.8670   23.3030   15.8090 H   0  0  0  0  0  0
   29.3420   21.6020   15.5350 H   0  0  0  0  0  0
   24.0740   21.4480   17.1620 C   0  0  0  0  0  0
   23.3980   22.2980   16.2740 C   0  0  0  0  0  0
   23.9440   23.0520   15.7080 H   0  0  0  0  0  0
   22.0160   22.1900   16.0990 C   0  0  0  0  0  0
   21.5110   22.8630   15.4080 H   0  0  0  0  0  0
   21.3040   21.2230   16.8120 C   0  0  0  0  0  0
   21.9660   20.3520   17.6810 C   0  0  0  0  0  0
   21.4200   19.5870   18.2300 H   0  0  0  0  0  0
   23.3480   20.4670   17.8520 C   0  0  0  0  0  0
   23.8550   19.7870   18.5360 H   0  0  0  0  0  0
   19.5480   21.0650   16.5830 S   0  0  0  0  0  0
   19.0100   22.3980   16.3240 O   0  0  0  0  0  0
   19.0110   20.3070   17.7090 O   0  0  0  0  0  0
   19.4030   20.0870   15.1110 C   0  0  0  0  0  0
   18.3400   19.9360   14.9080 H   0  0  0  0  0  0
   19.8900   19.1230   15.2760 H   0  0  0  0  0  0
   19.8680   20.6200   14.2810 H   0  0  0  0  0  0
   26.1280   22.6660   15.1580 C   0  0  0  0  0  0
   25.5570   21.9230   14.1180 C   0  0  0  0  0  0
   25.3040   20.8730   14.2440 H   0  0  0  0  0  0
   25.2420   22.5370   12.8990 C   0  0  0  0  0  0
   24.7900   21.9260   12.1210 H   0  0  0  0  0  0
   25.4940   23.9000   12.7060 C   0  0  0  0  0  0
   26.0640   24.6410   13.7490 C   0  0  0  0  0  0
   26.2760   25.7010   13.6230 H   0  0  0  0  0  0
   26.3790   24.0310   14.9680 C   0  0  0  0  0  0
   26.8520   24.6340   15.7400 H   0  0  0  0  0  0
   25.1740   24.5930   11.4200 C   0  0  0  0  0  0
   24.6700   23.9650   10.4860 O   0  0  0  0  0  0
   25.4760   26.0640   11.2900 C   0  0  0  0  0  0
   25.1720   26.4060   10.2960 H   0  0  0  0  0  0
   26.5500   26.2410   11.3960 H   0  0  0  0  0  0
   24.9100   26.6340   12.0310 H   0  0  0  0  0  0
  1  2  1  0  0  0
  1  7  1  0  0  0
  1 29  1  0  0  0
  2  3  2  0  0  0
  2 12  1  0  0  0
  3  4  1  0  0  0
  3  5  1  0  0  0
  5  6  1  0  0  0
  5  7  2  0  0  0
  7  8  1  0  0  0
  8  9  1  0  0  0
  8 10  1  0  0  0
  8 11  1  0  0  0
 12 13  1  0  0  0
 12 20  2  0  0  0
 13 14  1  0  0  0
 13 15  2  0  0  0
 15 16  1  0  0  0
 15 17  1  0  0  0
 17 18  2  0  0  0
 17 22  1  0  0  0
 18 19  1  0  0  0
 18 20  1  0  0  0
 20 21  1  0  0  0
 22 23  2  0  0  0
 22 24  2  0  0  0
 22 25  1  0  0  0
 25 26  1  0  0  0
 25 27  1  0  0  0
 25 28  1  0  0  0
 29 30  1  0  0  0
 29 37  2  0  0  0
 30 31  1  0  0  0
 30 32  2  0  0  0
 32 33  1  0  0  0
 32 34  1  0  0  0
 34 35  2  0  0  0
 34 39  1  0  0  0
 35 36  1  0  0  0
 35 37  1  0  0  0
 37 38  1  0  0  0
 39 40  2  0  0  0
 39 41  1  0  0  0
 41 42  1  0  0  0
 41 43  1  0  0  0
 41 44  1  0  0  0
M  END
>  <ACTIVITY>
5.54

>  <SET>
2

>  <Min_dist>
0.12

>  <Avg_dist>
0.54

$$$$
1-9
  Cerius2 12110214053D 1   1.00000                          
Structure written by Cerius2 SD Exporter
 39 41  0  0  0  0  0  0  0  0999 V2000
   26.4440   22.0460   16.4060 N   0  0  0  0  0  0
   25.5270   21.5470   17.3420 C   0  0  0  0  0  0
   26.2480   21.0700   18.4250 C   0  0  0  0  0  0
   25.8210   20.6110   19.3100 H   0  0  0  0  0  0
   27.6160   21.2460   18.1560 C   0  0  0  0  0  0
   28.4420   20.9780   18.8060 H   0  0  0  0  0  0
   27.7290   21.8550   16.9220 C   0  0  0  0  0  0
   28.9900   22.3300   16.2790 C   0  0  0  0  0  0
   29.7830   22.4330   17.0280 H   0  0  0  0  0  0
   28.8640   23.3120   15.8120 H   0  0  0  0  0  0
   29.3400   21.6120   15.5320 H   0  0  0  0  0  0
   24.0750   21.4440   17.1590 C   0  0  0  0  0  0
   23.4000   22.2970   16.2730 C   0  0  0  0  0  0
   23.9450   23.0510   15.7090 H   0  0  0  0  0  0
   22.0170   22.1910   16.0990 C   0  0  0  0  0  0
   21.5120   22.8660   15.4120 H   0  0  0  0  0  0
   21.3050   21.2230   16.8120 C   0  0  0  0  0  0
   21.9670   20.3480   17.6770 C   0  0  0  0  0  0
   21.4210   19.5830   18.2250 H   0  0  0  0  0  0
   23.3490   20.4610   17.8470 C   0  0  0  0  0  0
   23.8560   19.7800   18.5290 H   0  0  0  0  0  0
   19.5470   21.0720   16.5870 S   0  0  0  0  0  0
   19.0150   22.4040   16.3180 O   0  0  0  0  0  0
   19.0090   20.3250   17.7200 O   0  0  0  0  0  0
   19.3960   20.0820   15.1230 C   0  0  0  0  0  0
   18.3330   19.9410   14.9180 H   0  0  0  0  0  0
   19.8720   19.1150   15.2970 H   0  0  0  0  0  0
   19.8690   20.6040   14.2890 H   0  0  0  0  0  0
   26.1230   22.6740   15.1620 C   0  0  0  0  0  0
   26.3730   24.0390   14.9740 C   0  0  0  0  0  0
   26.8460   24.6500   15.7370 H   0  0  0  0  0  0
   26.0630   24.6310   13.7530 C   0  0  0  0  0  0
   25.5090   23.8830   12.7220 C   0  0  0  0  0  0
   25.2560   22.5280   12.8950 C   0  0  0  0  0  0
   24.8160   21.9500   12.0870 H   0  0  0  0  0  0
   25.5630   21.9200   14.1160 C   0  0  0  0  0  0
   25.3250   20.8660   14.2400 H   0  0  0  0  0  0
   25.2160   24.4670   11.5510 F   0  0  0  0  0  0
   26.3150   25.9360   13.5710 F   0  0  0  0  0  0
  1  2  1  0  0  0
  1  7  1  0  0  0
  1 29  1  0  0  0
  2  3  2  0  0  0
  2 12  1  0  0  0
  3  4  1  0  0  0
  3  5  1  0  0  0
  5  6  1  0  0  0
  5  7  2  0  0  0
  7  8  1  0  0  0
  8  9  1  0  0  0
  8 10  1  0  0  0
  8 11  1  0  0  0
 12 13  1  0  0  0
 12 20  2  0  0  0
 13 14  1  0  0  0
 13 15  2  0  0  0
 15 16  1  0  0  0
 15 17  1  0  0  0
 17 18  2  0  0  0
 17 22  1  0  0  0
 18 19  1  0  0  0
 18 20  1  0  0  0
 20 21  1  0  0  0
 22 23  2  0  0  0
 22 24  2  0  0  0
 22 25  1  0  0  0
 25 26  1  0  0  0
 25 27  1  0  0  0
 25 28  1  0  0  0
 29 30  1  0  0  0
 29 36  2  0  0  0
 30 31  1  0  0  0
 30 32  2  0  0  0
 32 33  1  0  0  0
 32 39  1  0  0  0
 33 34  2  0  0  0
 33 38  1  0  0  0
 34 35  1  0  0  0
 34 36  1  0  0  0
 36 37  1  0  0  0
M  END
>  <ACTIVITY>
6.6

>  <SET>
1

>  <Min_dist>
999.9

>  <Avg_dist>
999.9

$$$$
10-2
  Cerius2 12110214053D 1   1.00000                          
Structure written by Cerius2 SD Exporter
 36 38  0  0  0  0  0  0  0  0999 V2000
   26.4180   22.0760   16.4050 C   0  0  0  0  0  0
   25.4430   21.4850   17.2680 C   0  0  0  0  0  0
   26.1690   21.0490   18.3560 C   0  0  0  0  0  0
   27.4810   21.3400   18.1620 O   0  0  0  0  0  0
   27.6430   21.9860   16.9550 N   0  0  0  0  0  0
   25.8340   20.3800   19.6300 C   0  0  0  0  0  0
   25.6950   19.3060   19.4710 H   0  0  0  0  0  0
   24.9130   20.7900   20.0570 H   0  0  0  0  0  0
   26.6320   20.5140   20.3680 H   0  0  0  0  0  0
   24.0010   21.3780   17.1590 C   0  0  0  0  0  0
   23.2950   22.2460   16.3140 C   0  0  0  0  0  0
   23.8160   23.0110   15.7410 H   0  0  0  0  0  0
   21.9060   22.1430   16.1980 C   0  0  0  0  0  0
   21.3700   22.8230   15.5400 H   0  0  0  0  0  0
   21.2190   21.1730   16.9340 C   0  0  0  0  0  0
   21.9130   20.2960   17.7710 C   0  0  0  0  0  0
   21.3880   19.5320   18.3390 H   0  0  0  0  0  0
   23.3030   20.4020   17.8840 C   0  0  0  0  0  0
   23.8320   19.7080   18.5350 H   0  0  0  0  0  0
   19.4610   21.0320   16.7590 S   0  0  0  0  0  0
   18.8980   22.3380   16.4640 O   0  0  0  0  0  0
   18.9390   20.2340   17.8540 O   0  0  0  0  0  0
   19.3190   20.1170   15.3630 N   0  0  0  0  0  0
   18.8350   20.6390   14.6280 H   0  0  0  0  0  0
   18.8560   19.2240   15.5530 H   0  0  0  0  0  0
   26.2330   22.7060   15.0980 C   0  0  0  0  0  0
   26.4970   24.0740   14.9290 C   0  0  0  0  0  0
   26.8380   24.6780   15.7690 H   0  0  0  0  0  0
   26.3170   24.6850   13.6860 C   0  0  0  0  0  0
   26.5210   25.7480   13.5680 H   0  0  0  0  0  0
   25.8770   23.9350   12.5970 C   0  0  0  0  0  0
   25.7360   24.4110   11.6290 H   0  0  0  0  0  0
   25.6190   22.5740   12.7490 C   0  0  0  0  0  0
   25.2810   21.9850   11.8980 H   0  0  0  0  0  0
   25.7990   21.9610   13.9920 C   0  0  0  0  0  0
   25.6030   20.8930   14.0800 H   0  0  0  0  0  0
  1  2  1  0  0  0
  1  5  2  0  0  0
  1 26  1  0  0  0
  2  3  2  0  0  0
  2 10  1  0  0  0
  3  4  1  0  0  0
  3  6  1  0  0  0
  4  5  1  0  0  0
  6  7  1  0  0  0
  6  8  1  0  0  0
  6  9  1  0  0  0
 10 11  1  0  0  0
 10 18  2  0  0  0
 11 12  1  0  0  0
 11 13  2  0  0  0
 13 14  1  0  0  0
 13 15  1  0  0  0
 15 16  2  0  0  0
 15 20  1  0  0  0
 16 17  1  0  0  0
 16 18  1  0  0  0
 18 19  1  0  0  0
 20 21  2  0  0  0
 20 22  2  0  0  0
 20 23  1  0  0  0
 23 24  1  0  0  0
 23 25  1  0  0  0
 26 27  1  0  0  0
 26 35  2  0  0  0
 27 28  1  0  0  0
 27 29  2  0  0  0
 29 30  1  0  0  0
 29 31  1  0  0  0
 31 32  1  0  0  0
 31 33  2  0  0  0
 33 34  1  0  0  0
 33 35  1  0  0  0
 35 36  1  0  0  0
M  END
>  <ACTIVITY>
8.3

>  <SET>
1

>  <Min_dist>
999.9

>  <Avg_dist>
999.9

$$$$
10-3
  Cerius2 12110214053D 1   1.00000                          
Structure written by Cerius2 SD Exporter
 37 39  0  0  0  0  0  0  0  0999 V2000
   26.4180   22.0760   16.4060 C   0  0  0  0  0  0
   25.4460   21.4810   17.2710 C   0  0  0  0  0  0
   26.1760   21.0420   18.3570 C   0  0  0  0  0  0
   27.4870   21.3430   18.1600 O   0  0  0  0  0  0
   27.6440   21.9930   16.9540 N   0  0  0  0  0  0
   25.8530   20.3740   19.6350 C   0  0  0  0  0  0
   24.8280   20.5850   19.9550 H   0  0  0  0  0  0
   26.5430   20.6800   20.4280 H   0  0  0  0  0  0
   25.9940   18.9710   19.4190 O   0  0  0  0  0  0
   25.7790   18.5620   20.2840 H   0  0  0  0  0  0
   24.0040   21.3780   17.1630 C   0  0  0  0  0  0
   23.3000   22.2470   16.3170 C   0  0  0  0  0  0
   23.8230   23.0110   15.7450 H   0  0  0  0  0  0
   21.9110   22.1450   16.1980 C   0  0  0  0  0  0
   21.3760   22.8260   15.5390 H   0  0  0  0  0  0
   21.2210   21.1750   16.9310 C   0  0  0  0  0  0
   21.9120   20.2990   17.7710 C   0  0  0  0  0  0
   21.3850   19.5350   18.3380 H   0  0  0  0  0  0
   23.3020   20.4030   17.8870 C   0  0  0  0  0  0
   23.8300   19.7100   18.5400 H   0  0  0  0  0  0
   19.4640   21.0360   16.7490 S   0  0  0  0  0  0
   18.9020   22.3420   16.4520 O   0  0  0  0  0  0
   18.9380   20.2390   17.8430 O   0  0  0  0  0  0
   19.3260   20.1210   15.3520 N   0  0  0  0  0  0
   18.8480   20.6450   14.6140 H   0  0  0  0  0  0
   18.8580   19.2300   15.5400 H   0  0  0  0  0  0
   26.2280   22.7060   15.0990 C   0  0  0  0  0  0
   26.4900   24.0740   14.9290 C   0  0  0  0  0  0
   26.8310   24.6790   15.7680 H   0  0  0  0  0  0
   26.3110   24.6830   13.6850 C   0  0  0  0  0  0
   26.5140   25.7450   13.5660 H   0  0  0  0  0  0
   25.8710   23.9310   12.5970 C   0  0  0  0  0  0
   25.7320   24.4050   11.6270 H   0  0  0  0  0  0
   25.6130   22.5700   12.7510 C   0  0  0  0  0  0
   25.2740   21.9810   11.9010 H   0  0  0  0  0  0
   25.7920   21.9590   13.9950 C   0  0  0  0  0  0
   25.5970   20.8910   14.0840 H   0  0  0  0  0  0
  1  2  1  0  0  0
  1  5  2  0  0  0
  1 27  1  0  0  0
  2  3  2  0  0  0
  2 11  1  0  0  0
  3  4  1  0  0  0
  3  6  1  0  0  0
  4  5  1  0  0  0
  6  7  1  0  0  0
  6  8  1  0  0  0
  6  9  1  0  0  0
  9 10  1  0  0  0
 11 12  1  0  0  0
 11 19  2  0  0  0
 12 13  1  0  0  0
 12 14  2  0  0  0
 14 15  1  0  0  0
 14 16  1  0  0  0
 16 17  2  0  0  0
 16 21  1  0  0  0
 17 18  1  0  0  0
 17 19  1  0  0  0
 19 20  1  0  0  0
 21 22  2  0  0  0
 21 23  2  0  0  0
 21 24  1  0  0  0
 24 25  1  0  0  0
 24 26  1  0  0  0
 27 28  1  0  0  0
 27 36  2  0  0  0
 28 29  1  0  0  0
 28 30  2  0  0  0
 30 31  1  0  0  0
 30 32  1  0  0  0
 32 33  1  0  0  0
 32 34  2  0  0  0
 34 35  1  0  0  0
 34 36  1  0  0  0
 36 37  1  0  0  0
M  END
>  <ACTIVITY>
6.74

>  <SET>
2

>  <Min_dist>
0.17

>  <Avg_dist>
0.63

$$$$
11-10
  Cerius2 12110214053D 1   1.00000                          
Structure written by Cerius2 SD Exporter
 37 39  0  0  0  0  0  0  0  0999 V2000
   25.4830   21.5030   17.2330 C   0  0  0  0  0  0
   26.4390   22.0730   16.4030 C   0  0  0  0  0  0
   27.7410   22.0490   16.8920 N   0  0  0  0  0  0
   27.7820   21.4390   18.0680 C   0  0  0  0  0  0
   26.2560   20.8870   18.6430 S   0  0  0  0  0  0
   29.0050   21.2030   18.9110 C   0  0  0  0  0  0
   29.2420   19.8750   19.1410 F   0  0  0  0  0  0
   28.9220   21.7940   20.1420 F   0  0  0  0  0  0
   30.1460   21.6920   18.3370 F   0  0  0  0  0  0
   26.1660   22.6900   15.1100 C   0  0  0  0  0  0
   25.6660   21.9440   14.0320 C   0  0  0  0  0  0
   25.4710   20.8780   14.1320 H   0  0  0  0  0  0
   25.4190   22.5600   12.8020 C   0  0  0  0  0  0
   25.0280   21.9850   11.9680 H   0  0  0  0  0  0
   25.6800   23.9160   12.6480 C   0  0  0  0  0  0
   26.1900   24.6690   13.6990 C   0  0  0  0  0  0
   26.3940   25.7270   13.5600 H   0  0  0  0  0  0
   26.4370   24.0550   14.9290 C   0  0  0  0  0  0
   26.8380   24.6510   15.7480 H   0  0  0  0  0  0
   25.4440   24.5040   11.4680 F   0  0  0  0  0  0
   24.0260   21.4010   17.1140 C   0  0  0  0  0  0
   23.3110   20.4300   17.8310 C   0  0  0  0  0  0
   23.8290   19.7330   18.4890 H   0  0  0  0  0  0
   21.9220   20.3300   17.7060 C   0  0  0  0  0  0
   21.3880   19.5670   18.2690 H   0  0  0  0  0  0
   21.2410   21.2100   16.8620 C   0  0  0  0  0  0
   21.9380   22.1760   16.1320 C   0  0  0  0  0  0
   21.4160   22.8590   15.4660 H   0  0  0  0  0  0
   23.3260   22.2700   16.2630 C   0  0  0  0  0  0
   23.8570   23.0330   15.6940 H   0  0  0  0  0  0
   19.4760   21.0760   16.6830 S   0  0  0  0  0  0
   18.9440   22.4150   16.4510 O   0  0  0  0  0  0
   18.9670   20.3140   17.8190 O   0  0  0  0  0  0
   19.2760   20.1140   15.2060 C   0  0  0  0  0  0
   18.2060   19.9880   15.0270 H   0  0  0  0  0  0
   19.7460   19.1400   15.3500 H   0  0  0  0  0  0
   19.7330   20.6470   14.3700 H   0  0  0  0  0  0
  1  2  2  0  0  0
  1  5  1  0  0  0
  1 21  1  0  0  0
  2  3  1  0  0  0
  2 10  1  0  0  0
  3  4  2  0  0  0
  4  5  1  0  0  0
  4  6  1  0  0  0
  6  7  1  0  0  0
  6  8  1  0  0  0
  6  9  1  0  0  0
 10 11  1  0  0  0
 10 18  2  0  0  0
 11 12  1  0  0  0
 11 13  2  0  0  0
 13 14  1  0  0  0
 13 15  1  0  0  0
 15 16  2  0  0  0
 15 20  1  0  0  0
 16 17  1  0  0  0
 16 18  1  0  0  0
 18 19  1  0  0  0
 21 22  1  0  0  0
 21 29  2  0  0  0
 22 23  1  0  0  0
 22 24  2  0  0  0
 24 25  1  0  0  0
 24 26  1  0  0  0
 26 27  2  0  0  0
 26 31  1  0  0  0
 27 28  1  0  0  0
 27 29  1  0  0  0
 29 30  1  0  0  0
 31 32  2  0  0  0
 31 33  2  0  0  0
 31 34  1  0  0  0
 34 35  1  0  0  0
 34 36  1  0  0  0
 34 37  1  0  0  0
M  END
>  <ACTIVITY>
7.64

>  <SET>
1

>  <Min_dist>
999.9

>  <Avg_dist>
999.9

$$$$
11-13
  Cerius2 12110214053D 1   1.00000                          
Structure written by Cerius2 SD Exporter
 40 42  0  0  0  0  0  0  0  0999 V2000
   25.4820   21.5040   17.2330 C   0  0  0  0  0  0
   26.4390   22.0720   16.4020 C   0  0  0  0  0  0
   27.7410   22.0450   16.8910 N   0  0  0  0  0  0
   27.7720   21.4420   18.0610 C   0  0  0  0  0  0
   26.2560   20.8870   18.6420 S   0  0  0  0  0  0
   29.0170   21.2290   18.8670 C   0  0  0  0  0  0
   29.8660   21.1160   18.1830 H   0  0  0  0  0  0
   28.9530   20.2980   19.4430 H   0  0  0  0  0  0
   29.2850   22.3950   19.8060 C   0  0  0  0  0  0
   30.2130   22.2290   20.3630 H   0  0  0  0  0  0
   28.4730   22.5180   20.5300 H   0  0  0  0  0  0
   29.3850   23.3340   19.2510 H   0  0  0  0  0  0
   26.1680   22.6900   15.1100 C   0  0  0  0  0  0
   25.6670   21.9450   14.0310 C   0  0  0  0  0  0
   25.4720   20.8790   14.1300 H   0  0  0  0  0  0
   25.4200   22.5610   12.8010 C   0  0  0  0  0  0
   25.0290   21.9870   11.9660 H   0  0  0  0  0  0
   25.6820   23.9180   12.6480 C   0  0  0  0  0  0
   26.1910   24.6700   13.6990 C   0  0  0  0  0  0
   26.3960   25.7280   13.5610 H   0  0  0  0  0  0
   26.4380   24.0550   14.9290 C   0  0  0  0  0  0
   26.8390   24.6490   15.7490 H   0  0  0  0  0  0
   25.4470   24.5060   11.4680 F   0  0  0  0  0  0
   24.0250   21.4040   17.1150 C   0  0  0  0  0  0
   23.3100   20.4340   17.8340 C   0  0  0  0  0  0
   23.8280   19.7380   18.4930 H   0  0  0  0  0  0
   21.9210   20.3340   17.7070 C   0  0  0  0  0  0
   21.3860   19.5710   18.2690 H   0  0  0  0  0  0
   21.2400   21.2130   16.8620 C   0  0  0  0  0  0
   21.9370   22.1780   16.1320 C   0  0  0  0  0  0
   21.4170   22.8610   15.4640 H   0  0  0  0  0  0
   23.3260   22.2720   16.2630 C   0  0  0  0  0  0
   23.8570   23.0340   15.6930 H   0  0  0  0  0  0
   19.4760   21.0690   16.6830 S   0  0  0  0  0  0
   18.9380   22.4100   16.4780 O   0  0  0  0  0  0
   18.9710   20.2830   17.8050 O   0  0  0  0  0  0
   19.2780   20.1310   15.1920 C   0  0  0  0  0  0
   18.2090   19.9970   15.0160 H   0  0  0  0  0  0
   19.7590   19.1600   15.3160 H   0  0  0  0  0  0
   19.7240   20.6830   14.3620 H   0  0  0  0  0  0
  1  2  2  0  0  0
  1  5  1  0  0  0
  1 24  1  0  0  0
  2  3  1  0  0  0
  2 13  1  0  0  0
  3  4  2  0  0  0
  4  5  1  0  0  0
  4  6  1  0  0  0
  6  7  1  0  0  0
  6  8  1  0  0  0
  6  9  1  0  0  0
  9 10  1  0  0  0
  9 11  1  0  0  0
  9 12  1  0  0  0
 13 14  1  0  0  0
 13 21  2  0  0  0
 14 15  1  0  0  0
 14 16  2  0  0  0
 16 17  1  0  0  0
 16 18  1  0  0  0
 18 19  2  0  0  0
 18 23  1  0  0  0
 19 20  1  0  0  0
 19 21  1  0  0  0
 21 22  1  0  0  0
 24 25  1  0  0  0
 24 32  2  0  0  0
 25 26  1  0  0  0
 25 27  2  0  0  0
 27 28  1  0  0  0
 27 29  1  0  0  0
 29 30  2  0  0  0
 29 34  1  0  0  0
 30 31  1  0  0  0
 30 32  1  0  0  0
 32 33  1  0  0  0
 34 35  2  0  0  0
 34 36  2  0  0  0
 34 37  1  0  0  0
 37 38  1  0  0  0
 37 39  1  0  0  0
 37 40  1  0  0  0
M  END
>  <ACTIVITY>
7.64

>  <SET>
1

>  <Min_dist>
999.9

>  <Avg_dist>
999.9

$$$$
11-14
  Cerius2 12110214053D 1   1.00000                          
Structure written by Cerius2 SD Exporter
 46 48  0  0  0  0  0  0  0  0999 V2000
   25.4820   21.5030   17.2320 C   0  0  0  0  0  0
   26.4370   22.0720   16.4020 C   0  0  0  0  0  0
   27.7370   22.0490   16.8940 N   0  0  0  0  0  0
   27.7840   21.4440   18.0650 C   0  0  0  0  0  0
   26.2560   20.8900   18.6400 S   0  0  0  0  0  0
   29.0640   21.2380   18.8760 C   0  0  0  0  0  0
   30.2640   21.8430   18.1160 C   0  0  0  0  0  0
   31.1970   21.7090   18.6750 H   0  0  0  0  0  0
   30.1310   22.9190   17.9480 H   0  0  0  0  0  0
   30.3960   21.3700   17.1350 H   0  0  0  0  0  0
   29.3410   19.7380   19.0830 C   0  0  0  0  0  0
   30.2960   19.5800   19.6000 H   0  0  0  0  0  0
   29.3890   19.2060   18.1250 H   0  0  0  0  0  0
   28.5640   19.2570   19.6880 H   0  0  0  0  0  0
   28.9650   21.9420   20.2420 C   0  0  0  0  0  0
   29.9070   21.8620   20.7970 H   0  0  0  0  0  0
   28.1810   21.5050   20.8720 H   0  0  0  0  0  0
   28.7360   23.0080   20.1230 H   0  0  0  0  0  0
   26.1680   22.6900   15.1090 C   0  0  0  0  0  0
   25.6720   21.9450   14.0280 C   0  0  0  0  0  0
   25.4770   20.8790   14.1260 H   0  0  0  0  0  0
   25.4290   22.5620   12.7980 C   0  0  0  0  0  0
   25.0420   21.9880   11.9610 H   0  0  0  0  0  0
   25.6910   23.9190   12.6460 C   0  0  0  0  0  0
   26.1970   24.6710   13.6990 C   0  0  0  0  0  0
   26.4020   25.7290   13.5620 H   0  0  0  0  0  0
   26.4400   24.0550   14.9300 C   0  0  0  0  0  0
   26.8390   24.6490   15.7510 H   0  0  0  0  0  0
   25.4590   24.5080   11.4660 F   0  0  0  0  0  0
   24.0250   21.4000   17.1130 C   0  0  0  0  0  0
   23.3100   20.4290   17.8320 C   0  0  0  0  0  0
   23.8300   19.7330   18.4890 H   0  0  0  0  0  0
   21.9210   20.3290   17.7080 C   0  0  0  0  0  0
   21.3880   19.5660   18.2720 H   0  0  0  0  0  0
   21.2390   21.2090   16.8650 C   0  0  0  0  0  0
   21.9350   22.1750   16.1350 C   0  0  0  0  0  0
   21.4120   22.8580   15.4690 H   0  0  0  0  0  0
   23.3240   22.2700   16.2640 C   0  0  0  0  0  0
   23.8540   23.0320   15.6940 H   0  0  0  0  0  0
   19.4740   21.0740   16.6870 S   0  0  0  0  0  0
   18.9400   22.4140   16.4650 O   0  0  0  0  0  0
   18.9680   20.3030   17.8190 O   0  0  0  0  0  0
   19.2730   20.1210   15.2050 C   0  0  0  0  0  0
   18.2030   19.9950   15.0260 H   0  0  0  0  0  0
   19.7440   19.1460   15.3420 H   0  0  0  0  0  0
   19.7280   20.6600   14.3720 H   0  0  0  0  0  0
  1  2  2  0  0  0
  1  5  1  0  0  0
  1 30  1  0  0  0
  2  3  1  0  0  0
  2 19  1  0  0  0
  3  4  2  0  0  0
  4  5  1  0  0  0
  4  6  1  0  0  0
  6  7  1  0  0  0
  6 11  1  0  0  0
  6 15  1  0  0  0
  7  8  1  0  0  0
  7  9  1  0  0  0
  7 10  1  0  0  0
 11 12  1  0  0  0
 11 13  1  0  0  0
 11 14  1  0  0  0
 15 16  1  0  0  0
 15 17  1  0  0  0
 15 18  1  0  0  0
 19 20  1  0  0  0
 19 27  2  0  0  0
 20 21  1  0  0  0
 20 22  2  0  0  0
 22 23  1  0  0  0
 22 24  1  0  0  0
 24 25  2  0  0  0
 24 29  1  0  0  0
 25 26  1  0  0  0
 25 27  1  0  0  0
 27 28  1  0  0  0
 30 31  1  0  0  0
 30 38  2  0  0  0
 31 32  1  0  0  0
 31 33  2  0  0  0
 33 34  1  0  0  0
 33 35  1  0  0  0
 35 36  2  0  0  0
 35 40  1  0  0  0
 36 37  1  0  0  0
 36 38  1  0  0  0
 38 39  1  0  0  0
 40 41  2  0  0  0
 40 42  2  0  0  0
 40 43  1  0  0  0
 43 44  1  0  0  0
 43 45  1  0  0  0
 43 46  1  0  0  0
M  END
>  <ACTIVITY>
6.96

>  <SET>
1

>  <Min_dist>
999.9

>  <Avg_dist>
999.9

$$$$
11-16
  Cerius2 12110214053D 1   1.00000                          
Structure written by Cerius2 SD Exporter
 38 40  0  0  0  0  0  0  0  0999 V2000
   25.4830   21.5040   17.2330 C   0  0  0  0  0  0
   26.4390   22.0730   16.4030 C   0  0  0  0  0  0
   27.7410   22.0470   16.8920 N   0  0  0  0  0  0
   27.7770   21.4440   18.0640 C   0  0  0  0  0  0
   26.2570   20.8870   18.6420 S   0  0  0  0  0  0
   29.0210   21.2160   18.8690 C   0  0  0  0  0  0
   29.1610   20.1380   19.0110 H   0  0  0  0  0  0
   28.9250   21.6550   19.8680 H   0  0  0  0  0  0
   30.1880   21.7780   18.1740 C   0  0  0  0  0  0
   31.1220   22.2230   17.6370 N   0  0  0  0  0  0
   26.1670   22.6910   15.1100 C   0  0  0  0  0  0
   25.6670   21.9450   14.0320 C   0  0  0  0  0  0
   25.4730   20.8780   14.1320 H   0  0  0  0  0  0
   25.4200   22.5600   12.8020 C   0  0  0  0  0  0
   25.0300   21.9840   11.9670 H   0  0  0  0  0  0
   25.6820   23.9160   12.6480 C   0  0  0  0  0  0
   26.1910   24.6690   13.6980 C   0  0  0  0  0  0
   26.3950   25.7270   13.5590 H   0  0  0  0  0  0
   26.4380   24.0560   14.9290 C   0  0  0  0  0  0
   26.8380   24.6510   15.7480 H   0  0  0  0  0  0
   25.4460   24.5040   11.4670 F   0  0  0  0  0  0
   24.0260   21.4010   17.1140 C   0  0  0  0  0  0
   23.3100   20.4300   17.8320 C   0  0  0  0  0  0
   23.8290   19.7330   18.4890 H   0  0  0  0  0  0
   21.9210   20.3300   17.7060 C   0  0  0  0  0  0
   21.3880   19.5670   18.2700 H   0  0  0  0  0  0
   21.2400   21.2100   16.8630 C   0  0  0  0  0  0
   21.9370   22.1750   16.1330 C   0  0  0  0  0  0
   21.4140   22.8580   15.4660 H   0  0  0  0  0  0
   23.3250   22.2710   16.2640 C   0  0  0  0  0  0
   23.8550   23.0330   15.6940 H   0  0  0  0  0  0
   19.4750   21.0750   16.6830 S   0  0  0  0  0  0
   18.9430   22.4140   16.4500 O   0  0  0  0  0  0
   18.9660   20.3140   17.8190 O   0  0  0  0  0  0
   19.2760   20.1130   15.2070 C   0  0  0  0  0  0
   18.2060   19.9880   15.0260 H   0  0  0  0  0  0
   19.7450   19.1380   15.3510 H   0  0  0  0  0  0
   19.7340   20.6450   14.3710 H   0  0  0  0  0  0
  1  2  2  0  0  0
  1  5  1  0  0  0
  1 22  1  0  0  0
  2  3  1  0  0  0
  2 11  1  0  0  0
  3  4  2  0  0  0
  4  5  1  0  0  0
  4  6  1  0  0  0
  6  7  1  0  0  0
  6  8  1  0  0  0
  6  9  1  0  0  0
  9 10  3  0  0  0
 11 12  1  0  0  0
 11 19  2  0  0  0
 12 13  1  0  0  0
 12 14  2  0  0  0
 14 15  1  0  0  0
 14 16  1  0  0  0
 16 17  2  0  0  0
 16 21  1  0  0  0
 17 18  1  0  0  0
 17 19  1  0  0  0
 19 20  1  0  0  0
 22 23  1  0  0  0
 22 30  2  0  0  0
 23 24  1  0  0  0
 23 25  2  0  0  0
 25 26  1  0  0  0
 25 27  1  0  0  0
 27 28  2  0  0  0
 27 32  1  0  0  0
 28 29  1  0  0  0
 28 30  1  0  0  0
 30 31  1  0  0  0
 32 33  2  0  0  0
 32 34  2  0  0  0
 32 35  1  0  0  0
 35 36  1  0  0  0
 35 37  1  0  0  0
 35 38  1  0  0  0
M  END
>  <ACTIVITY>
6.46

>  <SET>
2

>  <Min_dist>
0.11

>  <Avg_dist>
0.59

$$$$
11-21
  Cerius2 12110214053D 1   1.00000                          
Structure written by Cerius2 SD Exporter
 44 47  0  0  0  0  0  0  0  0999 V2000
   25.4820   21.5020   17.2310 C   0  0  0  0  0  0
   26.4400   22.0700   16.4010 C   0  0  0  0  0  0
   27.7400   22.0460   16.8910 N   0  0  0  0  0  0
   27.7740   21.4190   18.0490 C   0  0  0  0  0  0
   26.2530   20.8930   18.6460 S   0  0  0  0  0  0
   28.9790   21.2240   18.8550 C   0  0  0  0  0  0
   30.1960   21.7380   18.3720 C   0  0  0  0  0  0
   30.2270   22.2680   17.4210 H   0  0  0  0  0  0
   31.3780   21.5820   19.1010 C   0  0  0  0  0  0
   32.3110   21.9900   18.7160 H   0  0  0  0  0  0
   31.3610   20.9050   20.3170 C   0  0  0  0  0  0
   32.2810   20.7820   20.8860 H   0  0  0  0  0  0
   30.1640   20.3780   20.8040 C   0  0  0  0  0  0
   30.1660   19.8420   21.7510 H   0  0  0  0  0  0
   28.9770   20.5310   20.0770 C   0  0  0  0  0  0
   27.5440   19.8150   20.7340 Cl  0  0  0  0  0  0
   26.1690   22.6900   15.1090 C   0  0  0  0  0  0
   25.6690   21.9460   14.0290 C   0  0  0  0  0  0
   25.4740   20.8800   14.1270 H   0  0  0  0  0  0
   25.4230   22.5640   12.8000 C   0  0  0  0  0  0
   25.0340   21.9910   11.9630 H   0  0  0  0  0  0
   25.6860   23.9200   12.6490 C   0  0  0  0  0  0
   26.1940   24.6710   13.7010 C   0  0  0  0  0  0
   26.3990   25.7290   13.5640 H   0  0  0  0  0  0
   26.4400   24.0550   14.9310 C   0  0  0  0  0  0
   26.8410   24.6480   15.7520 H   0  0  0  0  0  0
   25.4510   24.5110   11.4690 F   0  0  0  0  0  0
   24.0250   21.4010   17.1130 C   0  0  0  0  0  0
   23.3100   20.4300   17.8310 C   0  0  0  0  0  0
   23.8300   19.7330   18.4890 H   0  0  0  0  0  0
   21.9210   20.3300   17.7060 C   0  0  0  0  0  0
   21.3870   19.5680   18.2700 H   0  0  0  0  0  0
   21.2390   21.2100   16.8630 C   0  0  0  0  0  0
   21.9360   22.1760   16.1330 C   0  0  0  0  0  0
   21.4140   22.8590   15.4660 H   0  0  0  0  0  0
   23.3250   22.2700   16.2620 C   0  0  0  0  0  0
   23.8550   23.0320   15.6920 H   0  0  0  0  0  0
   19.4740   21.0720   16.6870 S   0  0  0  0  0  0
   18.9390   22.4130   16.4750 O   0  0  0  0  0  0
   18.9700   20.2930   17.8140 O   0  0  0  0  0  0
   19.2730   20.1280   15.2000 C   0  0  0  0  0  0
   18.2030   19.9990   15.0220 H   0  0  0  0  0  0
   19.7490   19.1540   15.3290 H   0  0  0  0  0  0
   19.7240   20.6740   14.3680 H   0  0  0  0  0  0
  1  2  2  0  0  0
  1  5  1  0  0  0
  1 28  1  0  0  0
  2  3  1  0  0  0
  2 17  1  0  0  0
  3  4  2  0  0  0
  4  5  1  0  0  0
  4  6  1  0  0  0
  6  7  1  0  0  0
  6 15  2  0  0  0
  7  8  1  0  0  0
  7  9  2  0  0  0
  9 10  1  0  0  0
  9 11  1  0  0  0
 11 12  1  0  0  0
 11 13  2  0  0  0
 13 14  1  0  0  0
 13 15  1  0  0  0
 15 16  1  0  0  0
 17 18  1  0  0  0
 17 25  2  0  0  0
 18 19  1  0  0  0
 18 20  2  0  0  0
 20 21  1  0  0  0
 20 22  1  0  0  0
 22 23  2  0  0  0
 22 27  1  0  0  0
 23 24  1  0  0  0
 23 25  1  0  0  0
 25 26  1  0  0  0
 28 29  1  0  0  0
 28 36  2  0  0  0
 29 30  1  0  0  0
 29 31  2  0  0  0
 31 32  1  0  0  0
 31 33  1  0  0  0
 33 34  2  0  0  0
 33 38  1  0  0  0
 34 35  1  0  0  0
 34 36  1  0  0  0
 36 37  1  0  0  0
 38 39  2  0  0  0
 38 40  2  0  0  0
 38 41  1  0  0  0
 41 42  1  0  0  0
 41 43  1  0  0  0
 41 44  1  0  0  0
M  END
>  <ACTIVITY>
7.3

>  <SET>
1

>  <Min_dist>
999.9

>  <Avg_dist>
999.9

$$$$
11-24
  Cerius2 12110214053D 1   1.00000                          
Structure written by Cerius2 SD Exporter
 41 44  0  0  0  0  0  0  0  0999 V2000
   25.4810   21.5040   17.2320 C   0  0  0  0  0  0
   26.4380   22.0730   16.4020 C   0  0  0  0  0  0
   27.7380   22.0470   16.8930 N   0  0  0  0  0  0
   27.7780   21.4400   18.0640 C   0  0  0  0  0  0
   26.2560   20.8900   18.6400 S   0  0  0  0  0  0
   29.0270   21.2740   18.7770 C   0  0  0  0  0  0
   30.2690   21.7130   18.3480 C   0  0  0  0  0  0
   30.4190   22.2360   17.4090 H   0  0  0  0  0  0
   31.3180   21.4060   19.2630 C   0  0  0  0  0  0
   32.3610   21.6620   19.1140 H   0  0  0  0  0  0
   30.8510   20.7390   20.3710 C   0  0  0  0  0  0
   31.4220   20.3850   21.2200 H   0  0  0  0  0  0
   29.1630   20.4890   20.3010 S   0  0  0  0  0  0
   26.1690   22.6900   15.1090 C   0  0  0  0  0  0
   25.6710   21.9450   14.0300 C   0  0  0  0  0  0
   25.4760   20.8790   14.1280 H   0  0  0  0  0  0
   25.4270   22.5610   12.7990 C   0  0  0  0  0  0
   25.0380   21.9870   11.9630 H   0  0  0  0  0  0
   25.6890   23.9180   12.6470 C   0  0  0  0  0  0
   26.1950   24.6700   13.6990 C   0  0  0  0  0  0
   26.4000   25.7280   13.5610 H   0  0  0  0  0  0
   26.4400   24.0560   14.9300 C   0  0  0  0  0  0
   26.8390   24.6500   15.7510 H   0  0  0  0  0  0
   25.4550   24.5060   11.4660 F   0  0  0  0  0  0
   24.0250   21.4010   17.1140 C   0  0  0  0  0  0
   23.3100   20.4300   17.8320 C   0  0  0  0  0  0
   23.8300   19.7340   18.4890 H   0  0  0  0  0  0
   21.9210   20.3300   17.7080 C   0  0  0  0  0  0
   21.3880   19.5670   18.2720 H   0  0  0  0  0  0
   21.2390   21.2100   16.8650 C   0  0  0  0  0  0
   21.9350   22.1750   16.1340 C   0  0  0  0  0  0
   21.4130   22.8580   15.4680 H   0  0  0  0  0  0
   23.3240   22.2700   16.2640 C   0  0  0  0  0  0
   23.8530   23.0330   15.6940 H   0  0  0  0  0  0
   19.4740   21.0730   16.6860 S   0  0  0  0  0  0
   18.9390   22.4120   16.4630 O   0  0  0  0  0  0
   18.9680   20.3020   17.8180 O   0  0  0  0  0  0
   19.2740   20.1200   15.2040 C   0  0  0  0  0  0
   18.2050   19.9930   15.0240 H   0  0  0  0  0  0
   19.7460   19.1450   15.3410 H   0  0  0  0  0  0
   19.7300   20.6580   14.3710 H   0  0  0  0  0  0
  1  2  2  0  0  0
  1  5  1  0  0  0
  1 25  1  0  0  0
  2  3  1  0  0  0
  2 14  1  0  0  0
  3  4  2  0  0  0
  4  5  1  0  0  0
  4  6  1  0  0  0
  6  7  2  0  0  0
  6 13  1  0  0  0
  7  8  1  0  0  0
  7  9  1  0  0  0
  9 10  1  0  0  0
  9 11  2  0  0  0
 11 12  1  0  0  0
 11 13  1  0  0  0
 14 15  1  0  0  0
 14 22  2  0  0  0
 15 16  1  0  0  0
 15 17  2  0  0  0
 17 18  1  0  0  0
 17 19  1  0  0  0
 19 20  2  0  0  0
 19 24  1  0  0  0
 20 21  1  0  0  0
 20 22  1  0  0  0
 22 23  1  0  0  0
 25 26  1  0  0  0
 25 33  2  0  0  0
 26 27  1  0  0  0
 26 28  2  0  0  0
 28 29  1  0  0  0
 28 30  1  0  0  0
 30 31  2  0  0  0
 30 35  1  0  0  0
 31 32  1  0  0  0
 31 33  1  0  0  0
 33 34  1  0  0  0
 35 36  2  0  0  0
 35 37  2  0  0  0
 35 38  1  0  0  0
 38 39  1  0  0  0
 38 40  1  0  0  0
 38 41  1  0  0  0
M  END
>  <ACTIVITY>
7.68

>  <SET>
1

>  <Min_dist>
999.9

>  <Avg_dist>
999.9

$$$$
11-25
  Cerius2 12110214053D 1   1.00000                          
Structure written by Cerius2 SD Exporter
 43 46  0  0  0  0  0  0  0  0999 V2000
   25.4810   21.5050   17.2310 C   0  0  0  0  0  0
   26.4370   22.0720   16.4020 C   0  0  0  0  0  0
   27.7360   22.0450   16.8940 N   0  0  0  0  0  0
   27.7850   21.4330   18.0640 C   0  0  0  0  0  0
   26.2560   20.8920   18.6380 S   0  0  0  0  0  0
   29.0270   21.2380   18.8330 C   0  0  0  0  0  0
   30.2460   21.7070   18.3220 C   0  0  0  0  0  0
   30.2800   22.2200   17.3610 H   0  0  0  0  0  0
   31.4330   21.5300   19.0320 C   0  0  0  0  0  0
   32.3780   21.8930   18.6400 H   0  0  0  0  0  0
   31.3800   20.8790   20.2500 C   0  0  0  0  0  0
   32.2830   20.7210   20.8360 H   0  0  0  0  0  0
   30.2340   20.4040   20.7890 N   0  0  0  0  0  0
   29.0930   20.5940   20.0680 C   0  0  0  0  0  0
   28.2060   20.1840   20.5480 H   0  0  0  0  0  0
   26.1700   22.6900   15.1090 C   0  0  0  0  0  0
   25.6740   21.9460   14.0270 C   0  0  0  0  0  0
   25.4800   20.8790   14.1250 H   0  0  0  0  0  0
   25.4320   22.5630   12.7970 C   0  0  0  0  0  0
   25.0450   21.9890   11.9600 H   0  0  0  0  0  0
   25.6940   23.9190   12.6460 C   0  0  0  0  0  0
   26.1990   24.6710   13.6990 C   0  0  0  0  0  0
   26.4040   25.7290   13.5620 H   0  0  0  0  0  0
   26.4410   24.0560   14.9300 C   0  0  0  0  0  0
   26.8390   24.6500   15.7520 H   0  0  0  0  0  0
   25.4630   24.5090   11.4650 F   0  0  0  0  0  0
   24.0240   21.4020   17.1130 C   0  0  0  0  0  0
   23.3100   20.4300   17.8320 C   0  0  0  0  0  0
   23.8300   19.7330   18.4880 H   0  0  0  0  0  0
   21.9210   20.3290   17.7090 C   0  0  0  0  0  0
   21.3890   19.5660   18.2730 H   0  0  0  0  0  0
   21.2380   21.2090   16.8660 C   0  0  0  0  0  0
   21.9330   22.1740   16.1350 C   0  0  0  0  0  0
   21.4100   22.8570   15.4690 H   0  0  0  0  0  0
   23.3220   22.2710   16.2640 C   0  0  0  0  0  0
   23.8510   23.0340   15.6940 H   0  0  0  0  0  0
   19.4730   21.0710   16.6890 S   0  0  0  0  0  0
   18.9370   22.4110   16.4740 O   0  0  0  0  0  0
   18.9690   20.2950   17.8180 O   0  0  0  0  0  0
   19.2720   20.1250   15.2030 C   0  0  0  0  0  0
   18.2020   19.9980   15.0240 H   0  0  0  0  0  0
   19.7450   19.1500   15.3350 H   0  0  0  0  0  0
   19.7260   20.6670   14.3720 H   0  0  0  0  0  0
  1  2  2  0  0  0
  1  5  1  0  0  0
  1 27  1  0  0  0
  2  3  1  0  0  0
  2 16  1  0  0  0
  3  4  2  0  0  0
  4  5  1  0  0  0
  4  6  1  0  0  0
  6  7  1  0  0  0
  6 14  2  0  0  0
  7  8  1  0  0  0
  7  9  2  0  0  0
  9 10  1  0  0  0
  9 11  1  0  0  0
 11 12  1  0  0  0
 11 13  2  0  0  0
 13 14  1  0  0  0
 14 15  1  0  0  0
 16 17  1  0  0  0
 16 24  2  0  0  0
 17 18  1  0  0  0
 17 19  2  0  0  0
 19 20  1  0  0  0
 19 21  1  0  0  0
 21 22  2  0  0  0
 21 26  1  0  0  0
 22 23  1  0  0  0
 22 24  1  0  0  0
 24 25  1  0  0  0
 27 28  1  0  0  0
 27 35  2  0  0  0
 28 29  1  0  0  0
 28 30  2  0  0  0
 30 31  1  0  0  0
 30 32  1  0  0  0
 32 33  2  0  0  0
 32 37  1  0  0  0
 33 34  1  0  0  0
 33 35  1  0  0  0
 35 36  1  0  0  0
 37 38  2  0  0  0
 37 39  2  0  0  0
 37 40  1  0  0  0
 40 41  1  0  0  0
 40 42  1  0  0  0
 40 43  1  0  0  0
M  END
>  <ACTIVITY>
6.37

>  <SET>
1

>  <Min_dist>
999.9

>  <Avg_dist>
999.9

$$$$
11-26
  Cerius2 12110214053D 1   1.00000                          
Structure written by Cerius2 SD Exporter
 43 46  0  0  0  0  0  0  0  0999 V2000
   25.4820   21.5040   17.2310 C   0  0  0  0  0  0
   26.4380   22.0720   16.4020 C   0  0  0  0  0  0
   27.7370   22.0460   16.8940 N   0  0  0  0  0  0
   27.7850   21.4330   18.0620 C   0  0  0  0  0  0
   26.2570   20.8910   18.6380 S   0  0  0  0  0  0
   29.0290   21.2410   18.8360 C   0  0  0  0  0  0
   30.2340   21.7300   18.3140 C   0  0  0  0  0  0
   30.2670   22.2490   17.3590 H   0  0  0  0  0  0
   31.4080   21.5530   19.0290 C   0  0  0  0  0  0
   32.3520   21.9270   18.6410 H   0  0  0  0  0  0
   31.4680   20.9230   20.2230 N   0  0  0  0  0  0
   30.3010   20.4500   20.7150 C   0  0  0  0  0  0
   30.3640   19.9420   21.6750 H   0  0  0  0  0  0
   29.0800   20.5820   20.0700 C   0  0  0  0  0  0
   28.1990   20.1600   20.5430 H   0  0  0  0  0  0
   26.1690   22.6900   15.1090 C   0  0  0  0  0  0
   25.6720   21.9450   14.0280 C   0  0  0  0  0  0
   25.4770   20.8790   14.1270 H   0  0  0  0  0  0
   25.4280   22.5620   12.7990 C   0  0  0  0  0  0
   25.0390   21.9880   11.9620 H   0  0  0  0  0  0
   25.6900   23.9180   12.6470 C   0  0  0  0  0  0
   26.1970   24.6710   13.7000 C   0  0  0  0  0  0
   26.4010   25.7290   13.5620 H   0  0  0  0  0  0
   26.4410   24.0550   14.9300 C   0  0  0  0  0  0
   26.8400   24.6490   15.7510 H   0  0  0  0  0  0
   25.4560   24.5080   11.4670 F   0  0  0  0  0  0
   24.0250   21.4020   17.1140 C   0  0  0  0  0  0
   23.3100   20.4310   17.8330 C   0  0  0  0  0  0
   23.8290   19.7340   18.4900 H   0  0  0  0  0  0
   21.9210   20.3310   17.7090 C   0  0  0  0  0  0
   21.3880   19.5680   18.2730 H   0  0  0  0  0  0
   21.2380   21.2100   16.8660 C   0  0  0  0  0  0
   21.9340   22.1750   16.1350 C   0  0  0  0  0  0
   21.4110   22.8580   15.4690 H   0  0  0  0  0  0
   23.3230   22.2710   16.2640 C   0  0  0  0  0  0
   23.8520   23.0340   15.6940 H   0  0  0  0  0  0
   19.4740   21.0710   16.6860 S   0  0  0  0  0  0
   18.9380   22.4110   16.4660 O   0  0  0  0  0  0
   18.9680   20.2980   17.8160 O   0  0  0  0  0  0
   19.2760   20.1210   15.2030 C   0  0  0  0  0  0
   18.2060   19.9920   15.0230 H   0  0  0  0  0  0
   19.7490   19.1470   15.3380 H   0  0  0  0  0  0
   19.7300   20.6620   14.3700 H   0  0  0  0  0  0
  1  2  2  0  0  0
  1  5  1  0  0  0
  1 27  1  0  0  0
  2  3  1  0  0  0
  2 16  1  0  0  0
  3  4  2  0  0  0
  4  5  1  0  0  0
  4  6  1  0  0  0
  6  7  1  0  0  0
  6 14  2  0  0  0
  7  8  1  0  0  0
  7  9  2  0  0  0
  9 10  1  0  0  0
  9 11  1  0  0  0
 11 12  2  0  0  0
 12 13  1  0  0  0
 12 14  1  0  0  0
 14 15  1  0  0  0
 16 17  1  0  0  0
 16 24  2  0  0  0
 17 18  1  0  0  0
 17 19  2  0  0  0
 19 20  1  0  0  0
 19 21  1  0  0  0
 21 22  2  0  0  0
 21 26  1  0  0  0
 22 23  1  0  0  0
 22 24  1  0  0  0
 24 25  1  0  0  0
 27 28  1  0  0  0
 27 35  2  0  0  0
 28 29  1  0  0  0
 28 30  2  0  0  0
 30 31  1  0  0  0
 30 32  1  0  0  0
 32 33  2  0  0  0
 32 37  1  0  0  0
 33 34  1  0  0  0
 33 35  1  0  0  0
 35 36  1  0  0  0
 37 38  2  0  0  0
 37 39  2  0  0  0
 37 40  1  0  0  0
 40 41  1  0  0  0
 40 42  1  0  0  0
 40 43  1  0  0  0
M  END
>  <ACTIVITY>
5.8

>  <SET>
1

>  <Min_dist>
999.9

>  <Avg_dist>
999.9

$$$$
11-29
  Cerius2 12110214053D 1   1.00000                          
Structure written by Cerius2 SD Exporter
 44 47  0  0  0  0  0  0  0  0999 V2000
   25.4910   21.5110   17.2420 C   0  0  0  0  0  0
   26.4480   22.0790   16.4120 C   0  0  0  0  0  0
   27.7550   22.0230   16.8780 N   0  0  0  0  0  0
   27.7840   21.4370   18.0570 C   0  0  0  0  0  0
   26.2680   20.8810   18.6430 S   0  0  0  0  0  0
   28.9980   21.1850   18.8330 C   0  0  0  0  0  0
   30.2320   21.5920   18.2980 C   0  0  0  0  0  0
   30.2720   22.0800   17.3250 H   0  0  0  0  0  0
   31.4220   21.3750   18.9970 C   0  0  0  0  0  0
   32.3710   21.6910   18.5670 H   0  0  0  0  0  0
   31.3930   20.7550   20.2430 C   0  0  0  0  0  0
   32.3190   20.5870   20.7900 H   0  0  0  0  0  0
   30.1750   20.3570   20.7950 C   0  0  0  0  0  0
   30.1650   19.8830   21.7740 H   0  0  0  0  0  0
   28.9800   20.5730   20.0970 C   0  0  0  0  0  0
   27.5090   20.0780   20.8660 Cl  0  0  0  0  0  0
   26.1590   22.6930   15.1260 C   0  0  0  0  0  0
   25.6350   21.9360   14.0690 C   0  0  0  0  0  0
   25.4380   20.8730   14.1900 H   0  0  0  0  0  0
   25.3620   22.5400   12.8380 C   0  0  0  0  0  0
   24.9530   21.9470   12.0210 H   0  0  0  0  0  0
   25.6150   23.9000   12.6520 C   0  0  0  0  0  0
   25.4020   24.3680   11.6930 H   0  0  0  0  0  0
   26.1430   24.6580   13.6960 C   0  0  0  0  0  0
   26.3420   25.7180   13.5610 H   0  0  0  0  0  0
   26.4130   24.0530   14.9220 C   0  0  0  0  0  0
   26.9060   24.8120   15.9140 F   0  0  0  0  0  0
   24.0360   21.4110   17.1150 C   0  0  0  0  0  0
   23.3160   20.4410   17.8290 C   0  0  0  0  0  0
   23.8310   19.7440   18.4900 H   0  0  0  0  0  0
   21.9280   20.3400   17.6950 C   0  0  0  0  0  0
   21.3910   19.5770   18.2550 H   0  0  0  0  0  0
   21.2510   21.2180   16.8460 C   0  0  0  0  0  0
   21.9530   22.1830   16.1200 C   0  0  0  0  0  0
   21.4340   22.8660   15.4490 H   0  0  0  0  0  0
   23.3410   22.2790   16.2590 C   0  0  0  0  0  0
   23.8730   23.0430   15.6940 H   0  0  0  0  0  0
   19.4880   21.0810   16.6510 S   0  0  0  0  0  0
   18.9580   22.4160   16.3950 O   0  0  0  0  0  0
   18.9690   20.3350   17.7940 O   0  0  0  0  0  0
   19.3010   20.0980   15.1870 C   0  0  0  0  0  0
   18.2330   19.9710   14.9990 H   0  0  0  0  0  0
   19.7680   19.1250   15.3500 H   0  0  0  0  0  0
   19.7670   20.6180   14.3480 H   0  0  0  0  0  0
  1  2  2  0  0  0
  1  5  1  0  0  0
  1 28  1  0  0  0
  2  3  1  0  0  0
  2 17  1  0  0  0
  3  4  2  0  0  0
  4  5  1  0  0  0
  4  6  1  0  0  0
  6  7  1  0  0  0
  6 15  2  0  0  0
  7  8  1  0  0  0
  7  9  2  0  0  0
  9 10  1  0  0  0
  9 11  1  0  0  0
 11 12  1  0  0  0
 11 13  2  0  0  0
 13 14  1  0  0  0
 13 15  1  0  0  0
 15 16  1  0  0  0
 17 18  1  0  0  0
 17 26  2  0  0  0
 18 19  1  0  0  0
 18 20  2  0  0  0
 20 21  1  0  0  0
 20 22  1  0  0  0
 22 23  1  0  0  0
 22 24  2  0  0  0
 24 25  1  0  0  0
 24 26  1  0  0  0
 26 27  1  0  0  0
 28 29  1  0  0  0
 28 36  2  0  0  0
 29 30  1  0  0  0
 29 31  2  0  0  0
 31 32  1  0  0  0
 31 33  1  0  0  0
 33 34  2  0  0  0
 33 38  1  0  0  0
 34 35  1  0  0  0
 34 36  1  0  0  0
 36 37  1  0  0  0
 38 39  2  0  0  0
 38 40  2  0  0  0
 38 41  1  0  0  0
 41 42  1  0  0  0
 41 43  1  0  0  0
 41 44  1  0  0  0
M  END
>  <ACTIVITY>
8

>  <SET>
2

>  <Min_dist>
0.03

>  <Avg_dist>
0.57

$$$$
11-30
  Cerius2 12110214053D 1   1.00000                          
Structure written by Cerius2 SD Exporter
 44 47  0  0  0  0  0  0  0  0999 V2000
   25.4810   21.5020   17.2300 C   0  0  0  0  0  0
   26.4390   22.0720   16.4000 C   0  0  0  0  0  0
   27.7390   22.0490   16.8910 N   0  0  0  0  0  0
   27.7730   21.4200   18.0470 C   0  0  0  0  0  0
   26.2520   20.8920   18.6430 S   0  0  0  0  0  0
   28.9780   21.2250   18.8530 C   0  0  0  0  0  0
   30.1950   21.7400   18.3720 C   0  0  0  0  0  0
   30.2260   22.2720   17.4220 H   0  0  0  0  0  0
   31.3760   21.5850   19.1000 C   0  0  0  0  0  0
   32.3100   21.9940   18.7170 H   0  0  0  0  0  0
   31.3600   20.9050   20.3150 C   0  0  0  0  0  0
   32.2800   20.7820   20.8840 H   0  0  0  0  0  0
   30.1640   20.3760   20.8000 C   0  0  0  0  0  0
   30.1660   19.8380   21.7470 H   0  0  0  0  0  0
   28.9770   20.5290   20.0740 C   0  0  0  0  0  0
   27.5450   19.8090   20.7290 Cl  0  0  0  0  0  0
   26.1690   22.6940   15.1090 C   0  0  0  0  0  0
   25.6740   21.9530   14.0250 C   0  0  0  0  0  0
   25.4800   20.8860   14.1200 H   0  0  0  0  0  0
   25.4310   22.5710   12.7940 C   0  0  0  0  0  0
   25.0440   21.9880   11.9600 H   0  0  0  0  0  0
   25.6910   23.9300   12.6350 C   0  0  0  0  0  0
   25.5080   24.4200   11.6830 H   0  0  0  0  0  0
   26.1960   24.6590   13.7060 C   0  0  0  0  0  0
   26.4410   24.0560   14.9350 C   0  0  0  0  0  0
   26.8380   24.6550   15.7500 H   0  0  0  0  0  0
   26.4520   25.9650   13.5500 F   0  0  0  0  0  0
   24.0240   21.4000   17.1120 C   0  0  0  0  0  0
   23.3100   20.4300   17.8310 C   0  0  0  0  0  0
   23.8300   19.7330   18.4880 H   0  0  0  0  0  0
   21.9210   20.3300   17.7070 C   0  0  0  0  0  0
   21.3880   19.5670   18.2710 H   0  0  0  0  0  0
   21.2380   21.2100   16.8650 C   0  0  0  0  0  0
   21.9340   22.1750   16.1340 C   0  0  0  0  0  0
   21.4120   22.8590   15.4680 H   0  0  0  0  0  0
   23.3230   22.2700   16.2620 C   0  0  0  0  0  0
   23.8530   23.0320   15.6920 H   0  0  0  0  0  0
   19.4740   21.0720   16.6900 S   0  0  0  0  0  0
   18.9350   22.4150   16.5010 O   0  0  0  0  0  0
   18.9720   20.2740   17.8050 O   0  0  0  0  0  0
   19.2710   20.1530   15.1870 C   0  0  0  0  0  0
   18.2010   20.0250   15.0100 H   0  0  0  0  0  0
   19.7480   19.1770   15.3000 H   0  0  0  0  0  0
   19.7190   20.7120   14.3640 H   0  0  0  0  0  0
  1  2  2  0  0  0
  1  5  1  0  0  0
  1 28  1  0  0  0
  2  3  1  0  0  0
  2 17  1  0  0  0
  3  4  2  0  0  0
  4  5  1  0  0  0
  4  6  1  0  0  0
  6  7  1  0  0  0
  6 15  2  0  0  0
  7  8  1  0  0  0
  7  9  2  0  0  0
  9 10  1  0  0  0
  9 11  1  0  0  0
 11 12  1  0  0  0
 11 13  2  0  0  0
 13 14  1  0  0  0
 13 15  1  0  0  0
 15 16  1  0  0  0
 17 18  1  0  0  0
 17 25  2  0  0  0
 18 19  1  0  0  0
 18 20  2  0  0  0
 20 21  1  0  0  0
 20 22  1  0  0  0
 22 23  1  0  0  0
 22 24  2  0  0  0
 24 25  1  0  0  0
 24 27  1  0  0  0
 25 26  1  0  0  0
 28 29  1  0  0  0
 28 36  2  0  0  0
 29 30  1  0  0  0
 29 31  2  0  0  0
 31 32  1  0  0  0
 31 33  1  0  0  0
 33 34  2  0  0  0
 33 38  1  0  0  0
 34 35  1  0  0  0
 34 36  1  0  0  0
 36 37  1  0  0  0
 38 39  2  0  0  0
 38 40  2  0  0  0
 38 41  1  0  0  0
 41 42  1  0  0  0
 41 43  1  0  0  0
 41 44  1  0  0  0
M  END
>  <ACTIVITY>
7.8

>  <SET>
1

>  <Min_dist>
999.9

>  <Avg_dist>
999.9

$$$$
11-31
  Cerius2 12110214053D 1   1.00000                          
Structure written by Cerius2 SD Exporter
 44 47  0  0  0  0  0  0  0  0999 V2000
   25.4910   21.5070   17.2390 C   0  0  0  0  0  0
   26.4480   22.0750   16.4090 C   0  0  0  0  0  0
   27.7530   22.0230   16.8780 N   0  0  0  0  0  0
   27.7880   21.3980   18.0360 C   0  0  0  0  0  0
   26.2650   20.8900   18.6470 S   0  0  0  0  0  0
   28.9980   21.1890   18.8320 C   0  0  0  0  0  0
   30.2170   21.6850   18.3370 C   0  0  0  0  0  0
   30.2460   22.2130   17.3840 H   0  0  0  0  0  0
   31.4030   21.5160   19.0550 C   0  0  0  0  0  0
   32.3380   21.9110   18.6610 H   0  0  0  0  0  0
   31.3890   20.8420   20.2730 C   0  0  0  0  0  0
   32.3120   20.7080   20.8330 H   0  0  0  0  0  0
   30.1900   20.3310   20.7710 C   0  0  0  0  0  0
   30.1940   19.7960   21.7190 H   0  0  0  0  0  0
   28.9990   20.4980   20.0550 C   0  0  0  0  0  0
   27.5640   19.7990   20.7270 Cl  0  0  0  0  0  0
   26.1580   22.6920   15.1260 C   0  0  0  0  0  0
   25.6350   21.9360   14.0680 C   0  0  0  0  0  0
   25.4360   20.8730   14.1770 H   0  0  0  0  0  0
   25.3710   22.5510   12.8480 C   0  0  0  0  0  0
   25.6210   23.9060   12.6540 C   0  0  0  0  0  0
   25.4070   24.3660   11.6930 H   0  0  0  0  0  0
   26.1460   24.6630   13.7000 C   0  0  0  0  0  0
   26.3470   25.7220   13.5670 H   0  0  0  0  0  0
   26.4140   24.0530   14.9250 C   0  0  0  0  0  0
   26.9070   24.8090   15.9190 F   0  0  0  0  0  0
   24.8700   21.8240   11.8390 F   0  0  0  0  0  0
   24.0360   21.4090   17.1130 C   0  0  0  0  0  0
   23.3170   20.4390   17.8270 C   0  0  0  0  0  0
   23.8310   19.7430   18.4890 H   0  0  0  0  0  0
   21.9280   20.3390   17.6930 C   0  0  0  0  0  0
   21.3910   19.5770   18.2530 H   0  0  0  0  0  0
   21.2520   21.2190   16.8440 C   0  0  0  0  0  0
   21.9540   22.1830   16.1170 C   0  0  0  0  0  0
   21.4370   22.8670   15.4480 H   0  0  0  0  0  0
   23.3420   22.2780   16.2560 C   0  0  0  0  0  0
   23.8750   23.0410   15.6910 H   0  0  0  0  0  0
   19.4880   21.0810   16.6570 S   0  0  0  0  0  0
   18.9570   22.4200   16.4240 O   0  0  0  0  0  0
   18.9750   20.3170   17.7900 O   0  0  0  0  0  0
   19.2960   20.1180   15.1810 C   0  0  0  0  0  0
   18.2280   19.9880   14.9980 H   0  0  0  0  0  0
   19.7700   19.1450   15.3260 H   0  0  0  0  0  0
   19.7530   20.6520   14.3450 H   0  0  0  0  0  0
  1  2  2  0  0  0
  1  5  1  0  0  0
  1 28  1  0  0  0
  2  3  1  0  0  0
  2 17  1  0  0  0
  3  4  2  0  0  0
  4  5  1  0  0  0
  4  6  1  0  0  0
  6  7  1  0  0  0
  6 15  2  0  0  0
  7  8  1  0  0  0
  7  9  2  0  0  0
  9 10  1  0  0  0
  9 11  1  0  0  0
 11 12  1  0  0  0
 11 13  2  0  0  0
 13 14  1  0  0  0
 13 15  1  0  0  0
 15 16  1  0  0  0
 17 18  1  0  0  0
 17 25  2  0  0  0
 18 19  1  0  0  0
 18 20  2  0  0  0
 20 21  1  0  0  0
 20 27  1  0  0  0
 21 22  1  0  0  0
 21 23  2  0  0  0
 23 24  1  0  0  0
 23 25  1  0  0  0
 25 26  1  0  0  0
 28 29  1  0  0  0
 28 36  2  0  0  0
 29 30  1  0  0  0
 29 31  2  0  0  0
 31 32  1  0  0  0
 31 33  1  0  0  0
 33 34  2  0  0  0
 33 38  1  0  0  0
 34 35  1  0  0  0
 34 36  1  0  0  0
 36 37  1  0  0  0
 38 39  2  0  0  0
 38 40  2  0  0  0
 38 41  1  0  0  0
 41 42  1  0  0  0
 41 43  1  0  0  0
 41 44  1  0  0  0
M  END
>  <ACTIVITY>
4

>  <SET>
3

>  <Min_dist>
0.04

>  <Avg_dist>
0.57

$$$$
11-32
  Cerius2 12110214053D 1   1.00000                          
Structure written by Cerius2 SD Exporter
 44 47  0  0  0  0  0  0  0  0999 V2000
   25.4910   21.5070   17.2390 C   0  0  0  0  0  0
   26.4480   22.0740   16.4080 C   0  0  0  0  0  0
   27.7530   22.0240   16.8790 N   0  0  0  0  0  0
   27.7880   21.3990   18.0380 C   0  0  0  0  0  0
   26.2640   20.8920   18.6480 S   0  0  0  0  0  0
   28.9960   21.1900   18.8350 C   0  0  0  0  0  0
   30.2150   21.6870   18.3420 C   0  0  0  0  0  0
   30.2460   22.2150   17.3890 H   0  0  0  0  0  0
   31.4010   21.5200   19.0610 C   0  0  0  0  0  0
   32.3360   21.9150   18.6680 H   0  0  0  0  0  0
   31.3850   20.8460   20.2800 C   0  0  0  0  0  0
   32.3080   20.7140   20.8410 H   0  0  0  0  0  0
   30.1860   20.3340   20.7770 C   0  0  0  0  0  0
   30.1890   19.8010   21.7250 H   0  0  0  0  0  0
   28.9960   20.5000   20.0590 C   0  0  0  0  0  0
   27.5600   19.8000   20.7280 Cl  0  0  0  0  0  0
   26.1590   22.6910   15.1240 C   0  0  0  0  0  0
   25.6350   21.9350   14.0650 C   0  0  0  0  0  0
   25.4380   20.8710   14.1820 H   0  0  0  0  0  0
   25.3660   22.5430   12.8360 C   0  0  0  0  0  0
   24.9590   21.9630   12.0120 H   0  0  0  0  0  0
   25.6250   23.9000   12.6670 C   0  0  0  0  0  0
   26.1490   24.6640   13.7010 C   0  0  0  0  0  0
   26.3460   25.7200   13.5610 H   0  0  0  0  0  0
   26.4150   24.0530   14.9230 C   0  0  0  0  0  0
   26.9070   24.8080   15.9190 F   0  0  0  0  0  0
   25.3650   24.4780   11.4870 F   0  0  0  0  0  0
   24.0360   21.4090   17.1130 C   0  0  0  0  0  0
   23.3170   20.4380   17.8270 C   0  0  0  0  0  0
   23.8320   19.7430   18.4880 H   0  0  0  0  0  0
   21.9280   20.3390   17.6930 C   0  0  0  0  0  0
   21.3910   19.5770   18.2540 H   0  0  0  0  0  0
   21.2520   21.2180   16.8450 C   0  0  0  0  0  0
   21.9530   22.1830   16.1180 C   0  0  0  0  0  0
   21.4360   22.8660   15.4480 H   0  0  0  0  0  0
   23.3410   22.2770   16.2560 C   0  0  0  0  0  0
   23.8740   23.0410   15.6910 H   0  0  0  0  0  0
   19.4880   21.0800   16.6590 S   0  0  0  0  0  0
   18.9590   22.4160   16.4000 O   0  0  0  0  0  0
   18.9720   20.3390   17.8050 O   0  0  0  0  0  0
   19.2960   20.0910   15.2000 C   0  0  0  0  0  0
   18.2270   19.9580   15.0190 H   0  0  0  0  0  0
   19.7680   19.1200   15.3640 H   0  0  0  0  0  0
   19.7540   20.6080   14.3560 H   0  0  0  0  0  0
  1  2  2  0  0  0
  1  5  1  0  0  0
  1 28  1  0  0  0
  2  3  1  0  0  0
  2 17  1  0  0  0
  3  4  2  0  0  0
  4  5  1  0  0  0
  4  6  1  0  0  0
  6  7  1  0  0  0
  6 15  2  0  0  0
  7  8  1  0  0  0
  7  9  2  0  0  0
  9 10  1  0  0  0
  9 11  1  0  0  0
 11 12  1  0  0  0
 11 13  2  0  0  0
 13 14  1  0  0  0
 13 15  1  0  0  0
 15 16  1  0  0  0
 17 18  1  0  0  0
 17 25  2  0  0  0
 18 19  1  0  0  0
 18 20  2  0  0  0
 20 21  1  0  0  0
 20 22  1  0  0  0
 22 23  2  0  0  0
 22 27  1  0  0  0
 23 24  1  0  0  0
 23 25  1  0  0  0
 25 26  1  0  0  0
 28 29  1  0  0  0
 28 36  2  0  0  0
 29 30  1  0  0  0
 29 31  2  0  0  0
 31 32  1  0  0  0
 31 33  1  0  0  0
 33 34  2  0  0  0
 33 38  1  0  0  0
 34 35  1  0  0  0
 34 36  1  0  0  0
 36 37  1  0  0  0
 38 39  2  0  0  0
 38 40  2  0  0  0
 38 41  1  0  0  0
 41 42  1  0  0  0
 41 43  1  0  0  0
 41 44  1  0  0  0
M  END
>  <ACTIVITY>
7.68

>  <SET>
1

>  <Min_dist>
999.9

>  <Avg_dist>
999.9

$$$$
11-33
  Cerius2 12110214053D 1   1.00000                          
Structure written by Cerius2 SD Exporter
 43 46  0  0  0  0  0  0  0  0999 V2000
   25.3990   22.0500   17.4000 C   0  0  0  0  0  0
   25.5010   23.1270   17.5870 H   0  0  0  0  0  0
   26.3100   21.6360   16.2210 C   0  0  0  0  0  0
   26.0170   20.6600   15.8090 H   0  0  0  0  0  0
   27.7180   21.4850   16.7000 N   0  0  0  0  0  0
   27.7110   21.2600   17.9750 C   0  0  0  0  0  0
   26.1850   21.2300   18.8190 S   0  0  0  0  0  0
   28.9290   21.0090   18.7470 C   0  0  0  0  0  0
   30.1490   21.0150   18.0580 C   0  0  0  0  0  0
   30.1770   21.1980   16.9860 H   0  0  0  0  0  0
   31.3370   20.7810   18.7510 C   0  0  0  0  0  0
   32.2860   20.7800   18.2190 H   0  0  0  0  0  0
   31.3070   20.5500   20.1270 C   0  0  0  0  0  0
   32.2350   20.3680   20.6670 H   0  0  0  0  0  0
   30.0910   20.5570   20.8150 C   0  0  0  0  0  0
   30.0860   20.3840   21.8890 H   0  0  0  0  0  0
   28.8960   20.7910   20.1280 C   0  0  0  0  0  0
   27.4280   20.8250   21.0380 Cl  0  0  0  0  0  0
   26.2830   22.6660   15.1130 C   0  0  0  0  0  0
   26.6000   24.0120   15.1720 C   0  0  0  0  0  0
   26.9380   24.5040   16.0790 H   0  0  0  0  0  0
   26.4340   24.6680   13.9190 C   0  0  0  0  0  0
   26.6270   25.7210   13.7440 H   0  0  0  0  0  0
   25.9950   23.8050   12.9400 C   0  0  0  0  0  0
   25.7860   24.0350   11.9030 H   0  0  0  0  0  0
   25.7870   22.2160   13.5320 S   0  0  0  0  0  0
   23.9320   21.6970   17.2540 C   0  0  0  0  0  0
   23.1250   22.4530   16.3860 C   0  0  0  0  0  0
   23.5470   23.2890   15.8280 H   0  0  0  0  0  0
   21.7720   22.1490   16.2150 C   0  0  0  0  0  0
   21.1700   22.7490   15.5350 H   0  0  0  0  0  0
   21.2100   21.0850   16.9220 C   0  0  0  0  0  0
   21.9930   20.3150   17.7830 C   0  0  0  0  0  0
   21.5650   19.4790   18.3320 H   0  0  0  0  0  0
   23.3460   20.6240   17.9490 C   0  0  0  0  0  0
   23.9370   20.0150   18.6320 H   0  0  0  0  0  0
   19.4920   20.6860   16.6900 S   0  0  0  0  0  0
   18.7890   21.9120   16.3250 O   0  0  0  0  0  0
   19.0410   19.9520   17.8680 O   0  0  0  0  0  0
   19.4990   19.5920   15.2950 C   0  0  0  0  0  0
   18.4670   19.3020   15.0870 H   0  0  0  0  0  0
   20.0910   18.7070   15.5390 H   0  0  0  0  0  0
   19.9190   20.1150   14.4340 H   0  0  0  0  0  0
  1  2  1  0  0  0
  1  3  1  0  0  0
  1  7  1  0  0  0
  1 27  1  0  0  0
  3  4  1  0  0  0
  3  5  1  0  0  0
  3 19  1  0  0  0
  5  6  2  0  0  0
  6  7  1  0  0  0
  6  8  1  0  0  0
  8  9  1  0  0  0
  8 17  2  0  0  0
  9 10  1  0  0  0
  9 11  2  0  0  0
 11 12  1  0  0  0
 11 13  1  0  0  0
 13 14  1  0  0  0
 13 15  2  0  0  0
 15 16  1  0  0  0
 15 17  1  0  0  0
 17 18  1  0  0  0
 19 20  2  0  0  0
 19 26  1  0  0  0
 20 21  1  0  0  0
 20 22  1  0  0  0
 22 23  1  0  0  0
 22 24  2  0  0  0
 24 25  1  0  0  0
 24 26  1  0  0  0
 27 28  1  0  0  0
 27 35  2  0  0  0
 28 29  1  0  0  0
 28 30  2  0  0  0
 30 31  1  0  0  0
 30 32  1  0  0  0
 32 33  2  0  0  0
 32 37  1  0  0  0
 33 34  1  0  0  0
 33 35  1  0  0  0
 35 36  1  0  0  0
 37 38  2  0  0  0
 37 39  2  0  0  0
 37 40  1  0  0  0
 40 41  1  0  0  0
 40 42  1  0  0  0
 40 43  1  0  0  0
M  END
>  <ACTIVITY>
7.24

>  <SET>
1

>  <Min_dist>
999.9

>  <Avg_dist>
999.9

$$$$
11-34
  Cerius2 12110214053D 1   1.00000                          
Structure written by Cerius2 SD Exporter
 43 46  0  0  0  0  0  0  0  0999 V2000
   25.3940   22.0550   17.3660 C   0  0  0  0  0  0
   25.4980   23.1350   17.5300 H   0  0  0  0  0  0
   26.2950   21.6180   16.1880 C   0  0  0  0  0  0
   25.9960   20.6340   15.7990 H   0  0  0  0  0  0
   27.7060   21.4760   16.6550 N   0  0  0  0  0  0
   27.7100   21.2720   17.9330 C   0  0  0  0  0  0
   26.1910   21.2590   18.7910 S   0  0  0  0  0  0
   28.9330   21.0310   18.6990 C   0  0  0  0  0  0
   30.1490   21.0350   18.0030 C   0  0  0  0  0  0
   30.1710   21.2090   16.9290 H   0  0  0  0  0  0
   31.3420   20.8080   18.6910 C   0  0  0  0  0  0
   32.2880   20.8040   18.1530 H   0  0  0  0  0  0
   31.3210   20.5850   20.0680 C   0  0  0  0  0  0
   32.2530   20.4090   20.6030 H   0  0  0  0  0  0
   30.1090   20.5960   20.7630 C   0  0  0  0  0  0
   30.1120   20.4300   21.8380 H   0  0  0  0  0  0
   28.9100   20.8220   20.0820 C   0  0  0  0  0  0
   27.4470   20.8570   21.0010 Cl  0  0  0  0  0  0
   26.2530   22.6040   15.0390 C   0  0  0  0  0  0
   26.5750   24.0020   15.1300 C   0  0  0  0  0  0
   26.8990   24.4970   16.0400 H   0  0  0  0  0  0
   26.4310   24.6620   13.9300 C   0  0  0  0  0  0
   26.6080   25.7110   13.7280 H   0  0  0  0  0  0
   25.9070   23.6170   12.6860 S   0  0  0  0  0  0
   25.8740   22.2780   13.7480 C   0  0  0  0  0  0
   25.5700   21.3070   13.3770 H   0  0  0  0  0  0
   23.9260   21.6990   17.2310 C   0  0  0  0  0  0
   23.1120   22.4530   16.3680 C   0  0  0  0  0  0
   23.5290   23.2870   15.8040 H   0  0  0  0  0  0
   21.7570   22.1460   16.2090 C   0  0  0  0  0  0
   21.1500   22.7440   15.5320 H   0  0  0  0  0  0
   21.2020   21.0840   16.9240 C   0  0  0  0  0  0
   21.9930   20.3160   17.7790 C   0  0  0  0  0  0
   21.5710   19.4810   18.3350 H   0  0  0  0  0  0
   23.3480   20.6270   17.9330 C   0  0  0  0  0  0
   23.9450   20.0200   18.6130 H   0  0  0  0  0  0
   19.4830   20.6830   16.7090 S   0  0  0  0  0  0
   18.7760   21.9080   16.3470 O   0  0  0  0  0  0
   19.0420   19.9520   17.8930 O   0  0  0  0  0  0
   19.4770   19.5860   15.3160 C   0  0  0  0  0  0
   18.4440   19.2940   15.1190 H   0  0  0  0  0  0
   20.0730   18.7030   15.5560 H   0  0  0  0  0  0
   19.8870   20.1090   14.4500 H   0  0  0  0  0  0
  1  2  1  0  0  0
  1  3  1  0  0  0
  1  7  1  0  0  0
  1 27  1  0  0  0
  3  4  1  0  0  0
  3  5  1  0  0  0
  3 19  1  0  0  0
  5  6  2  0  0  0
  6  7  1  0  0  0
  6  8  1  0  0  0
  8  9  1  0  0  0
  8 17  2  0  0  0
  9 10  1  0  0  0
  9 11  2  0  0  0
 11 12  1  0  0  0
 11 13  1  0  0  0
 13 14  1  0  0  0
 13 15  2  0  0  0
 15 16  1  0  0  0
 15 17  1  0  0  0
 17 18  1  0  0  0
 19 20  1  0  0  0
 19 25  2  0  0  0
 20 21  1  0  0  0
 20 22  2  0  0  0
 22 23  1  0  0  0
 22 24  1  0  0  0
 24 25  1  0  0  0
 25 26  1  0  0  0
 27 28  1  0  0  0
 27 35  2  0  0  0
 28 29  1  0  0  0
 28 30  2  0  0  0
 30 31  1  0  0  0
 30 32  1  0  0  0
 32 33  2  0  0  0
 32 37  1  0  0  0
 33 34  1  0  0  0
 33 35  1  0  0  0
 35 36  1  0  0  0
 37 38  2  0  0  0
 37 39  2  0  0  0
 37 40  1  0  0  0
 40 41  1  0  0  0
 40 42  1  0  0  0
 40 43  1  0  0  0
M  END
>  <ACTIVITY>
7.1

>  <SET>
2

>  <Min_dist>
0.08

>  <Avg_dist>
0.64

$$$$
11-8
  Cerius2 12110214053D 1   1.00000                          
Structure written by Cerius2 SD Exporter
 37 39  0  0  0  0  0  0  0  0999 V2000
   26.3620   22.0940   16.4100 C   0  0  0  0  0  0
   25.4890   21.4960   17.3100 C   0  0  0  0  0  0
   26.0860   20.9400   18.4360 N   0  0  0  0  0  0
   27.3860   21.1430   18.4030 C   0  0  0  0  0  0
   27.9660   21.9840   17.0270 S   0  0  0  0  0  0
   28.3390   20.6940   19.4560 C   0  0  0  0  0  0
   29.0770   20.0000   19.0410 H   0  0  0  0  0  0
   27.8040   20.1770   20.2590 H   0  0  0  0  0  0
   28.8640   21.5480   19.8950 H   0  0  0  0  0  0
   24.0430   21.4030   17.1400 C   0  0  0  0  0  0
   23.3470   22.2770   16.2910 C   0  0  0  0  0  0
   23.8720   23.0530   15.7380 H   0  0  0  0  0  0
   21.9600   22.1730   16.1490 C   0  0  0  0  0  0
   21.4390   22.8570   15.4810 H   0  0  0  0  0  0
   21.2610   21.2020   16.8710 C   0  0  0  0  0  0
   21.9390   20.3270   17.7230 C   0  0  0  0  0  0
   21.4040   19.5650   18.2860 H   0  0  0  0  0  0
   23.3260   20.4360   17.8600 C   0  0  0  0  0  0
   23.8480   19.7540   18.5320 H   0  0  0  0  0  0
   19.4990   21.0610   16.6740 S   0  0  0  0  0  0
   18.9660   22.3930   16.4080 O   0  0  0  0  0  0
   18.9800   20.3220   17.8210 O   0  0  0  0  0  0
   19.3160   20.0680   15.2160 C   0  0  0  0  0  0
   18.2480   19.9360   15.0290 H   0  0  0  0  0  0
   19.7860   19.0980   15.3850 H   0  0  0  0  0  0
   19.7800   20.5840   14.3740 H   0  0  0  0  0  0
   26.1400   22.7130   15.1010 C   0  0  0  0  0  0
   26.3860   24.0810   14.8980 C   0  0  0  0  0  0
   26.7480   24.7060   15.7130 H   0  0  0  0  0  0
   26.1590   24.6640   13.6490 C   0  0  0  0  0  0
   26.3480   25.7220   13.4930 H   0  0  0  0  0  0
   25.6860   23.8820   12.6030 C   0  0  0  0  0  0
   25.4340   22.5270   12.7810 C   0  0  0  0  0  0
   25.0640   21.9300   11.9520 H   0  0  0  0  0  0
   25.6610   21.9420   14.0290 C   0  0  0  0  0  0
   25.4630   20.8790   14.1560 H   0  0  0  0  0  0
   25.4670   24.4420   11.4060 F   0  0  0  0  0  0
  1  2  2  0  0  0
  1  5  1  0  0  0
  1 27  1  0  0  0
  2  3  1  0  0  0
  2 10  1  0  0  0
  3  4  2  0  0  0
  4  5  1  0  0  0
  4  6  1  0  0  0
  6  7  1  0  0  0
  6  8  1  0  0  0
  6  9  1  0  0  0
 10 11  1  0  0  0
 10 18  2  0  0  0
 11 12  1  0  0  0
 11 13  2  0  0  0
 13 14  1  0  0  0
 13 15  1  0  0  0
 15 16  2  0  0  0
 15 20  1  0  0  0
 16 17  1  0  0  0
 16 18  1  0  0  0
 18 19  1  0  0  0
 20 21  2  0  0  0
 20 22  2  0  0  0
 20 23  1  0  0  0
 23 24  1  0  0  0
 23 25  1  0  0  0
 23 26  1  0  0  0
 27 28  1  0  0  0
 27 35  2  0  0  0
 28 29  1  0  0  0
 28 30  2  0  0  0
 30 31  1  0  0  0
 30 32  1  0  0  0
 32 33  2  0  0  0
 32 37  1  0  0  0
 33 34  1  0  0  0
 33 35  1  0  0  0
 35 36  1  0  0  0
M  END
>  <ACTIVITY>
6.92

>  <SET>
1

>  <Min_dist>
999.9

>  <Avg_dist>
999.9

$$$$
12-10b
  Cerius2 12110214053D 1   1.00000                          
Structure written by Cerius2 SD Exporter
 47 50  0  0  0  0  0  0  0  0999 V2000
   25.4810   21.5010   17.2310 C   0  0  0  0  0  0
   26.4380   22.0700   16.4000 C   0  0  0  0  0  0
   27.7380   22.0480   16.8890 N   0  0  0  0  0  0
   27.7740   21.4210   18.0460 C   0  0  0  0  0  0
   26.2540   20.8920   18.6440 S   0  0  0  0  0  0
   28.9800   21.2280   18.8510 C   0  0  0  0  0  0
   30.1960   21.7440   18.3680 C   0  0  0  0  0  0
   30.2250   22.2750   17.4170 H   0  0  0  0  0  0
   31.3790   21.5890   19.0940 C   0  0  0  0  0  0
   32.3110   21.9980   18.7080 H   0  0  0  0  0  0
   31.3640   20.9100   20.3090 C   0  0  0  0  0  0
   32.2860   20.7870   20.8760 H   0  0  0  0  0  0
   30.1690   20.3800   20.7970 C   0  0  0  0  0  0
   30.1740   19.8430   21.7430 H   0  0  0  0  0  0
   28.9820   20.5330   20.0720 C   0  0  0  0  0  0
   27.5500   19.8130   20.7300 Cl  0  0  0  0  0  0
   26.1670   22.6910   15.1090 C   0  0  0  0  0  0
   25.6730   21.9530   14.0260 C   0  0  0  0  0  0
   25.4770   20.8860   14.1180 H   0  0  0  0  0  0
   25.4320   22.5760   12.7960 C   0  0  0  0  0  0
   25.0440   21.9840   11.9680 H   0  0  0  0  0  0
   25.6880   23.9390   12.6210 C   0  0  0  0  0  0
   26.1960   24.6650   13.7020 C   0  0  0  0  0  0
   26.4380   24.0520   14.9310 C   0  0  0  0  0  0
   26.8360   24.6500   15.7480 H   0  0  0  0  0  0
   26.4700   25.9730   13.6000 F   0  0  0  0  0  0
   25.4040   24.4070   11.3670 O   0  0  0  0  0  0
   25.6320   25.7920   11.1200 C   0  0  0  0  0  0
   25.3480   25.9960   10.0840 H   0  0  0  0  0  0
   26.6930   26.0410   11.2280 H   0  0  0  0  0  0
   25.0040   26.4160   11.7650 H   0  0  0  0  0  0
   24.0240   21.4000   17.1150 C   0  0  0  0  0  0
   23.3100   20.4290   17.8350 C   0  0  0  0  0  0
   23.8300   19.7330   18.4920 H   0  0  0  0  0  0
   21.9200   20.3300   17.7120 C   0  0  0  0  0  0
   21.3870   19.5690   18.2780 H   0  0  0  0  0  0
   21.2360   21.2090   16.8690 C   0  0  0  0  0  0
   21.9340   22.1740   16.1380 C   0  0  0  0  0  0
   21.4070   22.8580   15.4750 H   0  0  0  0  0  0
   23.3230   22.2690   16.2650 C   0  0  0  0  0  0
   23.8520   23.0330   15.6960 H   0  0  0  0  0  0
   19.4790   21.0730   16.6810 S   0  0  0  0  0  0
   18.9490   22.3280   16.1750 O   0  0  0  0  0  0
   18.9200   20.4660   17.8760 O   0  0  0  0  0  0
   19.3440   19.9530   15.4440 N   0  0  0  0  0  0
   18.8870   20.3610   14.6240 H   0  0  0  0  0  0
   18.8590   19.1100   15.7610 H   0  0  0  0  0  0
  1  2  2  0  0  0
  1  5  1  0  0  0
  1 32  1  0  0  0
  2  3  1  0  0  0
  2 17  1  0  0  0
  3  4  2  0  0  0
  4  5  1  0  0  0
  4  6  1  0  0  0
  6  7  1  0  0  0
  6 15  2  0  0  0
  7  8  1  0  0  0
  7  9  2  0  0  0
  9 10  1  0  0  0
  9 11  1  0  0  0
 11 12  1  0  0  0
 11 13  2  0  0  0
 13 14  1  0  0  0
 13 15  1  0  0  0
 15 16  1  0  0  0
 17 18  1  0  0  0
 17 24  2  0  0  0
 18 19  1  0  0  0
 18 20  2  0  0  0
 20 21  1  0  0  0
 20 22  1  0  0  0
 22 23  2  0  0  0
 22 27  1  0  0  0
 23 24  1  0  0  0
 23 26  1  0  0  0
 24 25  1  0  0  0
 27 28  1  0  0  0
 28 29  1  0  0  0
 28 30  1  0  0  0
 28 31  1  0  0  0
 32 33  1  0  0  0
 32 40  2  0  0  0
 33 34  1  0  0  0
 33 35  2  0  0  0
 35 36  1  0  0  0
 35 37  1  0  0  0
 37 38  2  0  0  0
 37 42  1  0  0  0
 38 39  1  0  0  0
 38 40  1  0  0  0
 40 41  1  0  0  0
 42 43  2  0  0  0
 42 44  2  0  0  0
 42 45  1  0  0  0
 45 46  1  0  0  0
 45 47  1  0  0  0
M  END
>  <ACTIVITY>
5.61

>  <SET>
2

>  <Min_dist>
0.13

>  <Avg_dist>
0.58

$$$$
12-10c
  Cerius2 12110214053D 1   1.00000                          
Structure written by Cerius2 SD Exporter
 40 42  0  0  0  0  0  0  0  0999 V2000
   25.4810   21.5030   17.2330 C   0  0  0  0  0  0
   26.4380   22.0730   16.4010 C   0  0  0  0  0  0
   27.7400   22.0470   16.8900 N   0  0  0  0  0  0
   27.7710   21.4390   18.0560 C   0  0  0  0  0  0
   26.2580   20.8870   18.6420 S   0  0  0  0  0  0
   29.0040   21.2210   18.8630 C   0  0  0  0  0  0
   28.9290   21.7240   19.8320 H   0  0  0  0  0  0
   29.8780   21.6230   18.3400 H   0  0  0  0  0  0
   29.1750   20.1530   19.0310 H   0  0  0  0  0  0
   26.1670   22.6910   15.1100 C   0  0  0  0  0  0
   25.6710   21.9520   14.0290 C   0  0  0  0  0  0
   25.4750   20.8850   14.1230 H   0  0  0  0  0  0
   25.4270   22.5730   12.7980 C   0  0  0  0  0  0
   25.0380   21.9790   11.9730 H   0  0  0  0  0  0
   25.6830   23.9360   12.6210 C   0  0  0  0  0  0
   26.1920   24.6630   13.7000 C   0  0  0  0  0  0
   26.4360   24.0520   14.9300 C   0  0  0  0  0  0
   26.8350   24.6510   15.7450 H   0  0  0  0  0  0
   26.4650   25.9720   13.5950 F   0  0  0  0  0  0
   25.3960   24.4010   11.3660 O   0  0  0  0  0  0
   25.6310   25.7840   11.1150 C   0  0  0  0  0  0
   25.3480   25.9860   10.0780 H   0  0  0  0  0  0
   26.6930   26.0290   11.2220 H   0  0  0  0  0  0
   25.0050   26.4130   11.7570 H   0  0  0  0  0  0
   24.0240   21.4020   17.1160 C   0  0  0  0  0  0
   23.3090   20.4310   17.8360 C   0  0  0  0  0  0
   23.8290   19.7350   18.4940 H   0  0  0  0  0  0
   21.9200   20.3310   17.7120 C   0  0  0  0  0  0
   21.3870   19.5700   18.2770 H   0  0  0  0  0  0
   21.2360   21.2090   16.8680 C   0  0  0  0  0  0
   21.9340   22.1750   16.1380 C   0  0  0  0  0  0
   21.4070   22.8580   15.4750 H   0  0  0  0  0  0
   23.3230   22.2710   16.2660 C   0  0  0  0  0  0
   23.8520   23.0340   15.6970 H   0  0  0  0  0  0
   19.4800   21.0740   16.6770 S   0  0  0  0  0  0
   18.9510   22.3280   16.1700 O   0  0  0  0  0  0
   18.9190   20.4670   17.8720 O   0  0  0  0  0  0
   19.3460   19.9540   15.4390 N   0  0  0  0  0  0
   18.8880   20.3620   14.6200 H   0  0  0  0  0  0
   18.8600   19.1100   15.7550 H   0  0  0  0  0  0
  1  2  2  0  0  0
  1  5  1  0  0  0
  1 25  1  0  0  0
  2  3  1  0  0  0
  2 10  1  0  0  0
  3  4  2  0  0  0
  4  5  1  0  0  0
  4  6  1  0  0  0
  6  7  1  0  0  0
  6  8  1  0  0  0
  6  9  1  0  0  0
 10 11  1  0  0  0
 10 17  2  0  0  0
 11 12  1  0  0  0
 11 13  2  0  0  0
 13 14  1  0  0  0
 13 15  1  0  0  0
 15 16  2  0  0  0
 15 20  1  0  0  0
 16 17  1  0  0  0
 16 19  1  0  0  0
 17 18  1  0  0  0
 20 21  1  0  0  0
 21 22  1  0  0  0
 21 23  1  0  0  0
 21 24  1  0  0  0
 25 26  1  0  0  0
 25 33  2  0  0  0
 26 27  1  0  0  0
 26 28  2  0  0  0
 28 29  1  0  0  0
 28 30  1  0  0  0
 30 31  2  0  0  0
 30 35  1  0  0  0
 31 32  1  0  0  0
 31 33  1  0  0  0
 33 34  1  0  0  0
 35 36  2  0  0  0
 35 37  2  0  0  0
 35 38  1  0  0  0
 38 39  1  0  0  0
 38 40  1  0  0  0
M  END
>  <ACTIVITY>
7.55

>  <SET>
2

>  <Min_dist>
0.14

>  <Avg_dist>
0.57

$$$$
12-3a
  Cerius2 12110214053D 1   1.00000                          
Structure written by Cerius2 SD Exporter
 43 46  0  0  0  0  0  0  0  0999 V2000
   25.4820   21.5020   17.2320 C   0  0  0  0  0  0
   26.4400   22.0690   16.4010 C   0  0  0  0  0  0
   27.7410   22.0450   16.8890 N   0  0  0  0  0  0
   27.7750   21.4180   18.0470 C   0  0  0  0  0  0
   26.2540   20.8930   18.6460 S   0  0  0  0  0  0
   28.9810   21.2220   18.8520 C   0  0  0  0  0  0
   30.1980   21.7350   18.3680 C   0  0  0  0  0  0
   30.2280   22.2650   17.4170 H   0  0  0  0  0  0
   31.3800   21.5790   19.0960 C   0  0  0  0  0  0
   32.3130   21.9860   18.7100 H   0  0  0  0  0  0
   31.3640   20.9020   20.3120 C   0  0  0  0  0  0
   32.2850   20.7790   20.8800 H   0  0  0  0  0  0
   30.1680   20.3750   20.7990 C   0  0  0  0  0  0
   30.1700   19.8390   21.7470 H   0  0  0  0  0  0
   28.9800   20.5290   20.0740 C   0  0  0  0  0  0
   27.5480   19.8120   20.7320 Cl  0  0  0  0  0  0
   26.1670   22.6890   15.1090 C   0  0  0  0  0  0
   25.6660   21.9460   14.0300 C   0  0  0  0  0  0
   25.4710   20.8790   14.1280 H   0  0  0  0  0  0
   25.4180   22.5640   12.8010 C   0  0  0  0  0  0
   25.0270   21.9910   11.9660 H   0  0  0  0  0  0
   25.6810   23.9200   12.6500 C   0  0  0  0  0  0
   26.1910   24.6710   13.7020 C   0  0  0  0  0  0
   26.3960   25.7290   13.5650 H   0  0  0  0  0  0
   26.4390   24.0550   14.9310 C   0  0  0  0  0  0
   26.8410   24.6480   15.7510 H   0  0  0  0  0  0
   25.4450   24.5110   11.4710 F   0  0  0  0  0  0
   24.0250   21.4010   17.1140 C   0  0  0  0  0  0
   23.3100   20.4310   17.8340 C   0  0  0  0  0  0
   23.8290   19.7350   18.4920 H   0  0  0  0  0  0
   21.9210   20.3320   17.7100 C   0  0  0  0  0  0
   21.3860   19.5720   18.2750 H   0  0  0  0  0  0
   21.2380   21.2120   16.8660 C   0  0  0  0  0  0
   21.9360   22.1770   16.1360 C   0  0  0  0  0  0
   21.4110   22.8600   15.4720 H   0  0  0  0  0  0
   23.3250   22.2710   16.2640 C   0  0  0  0  0  0
   23.8550   23.0330   15.6940 H   0  0  0  0  0  0
   19.4810   21.0720   16.6790 S   0  0  0  0  0  0
   18.9500   22.3260   16.1720 O   0  0  0  0  0  0
   18.9200   20.4650   17.8730 O   0  0  0  0  0  0
   19.3490   19.9490   15.4430 N   0  0  0  0  0  0
   18.8900   20.3550   14.6230 H   0  0  0  0  0  0
   18.8660   19.1050   15.7610 H   0  0  0  0  0  0
  1  2  2  0  0  0
  1  5  1  0  0  0
  1 28  1  0  0  0
  2  3  1  0  0  0
  2 17  1  0  0  0
  3  4  2  0  0  0
  4  5  1  0  0  0
  4  6  1  0  0  0
  6  7  1  0  0  0
  6 15  2  0  0  0
  7  8  1  0  0  0
  7  9  2  0  0  0
  9 10  1  0  0  0
  9 11  1  0  0  0
 11 12  1  0  0  0
 11 13  2  0  0  0
 13 14  1  0  0  0
 13 15  1  0  0  0
 15 16  1  0  0  0
 17 18  1  0  0  0
 17 25  2  0  0  0
 18 19  1  0  0  0
 18 20  2  0  0  0
 20 21  1  0  0  0
 20 22  1  0  0  0
 22 23  2  0  0  0
 22 27  1  0  0  0
 23 24  1  0  0  0
 23 25  1  0  0  0
 25 26  1  0  0  0
 28 29  1  0  0  0
 28 36  2  0  0  0
 29 30  1  0  0  0
 29 31  2  0  0  0
 31 32  1  0  0  0
 31 33  1  0  0  0
 33 34  2  0  0  0
 33 38  1  0  0  0
 34 35  1  0  0  0
 34 36  1  0  0  0
 36 37  1  0  0  0
 38 39  2  0  0  0
 38 40  2  0  0  0
 38 41  1  0  0  0
 41 42  1  0  0  0
 41 43  1  0  0  0
M  END
>  <ACTIVITY>
7.89

>  <SET>
1

>  <Min_dist>
999.9

>  <Avg_dist>
999.9

$$$$
12-5a
  Cerius2 12110214053D 1   1.00000                          
Structure written by Cerius2 SD Exporter
 36 38  0  0  0  0  0  0  0  0999 V2000
   25.4820   21.5030   17.2320 C   0  0  0  0  0  0
   26.4390   22.0720   16.4020 C   0  0  0  0  0  0
   27.7410   22.0470   16.8940 N   0  0  0  0  0  0
   27.7700   21.4410   18.0610 C   0  0  0  0  0  0
   26.2550   20.8870   18.6430 S   0  0  0  0  0  0
   29.0000   21.2250   18.8710 C   0  0  0  0  0  0
   28.9180   21.7200   19.8440 H   0  0  0  0  0  0
   29.8730   21.6370   18.3560 H   0  0  0  0  0  0
   29.1770   20.1570   19.0330 H   0  0  0  0  0  0
   26.1690   22.6910   15.1090 C   0  0  0  0  0  0
   25.6680   21.9480   14.0300 C   0  0  0  0  0  0
   25.4730   20.8810   14.1290 H   0  0  0  0  0  0
   25.4210   22.5640   12.8010 C   0  0  0  0  0  0
   25.0290   21.9810   11.9700 H   0  0  0  0  0  0
   25.6790   23.9240   12.6360 C   0  0  0  0  0  0
   25.4860   24.4030   11.6780 H   0  0  0  0  0  0
   26.1910   24.6690   13.6970 C   0  0  0  0  0  0
   26.3990   25.7300   13.5680 H   0  0  0  0  0  0
   26.4390   24.0540   14.9270 C   0  0  0  0  0  0
   26.8410   24.6480   15.7460 H   0  0  0  0  0  0
   24.0250   21.4000   17.1130 C   0  0  0  0  0  0
   23.3100   20.4300   17.8330 C   0  0  0  0  0  0
   23.8290   19.7330   18.4900 H   0  0  0  0  0  0
   21.9200   20.3310   17.7100 C   0  0  0  0  0  0
   21.3860   19.5700   18.2750 H   0  0  0  0  0  0
   21.2370   21.2100   16.8670 C   0  0  0  0  0  0
   21.9340   22.1760   16.1370 C   0  0  0  0  0  0
   21.4080   22.8590   15.4740 H   0  0  0  0  0  0
   23.3230   22.2700   16.2650 C   0  0  0  0  0  0
   23.8530   23.0330   15.6950 H   0  0  0  0  0  0
   19.4800   21.0740   16.6800 S   0  0  0  0  0  0
   18.9500   22.3280   16.1740 O   0  0  0  0  0  0
   18.9200   20.4660   17.8740 O   0  0  0  0  0  0
   19.3460   19.9530   15.4430 N   0  0  0  0  0  0
   18.8880   20.3610   14.6230 H   0  0  0  0  0  0
   18.8610   19.1100   15.7600 H   0  0  0  0  0  0
  1  2  2  0  0  0
  1  5  1  0  0  0
  1 21  1  0  0  0
  2  3  1  0  0  0
  2 10  1  0  0  0
  3  4  2  0  0  0
  4  5  1  0  0  0
  4  6  1  0  0  0
  6  7  1  0  0  0
  6  8  1  0  0  0
  6  9  1  0  0  0
 10 11  1  0  0  0
 10 19  2  0  0  0
 11 12  1  0  0  0
 11 13  2  0  0  0
 13 14  1  0  0  0
 13 15  1  0  0  0
 15 16  1  0  0  0
 15 17  2  0  0  0
 17 18  1  0  0  0
 17 19  1  0  0  0
 19 20  1  0  0  0
 21 22  1  0  0  0
 21 29  2  0  0  0
 22 23  1  0  0  0
 22 24  2  0  0  0
 24 25  1  0  0  0
 24 26  1  0  0  0
 26 27  2  0  0  0
 26 31  1  0  0  0
 27 28  1  0  0  0
 27 29  1  0  0  0
 29 30  1  0  0  0
 31 32  2  0  0  0
 31 33  2  0  0  0
 31 34  1  0  0  0
 34 35  1  0  0  0
 34 36  1  0  0  0
M  END
>  <ACTIVITY>
7.42

>  <SET>
1

>  <Min_dist>
999.9

>  <Avg_dist>
999.9

$$$$
12-5b
  Cerius2 12110214053D 1   1.00000                          
Structure written by Cerius2 SD Exporter
 36 38  0  0  0  0  0  0  0  0999 V2000
   25.4820   21.5030   17.2330 C   0  0  0  0  0  0
   26.4390   22.0720   16.4020 C   0  0  0  0  0  0
   27.7410   22.0450   16.8910 N   0  0  0  0  0  0
   27.7710   21.4380   18.0580 C   0  0  0  0  0  0
   26.2570   20.8870   18.6430 S   0  0  0  0  0  0
   29.0030   21.2180   18.8650 C   0  0  0  0  0  0
   28.9260   21.7160   19.8370 H   0  0  0  0  0  0
   29.8770   21.6250   18.3470 H   0  0  0  0  0  0
   29.1760   20.1490   19.0290 H   0  0  0  0  0  0
   26.1670   22.6900   15.1100 C   0  0  0  0  0  0
   25.6670   21.9460   14.0310 C   0  0  0  0  0  0
   25.4720   20.8800   14.1310 H   0  0  0  0  0  0
   25.4190   22.5620   12.8000 C   0  0  0  0  0  0
   25.0280   21.9710   11.9750 H   0  0  0  0  0  0
   25.6800   23.9210   12.6390 C   0  0  0  0  0  0
   26.1900   24.6700   13.6970 C   0  0  0  0  0  0
   26.4000   25.7300   13.5760 H   0  0  0  0  0  0
   26.4370   24.0540   14.9280 C   0  0  0  0  0  0
   26.8380   24.6490   15.7480 H   0  0  0  0  0  0
   25.3750   24.6780   11.1240 Cl  0  0  0  0  0  0
   24.0250   21.4020   17.1150 C   0  0  0  0  0  0
   23.3100   20.4310   17.8340 C   0  0  0  0  0  0
   23.8290   19.7350   18.4920 H   0  0  0  0  0  0
   21.9200   20.3320   17.7100 C   0  0  0  0  0  0
   21.3860   19.5710   18.2750 H   0  0  0  0  0  0
   21.2370   21.2110   16.8670 C   0  0  0  0  0  0
   21.9350   22.1760   16.1370 C   0  0  0  0  0  0
   21.4090   22.8600   15.4730 H   0  0  0  0  0  0
   23.3240   22.2710   16.2650 C   0  0  0  0  0  0
   23.8540   23.0340   15.6960 H   0  0  0  0  0  0
   19.4800   21.0730   16.6770 S   0  0  0  0  0  0
   18.9500   22.3260   16.1700 O   0  0  0  0  0  0
   18.9200   20.4660   17.8710 O   0  0  0  0  0  0
   19.3480   19.9510   15.4410 N   0  0  0  0  0  0
   18.8900   20.3580   14.6210 H   0  0  0  0  0  0
   18.8640   19.1070   15.7580 H   0  0  0  0  0  0
  1  2  2  0  0  0
  1  5  1  0  0  0
  1 21  1  0  0  0
  2  3  1  0  0  0
  2 10  1  0  0  0
  3  4  2  0  0  0
  4  5  1  0  0  0
  4  6  1  0  0  0
  6  7  1  0  0  0
  6  8  1  0  0  0
  6  9  1  0  0  0
 10 11  1  0  0  0
 10 18  2  0  0  0
 11 12  1  0  0  0
 11 13  2  0  0  0
 13 14  1  0  0  0
 13 15  1  0  0  0
 15 16  2  0  0  0
 15 20  1  0  0  0
 16 17  1  0  0  0
 16 18  1  0  0  0
 18 19  1  0  0  0
 21 22  1  0  0  0
 21 29  2  0  0  0
 22 23  1  0  0  0
 22 24  2  0  0  0
 24 25  1  0  0  0
 24 26  1  0  0  0
 26 27  2  0  0  0
 26 31  1  0  0  0
 27 28  1  0  0  0
 27 29  1  0  0  0
 29 30  1  0  0  0
 31 32  2  0  0  0
 31 33  2  0  0  0
 31 34  1  0  0  0
 34 35  1  0  0  0
 34 36  1  0  0  0
M  END
>  <ACTIVITY>
8.3

>  <SET>
1

>  <Min_dist>
999.9

>  <Avg_dist>
999.9

$$$$
13-10
  Cerius2 12110214053D 1   1.00000                          
Structure written by Cerius2 SD Exporter
 43 45  0  0  0  0  0  0  0  0999 V2000
   25.7990   23.8990   12.6100 C   0  0  0  0  0  0
   25.5450   22.5430   12.7780 C   0  0  0  0  0  0
   25.1820   21.9520   11.9420 H   0  0  0  0  0  0
   25.7570   21.9510   14.0240 C   0  0  0  0  0  0
   25.5540   20.8890   14.1500 H   0  0  0  0  0  0
   26.2270   22.7220   15.0960 C   0  0  0  0  0  0
   26.4760   24.0900   14.9120 C   0  0  0  0  0  0
   26.8330   24.7060   15.7360 H   0  0  0  0  0  0
   26.2620   24.6780   13.6640 C   0  0  0  0  0  0
   26.4530   25.7370   13.5140 H   0  0  0  0  0  0
   26.4280   22.1110   16.3950 C   0  0  0  0  0  0
   25.4830   21.5200   17.2890 C   0  0  0  0  0  0
   26.1090   21.0100   18.3620 N   0  0  0  0  0  0
   27.4190   21.2790   18.1640 N   0  0  0  0  0  0
   27.6700   21.9160   16.9780 C   0  0  0  0  0  0
   29.0450   22.2330   16.5450 C   0  0  0  0  0  0
   29.1060   22.9510   15.3920 F   0  0  0  0  0  0
   29.7780   21.1060   16.3260 F   0  0  0  0  0  0
   29.7210   22.9570   17.4780 F   0  0  0  0  0  0
   28.3700   20.8520   19.1810 C   0  0  0  0  0  0
   29.3040   20.5670   18.6880 H   0  0  0  0  0  0
   27.9620   19.9500   19.6510 H   0  0  0  0  0  0
   28.6190   21.9280   20.2250 C   0  0  0  0  0  0
   29.3380   21.5750   20.9700 H   0  0  0  0  0  0
   27.6930   22.1950   20.7440 H   0  0  0  0  0  0
   29.0190   22.8390   19.7680 H   0  0  0  0  0  0
   24.0270   21.4110   17.1540 C   0  0  0  0  0  0
   23.3080   22.2720   16.3120 C   0  0  0  0  0  0
   23.8120   23.0560   15.7510 H   0  0  0  0  0  0
   21.9190   22.1520   16.1880 C   0  0  0  0  0  0
   21.3780   22.8280   15.5280 H   0  0  0  0  0  0
   21.2390   21.1740   16.9190 C   0  0  0  0  0  0
   21.9380   20.3110   17.7640 C   0  0  0  0  0  0
   21.4190   19.5430   18.3340 H   0  0  0  0  0  0
   23.3260   20.4350   17.8830 C   0  0  0  0  0  0
   23.8610   19.7570   18.5470 H   0  0  0  0  0  0
   19.4840   21.0170   16.7330 S   0  0  0  0  0  0
   18.9010   22.3250   16.4960 O   0  0  0  0  0  0
   18.9740   20.1630   17.7920 O   0  0  0  0  0  0
   19.3550   20.1630   15.2970 N   0  0  0  0  0  0
   18.8630   20.7100   14.5860 H   0  0  0  0  0  0
   18.9060   19.2560   15.4470 H   0  0  0  0  0  0
   25.5920   24.4660   11.4130 F   0  0  0  0  0  0
  1  2  1  0  0  0
  1  9  2  0  0  0
  1 43  1  0  0  0
  2  3  1  0  0  0
  2  4  2  0  0  0
  4  5  1  0  0  0
  4  6  1  0  0  0
  6  7  2  0  0  0
  6 11  1  0  0  0
  7  8  1  0  0  0
  7  9  1  0  0  0
  9 10  1  0  0  0
 11 12  1  0  0  0
 11 15  2  0  0  0
 12 13  2  0  0  0
 12 27  1  0  0  0
 13 14  1  0  0  0
 14 15  1  0  0  0
 14 20  1  0  0  0
 15 16  1  0  0  0
 16 17  1  0  0  0
 16 18  1  0  0  0
 16 19  1  0  0  0
 20 21  1  0  0  0
 20 22  1  0  0  0
 20 23  1  0  0  0
 23 24  1  0  0  0
 23 25  1  0  0  0
 23 26  1  0  0  0
 27 28  1  0  0  0
 27 35  2  0  0  0
 28 29  1  0  0  0
 28 30  2  0  0  0
 30 31  1  0  0  0
 30 32  1  0  0  0
 32 33  2  0  0  0
 32 37  1  0  0  0
 33 34  1  0  0  0
 33 35  1  0  0  0
 35 36  1  0  0  0
 37 38  2  0  0  0
 37 39  2  0  0  0
 37 40  1  0  0  0
 40 41  1  0  0  0
 40 42  1  0  0  0
M  END
>  <ACTIVITY>
7.48

>  <SET>
1

>  <Min_dist>
999.9

>  <Avg_dist>
999.9

$$$$
13-4
  Cerius2 12110214053D 1   1.00000                          
Structure written by Cerius2 SD Exporter
 35 37  0  0  0  0  0  0  0  0999 V2000
   25.9180   23.9180   12.5720 C   0  0  0  0  0  0
   25.6610   22.5610   12.7240 C   0  0  0  0  0  0
   25.3400   21.9710   11.8710 H   0  0  0  0  0  0
   25.8230   21.9650   13.9780 C   0  0  0  0  0  0
   25.6280   20.8990   14.0810 H   0  0  0  0  0  0
   26.2380   22.7300   15.0780 C   0  0  0  0  0  0
   26.4960   24.0980   14.9020 C   0  0  0  0  0  0
   26.8170   24.7150   15.7400 H   0  0  0  0  0  0
   26.3340   24.6920   13.6480 C   0  0  0  0  0  0
   26.5300   25.7520   13.5110 H   0  0  0  0  0  0
   26.4030   22.1100   16.3820 C   0  0  0  0  0  0
   25.4700   21.5010   17.2810 C   0  0  0  0  0  0
   26.1020   20.9970   18.3580 N   0  0  0  0  0  0
   27.4030   21.2970   18.1610 N   0  0  0  0  0  0
   28.0890   21.0160   18.8570 H   0  0  0  0  0  0
   27.6290   21.9600   16.9920 C   0  0  0  0  0  0
   28.6330   22.2440   16.7040 H   0  0  0  0  0  0
   24.0130   21.3910   17.1590 C   0  0  0  0  0  0
   23.2920   22.2560   16.3220 C   0  0  0  0  0  0
   23.8020   23.0330   15.7540 H   0  0  0  0  0  0
   21.9030   22.1430   16.2070 C   0  0  0  0  0  0
   21.3640   22.8200   15.5480 H   0  0  0  0  0  0
   21.2260   21.1680   16.9440 C   0  0  0  0  0  0
   21.9270   20.2980   17.7830 C   0  0  0  0  0  0
   21.4100   19.5320   18.3560 H   0  0  0  0  0  0
   23.3170   20.4170   17.8920 C   0  0  0  0  0  0
   23.8560   19.7360   18.5500 H   0  0  0  0  0  0
   19.4610   21.0110   16.7810 S   0  0  0  0  0  0
   18.9010   22.3510   16.6410 O   0  0  0  0  0  0
   18.9850   20.1710   17.8750 O   0  0  0  0  0  0
   19.2550   20.1400   15.2500 C   0  0  0  0  0  0
   18.1850   20.0070   15.0780 H   0  0  0  0  0  0
   19.7430   19.1660   15.3260 H   0  0  0  0  0  0
   19.6910   20.7320   14.4430 H   0  0  0  0  0  0
   25.7640   24.4880   11.3690 F   0  0  0  0  0  0
  1  2  1  0  0  0
  1  9  2  0  0  0
  1 35  1  0  0  0
  2  3  1  0  0  0
  2  4  2  0  0  0
  4  5  1  0  0  0
  4  6  1  0  0  0
  6  7  2  0  0  0
  6 11  1  0  0  0
  7  8  1  0  0  0
  7  9  1  0  0  0
  9 10  1  0  0  0
 11 12  1  0  0  0
 11 16  2  0  0  0
 12 13  2  0  0  0
 12 18  1  0  0  0
 13 14  1  0  0  0
 14 15  1  0  0  0
 14 16  1  0  0  0
 16 17  1  0  0  0
 18 19  1  0  0  0
 18 26  2  0  0  0
 19 20  1  0  0  0
 19 21  2  0  0  0
 21 22  1  0  0  0
 21 23  1  0  0  0
 23 24  2  0  0  0
 23 28  1  0  0  0
 24 25  1  0  0  0
 24 26  1  0  0  0
 26 27  1  0  0  0
 28 29  2  0  0  0
 28 30  2  0  0  0
 28 31  1  0  0  0
 31 32  1  0  0  0
 31 33  1  0  0  0
 31 34  1  0  0  0
M  END
>  <ACTIVITY>
4

>  <SET>
3

>  <Min_dist>
0.31

>  <Avg_dist>
0.56

$$$$
13-5
  Cerius2 12110214053D 1   1.00000                          
Structure written by Cerius2 SD Exporter
 38 40  0  0  0  0  0  0  0  0999 V2000
   25.8550   23.9030   12.5900 C   0  0  0  0  0  0
   25.6000   22.5470   12.7550 C   0  0  0  0  0  0
   25.2580   21.9530   11.9120 H   0  0  0  0  0  0
   25.7870   21.9570   14.0070 C   0  0  0  0  0  0
   25.5860   20.8940   14.1270 H   0  0  0  0  0  0
   26.2310   22.7290   15.0890 C   0  0  0  0  0  0
   26.4810   24.0960   14.9080 C   0  0  0  0  0  0
   26.8130   24.7180   15.7380 H   0  0  0  0  0  0
   26.2930   24.6830   13.6540 C   0  0  0  0  0  0
   26.4840   25.7420   13.5080 H   0  0  0  0  0  0
   26.4170   22.1130   16.3900 C   0  0  0  0  0  0
   25.4770   21.5110   17.2860 C   0  0  0  0  0  0
   26.1080   21.0030   18.3610 N   0  0  0  0  0  0
   27.4120   21.2830   18.1570 N   0  0  0  0  0  0
   28.0920   20.9860   18.8550 H   0  0  0  0  0  0
   27.6530   21.9330   16.9830 C   0  0  0  0  0  0
   29.0280   22.2750   16.5890 C   0  0  0  0  0  0
   29.3010   21.9270   15.3020 F   0  0  0  0  0  0
   29.9640   21.6540   17.3600 F   0  0  0  0  0  0
   29.2720   23.6100   16.6910 F   0  0  0  0  0  0
   24.0210   21.4020   17.1560 C   0  0  0  0  0  0
   23.3020   22.2650   16.3150 C   0  0  0  0  0  0
   23.8090   23.0450   15.7510 H   0  0  0  0  0  0
   21.9130   22.1480   16.1930 C   0  0  0  0  0  0
   21.3760   22.8250   15.5320 H   0  0  0  0  0  0
   21.2340   21.1730   16.9270 C   0  0  0  0  0  0
   21.9330   20.3050   17.7690 C   0  0  0  0  0  0
   21.4150   19.5380   18.3400 H   0  0  0  0  0  0
   23.3220   20.4260   17.8850 C   0  0  0  0  0  0
   23.8570   19.7460   18.5460 H   0  0  0  0  0  0
   19.4710   21.0140   16.7570 S   0  0  0  0  0  0
   18.9120   22.3510   16.5810 O   0  0  0  0  0  0
   18.9860   20.2010   17.8680 O   0  0  0  0  0  0
   19.2730   20.1060   15.2470 C   0  0  0  0  0  0
   18.2040   19.9700   15.0710 H   0  0  0  0  0  0
   19.7600   19.1340   15.3490 H   0  0  0  0  0  0
   19.7140   20.6780   14.4280 H   0  0  0  0  0  0
   25.6760   24.4670   11.3890 F   0  0  0  0  0  0
  1  2  1  0  0  0
  1  9  2  0  0  0
  1 38  1  0  0  0
  2  3  1  0  0  0
  2  4  2  0  0  0
  4  5  1  0  0  0
  4  6  1  0  0  0
  6  7  2  0  0  0
  6 11  1  0  0  0
  7  8  1  0  0  0
  7  9  1  0  0  0
  9 10  1  0  0  0
 11 12  1  0  0  0
 11 16  2  0  0  0
 12 13  2  0  0  0
 12 21  1  0  0  0
 13 14  1  0  0  0
 14 15  1  0  0  0
 14 16  1  0  0  0
 16 17  1  0  0  0
 17 18  1  0  0  0
 17 19  1  0  0  0
 17 20  1  0  0  0
 21 22  1  0  0  0
 21 29  2  0  0  0
 22 23  1  0  0  0
 22 24  2  0  0  0
 24 25  1  0  0  0
 24 26  1  0  0  0
 26 27  2  0  0  0
 26 31  1  0  0  0
 27 28  1  0  0  0
 27 29  1  0  0  0
 29 30  1  0  0  0
 31 32  2  0  0  0
 31 33  2  0  0  0
 31 34  1  0  0  0
 34 35  1  0  0  0
 34 36  1  0  0  0
 34 37  1  0  0  0
M  END
>  <ACTIVITY>
4

>  <SET>
3

>  <Min_dist>
0.16

>  <Avg_dist>
0.52

$$$$
13-6a
  Cerius2 12110214053D 1   1.00000                          
Structure written by Cerius2 SD Exporter
 42 44  0  0  0  0  0  0  0  0999 V2000
   25.9220   23.9170   12.5720 C   0  0  0  0  0  0
   25.6650   22.5600   12.7250 C   0  0  0  0  0  0
   25.3450   21.9690   11.8710 H   0  0  0  0  0  0
   25.8250   21.9650   13.9790 C   0  0  0  0  0  0
   25.6290   20.8990   14.0830 H   0  0  0  0  0  0
   26.2390   22.7300   15.0790 C   0  0  0  0  0  0
   26.4960   24.0980   14.9030 C   0  0  0  0  0  0
   26.8150   24.7150   15.7410 H   0  0  0  0  0  0
   26.3360   24.6910   13.6480 C   0  0  0  0  0  0
   26.5320   25.7510   13.5110 H   0  0  0  0  0  0
   26.4030   22.1110   16.3820 C   0  0  0  0  0  0
   25.4690   21.5020   17.2800 C   0  0  0  0  0  0
   26.1000   20.9950   18.3560 N   0  0  0  0  0  0
   27.4030   21.3070   18.1660 N   0  0  0  0  0  0
   27.6310   21.9620   16.9910 C   0  0  0  0  0  0
   28.6310   22.2490   16.6930 H   0  0  0  0  0  0
   28.4140   20.9070   19.1420 C   0  0  0  0  0  0
   28.3490   19.8180   19.2450 H   0  0  0  0  0  0
   28.1350   21.3520   20.1040 H   0  0  0  0  0  0
   29.8030   21.3000   18.7160 C   0  0  0  0  0  0
   29.8880   21.8080   17.7560 H   0  0  0  0  0  0
   30.9150   21.0550   19.4230 C   0  0  0  0  0  0
   31.8900   21.3620   19.0540 H   0  0  0  0  0  0
   30.8840   20.5480   20.3840 H   0  0  0  0  0  0
   24.0120   21.3910   17.1570 C   0  0  0  0  0  0
   23.2900   22.2560   16.3210 C   0  0  0  0  0  0
   23.7980   23.0340   15.7540 H   0  0  0  0  0  0
   21.9010   22.1410   16.2070 C   0  0  0  0  0  0
   21.3610   22.8190   15.5490 H   0  0  0  0  0  0
   21.2250   21.1660   16.9450 C   0  0  0  0  0  0
   21.9270   20.2970   17.7830 C   0  0  0  0  0  0
   21.4110   19.5310   18.3570 H   0  0  0  0  0  0
   23.3170   20.4160   17.8910 C   0  0  0  0  0  0
   23.8560   19.7370   18.5490 H   0  0  0  0  0  0
   19.4600   21.0110   16.7840 S   0  0  0  0  0  0
   18.9010   22.3520   16.6410 O   0  0  0  0  0  0
   18.9850   20.1730   17.8800 O   0  0  0  0  0  0
   19.2520   20.1380   15.2550 C   0  0  0  0  0  0
   18.1810   20.0090   15.0820 H   0  0  0  0  0  0
   19.7350   19.1630   15.3320 H   0  0  0  0  0  0
   19.6900   20.7260   14.4460 H   0  0  0  0  0  0
   25.7690   24.4860   11.3680 F   0  0  0  0  0  0
  1  2  1  0  0  0
  1  9  2  0  0  0
  1 42  1  0  0  0
  2  3  1  0  0  0
  2  4  2  0  0  0
  4  5  1  0  0  0
  4  6  1  0  0  0
  6  7  2  0  0  0
  6 11  1  0  0  0
  7  8  1  0  0  0
  7  9  1  0  0  0
  9 10  1  0  0  0
 11 12  1  0  0  0
 11 15  2  0  0  0
 12 13  2  0  0  0
 12 25  1  0  0  0
 13 14  1  0  0  0
 14 15  1  0  0  0
 14 17  1  0  0  0
 15 16  1  0  0  0
 17 18  1  0  0  0
 17 19  1  0  0  0
 17 20  1  0  0  0
 20 21  1  0  0  0
 20 22  2  0  0  0
 22 23  1  0  0  0
 22 24  1  0  0  0
 25 26  1  0  0  0
 25 33  2  0  0  0
 26 27  1  0  0  0
 26 28  2  0  0  0
 28 29  1  0  0  0
 28 30  1  0  0  0
 30 31  2  0  0  0
 30 35  1  0  0  0
 31 32  1  0  0  0
 31 33  1  0  0  0
 33 34  1  0  0  0
 35 36  2  0  0  0
 35 37  2  0  0  0
 35 38  1  0  0  0
 38 39  1  0  0  0
 38 40  1  0  0  0
 38 41  1  0  0  0
M  END
>  <ACTIVITY>
4

>  <SET>
3

>  <Min_dist>
0.22

>  <Avg_dist>
0.56

$$$$
13-7a
  Cerius2 12110214053D 1   1.00000                          
Structure written by Cerius2 SD Exporter
 45 47  0  0  0  0  0  0  0  0999 V2000
   25.8080   23.9010   12.6080 C   0  0  0  0  0  0
   25.5530   22.5450   12.7750 C   0  0  0  0  0  0
   25.1920   21.9540   11.9370 H   0  0  0  0  0  0
   25.7600   21.9520   14.0220 C   0  0  0  0  0  0
   25.5570   20.8900   14.1470 H   0  0  0  0  0  0
   26.2260   22.7220   15.0960 C   0  0  0  0  0  0
   26.4760   24.0900   14.9140 C   0  0  0  0  0  0
   26.8290   24.7060   15.7400 H   0  0  0  0  0  0
   26.2670   24.6790   13.6650 C   0  0  0  0  0  0
   26.4570   25.7380   13.5170 H   0  0  0  0  0  0
   26.4280   22.1100   16.3940 C   0  0  0  0  0  0
   25.4830   21.5210   17.2890 C   0  0  0  0  0  0
   26.1070   21.0140   18.3640 N   0  0  0  0  0  0
   27.4190   21.2900   18.1720 N   0  0  0  0  0  0
   27.6700   21.9130   16.9760 C   0  0  0  0  0  0
   29.0450   22.2230   16.5390 C   0  0  0  0  0  0
   29.1080   22.8410   15.3290 F   0  0  0  0  0  0
   29.8070   21.1010   16.4260 F   0  0  0  0  0  0
   29.6890   23.0400   17.4160 F   0  0  0  0  0  0
   28.3800   20.8770   19.2000 C   0  0  0  0  0  0
   28.2760   19.7990   19.3500 H   0  0  0  0  0  0
   28.0780   21.3660   20.1340 H   0  0  0  0  0  0
   29.7970   21.2130   18.8230 C   0  0  0  0  0  0
   29.9470   21.6940   17.8580 H   0  0  0  0  0  0
   30.8690   20.9450   19.5830 C   0  0  0  0  0  0
   31.8690   21.2090   19.2490 H   0  0  0  0  0  0
   30.7790   20.4620   20.5520 H   0  0  0  0  0  0
   24.0270   21.4110   17.1540 C   0  0  0  0  0  0
   23.3080   22.2720   16.3100 C   0  0  0  0  0  0
   23.8140   23.0540   15.7480 H   0  0  0  0  0  0
   21.9200   22.1520   16.1840 C   0  0  0  0  0  0
   21.3830   22.8280   15.5220 H   0  0  0  0  0  0
   21.2410   21.1750   16.9160 C   0  0  0  0  0  0
   21.9380   20.3100   17.7610 C   0  0  0  0  0  0
   21.4200   19.5420   18.3310 H   0  0  0  0  0  0
   23.3260   20.4350   17.8810 C   0  0  0  0  0  0
   23.8620   19.7570   18.5450 H   0  0  0  0  0  0
   19.4780   21.0130   16.7410 S   0  0  0  0  0  0
   18.9200   22.3470   16.5380 O   0  0  0  0  0  0
   18.9890   20.2190   17.8640 O   0  0  0  0  0  0
   19.2890   20.0790   15.2450 C   0  0  0  0  0  0
   18.2210   19.9400   15.0650 H   0  0  0  0  0  0
   19.7730   19.1090   15.3680 H   0  0  0  0  0  0
   19.7360   20.6350   14.4200 H   0  0  0  0  0  0
   25.6070   24.4680   11.4110 F   0  0  0  0  0  0
  1  2  1  0  0  0
  1  9  2  0  0  0
  1 45  1  0  0  0
  2  3  1  0  0  0
  2  4  2  0  0  0
  4  5  1  0  0  0
  4  6  1  0  0  0
  6  7  2  0  0  0
  6 11  1  0  0  0
  7  8  1  0  0  0
  7  9  1  0  0  0
  9 10  1  0  0  0
 11 12  1  0  0  0
 11 15  2  0  0  0
 12 13  2  0  0  0
 12 28  1  0  0  0
 13 14  1  0  0  0
 14 15  1  0  0  0
 14 20  1  0  0  0
 15 16  1  0  0  0
 16 17  1  0  0  0
 16 18  1  0  0  0
 16 19  1  0  0  0
 20 21  1  0  0  0
 20 22  1  0  0  0
 20 23  1  0  0  0
 23 24  1  0  0  0
 23 25  2  0  0  0
 25 26  1  0  0  0
 25 27  1  0  0  0
 28 29  1  0  0  0
 28 36  2  0  0  0
 29 30  1  0  0  0
 29 31  2  0  0  0
 31 32  1  0  0  0
 31 33  1  0  0  0
 33 34  2  0  0  0
 33 38  1  0  0  0
 34 35  1  0  0  0
 34 36  1  0  0  0
 36 37  1  0  0  0
 38 39  2  0  0  0
 38 40  2  0  0  0
 38 41  1  0  0  0
 41 42  1  0  0  0
 41 43  1  0  0  0
 41 44  1  0  0  0
M  END
>  <ACTIVITY>
7.12

>  <SET>
2

>  <Min_dist>
0.08

>  <Avg_dist>
0.55

$$$$
13-7c
  Cerius2 12110214053D 1   1.00000                          
Structure written by Cerius2 SD Exporter
 44 46  0  0  0  0  0  0  0  0999 V2000
   25.8040   23.8970   12.6080 C   0  0  0  0  0  0
   25.5490   22.5400   12.7780 C   0  0  0  0  0  0
   25.1880   21.9480   11.9420 H   0  0  0  0  0  0
   25.7590   21.9500   14.0260 C   0  0  0  0  0  0
   25.5550   20.8890   14.1530 H   0  0  0  0  0  0
   26.2260   22.7240   15.0970 C   0  0  0  0  0  0
   26.4740   24.0910   14.9130 C   0  0  0  0  0  0
   26.8280   24.7080   15.7370 H   0  0  0  0  0  0
   26.2630   24.6770   13.6630 C   0  0  0  0  0  0
   26.4530   25.7360   13.5120 H   0  0  0  0  0  0
   26.4280   22.1120   16.3950 C   0  0  0  0  0  0
   25.4830   21.5190   17.2880 C   0  0  0  0  0  0
   26.1090   21.0080   18.3610 N   0  0  0  0  0  0
   27.4190   21.2790   18.1630 N   0  0  0  0  0  0
   27.6700   21.9160   16.9780 C   0  0  0  0  0  0
   29.0450   22.2330   16.5450 C   0  0  0  0  0  0
   29.1060   22.9490   15.3900 F   0  0  0  0  0  0
   29.7790   21.1070   16.3300 F   0  0  0  0  0  0
   29.7200   22.9610   17.4770 F   0  0  0  0  0  0
   28.3700   20.8550   19.1810 C   0  0  0  0  0  0
   27.8600   20.8280   20.1480 H   0  0  0  0  0  0
   29.1450   21.6280   19.2450 H   0  0  0  0  0  0
   28.9910   19.5050   18.8630 C   0  0  0  0  0  0
   29.6970   19.2170   19.6470 H   0  0  0  0  0  0
   29.5310   19.5340   17.9110 H   0  0  0  0  0  0
   28.2260   18.7250   18.7870 H   0  0  0  0  0  0
   24.0270   21.4110   17.1540 C   0  0  0  0  0  0
   23.3090   22.2720   16.3110 C   0  0  0  0  0  0
   23.8160   23.0540   15.7490 H   0  0  0  0  0  0
   21.9210   22.1540   16.1850 C   0  0  0  0  0  0
   21.3860   22.8310   15.5220 H   0  0  0  0  0  0
   21.2410   21.1780   16.9160 C   0  0  0  0  0  0
   21.9380   20.3120   17.7610 C   0  0  0  0  0  0
   21.4190   19.5440   18.3310 H   0  0  0  0  0  0
   23.3260   20.4360   17.8820 C   0  0  0  0  0  0
   23.8600   19.7560   18.5450 H   0  0  0  0  0  0
   19.4790   21.0140   16.7380 S   0  0  0  0  0  0
   18.9200   22.3470   16.5340 O   0  0  0  0  0  0
   18.9880   20.2200   17.8600 O   0  0  0  0  0  0
   19.2910   20.0790   15.2430 C   0  0  0  0  0  0
   18.2240   19.9360   15.0630 H   0  0  0  0  0  0
   19.7800   19.1100   15.3640 H   0  0  0  0  0  0
   19.7360   20.6370   14.4160 H   0  0  0  0  0  0
   25.6010   24.4610   11.4100 F   0  0  0  0  0  0
  1  2  1  0  0  0
  1  9  2  0  0  0
  1 44  1  0  0  0
  2  3  1  0  0  0
  2  4  2  0  0  0
  4  5  1  0  0  0
  4  6  1  0  0  0
  6  7  2  0  0  0
  6 11  1  0  0  0
  7  8  1  0  0  0
  7  9  1  0  0  0
  9 10  1  0  0  0
 11 12  1  0  0  0
 11 15  2  0  0  0
 12 13  2  0  0  0
 12 27  1  0  0  0
 13 14  1  0  0  0
 14 15  1  0  0  0
 14 20  1  0  0  0
 15 16  1  0  0  0
 16 17  1  0  0  0
 16 18  1  0  0  0
 16 19  1  0  0  0
 20 21  1  0  0  0
 20 22  1  0  0  0
 20 23  1  0  0  0
 23 24  1  0  0  0
 23 25  1  0  0  0
 23 26  1  0  0  0
 27 28  1  0  0  0
 27 35  2  0  0  0
 28 29  1  0  0  0
 28 30  2  0  0  0
 30 31  1  0  0  0
 30 32  1  0  0  0
 32 33  2  0  0  0
 32 37  1  0  0  0
 33 34  1  0  0  0
 33 35  1  0  0  0
 35 36  1  0  0  0
 37 38  2  0  0  0
 37 39  2  0  0  0
 37 40  1  0  0  0
 40 41  1  0  0  0
 40 42  1  0  0  0
 40 43  1  0  0  0
M  END
>  <ACTIVITY>
6.89

>  <SET>
1

>  <Min_dist>
999.9

>  <Avg_dist>
999.9

$$$$
14-12
  Cerius2 12110214053D 1   1.00000                          
Structure written by Cerius2 SD Exporter
 40 43  0  0  0  0  0  0  0  0999 V2000
   26.4690   22.0800   16.3760 C   0  0  0  0  0  0
   25.4650   21.5740   17.1930 C   0  0  0  0  0  0
   26.0170   21.0730   18.3420 O   0  0  0  0  0  0
   27.3620   21.2400   18.2620 C   0  0  0  0  0  0
   27.7020   21.8570   17.0650 C   0  0  0  0  0  0
   29.0640   22.1210   16.8160 C   0  0  0  0  0  0
   29.3800   22.6100   15.8980 H   0  0  0  0  0  0
   30.0140   21.7440   17.7760 C   0  0  0  0  0  0
   31.0690   21.9430   17.5910 H   0  0  0  0  0  0
   29.6270   21.1210   18.9640 C   0  0  0  0  0  0
   30.3860   20.8390   19.6940 H   0  0  0  0  0  0
   28.2820   20.8540   19.2350 C   0  0  0  0  0  0
   27.9680   20.3730   20.1550 H   0  0  0  0  0  0
   24.0140   21.4340   17.1050 C   0  0  0  0  0  0
   23.2550   22.2740   16.2760 C   0  0  0  0  0  0
   23.7370   23.0390   15.6690 H   0  0  0  0  0  0
   21.8650   22.1380   16.1960 C   0  0  0  0  0  0
   21.2970   22.8000   15.5460 H   0  0  0  0  0  0
   21.2210   21.1560   16.9530 C   0  0  0  0  0  0
   21.9590   20.3010   17.7730 C   0  0  0  0  0  0
   21.4690   19.5280   18.3610 H   0  0  0  0  0  0
   23.3490   20.4430   17.8470 C   0  0  0  0  0  0
   23.9110   19.7740   18.4980 H   0  0  0  0  0  0
   19.4630   20.9680   16.8240 S   0  0  0  0  0  0
   18.8480   22.2740   16.6680 O   0  0  0  0  0  0
   19.0070   20.0570   17.8590 O   0  0  0  0  0  0
   19.3020   20.1750   15.3570 N   0  0  0  0  0  0
   18.7760   20.7430   14.6870 H   0  0  0  0  0  0
   18.8770   19.2530   15.4800 H   0  0  0  0  0  0
   26.2520   22.7190   15.0910 C   0  0  0  0  0  0
   25.7900   21.9650   14.0030 C   0  0  0  0  0  0
   25.5790   20.9020   14.1120 H   0  0  0  0  0  0
   25.5830   22.5730   12.7620 C   0  0  0  0  0  0
   25.2220   21.9930   11.9180 H   0  0  0  0  0  0
   25.8430   23.9300   12.6120 C   0  0  0  0  0  0
   26.3070   24.6920   13.6780 C   0  0  0  0  0  0
   26.5080   25.7500   13.5420 H   0  0  0  0  0  0
   26.5150   24.0860   14.9190 C   0  0  0  0  0  0
   26.8860   24.6900   15.7460 H   0  0  0  0  0  0
   25.6450   24.5120   11.4220 F   0  0  0  0  0  0
  1  2  2  0  0  0
  1  5  1  0  0  0
  1 30  1  0  0  0
  2  3  1  0  0  0
  2 14  1  0  0  0
  3  4  1  0  0  0
  4  5  1  0  0  0
  4 12  2  0  0  0
  5  6  2  0  0  0
  6  7  1  0  0  0
  6  8  1  0  0  0
  8  9  1  0  0  0
  8 10  2  0  0  0
 10 11  1  0  0  0
 10 12  1  0  0  0
 12 13  1  0  0  0
 14 15  1  0  0  0
 14 22  2  0  0  0
 15 16  1  0  0  0
 15 17  2  0  0  0
 17 18  1  0  0  0
 17 19  1  0  0  0
 19 20  2  0  0  0
 19 24  1  0  0  0
 20 21  1  0  0  0
 20 22  1  0  0  0
 22 23  1  0  0  0
 24 25  2  0  0  0
 24 26  2  0  0  0
 24 27  1  0  0  0
 27 28  1  0  0  0
 27 29  1  0  0  0
 30 31  1  0  0  0
 30 38  2  0  0  0
 31 32  1  0  0  0
 31 33  2  0  0  0
 33 34  1  0  0  0
 33 35  1  0  0  0
 35 36  2  0  0  0
 35 40  1  0  0  0
 36 37  1  0  0  0
 36 38  1  0  0  0
 38 39  1  0  0  0
M  END
>  <ACTIVITY>
8.15

>  <SET>
2

>  <Min_dist>
0.15

>  <Avg_dist>
0.64

$$$$
14-13
  Cerius2 12110214053D 1   1.00000                          
Structure written by Cerius2 SD Exporter
 42 45  0  0  0  0  0  0  0  0999 V2000
   26.4390   22.0630   16.4050 C   0  0  0  0  0  0
   25.5430   21.5290   17.2730 C   0  0  0  0  0  0
   26.1920   20.9800   18.5320 C   0  0  0  0  0  0
   26.0050   19.9060   18.6380 H   0  0  0  0  0  0
   25.8730   21.5200   19.4280 H   0  0  0  0  0  0
   27.6380   21.2430   18.2520 C   0  0  0  0  0  0
   27.7690   21.8780   17.0120 C   0  0  0  0  0  0
   29.0210   22.2420   16.5410 C   0  0  0  0  0  0
   29.1420   22.7450   15.5850 H   0  0  0  0  0  0
   30.1420   21.9510   17.3260 C   0  0  0  0  0  0
   31.1350   22.2280   16.9720 H   0  0  0  0  0  0
   30.0020   21.3080   18.5650 C   0  0  0  0  0  0
   30.8870   21.0910   19.1630 H   0  0  0  0  0  0
   28.7390   20.9490   19.0400 C   0  0  0  0  0  0
   28.6280   20.4560   20.0020 H   0  0  0  0  0  0
   24.0830   21.4340   17.1260 C   0  0  0  0  0  0
   23.3900   22.2910   16.2580 C   0  0  0  0  0  0
   23.9250   23.0410   15.6780 H   0  0  0  0  0  0
   22.0030   22.1910   16.1080 C   0  0  0  0  0  0
   21.4880   22.8670   15.4300 H   0  0  0  0  0  0
   21.2990   21.2270   16.8320 C   0  0  0  0  0  0
   21.9740   20.3550   17.6890 C   0  0  0  0  0  0
   21.4340   19.5970   18.2510 H   0  0  0  0  0  0
   23.3610   20.4610   17.8330 C   0  0  0  0  0  0
   23.8670   19.7810   18.5160 H   0  0  0  0  0  0
   19.5460   21.0730   16.6180 S   0  0  0  0  0  0
   18.9680   22.3920   16.4330 O   0  0  0  0  0  0
   19.0180   20.1740   17.6290 O   0  0  0  0  0  0
   19.4400   20.2780   15.1480 N   0  0  0  0  0  0
   18.9580   20.8530   14.4520 H   0  0  0  0  0  0
   18.9910   19.3650   15.2540 H   0  0  0  0  0  0
   26.1190   22.6980   15.1190 C   0  0  0  0  0  0
   25.5690   21.9370   14.0770 C   0  0  0  0  0  0
   25.3660   20.8760   14.2150 H   0  0  0  0  0  0
   25.2660   22.5340   12.8510 C   0  0  0  0  0  0
   24.8370   21.9480   12.0440 H   0  0  0  0  0  0
   25.5150   23.8890   12.6680 C   0  0  0  0  0  0
   26.0640   24.6590   13.6860 C   0  0  0  0  0  0
   26.2550   25.7160   13.5250 H   0  0  0  0  0  0
   26.3690   24.0630   14.9120 C   0  0  0  0  0  0
   26.8020   24.6710   15.7050 H   0  0  0  0  0  0
   25.2240   24.4610   11.4920 F   0  0  0  0  0  0
  1  2  2  0  0  0
  1  7  1  0  0  0
  1 32  1  0  0  0
  2  3  1  0  0  0
  2 16  1  0  0  0
  3  4  1  0  0  0
  3  5  1  0  0  0
  3  6  1  0  0  0
  6  7  1  0  0  0
  6 14  2  0  0  0
  7  8  2  0  0  0
  8  9  1  0  0  0
  8 10  1  0  0  0
 10 11  1  0  0  0
 10 12  2  0  0  0
 12 13  1  0  0  0
 12 14  1  0  0  0
 14 15  1  0  0  0
 16 17  1  0  0  0
 16 24  2  0  0  0
 17 18  1  0  0  0
 17 19  2  0  0  0
 19 20  1  0  0  0
 19 21  1  0  0  0
 21 22  2  0  0  0
 21 26  1  0  0  0
 22 23  1  0  0  0
 22 24  1  0  0  0
 24 25  1  0  0  0
 26 27  2  0  0  0
 26 28  2  0  0  0
 26 29  1  0  0  0
 29 30  1  0  0  0
 29 31  1  0  0  0
 32 33  1  0  0  0
 32 40  2  0  0  0
 33 34  1  0  0  0
 33 35  2  0  0  0
 35 36  1  0  0  0
 35 37  1  0  0  0
 37 38  2  0  0  0
 37 42  1  0  0  0
 38 39  1  0  0  0
 38 40  1  0  0  0
 40 41  1  0  0  0
M  END
>  <ACTIVITY>
8.3

>  <SET>
1

>  <Min_dist>
999.9

>  <Avg_dist>
999.9

$$$$
14-14
  Cerius2 12110214053D 1   1.00000                          
Structure written by Cerius2 SD Exporter
 45 48  0  0  0  0  0  0  0  0999 V2000
   26.4720   22.0770   16.3770 C   0  0  0  0  0  0
   25.4670   21.5750   17.1940 C   0  0  0  0  0  0
   26.0160   21.0790   18.3460 O   0  0  0  0  0  0
   27.3620   21.2460   18.2680 C   0  0  0  0  0  0
   27.7040   21.8570   17.0690 C   0  0  0  0  0  0
   29.0660   22.1200   16.8210 C   0  0  0  0  0  0
   29.3850   22.6050   15.9020 H   0  0  0  0  0  0
   30.0150   21.7470   17.7840 C   0  0  0  0  0  0
   31.0700   21.9440   17.6010 H   0  0  0  0  0  0
   29.6250   21.1290   18.9750 C   0  0  0  0  0  0
   30.3830   20.8490   19.7070 H   0  0  0  0  0  0
   28.2790   20.8640   19.2440 C   0  0  0  0  0  0
   27.9630   20.3880   20.1660 H   0  0  0  0  0  0
   24.0160   21.4340   17.1030 C   0  0  0  0  0  0
   23.2590   22.2730   16.2720 C   0  0  0  0  0  0
   23.7420   23.0370   15.6650 H   0  0  0  0  0  0
   21.8690   22.1380   16.1900 C   0  0  0  0  0  0
   21.3050   22.8000   15.5360 H   0  0  0  0  0  0
   21.2250   21.1570   16.9470 C   0  0  0  0  0  0
   21.9610   20.3010   17.7680 C   0  0  0  0  0  0
   21.4710   19.5260   18.3540 H   0  0  0  0  0  0
   23.3510   20.4430   17.8430 C   0  0  0  0  0  0
   23.9120   19.7740   18.4940 H   0  0  0  0  0  0
   19.4600   20.9700   16.8270 S   0  0  0  0  0  0
   18.8700   22.3020   16.7450 O   0  0  0  0  0  0
   19.0300   20.0860   17.9050 O   0  0  0  0  0  0
   19.2300   20.1440   15.2750 C   0  0  0  0  0  0
   18.1590   19.9940   15.1260 H   0  0  0  0  0  0
   19.7390   19.1790   15.3060 H   0  0  0  0  0  0
   19.6320   20.7700   14.4760 H   0  0  0  0  0  0
   26.2580   22.7100   15.0870 C   0  0  0  0  0  0
   26.5100   24.0750   14.9260 C   0  0  0  0  0  0
   26.8800   24.6790   15.7500 H   0  0  0  0  0  0
   26.2990   24.6850   13.6880 C   0  0  0  0  0  0
   25.8290   23.9560   12.5930 C   0  0  0  0  0  0
   25.5720   22.5920   12.7620 C   0  0  0  0  0  0
   25.2030   21.9990   11.9260 H   0  0  0  0  0  0
   25.7810   21.9710   13.9980 C   0  0  0  0  0  0
   25.5630   20.9090   14.0980 H   0  0  0  0  0  0
   25.5780   24.4210   11.3310 O   0  0  0  0  0  0
   25.8200   25.8040   11.0860 C   0  0  0  0  0  0
   25.5720   26.0040   10.0400 H   0  0  0  0  0  0
   26.8780   26.0500   11.2280 H   0  0  0  0  0  0
   25.1730   26.4330   11.7060 H   0  0  0  0  0  0
   26.5640   25.9970   13.5940 F   0  0  0  0  0  0
  1  2  2  0  0  0
  1  5  1  0  0  0
  1 31  1  0  0  0
  2  3  1  0  0  0
  2 14  1  0  0  0
  3  4  1  0  0  0
  4  5  1  0  0  0
  4 12  2  0  0  0
  5  6  2  0  0  0
  6  7  1  0  0  0
  6  8  1  0  0  0
  8  9  1  0  0  0
  8 10  2  0  0  0
 10 11  1  0  0  0
 10 12  1  0  0  0
 12 13  1  0  0  0
 14 15  1  0  0  0
 14 22  2  0  0  0
 15 16  1  0  0  0
 15 17  2  0  0  0
 17 18  1  0  0  0
 17 19  1  0  0  0
 19 20  2  0  0  0
 19 24  1  0  0  0
 20 21  1  0  0  0
 20 22  1  0  0  0
 22 23  1  0  0  0
 24 25  2  0  0  0
 24 26  2  0  0  0
 24 27  1  0  0  0
 27 28  1  0  0  0
 27 29  1  0  0  0
 27 30  1  0  0  0
 31 32  1  0  0  0
 31 38  2  0  0  0
 32 33  1  0  0  0
 32 34  2  0  0  0
 34 35  1  0  0  0
 34 45  1  0  0  0
 35 36  2  0  0  0
 35 40  1  0  0  0
 36 37  1  0  0  0
 36 38  1  0  0  0
 38 39  1  0  0  0
 40 41  1  0  0  0
 41 42  1  0  0  0
 41 43  1  0  0  0
 41 44  1  0  0  0
M  END
>  <ACTIVITY>
7.03

>  <SET>
2

>  <Min_dist>
0.11

>  <Avg_dist>
0.62

$$$$
14-15
  Cerius2 12110214053D 1   1.00000                          
Structure written by Cerius2 SD Exporter
 44 47  0  0  0  0  0  0  0  0999 V2000
   26.4720   22.0770   16.3760 C   0  0  0  0  0  0
   25.4670   21.5750   17.1940 C   0  0  0  0  0  0
   26.0160   21.0790   18.3460 O   0  0  0  0  0  0
   27.3620   21.2440   18.2660 C   0  0  0  0  0  0
   27.7040   21.8560   17.0670 C   0  0  0  0  0  0
   29.0660   22.1180   16.8190 C   0  0  0  0  0  0
   29.3850   22.6030   15.8990 H   0  0  0  0  0  0
   30.0150   21.7440   17.7820 C   0  0  0  0  0  0
   31.0700   21.9410   17.5970 H   0  0  0  0  0  0
   29.6260   21.1260   18.9720 C   0  0  0  0  0  0
   30.3830   20.8460   19.7040 H   0  0  0  0  0  0
   28.2790   20.8620   19.2420 C   0  0  0  0  0  0
   27.9640   20.3860   20.1640 H   0  0  0  0  0  0
   24.0150   21.4350   17.1040 C   0  0  0  0  0  0
   23.2580   22.2750   16.2750 C   0  0  0  0  0  0
   23.7390   23.0410   15.6680 H   0  0  0  0  0  0
   21.8670   22.1390   16.1950 C   0  0  0  0  0  0
   21.3000   22.8010   15.5440 H   0  0  0  0  0  0
   21.2230   21.1570   16.9510 C   0  0  0  0  0  0
   21.9600   20.3030   17.7710 C   0  0  0  0  0  0
   21.4700   19.5290   18.3580 H   0  0  0  0  0  0
   23.3500   20.4450   17.8460 C   0  0  0  0  0  0
   23.9120   19.7760   18.4970 H   0  0  0  0  0  0
   19.4660   20.9680   16.8200 S   0  0  0  0  0  0
   18.8630   22.2530   16.5140 O   0  0  0  0  0  0
   18.9890   20.1800   17.9430 O   0  0  0  0  0  0
   19.3160   20.0200   15.4470 N   0  0  0  0  0  0
   18.8020   20.5140   14.7130 H   0  0  0  0  0  0
   18.8810   19.1200   15.6660 H   0  0  0  0  0  0
   26.2570   22.7100   15.0870 C   0  0  0  0  0  0
   26.5100   24.0740   14.9250 C   0  0  0  0  0  0
   26.8800   24.6780   15.7500 H   0  0  0  0  0  0
   26.2980   24.6850   13.6890 C   0  0  0  0  0  0
   25.8290   23.9560   12.5930 C   0  0  0  0  0  0
   25.5720   22.5920   12.7610 C   0  0  0  0  0  0
   25.2020   22.0000   11.9260 H   0  0  0  0  0  0
   25.7800   21.9710   13.9980 C   0  0  0  0  0  0
   25.5620   20.9090   14.0970 H   0  0  0  0  0  0
   25.5780   24.4220   11.3310 O   0  0  0  0  0  0
   25.8190   25.8050   11.0870 C   0  0  0  0  0  0
   25.5720   26.0050   10.0400 H   0  0  0  0  0  0
   26.8760   26.0520   11.2310 H   0  0  0  0  0  0
   25.1700   26.4330   11.7060 H   0  0  0  0  0  0
   26.5620   25.9970   13.5950 F   0  0  0  0  0  0
  1  2  2  0  0  0
  1  5  1  0  0  0
  1 30  1  0  0  0
  2  3  1  0  0  0
  2 14  1  0  0  0
  3  4  1  0  0  0
  4  5  1  0  0  0
  4 12  2  0  0  0
  5  6  2  0  0  0
  6  7  1  0  0  0
  6  8  1  0  0  0
  8  9  1  0  0  0
  8 10  2  0  0  0
 10 11  1  0  0  0
 10 12  1  0  0  0
 12 13  1  0  0  0
 14 15  1  0  0  0
 14 22  2  0  0  0
 15 16  1  0  0  0
 15 17  2  0  0  0
 17 18  1  0  0  0
 17 19  1  0  0  0
 19 20  2  0  0  0
 19 24  1  0  0  0
 20 21  1  0  0  0
 20 22  1  0  0  0
 22 23  1  0  0  0
 24 25  2  0  0  0
 24 26  2  0  0  0
 24 27  1  0  0  0
 27 28  1  0  0  0
 27 29  1  0  0  0
 30 31  1  0  0  0
 30 37  2  0  0  0
 31 32  1  0  0  0
 31 33  2  0  0  0
 33 34  1  0  0  0
 33 44  1  0  0  0
 34 35  2  0  0  0
 34 39  1  0  0  0
 35 36  1  0  0  0
 35 37  1  0  0  0
 37 38  1  0  0  0
 39 40  1  0  0  0
 40 41  1  0  0  0
 40 42  1  0  0  0
 40 43  1  0  0  0
M  END
>  <ACTIVITY>
8.3

>  <SET>
1

>  <Min_dist>
999.9

>  <Avg_dist>
999.9

$$$$
14-3
  Cerius2 12110214053D 1   1.00000                          
Structure written by Cerius2 SD Exporter
 43 46  0  0  0  0  0  0  0  0999 V2000
   26.4400   22.0650   16.4070 C   0  0  0  0  0  0
   25.5430   21.5290   17.2720 C   0  0  0  0  0  0
   26.1920   20.9800   18.5320 C   0  0  0  0  0  0
   26.0070   19.9060   18.6370 H   0  0  0  0  0  0
   25.8690   21.5190   19.4280 H   0  0  0  0  0  0
   27.6370   21.2480   18.2550 C   0  0  0  0  0  0
   27.7680   21.8840   17.0160 C   0  0  0  0  0  0
   29.0210   22.2520   16.5480 C   0  0  0  0  0  0
   29.1420   22.7550   15.5930 H   0  0  0  0  0  0
   30.1410   21.9640   17.3350 C   0  0  0  0  0  0
   31.1340   22.2440   16.9840 H   0  0  0  0  0  0
   30.0000   21.3200   18.5740 C   0  0  0  0  0  0
   30.8840   21.1060   19.1730 H   0  0  0  0  0  0
   28.7380   20.9570   19.0460 C   0  0  0  0  0  0
   28.6260   20.4630   20.0070 H   0  0  0  0  0  0
   24.0840   21.4300   17.1230 C   0  0  0  0  0  0
   23.3910   22.2880   16.2550 C   0  0  0  0  0  0
   23.9270   23.0400   15.6760 H   0  0  0  0  0  0
   22.0050   22.1890   16.1050 C   0  0  0  0  0  0
   21.4910   22.8660   15.4260 H   0  0  0  0  0  0
   21.3010   21.2240   16.8280 C   0  0  0  0  0  0
   21.9760   20.3490   17.6820 C   0  0  0  0  0  0
   21.4380   19.5870   18.2430 H   0  0  0  0  0  0
   23.3630   20.4550   17.8260 C   0  0  0  0  0  0
   23.8690   19.7730   18.5080 H   0  0  0  0  0  0
   19.5400   21.0810   16.6270 S   0  0  0  0  0  0
   19.0200   22.3970   16.2720 O   0  0  0  0  0  0
   19.0050   20.4200   17.8140 O   0  0  0  0  0  0
   19.3630   19.9970   15.2350 C   0  0  0  0  0  0
   18.2970   19.8600   15.0460 H   0  0  0  0  0  0
   19.8260   19.0370   15.4690 H   0  0  0  0  0  0
   19.8380   20.4550   14.3650 H   0  0  0  0  0  0
   26.1200   22.6980   15.1200 C   0  0  0  0  0  0
   25.5700   21.9360   14.0780 C   0  0  0  0  0  0
   25.3670   20.8750   14.2170 H   0  0  0  0  0  0
   25.2660   22.5320   12.8520 C   0  0  0  0  0  0
   24.8370   21.9440   12.0450 H   0  0  0  0  0  0
   25.5150   23.8870   12.6680 C   0  0  0  0  0  0
   26.0640   24.6580   13.6850 C   0  0  0  0  0  0
   26.2540   25.7150   13.5230 H   0  0  0  0  0  0
   26.3690   24.0630   14.9110 C   0  0  0  0  0  0
   26.8020   24.6720   15.7030 H   0  0  0  0  0  0
   25.2240   24.4570   11.4910 F   0  0  0  0  0  0
  1  2  2  0  0  0
  1  7  1  0  0  0
  1 33  1  0  0  0
  2  3  1  0  0  0
  2 16  1  0  0  0
  3  4  1  0  0  0
  3  5  1  0  0  0
  3  6  1  0  0  0
  6  7  1  0  0  0
  6 14  2  0  0  0
  7  8  2  0  0  0
  8  9  1  0  0  0
  8 10  1  0  0  0
 10 11  1  0  0  0
 10 12  2  0  0  0
 12 13  1  0  0  0
 12 14  1  0  0  0
 14 15  1  0  0  0
 16 17  1  0  0  0
 16 24  2  0  0  0
 17 18  1  0  0  0
 17 19  2  0  0  0
 19 20  1  0  0  0
 19 21  1  0  0  0
 21 22  2  0  0  0
 21 26  1  0  0  0
 22 23  1  0  0  0
 22 24  1  0  0  0
 24 25  1  0  0  0
 26 27  2  0  0  0
 26 28  2  0  0  0
 26 29  1  0  0  0
 29 30  1  0  0  0
 29 31  1  0  0  0
 29 32  1  0  0  0
 33 34  1  0  0  0
 33 41  2  0  0  0
 34 35  1  0  0  0
 34 36  2  0  0  0
 36 37  1  0  0  0
 36 38  1  0  0  0
 38 39  2  0  0  0
 38 43  1  0  0  0
 39 40  1  0  0  0
 39 41  1  0  0  0
 41 42  1  0  0  0
M  END
>  <ACTIVITY>
7.96

>  <SET>
2

>  <Min_dist>
0.16

>  <Avg_dist>
0.66

$$$$
14-7
  Cerius2 12110214053D 1   1.00000                          
Structure written by Cerius2 SD Exporter
 41 44  0  0  0  0  0  0  0  0999 V2000
   26.4700   22.0800   16.3770 C   0  0  0  0  0  0
   25.4660   21.5740   17.1930 C   0  0  0  0  0  0
   26.0160   21.0730   18.3430 O   0  0  0  0  0  0
   27.3620   21.2410   18.2630 C   0  0  0  0  0  0
   27.7030   21.8570   17.0660 C   0  0  0  0  0  0
   29.0640   22.1210   16.8180 C   0  0  0  0  0  0
   29.3810   22.6100   15.8990 H   0  0  0  0  0  0
   30.0140   21.7440   17.7780 C   0  0  0  0  0  0
   31.0700   21.9430   17.5930 H   0  0  0  0  0  0
   29.6270   21.1210   18.9660 C   0  0  0  0  0  0
   30.3850   20.8390   19.6970 H   0  0  0  0  0  0
   28.2800   20.8550   19.2370 C   0  0  0  0  0  0
   27.9660   20.3750   20.1570 H   0  0  0  0  0  0
   24.0140   21.4330   17.1030 C   0  0  0  0  0  0
   23.2560   22.2720   16.2730 C   0  0  0  0  0  0
   23.7380   23.0370   15.6660 H   0  0  0  0  0  0
   21.8660   22.1360   16.1920 C   0  0  0  0  0  0
   21.3020   22.7980   15.5380 H   0  0  0  0  0  0
   21.2230   21.1560   16.9500 C   0  0  0  0  0  0
   21.9590   20.3000   17.7700 C   0  0  0  0  0  0
   21.4700   19.5250   18.3570 H   0  0  0  0  0  0
   23.3490   20.4430   17.8440 C   0  0  0  0  0  0
   23.9110   19.7730   18.4950 H   0  0  0  0  0  0
   19.4580   20.9680   16.8310 S   0  0  0  0  0  0
   18.8670   22.3010   16.7630 O   0  0  0  0  0  0
   19.0300   20.0730   17.9010 O   0  0  0  0  0  0
   19.2250   20.1570   15.2710 C   0  0  0  0  0  0
   18.1540   20.0070   15.1240 H   0  0  0  0  0  0
   19.7360   19.1920   15.2920 H   0  0  0  0  0  0
   19.6240   20.7910   14.4770 H   0  0  0  0  0  0
   26.2530   22.7190   15.0910 C   0  0  0  0  0  0
   25.7910   21.9650   14.0030 C   0  0  0  0  0  0
   25.5810   20.9020   14.1130 H   0  0  0  0  0  0
   25.5840   22.5730   12.7630 C   0  0  0  0  0  0
   25.2230   21.9930   11.9190 H   0  0  0  0  0  0
   25.8440   23.9300   12.6130 C   0  0  0  0  0  0
   26.3080   24.6920   13.6780 C   0  0  0  0  0  0
   26.5090   25.7500   13.5410 H   0  0  0  0  0  0
   26.5160   24.0860   14.9190 C   0  0  0  0  0  0
   26.8870   24.6900   15.7460 H   0  0  0  0  0  0
   25.6450   24.5120   11.4220 F   0  0  0  0  0  0
  1  2  2  0  0  0
  1  5  1  0  0  0
  1 31  1  0  0  0
  2  3  1  0  0  0
  2 14  1  0  0  0
  3  4  1  0  0  0
  4  5  1  0  0  0
  4 12  2  0  0  0
  5  6  2  0  0  0
  6  7  1  0  0  0
  6  8  1  0  0  0
  8  9  1  0  0  0
  8 10  2  0  0  0
 10 11  1  0  0  0
 10 12  1  0  0  0
 12 13  1  0  0  0
 14 15  1  0  0  0
 14 22  2  0  0  0
 15 16  1  0  0  0
 15 17  2  0  0  0
 17 18  1  0  0  0
 17 19  1  0  0  0
 19 20  2  0  0  0
 19 24  1  0  0  0
 20 21  1  0  0  0
 20 22  1  0  0  0
 22 23  1  0  0  0
 24 25  2  0  0  0
 24 26  2  0  0  0
 24 27  1  0  0  0
 27 28  1  0  0  0
 27 29  1  0  0  0
 27 30  1  0  0  0
 31 32  1  0  0  0
 31 39  2  0  0  0
 32 33  1  0  0  0
 32 34  2  0  0  0
 34 35  1  0  0  0
 34 36  1  0  0  0
 36 37  2  0  0  0
 36 41  1  0  0  0
 37 38  1  0  0  0
 37 39  1  0  0  0
 39 40  1  0  0  0
M  END
>  <ACTIVITY>
7.7

>  <SET>
1

>  <Min_dist>
999.9

>  <Avg_dist>
999.9

$$$$
2-20
  Cerius2 12110214053D 1   1.00000                          
Structure written by Cerius2 SD Exporter
 45 47  0  0  0  0  0  0  0  0999 V2000
   26.2900   22.2150   16.4290 N   0  0  0  0  0  0
   25.4470   21.4020   17.2060 C   0  0  0  0  0  0
   26.2630   20.6950   18.0740 C   0  0  0  0  0  0
   25.9340   19.9250   18.7630 H   0  0  0  0  0  0
   27.5410   21.2730   18.0260 C   0  0  0  0  0  0
   28.3790   21.0340   18.6720 H   0  0  0  0  0  0
   27.4910   22.3220   17.1250 C   0  0  0  0  0  0
   28.5240   23.3860   16.9810 C   0  0  0  0  0  0
   29.1840   23.3900   17.8570 H   0  0  0  0  0  0
   28.0630   24.3770   16.9410 H   0  0  0  0  0  0
   29.1620   23.2270   16.1110 H   0  0  0  0  0  0
   23.9850   21.3130   17.1190 C   0  0  0  0  0  0
   23.2590   22.2010   16.3120 C   0  0  0  0  0  0
   23.7730   22.9660   15.7320 H   0  0  0  0  0  0
   21.8640   22.1300   16.2510 C   0  0  0  0  0  0
   21.3210   22.8260   15.6150 H   0  0  0  0  0  0
   21.1870   21.1780   17.0160 C   0  0  0  0  0  0
   21.8930   20.2900   17.8300 C   0  0  0  0  0  0
   21.3750   19.5420   18.4260 H   0  0  0  0  0  0
   23.2880   20.3670   17.8860 C   0  0  0  0  0  0
   23.8290   19.6720   18.5270 H   0  0  0  0  0  0
   19.4130   21.0800   16.9280 S   0  0  0  0  0  0
   18.8830   22.4380   16.9860 O   0  0  0  0  0  0
   18.9680   20.1170   17.9310 O   0  0  0  0  0  0
   19.1090   20.4140   15.3130 C   0  0  0  0  0  0
   18.0290   20.3270   15.1800 H   0  0  0  0  0  0
   19.5720   19.4280   15.2410 H   0  0  0  0  0  0
   19.5220   21.0930   14.5650 H   0  0  0  0  0  0
   25.6790   22.7490   15.1900 C   0  0  0  0  0  0
   24.6570   23.0080   15.4920 H   0  0  0  0  0  0
   25.8660   21.6670   14.0960 C   0  0  0  0  0  0
   25.3680   20.7300   14.3470 H   0  0  0  0  0  0
   26.9330   21.4020   14.0620 H   0  0  0  0  0  0
   25.4620   22.1400   12.6970 C   0  0  0  0  0  0
   24.3880   22.3400   12.6410 H   0  0  0  0  0  0
   25.6580   21.3480   11.9650 H   0  0  0  0  0  0
   26.2140   23.3970   12.2910 C   0  0  0  0  0  0
   27.2700   23.1650   12.1130 H   0  0  0  0  0  0
   26.0860   24.4860   13.3430 C   0  0  0  0  0  0
   25.0550   24.8560   13.3760 H   0  0  0  0  0  0
   26.7050   25.3430   13.0530 H   0  0  0  0  0  0
   26.5170   23.9720   14.7150 C   0  0  0  0  0  0
   27.5720   23.6690   14.6590 H   0  0  0  0  0  0
   26.5020   24.8030   15.4180 H   0  0  0  0  0  0
   25.6970   23.8580   11.1160 F   0  0  0  0  0  0
  1  2  1  0  0  0
  1  7  1  0  0  0
  1 29  1  0  0  0
  2  3  2  0  0  0
  2 12  1  0  0  0
  3  4  1  0  0  0
  3  5  1  0  0  0
  5  6  1  0  0  0
  5  7  2  0  0  0
  7  8  1  0  0  0
  8  9  1  0  0  0
  8 10  1  0  0  0
  8 11  1  0  0  0
 12 13  1  0  0  0
 12 20  2  0  0  0
 13 14  1  0  0  0
 13 15  2  0  0  0
 15 16  1  0  0  0
 15 17  1  0  0  0
 17 18  2  0  0  0
 17 22  1  0  0  0
 18 19  1  0  0  0
 18 20  1  0  0  0
 20 21  1  0  0  0
 22 23  2  0  0  0
 22 24  2  0  0  0
 22 25  1  0  0  0
 25 26  1  0  0  0
 25 27  1  0  0  0
 25 28  1  0  0  0
 29 30  1  0  0  0
 29 31  1  0  0  0
 29 42  1  0  0  0
 31 32  1  0  0  0
 31 33  1  0  0  0
 31 34  1  0  0  0
 34 35  1  0  0  0
 34 36  1  0  0  0
 34 37  1  0  0  0
 37 38  1  0  0  0
 37 39  1  0  0  0
 37 45  1  0  0  0
 39 40  1  0  0  0
 39 41  1  0  0  0
 39 42  1  0  0  0
 42 43  1  0  0  0
 42 44  1  0  0  0
M  END
>  <ACTIVITY>
6.28

>  <SET>
2

>  <Min_dist>
0.13

>  <Avg_dist>
0.53

$$$$
3-10
  Cerius2 12110214053D 1   1.00000                          
Structure written by Cerius2 SD Exporter
 38 40  0  0  0  0  0  0  0  0999 V2000
   26.4090   22.1300   16.4600 C   0  0  0  0  0  0
   25.4700   21.4600   17.2560 N   0  0  0  0  0  0
   26.1980   20.8860   18.2820 C   0  0  0  0  0  0
   25.7390   20.2800   19.0510 H   0  0  0  0  0  0
   27.5010   21.3250   18.1630 C   0  0  0  0  0  0
   27.6060   22.1140   17.0310 N   0  0  0  0  0  0
   28.6680   21.0440   19.0640 C   0  0  0  0  0  0
   28.3510   20.2090   20.0970 F   0  0  0  0  0  0
   29.1700   22.1800   19.6300 F   0  0  0  0  0  0
   29.7050   20.4540   18.4000 F   0  0  0  0  0  0
   24.0490   21.3750   17.1200 C   0  0  0  0  0  0
   23.3440   22.2590   16.2900 C   0  0  0  0  0  0
   23.8370   23.0590   15.7450 H   0  0  0  0  0  0
   21.9510   22.1720   16.1770 C   0  0  0  0  0  0
   21.4250   22.8690   15.5280 H   0  0  0  0  0  0
   21.2550   21.2090   16.9090 C   0  0  0  0  0  0
   21.9400   20.3260   17.7440 C   0  0  0  0  0  0
   21.4070   19.5660   18.3120 H   0  0  0  0  0  0
   23.3320   20.4160   17.8560 C   0  0  0  0  0  0
   23.8310   19.6970   18.5030 H   0  0  0  0  0  0
   19.4880   21.0850   16.7480 S   0  0  0  0  0  0
   18.9600   22.4310   16.5440 O   0  0  0  0  0  0
   18.9890   20.3080   17.8780 O   0  0  0  0  0  0
   19.2650   20.1480   15.2600 C   0  0  0  0  0  0
   18.1930   20.0290   15.0920 H   0  0  0  0  0  0
   19.7330   19.1690   15.3830 H   0  0  0  0  0  0
   19.7140   20.6910   14.4270 H   0  0  0  0  0  0
   26.1820   22.7070   15.1300 C   0  0  0  0  0  0
   26.4430   24.0670   14.9080 C   0  0  0  0  0  0
   26.7940   24.6980   15.7240 H   0  0  0  0  0  0
   26.2510   24.6290   13.6440 C   0  0  0  0  0  0
   26.4480   25.6880   13.4850 H   0  0  0  0  0  0
   25.8100   23.8350   12.5870 C   0  0  0  0  0  0
   25.6610   24.2730   11.6020 H   0  0  0  0  0  0
   25.5680   22.4770   12.7900 C   0  0  0  0  0  0
   25.2320   21.8550   11.9620 H   0  0  0  0  0  0
   25.7590   21.9130   14.0540 C   0  0  0  0  0  0
   25.5770   20.8480   14.1880 H   0  0  0  0  0  0
  1  2  1  0  0  0
  1  6  2  0  0  0
  1 28  1  0  0  0
  2  3  1  0  0  0
  2 11  1  0  0  0
  3  4  1  0  0  0
  3  5  2  0  0  0
  5  6  1  0  0  0
  5  7  1  0  0  0
  7  8  1  0  0  0
  7  9  1  0  0  0
  7 10  1  0  0  0
 11 12  1  0  0  0
 11 19  2  0  0  0
 12 13  1  0  0  0
 12 14  2  0  0  0
 14 15  1  0  0  0
 14 16  1  0  0  0
 16 17  2  0  0  0
 16 21  1  0  0  0
 17 18  1  0  0  0
 17 19  1  0  0  0
 19 20  1  0  0  0
 21 22  2  0  0  0
 21 23  2  0  0  0
 21 24  1  0  0  0
 24 25  1  0  0  0
 24 26  1  0  0  0
 24 27  1  0  0  0
 28 29  1  0  0  0
 28 37  2  0  0  0
 29 30  1  0  0  0
 29 31  2  0  0  0
 31 32  1  0  0  0
 31 33  1  0  0  0
 33 34  1  0  0  0
 33 35  2  0  0  0
 35 36  1  0  0  0
 35 37  1  0  0  0
 37 38  1  0  0  0
M  END
>  <ACTIVITY>
6.92

>  <SET>
1

>  <Min_dist>
999.9

>  <Avg_dist>
999.9

$$$$
3-100
  Cerius2 12110214053D 1   1.00000                          
Structure written by Cerius2 SD Exporter
 39 41  0  0  0  0  0  0  0  0999 V2000
   26.4090   22.1300   16.4600 C   0  0  0  0  0  0
   25.4700   21.4610   17.2570 N   0  0  0  0  0  0
   26.1990   20.8870   18.2820 C   0  0  0  0  0  0
   25.7420   20.2840   19.0540 H   0  0  0  0  0  0
   27.4950   21.3290   18.1520 C   0  0  0  0  0  0
   27.6070   22.1110   17.0300 N   0  0  0  0  0  0
   28.6630   21.0610   19.0380 C   0  0  0  0  0  0
   29.5910   21.0730   18.4560 H   0  0  0  0  0  0
   28.5630   20.0780   19.5100 H   0  0  0  0  0  0
   28.7690   22.0470   20.0700 O   0  0  0  0  0  0
   29.5640   21.7870   20.5790 H   0  0  0  0  0  0
   24.0480   21.3760   17.1210 C   0  0  0  0  0  0
   23.3430   22.2600   16.2910 C   0  0  0  0  0  0
   23.8370   23.0610   15.7480 H   0  0  0  0  0  0
   21.9510   22.1710   16.1780 C   0  0  0  0  0  0
   21.4240   22.8680   15.5290 H   0  0  0  0  0  0
   21.2550   21.2080   16.9090 C   0  0  0  0  0  0
   21.9400   20.3260   17.7450 C   0  0  0  0  0  0
   21.4070   19.5660   18.3130 H   0  0  0  0  0  0
   23.3320   20.4170   17.8580 C   0  0  0  0  0  0
   23.8320   19.6990   18.5050 H   0  0  0  0  0  0
   19.4880   21.0840   16.7470 S   0  0  0  0  0  0
   18.9600   22.4290   16.5370 O   0  0  0  0  0  0
   18.9880   20.3110   17.8790 O   0  0  0  0  0  0
   19.2670   20.1420   15.2610 C   0  0  0  0  0  0
   18.1950   20.0230   15.0920 H   0  0  0  0  0  0
   19.7340   19.1630   15.3880 H   0  0  0  0  0  0
   19.7170   20.6820   14.4270 H   0  0  0  0  0  0
   26.1820   22.7070   15.1300 C   0  0  0  0  0  0
   26.4420   24.0670   14.9080 C   0  0  0  0  0  0
   26.7930   24.6980   15.7240 H   0  0  0  0  0  0
   26.2500   24.6310   13.6430 C   0  0  0  0  0  0
   26.4500   25.6890   13.4920 H   0  0  0  0  0  0
   25.8110   23.8330   12.5890 C   0  0  0  0  0  0
   25.5670   22.4760   12.7880 C   0  0  0  0  0  0
   25.2320   21.8470   11.9670 H   0  0  0  0  0  0
   25.7590   21.9130   14.0540 C   0  0  0  0  0  0
   25.5770   20.8480   14.1890 H   0  0  0  0  0  0
   25.5750   24.5260   11.0310 Cl  0  0  0  0  0  0
  1  2  1  0  0  0
  1  6  2  0  0  0
  1 29  1  0  0  0
  2  3  1  0  0  0
  2 12  1  0  0  0
  3  4  1  0  0  0
  3  5  2  0  0  0
  5  6  1  0  0  0
  5  7  1  0  0  0
  7  8  1  0  0  0
  7  9  1  0  0  0
  7 10  1  0  0  0
 10 11  1  0  0  0
 12 13  1  0  0  0
 12 20  2  0  0  0
 13 14  1  0  0  0
 13 15  2  0  0  0
 15 16  1  0  0  0
 15 17  1  0  0  0
 17 18  2  0  0  0
 17 22  1  0  0  0
 18 19  1  0  0  0
 18 20  1  0  0  0
 20 21  1  0  0  0
 22 23  2  0  0  0
 22 24  2  0  0  0
 22 25  1  0  0  0
 25 26  1  0  0  0
 25 27  1  0  0  0
 25 28  1  0  0  0
 29 30  1  0  0  0
 29 37  2  0  0  0
 30 31  1  0  0  0
 30 32  2  0  0  0
 32 33  1  0  0  0
 32 34  1  0  0  0
 34 35  2  0  0  0
 34 39  1  0  0  0
 35 36  1  0  0  0
 35 37  1  0  0  0
 37 38  1  0  0  0
M  END
>  <ACTIVITY>
5.08

>  <SET>
1

>  <Min_dist>
999.9

>  <Avg_dist>
999.9

$$$$
3-101
  Cerius2 12110214053D 1   1.00000                          
Structure written by Cerius2 SD Exporter
 42 44  0  0  0  0  0  0  0  0999 V2000
   26.4080   22.1300   16.4600 C   0  0  0  0  0  0
   25.4690   21.4610   17.2560 N   0  0  0  0  0  0
   26.1980   20.8860   18.2810 C   0  0  0  0  0  0
   25.7420   20.2790   19.0490 H   0  0  0  0  0  0
   27.4930   21.3360   18.1570 C   0  0  0  0  0  0
   27.6060   22.1130   17.0320 N   0  0  0  0  0  0
   28.6650   21.0680   19.0420 C   0  0  0  0  0  0
   29.5840   21.0720   18.4480 H   0  0  0  0  0  0
   28.5590   20.0840   19.5110 H   0  0  0  0  0  0
   28.7910   22.3440   20.3460 S   0  0  0  0  0  0
   30.2700   21.7080   21.1760 C   0  0  0  0  0  0
   30.5170   22.3580   22.0190 H   0  0  0  0  0  0
   31.1180   21.6970   20.4860 H   0  0  0  0  0  0
   30.0900   20.6990   21.5550 H   0  0  0  0  0  0
   24.0470   21.3750   17.1200 C   0  0  0  0  0  0
   23.3420   22.2590   16.2910 C   0  0  0  0  0  0
   23.8350   23.0610   15.7470 H   0  0  0  0  0  0
   21.9500   22.1710   16.1780 C   0  0  0  0  0  0
   21.4220   22.8680   15.5290 H   0  0  0  0  0  0
   21.2540   21.2080   16.9100 C   0  0  0  0  0  0
   21.9390   20.3260   17.7450 C   0  0  0  0  0  0
   21.4080   19.5650   18.3140 H   0  0  0  0  0  0
   23.3310   20.4160   17.8570 C   0  0  0  0  0  0
   23.8320   19.6980   18.5030 H   0  0  0  0  0  0
   19.4870   21.0840   16.7500 S   0  0  0  0  0  0
   18.9590   22.4290   16.5440 O   0  0  0  0  0  0
   18.9890   20.3080   17.8820 O   0  0  0  0  0  0
   19.2640   20.1440   15.2630 C   0  0  0  0  0  0
   18.1920   20.0250   15.0950 H   0  0  0  0  0  0
   19.7320   19.1660   15.3860 H   0  0  0  0  0  0
   19.7120   20.6870   14.4290 H   0  0  0  0  0  0
   26.1830   22.7070   15.1300 C   0  0  0  0  0  0
   26.4430   24.0670   14.9080 C   0  0  0  0  0  0
   26.7930   24.6980   15.7250 H   0  0  0  0  0  0
   26.2540   24.6310   13.6430 C   0  0  0  0  0  0
   26.4530   25.6900   13.4920 H   0  0  0  0  0  0
   25.8150   23.8340   12.5880 C   0  0  0  0  0  0
   25.5710   22.4760   12.7870 C   0  0  0  0  0  0
   25.2380   21.8470   11.9650 H   0  0  0  0  0  0
   25.7620   21.9130   14.0520 C   0  0  0  0  0  0
   25.5800   20.8480   14.1870 H   0  0  0  0  0  0
   25.5810   24.5270   11.0310 Cl  0  0  0  0  0  0
  1  2  1  0  0  0
  1  6  2  0  0  0
  1 32  1  0  0  0
  2  3  1  0  0  0
  2 15  1  0  0  0
  3  4  1  0  0  0
  3  5  2  0  0  0
  5  6  1  0  0  0
  5  7  1  0  0  0
  7  8  1  0  0  0
  7  9  1  0  0  0
  7 10  1  0  0  0
 10 11  1  0  0  0
 11 12  1  0  0  0
 11 13  1  0  0  0
 11 14  1  0  0  0
 15 16  1  0  0  0
 15 23  2  0  0  0
 16 17  1  0  0  0
 16 18  2  0  0  0
 18 19  1  0  0  0
 18 20  1  0  0  0
 20 21  2  0  0  0
 20 25  1  0  0  0
 21 22  1  0  0  0
 21 23  1  0  0  0
 23 24  1  0  0  0
 25 26  2  0  0  0
 25 27  2  0  0  0
 25 28  1  0  0  0
 28 29  1  0  0  0
 28 30  1  0  0  0
 28 31  1  0  0  0
 32 33  1  0  0  0
 32 40  2  0  0  0
 33 34  1  0  0  0
 33 35  2  0  0  0
 35 36  1  0  0  0
 35 37  1  0  0  0
 37 38  2  0  0  0
 37 42  1  0  0  0
 38 39  1  0  0  0
 38 40  1  0  0  0
 40 41  1  0  0  0
M  END
>  <ACTIVITY>
6.49

>  <SET>
2

>  <Min_dist>
0.1

>  <Avg_dist>
0.51

$$$$
3-103
  Cerius2 12110214053D 1   1.00000                          
Structure written by Cerius2 SD Exporter
 39 41  0  0  0  0  0  0  0  0999 V2000
   26.4090   22.1290   16.4600 C   0  0  0  0  0  0
   25.4700   21.4620   17.2580 N   0  0  0  0  0  0
   26.2010   20.8890   18.2830 C   0  0  0  0  0  0
   25.7440   20.2800   19.0510 H   0  0  0  0  0  0
   27.4980   21.3310   18.1530 C   0  0  0  0  0  0
   27.6080   22.1080   17.0270 N   0  0  0  0  0  0
   28.6780   21.0470   19.0220 C   0  0  0  0  0  0
   29.5920   21.0790   18.4190 H   0  0  0  0  0  0
   28.6000   20.0340   19.4330 H   0  0  0  0  0  0
   28.7640   22.0290   20.1150 C   0  0  0  0  0  0
   28.8460   22.7950   20.9890 N   0  0  0  0  0  0
   24.0480   21.3770   17.1230 C   0  0  0  0  0  0
   23.3430   22.2610   16.2940 C   0  0  0  0  0  0
   23.8350   23.0630   15.7510 H   0  0  0  0  0  0
   21.9510   22.1710   16.1790 C   0  0  0  0  0  0
   21.4230   22.8660   15.5280 H   0  0  0  0  0  0
   21.2550   21.2060   16.9090 C   0  0  0  0  0  0
   21.9400   20.3260   17.7460 C   0  0  0  0  0  0
   21.4080   19.5650   18.3140 H   0  0  0  0  0  0
   23.3320   20.4170   17.8600 C   0  0  0  0  0  0
   23.8320   19.7000   18.5070 H   0  0  0  0  0  0
   19.4890   21.0840   16.7420 S   0  0  0  0  0  0
   18.9620   22.4270   16.5140 O   0  0  0  0  0  0
   18.9850   20.3260   17.8830 O   0  0  0  0  0  0
   19.2700   20.1260   15.2670 C   0  0  0  0  0  0
   18.1980   20.0120   15.0930 H   0  0  0  0  0  0
   19.7300   19.1460   15.4060 H   0  0  0  0  0  0
   19.7270   20.6550   14.4280 H   0  0  0  0  0  0
   26.1810   22.7070   15.1300 C   0  0  0  0  0  0
   26.4420   24.0670   14.9090 C   0  0  0  0  0  0
   26.7930   24.6970   15.7250 H   0  0  0  0  0  0
   26.2500   24.6310   13.6440 C   0  0  0  0  0  0
   26.4490   25.6900   13.4930 H   0  0  0  0  0  0
   25.8090   23.8340   12.5900 C   0  0  0  0  0  0
   25.5660   22.4770   12.7890 C   0  0  0  0  0  0
   25.2300   21.8480   11.9670 H   0  0  0  0  0  0
   25.7580   21.9130   14.0540 C   0  0  0  0  0  0
   25.5760   20.8480   14.1880 H   0  0  0  0  0  0
   25.5740   24.5280   11.0330 Cl  0  0  0  0  0  0
  1  2  1  0  0  0
  1  6  2  0  0  0
  1 29  1  0  0  0
  2  3  1  0  0  0
  2 12  1  0  0  0
  3  4  1  0  0  0
  3  5  2  0  0  0
  5  6  1  0  0  0
  5  7  1  0  0  0
  7  8  1  0  0  0
  7  9  1  0  0  0
  7 10  1  0  0  0
 10 11  3  0  0  0
 12 13  1  0  0  0
 12 20  2  0  0  0
 13 14  1  0  0  0
 13 15  2  0  0  0
 15 16  1  0  0  0
 15 17  1  0  0  0
 17 18  2  0  0  0
 17 22  1  0  0  0
 18 19  1  0  0  0
 18 20  1  0  0  0
 20 21  1  0  0  0
 22 23  2  0  0  0
 22 24  2  0  0  0
 22 25  1  0  0  0
 25 26  1  0  0  0
 25 27  1  0  0  0
 25 28  1  0  0  0
 29 30  1  0  0  0
 29 37  2  0  0  0
 30 31  1  0  0  0
 30 32  2  0  0  0
 32 33  1  0  0  0
 32 34  1  0  0  0
 34 35  2  0  0  0
 34 39  1  0  0  0
 35 36  1  0  0  0
 35 37  1  0  0  0
 37 38  1  0  0  0
M  END
>  <ACTIVITY>
5.81

>  <SET>
2

>  <Min_dist>
0.17

>  <Avg_dist>
0.51

$$$$
3-12
  Cerius2 12110214053D 1   1.00000                          
Structure written by Cerius2 SD Exporter
 42 44  0  0  0  0  0  0  0  0999 V2000
   26.4070   22.1320   16.4620 C   0  0  0  0  0  0
   25.4710   21.4600   17.2570 N   0  0  0  0  0  0
   26.2000   20.8800   18.2790 C   0  0  0  0  0  0
   25.7430   20.2690   19.0450 H   0  0  0  0  0  0
   27.5030   21.3200   18.1590 C   0  0  0  0  0  0
   27.6060   22.1150   17.0310 N   0  0  0  0  0  0
   28.6720   21.0340   19.0560 C   0  0  0  0  0  0
   28.3520   20.2110   20.0970 F   0  0  0  0  0  0
   29.1880   22.1690   19.6100 F   0  0  0  0  0  0
   29.6980   20.4280   18.3920 F   0  0  0  0  0  0
   24.0490   21.3750   17.1220 C   0  0  0  0  0  0
   23.3450   22.2600   16.2920 C   0  0  0  0  0  0
   23.8390   23.0610   15.7490 H   0  0  0  0  0  0
   21.9530   22.1720   16.1780 C   0  0  0  0  0  0
   21.4260   22.8690   15.5290 H   0  0  0  0  0  0
   21.2560   21.2090   16.9090 C   0  0  0  0  0  0
   21.9400   20.3270   17.7460 C   0  0  0  0  0  0
   21.4070   19.5670   18.3140 H   0  0  0  0  0  0
   23.3320   20.4170   17.8590 C   0  0  0  0  0  0
   23.8310   19.6990   18.5060 H   0  0  0  0  0  0
   19.4890   21.0870   16.7440 S   0  0  0  0  0  0
   18.9630   22.4310   16.5270 O   0  0  0  0  0  0
   18.9870   20.3190   17.8800 O   0  0  0  0  0  0
   19.2690   20.1380   15.2630 C   0  0  0  0  0  0
   18.1970   20.0220   15.0910 H   0  0  0  0  0  0
   19.7320   19.1580   15.3950 H   0  0  0  0  0  0
   19.7230   20.6730   14.4270 H   0  0  0  0  0  0
   26.1800   22.7100   15.1330 C   0  0  0  0  0  0
   26.4380   24.0670   14.9080 C   0  0  0  0  0  0
   26.7870   24.7010   15.7210 H   0  0  0  0  0  0
   26.2480   24.6230   13.6400 C   0  0  0  0  0  0
   26.4470   25.6830   13.4880 H   0  0  0  0  0  0
   25.8100   23.8340   12.5730 C   0  0  0  0  0  0
   25.5700   22.4770   12.7850 C   0  0  0  0  0  0
   25.2390   21.8190   11.9870 H   0  0  0  0  0  0
   25.7610   21.9170   14.0550 C   0  0  0  0  0  0
   25.5800   20.8520   14.1900 H   0  0  0  0  0  0
   25.6640   24.5000   11.3880 O   0  0  0  0  0  0
   25.9800   25.8920   11.3910 C   0  0  0  0  0  0
   25.8220   26.2710   10.3770 H   0  0  0  0  0  0
   27.0320   26.0560   11.6490 H   0  0  0  0  0  0
   25.3150   26.4440   12.0620 H   0  0  0  0  0  0
  1  2  1  0  0  0
  1  6  2  0  0  0
  1 28  1  0  0  0
  2  3  1  0  0  0
  2 11  1  0  0  0
  3  4  1  0  0  0
  3  5  2  0  0  0
  5  6  1  0  0  0
  5  7  1  0  0  0
  7  8  1  0  0  0
  7  9  1  0  0  0
  7 10  1  0  0  0
 11 12  1  0  0  0
 11 19  2  0  0  0
 12 13  1  0  0  0
 12 14  2  0  0  0
 14 15  1  0  0  0
 14 16  1  0  0  0
 16 17  2  0  0  0
 16 21  1  0  0  0
 17 18  1  0  0  0
 17 19  1  0  0  0
 19 20  1  0  0  0
 21 22  2  0  0  0
 21 23  2  0  0  0
 21 24  1  0  0  0
 24 25  1  0  0  0
 24 26  1  0  0  0
 24 27  1  0  0  0
 28 29  1  0  0  0
 28 36  2  0  0  0
 29 30  1  0  0  0
 29 31  2  0  0  0
 31 32  1  0  0  0
 31 33  1  0  0  0
 33 34  2  0  0  0
 33 38  1  0  0  0
 34 35  1  0  0  0
 34 36  1  0  0  0
 36 37  1  0  0  0
 38 39  1  0  0  0
 39 40  1  0  0  0
 39 41  1  0  0  0
 39 42  1  0  0  0
M  END
>  <ACTIVITY>
6.24

>  <SET>
1

>  <Min_dist>
999.9

>  <Avg_dist>
999.9

$$$$
3-13
  Cerius2 12110214053D 1   1.00000                          
Structure written by Cerius2 SD Exporter
 43 45  0  0  0  0  0  0  0  0999 V2000
   26.4070   22.1300   16.4610 C   0  0  0  0  0  0
   25.4690   21.4590   17.2550 N   0  0  0  0  0  0
   26.1970   20.8830   18.2810 C   0  0  0  0  0  0
   25.7380   20.2750   19.0490 H   0  0  0  0  0  0
   27.4990   21.3240   18.1630 C   0  0  0  0  0  0
   27.6040   22.1150   17.0330 N   0  0  0  0  0  0
   28.6660   21.0430   19.0650 C   0  0  0  0  0  0
   29.1770   22.1800   19.6200 F   0  0  0  0  0  0
   29.6970   20.4390   18.4050 F   0  0  0  0  0  0
   28.3450   20.2200   20.1060 F   0  0  0  0  0  0
   24.0480   21.3730   17.1190 C   0  0  0  0  0  0
   23.3430   22.2570   16.2900 C   0  0  0  0  0  0
   23.8370   23.0580   15.7450 H   0  0  0  0  0  0
   21.9500   22.1710   16.1780 C   0  0  0  0  0  0
   21.4240   22.8690   15.5300 H   0  0  0  0  0  0
   21.2540   21.2080   16.9100 C   0  0  0  0  0  0
   21.9390   20.3250   17.7450 C   0  0  0  0  0  0
   21.4060   19.5650   18.3130 H   0  0  0  0  0  0
   23.3310   20.4140   17.8560 C   0  0  0  0  0  0
   23.8310   19.6950   18.5020 H   0  0  0  0  0  0
   19.4870   21.0860   16.7520 S   0  0  0  0  0  0
   18.9590   22.4320   16.5540 O   0  0  0  0  0  0
   18.9890   20.3040   17.8800 O   0  0  0  0  0  0
   19.2620   20.1540   15.2610 C   0  0  0  0  0  0
   18.1890   20.0360   15.0940 H   0  0  0  0  0  0
   19.7290   19.1750   15.3790 H   0  0  0  0  0  0
   19.7090   20.7010   14.4280 H   0  0  0  0  0  0
   26.1830   22.7090   15.1320 C   0  0  0  0  0  0
   26.4420   24.0640   14.9080 C   0  0  0  0  0  0
   26.7900   24.6990   15.7210 H   0  0  0  0  0  0
   26.2520   24.6240   13.6370 C   0  0  0  0  0  0
   26.4570   25.6860   13.5030 H   0  0  0  0  0  0
   25.8140   23.8510   12.5550 C   0  0  0  0  0  0
   25.5790   22.4920   12.7840 C   0  0  0  0  0  0
   25.2470   21.8390   11.9790 H   0  0  0  0  0  0
   25.7660   21.9230   14.0520 C   0  0  0  0  0  0
   25.5830   20.8570   14.1800 H   0  0  0  0  0  0
   25.6450   24.4540   11.3260 N   0  0  0  0  0  0
   25.3460   23.8840   10.5330 H   0  0  0  0  0  0
   25.8820   25.8590   11.0650 C   0  0  0  0  0  0
   25.6760   26.0740   10.0110 H   0  0  0  0  0  0
   26.9250   26.1260   11.2620 H   0  0  0  0  0  0
   25.2230   26.4890   11.6700 H   0  0  0  0  0  0
  1  2  1  0  0  0
  1  6  2  0  0  0
  1 28  1  0  0  0
  2  3  1  0  0  0
  2 11  1  0  0  0
  3  4  1  0  0  0
  3  5  2  0  0  0
  5  6  1  0  0  0
  5  7  1  0  0  0
  7  8  1  0  0  0
  7  9  1  0  0  0
  7 10  1  0  0  0
 11 12  1  0  0  0
 11 19  2  0  0  0
 12 13  1  0  0  0
 12 14  2  0  0  0
 14 15  1  0  0  0
 14 16  1  0  0  0
 16 17  2  0  0  0
 16 21  1  0  0  0
 17 18  1  0  0  0
 17 19  1  0  0  0
 19 20  1  0  0  0
 21 22  2  0  0  0
 21 23  2  0  0  0
 21 24  1  0  0  0
 24 25  1  0  0  0
 24 26  1  0  0  0
 24 27  1  0  0  0
 28 29  1  0  0  0
 28 36  2  0  0  0
 29 30  1  0  0  0
 29 31  2  0  0  0
 31 32  1  0  0  0
 31 33  1  0  0  0
 33 34  2  0  0  0
 33 38  1  0  0  0
 34 35  1  0  0  0
 34 36  1  0  0  0
 36 37  1  0  0  0
 38 39  1  0  0  0
 38 40  1  0  0  0
 40 41  1  0  0  0
 40 42  1  0  0  0
 40 43  1  0  0  0
M  END
>  <ACTIVITY>
5.83

>  <SET>
1

>  <Min_dist>
999.9

>  <Avg_dist>
999.9

$$$$
3-14
  Cerius2 12110214053D 1   1.00000                          
Structure written by Cerius2 SD Exporter
 46 48  0  0  0  0  0  0  0  0999 V2000
   26.4070   22.1300   16.4620 C   0  0  0  0  0  0
   25.4690   21.4580   17.2560 N   0  0  0  0  0  0
   26.1970   20.8810   18.2810 C   0  0  0  0  0  0
   25.7380   20.2730   19.0480 H   0  0  0  0  0  0
   27.5000   21.3200   18.1620 C   0  0  0  0  0  0
   27.6050   22.1140   17.0330 N   0  0  0  0  0  0
   28.6670   21.0350   19.0610 C   0  0  0  0  0  0
   28.3600   20.1670   20.0700 F   0  0  0  0  0  0
   29.1450   22.1650   19.6620 F   0  0  0  0  0  0
   29.7180   20.4830   18.3890 F   0  0  0  0  0  0
   24.0480   21.3730   17.1200 C   0  0  0  0  0  0
   23.3430   22.2580   16.2910 C   0  0  0  0  0  0
   23.8370   23.0580   15.7460 H   0  0  0  0  0  0
   21.9510   22.1710   16.1790 C   0  0  0  0  0  0
   21.4240   22.8680   15.5300 H   0  0  0  0  0  0
   21.2540   21.2080   16.9100 C   0  0  0  0  0  0
   21.9390   20.3250   17.7450 C   0  0  0  0  0  0
   21.4060   19.5650   18.3130 H   0  0  0  0  0  0
   23.3310   20.4150   17.8570 C   0  0  0  0  0  0
   23.8300   19.6960   18.5040 H   0  0  0  0  0  0
   19.4870   21.0850   16.7500 S   0  0  0  0  0  0
   18.9590   22.4320   16.5500 O   0  0  0  0  0  0
   18.9890   20.3050   17.8790 O   0  0  0  0  0  0
   19.2640   20.1520   15.2600 C   0  0  0  0  0  0
   18.1910   20.0350   15.0910 H   0  0  0  0  0  0
   19.7300   19.1720   15.3800 H   0  0  0  0  0  0
   19.7130   20.6970   14.4280 H   0  0  0  0  0  0
   26.1820   22.7090   15.1330 C   0  0  0  0  0  0
   26.4400   24.0610   14.9060 C   0  0  0  0  0  0
   26.7880   24.6980   15.7180 H   0  0  0  0  0  0
   26.2500   24.6230   13.6330 C   0  0  0  0  0  0
   26.4630   25.6860   13.5320 H   0  0  0  0  0  0
   25.8120   23.8630   12.5340 C   0  0  0  0  0  0
   25.5810   22.5000   12.7850 C   0  0  0  0  0  0
   25.2490   21.8310   11.9930 H   0  0  0  0  0  0
   25.7670   21.9270   14.0540 C   0  0  0  0  0  0
   25.5840   20.8610   14.1790 H   0  0  0  0  0  0
   25.6250   24.4240   11.2770 N   0  0  0  0  0  0
   25.1610   23.6190   10.1460 C   0  0  0  0  0  0
   25.0650   24.2150    9.2320 H   0  0  0  0  0  0
   24.1740   23.1920   10.3530 H   0  0  0  0  0  0
   25.8690   22.8120    9.9280 H   0  0  0  0  0  0
   25.8700   25.8480   11.0340 C   0  0  0  0  0  0
   25.6760   26.1240    9.9920 H   0  0  0  0  0  0
   26.9150   26.1020   11.2420 H   0  0  0  0  0  0
   25.2130   26.4650   11.6560 H   0  0  0  0  0  0
  1  2  1  0  0  0
  1  6  2  0  0  0
  1 28  1  0  0  0
  2  3  1  0  0  0
  2 11  1  0  0  0
  3  4  1  0  0  0
  3  5  2  0  0  0
  5  6  1  0  0  0
  5  7  1  0  0  0
  7  8  1  0  0  0
  7  9  1  0  0  0
  7 10  1  0  0  0
 11 12  1  0  0  0
 11 19  2  0  0  0
 12 13  1  0  0  0
 12 14  2  0  0  0
 14 15  1  0  0  0
 14 16  1  0  0  0
 16 17  2  0  0  0
 16 21  1  0  0  0
 17 18  1  0  0  0
 17 19  1  0  0  0
 19 20  1  0  0  0
 21 22  2  0  0  0
 21 23  2  0  0  0
 21 24  1  0  0  0
 24 25  1  0  0  0
 24 26  1  0  0  0
 24 27  1  0  0  0
 28 29  1  0  0  0
 28 36  2  0  0  0
 29 30  1  0  0  0
 29 31  2  0  0  0
 31 32  1  0  0  0
 31 33  1  0  0  0
 33 34  2  0  0  0
 33 38  1  0  0  0
 34 35  1  0  0  0
 34 36  1  0  0  0
 36 37  1  0  0  0
 38 39  1  0  0  0
 38 43  1  0  0  0
 39 40  1  0  0  0
 39 41  1  0  0  0
 39 42  1  0  0  0
 43 44  1  0  0  0
 43 45  1  0  0  0
 43 46  1  0  0  0
M  END
>  <ACTIVITY>
6.15

>  <SET>
1

>  <Min_dist>
999.9

>  <Avg_dist>
999.9

$$$$
3-15
  Cerius2 12110214053D 1   1.00000                          
Structure written by Cerius2 SD Exporter
 42 44  0  0  0  0  0  0  0  0999 V2000
   26.4080   22.1290   16.4600 C   0  0  0  0  0  0
   25.4700   21.4590   17.2560 N   0  0  0  0  0  0
   26.1980   20.8850   18.2830 C   0  0  0  0  0  0
   25.7400   20.2790   19.0510 H   0  0  0  0  0  0
   27.5010   21.3250   18.1630 C   0  0  0  0  0  0
   27.6060   22.1140   17.0320 N   0  0  0  0  0  0
   28.6680   21.0450   19.0640 C   0  0  0  0  0  0
   28.3440   20.2350   20.1140 F   0  0  0  0  0  0
   29.1880   22.1850   19.6080 F   0  0  0  0  0  0
   29.6930   20.4290   18.4080 F   0  0  0  0  0  0
   24.0490   21.3740   17.1210 C   0  0  0  0  0  0
   23.3450   22.2590   16.2910 C   0  0  0  0  0  0
   23.8380   23.0600   15.7470 H   0  0  0  0  0  0
   21.9520   22.1720   16.1770 C   0  0  0  0  0  0
   21.4260   22.8690   15.5290 H   0  0  0  0  0  0
   21.2550   21.2090   16.9090 C   0  0  0  0  0  0
   21.9400   20.3260   17.7440 C   0  0  0  0  0  0
   21.4070   19.5660   18.3120 H   0  0  0  0  0  0
   23.3320   20.4160   17.8570 C   0  0  0  0  0  0
   23.8310   19.6970   18.5040 H   0  0  0  0  0  0
   19.4890   21.0860   16.7470 S   0  0  0  0  0  0
   18.9610   22.4310   16.5430 O   0  0  0  0  0  0
   18.9890   20.3080   17.8770 O   0  0  0  0  0  0
   19.2660   20.1480   15.2590 C   0  0  0  0  0  0
   18.1940   20.0290   15.0910 H   0  0  0  0  0  0
   19.7350   19.1700   15.3810 H   0  0  0  0  0  0
   19.7140   20.6930   14.4260 H   0  0  0  0  0  0
   26.1830   22.7060   15.1300 C   0  0  0  0  0  0
   26.4400   24.0640   14.9080 C   0  0  0  0  0  0
   26.7840   24.6970   15.7250 H   0  0  0  0  0  0
   26.2500   24.6300   13.6420 C   0  0  0  0  0  0
   26.4340   25.6940   13.5150 H   0  0  0  0  0  0
   25.8200   23.8400   12.5720 C   0  0  0  0  0  0
   25.5680   22.4820   12.7890 C   0  0  0  0  0  0
   25.2290   21.8430   11.9750 H   0  0  0  0  0  0
   25.7590   21.9160   14.0540 C   0  0  0  0  0  0
   25.5730   20.8510   14.1870 H   0  0  0  0  0  0
   25.5380   24.5150   10.9430 S   0  0  0  0  0  0
   26.0060   26.2490   11.2170 C   0  0  0  0  0  0
   26.0270   26.7660   10.2530 H   0  0  0  0  0  0
   27.0010   26.3130   11.6660 H   0  0  0  0  0  0
   25.2790   26.7530   11.8580 H   0  0  0  0  0  0
  1  2  1  0  0  0
  1  6  2  0  0  0
  1 28  1  0  0  0
  2  3  1  0  0  0
  2 11  1  0  0  0
  3  4  1  0  0  0
  3  5  2  0  0  0
  5  6  1  0  0  0
  5  7  1  0  0  0
  7  8  1  0  0  0
  7  9  1  0  0  0
  7 10  1  0  0  0
 11 12  1  0  0  0
 11 19  2  0  0  0
 12 13  1  0  0  0
 12 14  2  0  0  0
 14 15  1  0  0  0
 14 16  1  0  0  0
 16 17  2  0  0  0
 16 21  1  0  0  0
 17 18  1  0  0  0
 17 19  1  0  0  0
 19 20  1  0  0  0
 21 22  2  0  0  0
 21 23  2  0  0  0
 21 24  1  0  0  0
 24 25  1  0  0  0
 24 26  1  0  0  0
 24 27  1  0  0  0
 28 29  1  0  0  0
 28 36  2  0  0  0
 29 30  1  0  0  0
 29 31  2  0  0  0
 31 32  1  0  0  0
 31 33  1  0  0  0
 33 34  2  0  0  0
 33 38  1  0  0  0
 34 35  1  0  0  0
 34 36  1  0  0  0
 36 37  1  0  0  0
 38 39  1  0  0  0
 39 40  1  0  0  0
 39 41  1  0  0  0
 39 42  1  0  0  0
M  END
>  <ACTIVITY>
6.8

>  <SET>
1

>  <Min_dist>
999.9

>  <Avg_dist>
999.9

$$$$
3-16
  Cerius2 12110214053D 1   1.00000                          
Structure written by Cerius2 SD Exporter
 43 45  0  0  0  0  0  0  0  0999 V2000
   26.4080   22.1300   16.4600 C   0  0  0  0  0  0
   25.4700   21.4590   17.2560 N   0  0  0  0  0  0
   26.1990   20.8850   18.2820 C   0  0  0  0  0  0
   25.7410   20.2770   19.0490 H   0  0  0  0  0  0
   27.5010   21.3260   18.1630 C   0  0  0  0  0  0
   27.6050   22.1160   17.0320 N   0  0  0  0  0  0
   28.6680   21.0460   19.0640 C   0  0  0  0  0  0
   28.3530   20.2110   20.0960 F   0  0  0  0  0  0
   29.1680   22.1830   19.6310 F   0  0  0  0  0  0
   29.7060   20.4580   18.4000 F   0  0  0  0  0  0
   24.0490   21.3740   17.1200 C   0  0  0  0  0  0
   23.3440   22.2580   16.2910 C   0  0  0  0  0  0
   23.8380   23.0600   15.7470 H   0  0  0  0  0  0
   21.9520   22.1710   16.1780 C   0  0  0  0  0  0
   21.4250   22.8690   15.5290 H   0  0  0  0  0  0
   21.2550   21.2080   16.9090 C   0  0  0  0  0  0
   21.9400   20.3250   17.7440 C   0  0  0  0  0  0
   21.4070   19.5650   18.3120 H   0  0  0  0  0  0
   23.3320   20.4150   17.8560 C   0  0  0  0  0  0
   23.8310   19.6960   18.5030 H   0  0  0  0  0  0
   19.4880   21.0870   16.7490 S   0  0  0  0  0  0
   18.9610   22.4330   16.5440 O   0  0  0  0  0  0
   18.9890   20.3110   17.8800 O   0  0  0  0  0  0
   19.2640   20.1480   15.2610 C   0  0  0  0  0  0
   18.1920   20.0300   15.0930 H   0  0  0  0  0  0
   19.7310   19.1690   15.3840 H   0  0  0  0  0  0
   19.7140   20.6910   14.4270 H   0  0  0  0  0  0
   26.1820   22.7070   15.1300 C   0  0  0  0  0  0
   26.4410   24.0660   14.9080 C   0  0  0  0  0  0
   26.7880   24.6980   15.7250 H   0  0  0  0  0  0
   26.2510   24.6290   13.6420 C   0  0  0  0  0  0
   26.4480   25.6910   13.5020 H   0  0  0  0  0  0
   25.8170   23.8370   12.5740 C   0  0  0  0  0  0
   25.5710   22.4780   12.7870 C   0  0  0  0  0  0
   25.2360   21.8410   11.9710 H   0  0  0  0  0  0
   25.7610   21.9140   14.0540 C   0  0  0  0  0  0
   25.5770   20.8490   14.1870 H   0  0  0  0  0  0
   25.5740   24.5970   10.9500 S   0  0  0  0  0  0
   24.9040   23.5580   10.0910 O   0  0  0  0  0  0
   27.3210   24.6680   10.4740 C   0  0  0  0  0  0
   27.3840   25.0350    9.4470 H   0  0  0  0  0  0
   27.7660   23.6720   10.5290 H   0  0  0  0  0  0
   27.8550   25.3560   11.1340 H   0  0  0  0  0  0
  1  2  1  0  0  0
  1  6  2  0  0  0
  1 28  1  0  0  0
  2  3  1  0  0  0
  2 11  1  0  0  0
  3  4  1  0  0  0
  3  5  2  0  0  0
  5  6  1  0  0  0
  5  7  1  0  0  0
  7  8  1  0  0  0
  7  9  1  0  0  0
  7 10  1  0  0  0
 11 12  1  0  0  0
 11 19  2  0  0  0
 12 13  1  0  0  0
 12 14  2  0  0  0
 14 15  1  0  0  0
 14 16  1  0  0  0
 16 17  2  0  0  0
 16 21  1  0  0  0
 17 18  1  0  0  0
 17 19  1  0  0  0
 19 20  1  0  0  0
 21 22  2  0  0  0
 21 23  2  0  0  0
 21 24  1  0  0  0
 24 25  1  0  0  0
 24 26  1  0  0  0
 24 27  1  0  0  0
 28 29  1  0  0  0
 28 36  2  0  0  0
 29 30  1  0  0  0
 29 31  2  0  0  0
 31 32  1  0  0  0
 31 33  1  0  0  0
 33 34  2  0  0  0
 33 38  1  0  0  0
 34 35  1  0  0  0
 34 36  1  0  0  0
 36 37  1  0  0  0
 38 39  2  0  0  0
 38 40  1  0  0  0
 40 41  1  0  0  0
 40 42  1  0  0  0
 40 43  1  0  0  0
M  END
>  <ACTIVITY>
4

>  <SET>
3

>  <Min_dist>
0.04

>  <Avg_dist>
0.44

$$$$
3-17
  Cerius2 12110214053D 1   1.00000                          
Structure written by Cerius2 SD Exporter
 44 46  0  0  0  0  0  0  0  0999 V2000
   26.4070   22.1300   16.4600 C   0  0  0  0  0  0
   25.4700   21.4600   17.2560 N   0  0  0  0  0  0
   26.1980   20.8860   18.2820 C   0  0  0  0  0  0
   25.7390   20.2790   19.0510 H   0  0  0  0  0  0
   27.5000   21.3250   18.1620 C   0  0  0  0  0  0
   27.6050   22.1150   17.0310 N   0  0  0  0  0  0
   28.6670   21.0450   19.0630 C   0  0  0  0  0  0
   28.3510   20.2100   20.0960 F   0  0  0  0  0  0
   29.1680   22.1810   19.6300 F   0  0  0  0  0  0
   29.7050   20.4560   18.4000 F   0  0  0  0  0  0
   24.0480   21.3750   17.1210 C   0  0  0  0  0  0
   23.3440   22.2590   16.2910 C   0  0  0  0  0  0
   23.8370   23.0610   15.7480 H   0  0  0  0  0  0
   21.9520   22.1710   16.1780 C   0  0  0  0  0  0
   21.4250   22.8680   15.5290 H   0  0  0  0  0  0
   21.2560   21.2080   16.9100 C   0  0  0  0  0  0
   21.9400   20.3260   17.7450 C   0  0  0  0  0  0
   21.4070   19.5660   18.3130 H   0  0  0  0  0  0
   23.3320   20.4150   17.8570 C   0  0  0  0  0  0
   23.8320   19.6970   18.5040 H   0  0  0  0  0  0
   19.4890   21.0850   16.7480 S   0  0  0  0  0  0
   18.9610   22.4300   16.5410 O   0  0  0  0  0  0
   18.9890   20.3100   17.8790 O   0  0  0  0  0  0
   19.2670   20.1450   15.2610 C   0  0  0  0  0  0
   18.1950   20.0270   15.0920 H   0  0  0  0  0  0
   19.7340   19.1660   15.3860 H   0  0  0  0  0  0
   19.7180   20.6870   14.4270 H   0  0  0  0  0  0
   26.1810   22.7070   15.1290 C   0  0  0  0  0  0
   26.4420   24.0670   14.9080 C   0  0  0  0  0  0
   26.7940   24.6960   15.7250 H   0  0  0  0  0  0
   26.2530   24.6330   13.6430 C   0  0  0  0  0  0
   26.4580   25.6920   13.4950 H   0  0  0  0  0  0
   25.8060   23.8330   12.5900 C   0  0  0  0  0  0
   25.5690   22.4700   12.7850 C   0  0  0  0  0  0
   25.2380   21.8350   11.9660 H   0  0  0  0  0  0
   25.7600   21.9100   14.0520 C   0  0  0  0  0  0
   25.5820   20.8450   14.1890 H   0  0  0  0  0  0
   25.5850   24.5470   10.9750 S   0  0  0  0  0  0
   25.3720   25.9810   11.1420 O   0  0  0  0  0  0
   24.5650   23.7700   10.2780 O   0  0  0  0  0  0
   27.1510   24.2870   10.1840 C   0  0  0  0  0  0
   27.0960   24.7080    9.1780 H   0  0  0  0  0  0
   27.3480   23.2150   10.1280 H   0  0  0  0  0  0
   27.9270   24.7950   10.7580 H   0  0  0  0  0  0
  1  2  1  0  0  0
  1  6  2  0  0  0
  1 28  1  0  0  0
  2  3  1  0  0  0
  2 11  1  0  0  0
  3  4  1  0  0  0
  3  5  2  0  0  0
  5  6  1  0  0  0
  5  7  1  0  0  0
  7  8  1  0  0  0
  7  9  1  0  0  0
  7 10  1  0  0  0
 11 12  1  0  0  0
 11 19  2  0  0  0
 12 13  1  0  0  0
 12 14  2  0  0  0
 14 15  1  0  0  0
 14 16  1  0  0  0
 16 17  2  0  0  0
 16 21  1  0  0  0
 17 18  1  0  0  0
 17 19  1  0  0  0
 19 20  1  0  0  0
 21 22  2  0  0  0
 21 23  2  0  0  0
 21 24  1  0  0  0
 24 25  1  0  0  0
 24 26  1  0  0  0
 24 27  1  0  0  0
 28 29  1  0  0  0
 28 36  2  0  0  0
 29 30  1  0  0  0
 29 31  2  0  0  0
 31 32  1  0  0  0
 31 33  1  0  0  0
 33 34  2  0  0  0
 33 38  1  0  0  0
 34 35  1  0  0  0
 34 36  1  0  0  0
 36 37  1  0  0  0
 38 39  2  0  0  0
 38 40  2  0  0  0
 38 41  1  0  0  0
 41 42  1  0  0  0
 41 43  1  0  0  0
 41 44  1  0  0  0
M  END
>  <ACTIVITY>
5.24

>  <SET>
1

>  <Min_dist>
999.9

>  <Avg_dist>
999.9

$$$$
3-18
  Cerius2 12110214053D 1   1.00000                          
Structure written by Cerius2 SD Exporter
 37 39  0  0  0  0  0  0  0  0999 V2000
   26.4070   22.1300   16.4600 C   0  0  0  0  0  0
   25.4700   21.4600   17.2570 N   0  0  0  0  0  0
   26.2000   20.8840   18.2810 C   0  0  0  0  0  0
   25.7420   20.2770   19.0500 H   0  0  0  0  0  0
   27.5020   21.3230   18.1600 C   0  0  0  0  0  0
   27.6050   22.1150   17.0290 N   0  0  0  0  0  0
   28.6710   21.0400   19.0580 C   0  0  0  0  0  0
   28.3600   20.1900   20.0800 F   0  0  0  0  0  0
   29.1630   22.1730   19.6390 F   0  0  0  0  0  0
   29.7130   20.4670   18.3880 F   0  0  0  0  0  0
   24.0490   21.3740   17.1220 C   0  0  0  0  0  0
   23.3440   22.2590   16.2930 C   0  0  0  0  0  0
   23.8370   23.0610   15.7490 H   0  0  0  0  0  0
   21.9510   22.1710   16.1810 C   0  0  0  0  0  0
   21.4200   22.8680   15.5360 H   0  0  0  0  0  0
   21.2540   21.2070   16.9120 C   0  0  0  0  0  0
   21.9400   20.3260   17.7480 C   0  0  0  0  0  0
   21.4070   19.5670   18.3170 H   0  0  0  0  0  0
   23.3320   20.4160   17.8590 C   0  0  0  0  0  0
   23.8320   19.6980   18.5060 H   0  0  0  0  0  0
   19.4950   21.0880   16.7400 S   0  0  0  0  0  0
   18.9480   22.3990   16.4380 O   0  0  0  0  0  0
   18.9650   20.3040   17.8410 O   0  0  0  0  0  0
   19.3380   20.1660   15.3500 N   0  0  0  0  0  0
   18.8610   20.6900   14.6120 H   0  0  0  0  0  0
   18.8620   19.2820   15.5460 H   0  0  0  0  0  0
   26.1800   22.7070   15.1310 C   0  0  0  0  0  0
   26.4390   24.0670   14.9090 C   0  0  0  0  0  0
   26.7890   24.6990   15.7240 H   0  0  0  0  0  0
   26.2490   24.6300   13.6430 C   0  0  0  0  0  0
   26.4480   25.6890   13.4910 H   0  0  0  0  0  0
   25.8110   23.8310   12.5890 C   0  0  0  0  0  0
   25.5670   22.4740   12.7880 C   0  0  0  0  0  0
   25.2340   21.8440   11.9670 H   0  0  0  0  0  0
   25.7580   21.9120   14.0540 C   0  0  0  0  0  0
   25.5760   20.8460   14.1900 H   0  0  0  0  0  0
   25.5780   24.5230   11.0300 Cl  0  0  0  0  0  0
  1  2  1  0  0  0
  1  6  2  0  0  0
  1 27  1  0  0  0
  2  3  1  0  0  0
  2 11  1  0  0  0
  3  4  1  0  0  0
  3  5  2  0  0  0
  5  6  1  0  0  0
  5  7  1  0  0  0
  7  8  1  0  0  0
  7  9  1  0  0  0
  7 10  1  0  0  0
 11 12  1  0  0  0
 11 19  2  0  0  0
 12 13  1  0  0  0
 12 14  2  0  0  0
 14 15  1  0  0  0
 14 16  1  0  0  0
 16 17  2  0  0  0
 16 21  1  0  0  0
 17 18  1  0  0  0
 17 19  1  0  0  0
 19 20  1  0  0  0
 21 22  2  0  0  0
 21 23  2  0  0  0
 21 24  1  0  0  0
 24 25  1  0  0  0
 24 26  1  0  0  0
 27 28  1  0  0  0
 27 35  2  0  0  0
 28 29  1  0  0  0
 28 30  2  0  0  0
 30 31  1  0  0  0
 30 32  1  0  0  0
 32 33  2  0  0  0
 32 37  1  0  0  0
 33 34  1  0  0  0
 33 35  1  0  0  0
 35 36  1  0  0  0
M  END
>  <ACTIVITY>
8

>  <SET>
1

>  <Min_dist>
999.9

>  <Avg_dist>
999.9

$$$$
3-20
  Cerius2 12110214053D 1   1.00000                          
Structure written by Cerius2 SD Exporter
 37 39  0  0  0  0  0  0  0  0999 V2000
   26.4080   22.1300   16.4600 C   0  0  0  0  0  0
   25.4700   21.4600   17.2560 N   0  0  0  0  0  0
   26.1990   20.8860   18.2820 C   0  0  0  0  0  0
   25.7410   20.2800   19.0510 H   0  0  0  0  0  0
   27.5020   21.3230   18.1600 C   0  0  0  0  0  0
   27.6060   22.1130   17.0290 N   0  0  0  0  0  0
   28.6710   21.0410   19.0590 C   0  0  0  0  0  0
   28.3610   20.1880   20.0790 F   0  0  0  0  0  0
   29.1600   22.1730   19.6430 F   0  0  0  0  0  0
   29.7150   20.4710   18.3880 F   0  0  0  0  0  0
   24.0480   21.3740   17.1220 C   0  0  0  0  0  0
   23.3430   22.2590   16.2930 C   0  0  0  0  0  0
   23.8350   23.0600   15.7480 H   0  0  0  0  0  0
   21.9500   22.1700   16.1810 C   0  0  0  0  0  0
   21.4190   22.8670   15.5360 H   0  0  0  0  0  0
   21.2530   21.2060   16.9120 C   0  0  0  0  0  0
   21.9400   20.3250   17.7480 C   0  0  0  0  0  0
   21.4070   19.5660   18.3170 H   0  0  0  0  0  0
   23.3320   20.4150   17.8590 C   0  0  0  0  0  0
   23.8320   19.6980   18.5060 H   0  0  0  0  0  0
   19.4940   21.0880   16.7410 S   0  0  0  0  0  0
   18.9460   22.4010   16.4490 O   0  0  0  0  0  0
   18.9650   20.2960   17.8370 O   0  0  0  0  0  0
   19.3360   20.1770   15.3440 N   0  0  0  0  0  0
   18.8600   20.7070   14.6100 H   0  0  0  0  0  0
   18.8600   19.2910   15.5340 H   0  0  0  0  0  0
   26.1800   22.7080   15.1300 C   0  0  0  0  0  0
   26.4410   24.0670   14.9080 C   0  0  0  0  0  0
   26.7910   24.6980   15.7240 H   0  0  0  0  0  0
   26.2490   24.6290   13.6440 C   0  0  0  0  0  0
   26.4470   25.6880   13.4840 H   0  0  0  0  0  0
   25.8100   23.8340   12.5870 C   0  0  0  0  0  0
   25.6620   24.2720   11.6010 H   0  0  0  0  0  0
   25.5680   22.4760   12.7900 C   0  0  0  0  0  0
   25.2340   21.8530   11.9620 H   0  0  0  0  0  0
   25.7590   21.9130   14.0540 C   0  0  0  0  0  0
   25.5760   20.8480   14.1890 H   0  0  0  0  0  0
  1  2  1  0  0  0
  1  6  2  0  0  0
  1 27  1  0  0  0
  2  3  1  0  0  0
  2 11  1  0  0  0
  3  4  1  0  0  0
  3  5  2  0  0  0
  5  6  1  0  0  0
  5  7  1  0  0  0
  7  8  1  0  0  0
  7  9  1  0  0  0
  7 10  1  0  0  0
 11 12  1  0  0  0
 11 19  2  0  0  0
 12 13  1  0  0  0
 12 14  2  0  0  0
 14 15  1  0  0  0
 14 16  1  0  0  0
 16 17  2  0  0  0
 16 21  1  0  0  0
 17 18  1  0  0  0
 17 19  1  0  0  0
 19 20  1  0  0  0
 21 22  2  0  0  0
 21 23  2  0  0  0
 21 24  1  0  0  0
 24 25  1  0  0  0
 24 26  1  0  0  0
 27 28  1  0  0  0
 27 36  2  0  0  0
 28 29  1  0  0  0
 28 30  2  0  0  0
 30 31  1  0  0  0
 30 32  1  0  0  0
 32 33  1  0  0  0
 32 34  2  0  0  0
 34 35  1  0  0  0
 34 36  1  0  0  0
 36 37  1  0  0  0
M  END
>  <ACTIVITY>
7.4

>  <SET>
1

>  <Min_dist>
999.9

>  <Avg_dist>
999.9

$$$$
3-22
  Cerius2 12110214053D 1   1.00000                          
Structure written by Cerius2 SD Exporter
 38 40  0  0  0  0  0  0  0  0999 V2000
   26.4070   22.1310   16.4600 C   0  0  0  0  0  0
   25.4700   21.4600   17.2550 N   0  0  0  0  0  0
   26.1990   20.8840   18.2800 C   0  0  0  0  0  0
   25.7410   20.2760   19.0480 H   0  0  0  0  0  0
   27.5010   21.3250   18.1600 C   0  0  0  0  0  0
   27.6040   22.1170   17.0300 N   0  0  0  0  0  0
   28.6690   21.0440   19.0610 C   0  0  0  0  0  0
   28.3550   20.2000   20.0870 F   0  0  0  0  0  0
   29.1630   22.1790   19.6360 F   0  0  0  0  0  0
   29.7100   20.4650   18.3940 F   0  0  0  0  0  0
   24.0480   21.3740   17.1200 C   0  0  0  0  0  0
   23.3440   22.2590   16.2910 C   0  0  0  0  0  0
   23.8370   23.0600   15.7470 H   0  0  0  0  0  0
   21.9510   22.1720   16.1780 C   0  0  0  0  0  0
   21.4240   22.8690   15.5300 H   0  0  0  0  0  0
   21.2550   21.2090   16.9100 C   0  0  0  0  0  0
   21.9400   20.3260   17.7450 C   0  0  0  0  0  0
   21.4070   19.5660   18.3130 H   0  0  0  0  0  0
   23.3320   20.4160   17.8570 C   0  0  0  0  0  0
   23.8320   19.6970   18.5030 H   0  0  0  0  0  0
   19.4880   21.0850   16.7490 S   0  0  0  0  0  0
   18.9600   22.4310   16.5450 O   0  0  0  0  0  0
   18.9890   20.3080   17.8800 O   0  0  0  0  0  0
   19.2650   20.1480   15.2610 C   0  0  0  0  0  0
   18.1920   20.0300   15.0920 H   0  0  0  0  0  0
   19.7310   19.1680   15.3840 H   0  0  0  0  0  0
   19.7150   20.6900   14.4280 H   0  0  0  0  0  0
   26.1810   22.7090   15.1300 C   0  0  0  0  0  0
   26.4420   24.0690   14.9120 C   0  0  0  0  0  0
   26.7900   24.6930   15.7330 H   0  0  0  0  0  0
   26.2530   24.6240   13.6470 C   0  0  0  0  0  0
   25.8160   23.8350   12.5850 C   0  0  0  0  0  0
   25.6680   24.2660   11.5980 H   0  0  0  0  0  0
   25.5740   22.4760   12.7870 C   0  0  0  0  0  0
   25.2420   21.8530   11.9590 H   0  0  0  0  0  0
   25.7620   21.9140   14.0520 C   0  0  0  0  0  0
   25.5820   20.8490   14.1860 H   0  0  0  0  0  0
   26.5630   26.2990   13.3930 Cl  0  0  0  0  0  0
  1  2  1  0  0  0
  1  6  2  0  0  0
  1 28  1  0  0  0
  2  3  1  0  0  0
  2 11  1  0  0  0
  3  4  1  0  0  0
  3  5  2  0  0  0
  5  6  1  0  0  0
  5  7  1  0  0  0
  7  8  1  0  0  0
  7  9  1  0  0  0
  7 10  1  0  0  0
 11 12  1  0  0  0
 11 19  2  0  0  0
 12 13  1  0  0  0
 12 14  2  0  0  0
 14 15  1  0  0  0
 14 16  1  0  0  0
 16 17  2  0  0  0
 16 21  1  0  0  0
 17 18  1  0  0  0
 17 19  1  0  0  0
 19 20  1  0  0  0
 21 22  2  0  0  0
 21 23  2  0  0  0
 21 24  1  0  0  0
 24 25  1  0  0  0
 24 26  1  0  0  0
 24 27  1  0  0  0
 28 29  1  0  0  0
 28 36  2  0  0  0
 29 30  1  0  0  0
 29 31  2  0  0  0
 31 32  1  0  0  0
 31 38  1  0  0  0
 32 33  1  0  0  0
 32 34  2  0  0  0
 34 35  1  0  0  0
 34 36  1  0  0  0
 36 37  1  0  0  0
M  END
>  <ACTIVITY>
7.22

>  <SET>
1

>  <Min_dist>
999.9

>  <Avg_dist>
999.9

$$$$
3-27
  Cerius2 12110214053D 1   1.00000                          
Structure written by Cerius2 SD Exporter
 42 44  0  0  0  0  0  0  0  0999 V2000
   26.4080   22.1280   16.4590 C   0  0  0  0  0  0
   25.4700   21.4600   17.2570 N   0  0  0  0  0  0
   26.1980   20.8870   18.2830 C   0  0  0  0  0  0
   25.7400   20.2820   19.0530 H   0  0  0  0  0  0
   27.5010   21.3260   18.1620 C   0  0  0  0  0  0
   27.6050   22.1140   17.0290 N   0  0  0  0  0  0
   28.6680   21.0470   19.0630 C   0  0  0  0  0  0
   28.3490   20.2220   20.1040 F   0  0  0  0  0  0
   29.1760   22.1850   19.6200 F   0  0  0  0  0  0
   29.7010   20.4460   18.4030 F   0  0  0  0  0  0
   24.0480   21.3750   17.1220 C   0  0  0  0  0  0
   23.3440   22.2590   16.2920 C   0  0  0  0  0  0
   23.8370   23.0600   15.7480 H   0  0  0  0  0  0
   21.9510   22.1710   16.1790 C   0  0  0  0  0  0
   21.4250   22.8680   15.5300 H   0  0  0  0  0  0
   21.2550   21.2080   16.9100 C   0  0  0  0  0  0
   21.9400   20.3260   17.7460 C   0  0  0  0  0  0
   21.4070   19.5660   18.3140 H   0  0  0  0  0  0
   23.3320   20.4160   17.8590 C   0  0  0  0  0  0
   23.8310   19.6980   18.5060 H   0  0  0  0  0  0
   19.4880   21.0840   16.7460 S   0  0  0  0  0  0
   18.9610   22.4290   16.5380 O   0  0  0  0  0  0
   18.9880   20.3100   17.8780 O   0  0  0  0  0  0
   19.2680   20.1430   15.2600 C   0  0  0  0  0  0
   18.1960   20.0260   15.0890 H   0  0  0  0  0  0
   19.7340   19.1640   15.3860 H   0  0  0  0  0  0
   19.7200   20.6840   14.4260 H   0  0  0  0  0  0
   26.1810   22.7040   15.1280 C   0  0  0  0  0  0
   26.4410   24.0640   14.9050 C   0  0  0  0  0  0
   26.7910   24.6870   15.7280 H   0  0  0  0  0  0
   26.2540   24.6370   13.6430 C   0  0  0  0  0  0
   25.8130   23.8380   12.5880 C   0  0  0  0  0  0
   25.6530   24.2370   11.5900 H   0  0  0  0  0  0
   25.5710   22.4770   12.7930 C   0  0  0  0  0  0
   25.2360   21.8550   11.9640 H   0  0  0  0  0  0
   25.7600   21.9100   14.0540 C   0  0  0  0  0  0
   25.5770   20.8450   14.1870 H   0  0  0  0  0  0
   26.5350   25.9740   13.5730 O   0  0  0  0  0  0
   26.9740   26.6020   14.7770 C   0  0  0  0  0  0
   27.1560   27.6570   14.5540 H   0  0  0  0  0  0
   27.9160   26.1660   15.1260 H   0  0  0  0  0  0
   26.2010   26.5520   15.5510 H   0  0  0  0  0  0
  1  2  1  0  0  0
  1  6  2  0  0  0
  1 28  1  0  0  0
  2  3  1  0  0  0
  2 11  1  0  0  0
  3  4  1  0  0  0
  3  5  2  0  0  0
  5  6  1  0  0  0
  5  7  1  0  0  0
  7  8  1  0  0  0
  7  9  1  0  0  0
  7 10  1  0  0  0
 11 12  1  0  0  0
 11 19  2  0  0  0
 12 13  1  0  0  0
 12 14  2  0  0  0
 14 15  1  0  0  0
 14 16  1  0  0  0
 16 17  2  0  0  0
 16 21  1  0  0  0
 17 18  1  0  0  0
 17 19  1  0  0  0
 19 20  1  0  0  0
 21 22  2  0  0  0
 21 23  2  0  0  0
 21 24  1  0  0  0
 24 25  1  0  0  0
 24 26  1  0  0  0
 24 27  1  0  0  0
 28 29  1  0  0  0
 28 36  2  0  0  0
 29 30  1  0  0  0
 29 31  2  0  0  0
 31 32  1  0  0  0
 31 38  1  0  0  0
 32 33  1  0  0  0
 32 34  2  0  0  0
 34 35  1  0  0  0
 34 36  1  0  0  0
 36 37  1  0  0  0
 38 39  1  0  0  0
 39 40  1  0  0  0
 39 41  1  0  0  0
 39 42  1  0  0  0
M  END
>  <ACTIVITY>
6.46

>  <SET>
1

>  <Min_dist>
999.9

>  <Avg_dist>
999.9

$$$$
3-28
  Cerius2 12110214053D 1   1.00000                          
Structure written by Cerius2 SD Exporter
 42 44  0  0  0  0  0  0  0  0999 V2000
   26.4080   22.1290   16.4590 C   0  0  0  0  0  0
   25.4700   21.4600   17.2560 N   0  0  0  0  0  0
   26.1980   20.8870   18.2830 C   0  0  0  0  0  0
   25.7400   20.2820   19.0530 H   0  0  0  0  0  0
   27.5010   21.3260   18.1630 C   0  0  0  0  0  0
   27.6060   22.1150   17.0300 N   0  0  0  0  0  0
   28.6680   21.0470   19.0640 C   0  0  0  0  0  0
   28.3510   20.2150   20.0990 F   0  0  0  0  0  0
   29.1710   22.1840   19.6280 F   0  0  0  0  0  0
   29.7040   20.4540   18.4020 F   0  0  0  0  0  0
   24.0490   21.3740   17.1200 C   0  0  0  0  0  0
   23.3440   22.2590   16.2900 C   0  0  0  0  0  0
   23.8370   23.0590   15.7460 H   0  0  0  0  0  0
   21.9520   22.1710   16.1770 C   0  0  0  0  0  0
   21.4250   22.8690   15.5290 H   0  0  0  0  0  0
   21.2550   21.2080   16.9090 C   0  0  0  0  0  0
   21.9400   20.3250   17.7440 C   0  0  0  0  0  0
   21.4070   19.5650   18.3120 H   0  0  0  0  0  0
   23.3320   20.4150   17.8550 C   0  0  0  0  0  0
   23.8320   19.6960   18.5020 H   0  0  0  0  0  0
   19.4880   21.0860   16.7480 S   0  0  0  0  0  0
   18.9610   22.4310   16.5410 O   0  0  0  0  0  0
   18.9890   20.3120   17.8810 O   0  0  0  0  0  0
   19.2650   20.1450   15.2620 C   0  0  0  0  0  0
   18.1920   20.0290   15.0930 H   0  0  0  0  0  0
   19.7290   19.1650   15.3880 H   0  0  0  0  0  0
   19.7160   20.6850   14.4280 H   0  0  0  0  0  0
   26.1820   22.7040   15.1290 C   0  0  0  0  0  0
   26.4480   24.0640   14.9060 C   0  0  0  0  0  0
   26.8020   24.6780   15.7330 H   0  0  0  0  0  0
   26.2520   24.6370   13.6430 C   0  0  0  0  0  0
   25.8210   23.8290   12.5870 C   0  0  0  0  0  0
   25.6880   24.2360   11.5870 H   0  0  0  0  0  0
   25.5750   22.4700   12.7920 C   0  0  0  0  0  0
   25.2470   21.8460   11.9630 H   0  0  0  0  0  0
   25.7580   21.9090   14.0560 C   0  0  0  0  0  0
   25.5730   20.8440   14.1930 H   0  0  0  0  0  0
   26.6110   26.3720   13.4230 S   0  0  0  0  0  0
   27.1010   26.8230   15.1140 C   0  0  0  0  0  0
   27.4980   27.8420   15.1080 H   0  0  0  0  0  0
   27.8810   26.1500   15.4810 H   0  0  0  0  0  0
   26.2430   26.7950   15.7900 H   0  0  0  0  0  0
  1  2  1  0  0  0
  1  6  2  0  0  0
  1 28  1  0  0  0
  2  3  1  0  0  0
  2 11  1  0  0  0
  3  4  1  0  0  0
  3  5  2  0  0  0
  5  6  1  0  0  0
  5  7  1  0  0  0
  7  8  1  0  0  0
  7  9  1  0  0  0
  7 10  1  0  0  0
 11 12  1  0  0  0
 11 19  2  0  0  0
 12 13  1  0  0  0
 12 14  2  0  0  0
 14 15  1  0  0  0
 14 16  1  0  0  0
 16 17  2  0  0  0
 16 21  1  0  0  0
 17 18  1  0  0  0
 17 19  1  0  0  0
 19 20  1  0  0  0
 21 22  2  0  0  0
 21 23  2  0  0  0
 21 24  1  0  0  0
 24 25  1  0  0  0
 24 26  1  0  0  0
 24 27  1  0  0  0
 28 29  1  0  0  0
 28 36  2  0  0  0
 29 30  1  0  0  0
 29 31  2  0  0  0
 31 32  1  0  0  0
 31 38  1  0  0  0
 32 33  1  0  0  0
 32 34  2  0  0  0
 34 35  1  0  0  0
 34 36  1  0  0  0
 36 37  1  0  0  0
 38 39  1  0  0  0
 39 40  1  0  0  0
 39 41  1  0  0  0
 39 42  1  0  0  0
M  END
>  <ACTIVITY>
6.46

>  <SET>
1

>  <Min_dist>
999.9

>  <Avg_dist>
999.9

$$$$
3-29
  Cerius2 12110214053D 1   1.00000                          
Structure written by Cerius2 SD Exporter
 45 47  0  0  0  0  0  0  0  0999 V2000
   26.4070   22.1300   16.4600 C   0  0  0  0  0  0
   25.4690   21.4590   17.2560 N   0  0  0  0  0  0
   26.1980   20.8840   18.2810 C   0  0  0  0  0  0
   25.7390   20.2760   19.0490 H   0  0  0  0  0  0
   27.5000   21.3240   18.1620 C   0  0  0  0  0  0
   27.6040   22.1160   17.0320 N   0  0  0  0  0  0
   28.6670   21.0440   19.0620 C   0  0  0  0  0  0
   28.3620   20.1750   20.0710 F   0  0  0  0  0  0
   29.1410   22.1740   19.6620 F   0  0  0  0  0  0
   29.7200   20.4940   18.3900 F   0  0  0  0  0  0
   24.0480   21.3740   17.1210 C   0  0  0  0  0  0
   23.3430   22.2580   16.2910 C   0  0  0  0  0  0
   23.8370   23.0580   15.7460 H   0  0  0  0  0  0
   21.9510   22.1720   16.1790 C   0  0  0  0  0  0
   21.4240   22.8690   15.5300 H   0  0  0  0  0  0
   21.2540   21.2090   16.9100 C   0  0  0  0  0  0
   21.9390   20.3260   17.7460 C   0  0  0  0  0  0
   21.4060   19.5660   18.3140 H   0  0  0  0  0  0
   23.3310   20.4150   17.8580 C   0  0  0  0  0  0
   23.8300   19.6970   18.5050 H   0  0  0  0  0  0
   19.4870   21.0840   16.7510 S   0  0  0  0  0  0
   18.9590   22.4300   16.5520 O   0  0  0  0  0  0
   18.9890   20.3020   17.8790 O   0  0  0  0  0  0
   19.2650   20.1500   15.2610 C   0  0  0  0  0  0
   18.1920   20.0280   15.0950 H   0  0  0  0  0  0
   19.7360   19.1730   15.3790 H   0  0  0  0  0  0
   19.7090   20.6980   14.4280 H   0  0  0  0  0  0
   26.1810   22.7050   15.1290 C   0  0  0  0  0  0
   26.4380   24.0670   14.9070 C   0  0  0  0  0  0
   26.7790   24.6890   15.7350 H   0  0  0  0  0  0
   26.2580   24.6400   13.6380 C   0  0  0  0  0  0
   25.8080   23.8310   12.5860 C   0  0  0  0  0  0
   25.6470   24.2560   11.5960 H   0  0  0  0  0  0
   25.5700   22.4710   12.7910 C   0  0  0  0  0  0
   25.2350   21.8480   11.9640 H   0  0  0  0  0  0
   25.7640   21.9090   14.0530 C   0  0  0  0  0  0
   25.5850   20.8430   14.1880 H   0  0  0  0  0  0
   26.5120   26.1080   13.4190 C   0  0  0  0  0  0
   26.3250   26.6670   14.3440 H   0  0  0  0  0  0
   25.8420   26.4990   12.6430 H   0  0  0  0  0  0
   27.8760   26.2660   13.0150 O   0  0  0  0  0  0
   28.1860   27.6430   12.8070 C   0  0  0  0  0  0
   29.2330   27.7150   12.5000 H   0  0  0  0  0  0
   28.0540   28.2090   13.7340 H   0  0  0  0  0  0
   27.5590   28.0610   12.0140 H   0  0  0  0  0  0
  1  2  1  0  0  0
  1  6  2  0  0  0
  1 28  1  0  0  0
  2  3  1  0  0  0
  2 11  1  0  0  0
  3  4  1  0  0  0
  3  5  2  0  0  0
  5  6  1  0  0  0
  5  7  1  0  0  0
  7  8  1  0  0  0
  7  9  1  0  0  0
  7 10  1  0  0  0
 11 12  1  0  0  0
 11 19  2  0  0  0
 12 13  1  0  0  0
 12 14  2  0  0  0
 14 15  1  0  0  0
 14 16  1  0  0  0
 16 17  2  0  0  0
 16 21  1  0  0  0
 17 18  1  0  0  0
 17 19  1  0  0  0
 19 20  1  0  0  0
 21 22  2  0  0  0
 21 23  2  0  0  0
 21 24  1  0  0  0
 24 25  1  0  0  0
 24 26  1  0  0  0
 24 27  1  0  0  0
 28 29  1  0  0  0
 28 36  2  0  0  0
 29 30  1  0  0  0
 29 31  2  0  0  0
 31 32  1  0  0  0
 31 38  1  0  0  0
 32 33  1  0  0  0
 32 34  2  0  0  0
 34 35  1  0  0  0
 34 36  1  0  0  0
 36 37  1  0  0  0
 38 39  1  0  0  0
 38 40  1  0  0  0
 38 41  1  0  0  0
 41 42  1  0  0  0
 42 43  1  0  0  0
 42 44  1  0  0  0
 42 45  1  0  0  0
M  END
>  <ACTIVITY>
4.17

>  <SET>
2

>  <Min_dist>
0.12

>  <Avg_dist>
0.47

$$$$
3-30
  Cerius2 12110214053D 1   1.00000                          
Structure written by Cerius2 SD Exporter
 46 48  0  0  0  0  0  0  0  0999 V2000
   26.4060   22.1250   16.4570 C   0  0  0  0  0  0
   25.4680   21.4600   17.2570 N   0  0  0  0  0  0
   26.1970   20.8920   18.2870 C   0  0  0  0  0  0
   25.7380   20.2900   19.0590 H   0  0  0  0  0  0
   27.4990   21.3290   18.1630 C   0  0  0  0  0  0
   27.6040   22.1130   17.0280 N   0  0  0  0  0  0
   28.6670   21.0510   19.0640 C   0  0  0  0  0  0
   28.3580   20.1990   20.0850 F   0  0  0  0  0  0
   29.1520   22.1860   19.6480 F   0  0  0  0  0  0
   29.7140   20.4840   18.3970 F   0  0  0  0  0  0
   24.0470   21.3750   17.1230 C   0  0  0  0  0  0
   23.3410   22.2580   16.2930 C   0  0  0  0  0  0
   23.8350   23.0590   15.7480 H   0  0  0  0  0  0
   21.9490   22.1700   16.1800 C   0  0  0  0  0  0
   21.4220   22.8670   15.5310 H   0  0  0  0  0  0
   21.2530   21.2070   16.9120 C   0  0  0  0  0  0
   21.9390   20.3250   17.7480 C   0  0  0  0  0  0
   21.4070   19.5640   18.3160 H   0  0  0  0  0  0
   23.3310   20.4160   17.8600 C   0  0  0  0  0  0
   23.8310   19.6980   18.5070 H   0  0  0  0  0  0
   19.4870   21.0810   16.7500 S   0  0  0  0  0  0
   18.9570   22.4260   16.5460 O   0  0  0  0  0  0
   18.9880   20.3030   17.8800 O   0  0  0  0  0  0
   19.2660   20.1440   15.2610 C   0  0  0  0  0  0
   18.1930   20.0260   15.0910 H   0  0  0  0  0  0
   19.7320   19.1650   15.3850 H   0  0  0  0  0  0
   19.7160   20.6870   14.4290 H   0  0  0  0  0  0
   26.1800   22.6940   15.1230 C   0  0  0  0  0  0
   26.4420   24.0600   14.8950 C   0  0  0  0  0  0
   26.7900   24.6450   15.7440 H   0  0  0  0  0  0
   26.2660   24.6680   13.6370 C   0  0  0  0  0  0
   25.8220   23.8260   12.6030 C   0  0  0  0  0  0
   25.6570   24.2090   11.5970 H   0  0  0  0  0  0
   25.5760   22.4620   12.8020 C   0  0  0  0  0  0
   25.2420   21.8440   11.9700 H   0  0  0  0  0  0
   25.7620   21.8950   14.0580 C   0  0  0  0  0  0
   25.5790   20.8300   14.1930 H   0  0  0  0  0  0
   26.5170   26.0200   13.4290 N   0  0  0  0  0  0
   26.3290   26.6350   12.1140 C   0  0  0  0  0  0
   26.5750   27.7030   12.1230 H   0  0  0  0  0  0
   25.2860   26.5510   11.7920 H   0  0  0  0  0  0
   26.9810   26.1650   11.3690 H   0  0  0  0  0  0
   26.9780   26.8850   14.5170 C   0  0  0  0  0  0
   27.1240   27.9180   14.1830 H   0  0  0  0  0  0
   27.9400   26.5370   14.9080 H   0  0  0  0  0  0
   26.2420   26.9130   15.3280 H   0  0  0  0  0  0
  1  2  1  0  0  0
  1  6  2  0  0  0
  1 28  1  0  0  0
  2  3  1  0  0  0
  2 11  1  0  0  0
  3  4  1  0  0  0
  3  5  2  0  0  0
  5  6  1  0  0  0
  5  7  1  0  0  0
  7  8  1  0  0  0
  7  9  1  0  0  0
  7 10  1  0  0  0
 11 12  1  0  0  0
 11 19  2  0  0  0
 12 13  1  0  0  0
 12 14  2  0  0  0
 14 15  1  0  0  0
 14 16  1  0  0  0
 16 17  2  0  0  0
 16 21  1  0  0  0
 17 18  1  0  0  0
 17 19  1  0  0  0
 19 20  1  0  0  0
 21 22  2  0  0  0
 21 23  2  0  0  0
 21 24  1  0  0  0
 24 25  1  0  0  0
 24 26  1  0  0  0
 24 27  1  0  0  0
 28 29  1  0  0  0
 28 36  2  0  0  0
 29 30  1  0  0  0
 29 31  2  0  0  0
 31 32  1  0  0  0
 31 38  1  0  0  0
 32 33  1  0  0  0
 32 34  2  0  0  0
 34 35  1  0  0  0
 34 36  1  0  0  0
 36 37  1  0  0  0
 38 39  1  0  0  0
 38 43  1  0  0  0
 39 40  1  0  0  0
 39 41  1  0  0  0
 39 42  1  0  0  0
 43 44  1  0  0  0
 43 45  1  0  0  0
 43 46  1  0  0  0
M  END
>  <ACTIVITY>
5.49

>  <SET>
1

>  <Min_dist>
999.9

>  <Avg_dist>
999.9

$$$$
3-31
  Cerius2 12110214053D 1   1.00000                          
Structure written by Cerius2 SD Exporter
 43 45  0  0  0  0  0  0  0  0999 V2000
   26.4070   22.1270   16.4580 C   0  0  0  0  0  0
   25.4690   21.4610   17.2570 N   0  0  0  0  0  0
   26.1970   20.8900   18.2850 C   0  0  0  0  0  0
   25.7390   20.2870   19.0560 H   0  0  0  0  0  0
   27.5000   21.3270   18.1630 C   0  0  0  0  0  0
   27.6050   22.1130   17.0290 N   0  0  0  0  0  0
   28.6680   21.0480   19.0640 C   0  0  0  0  0  0
   28.3540   20.2100   20.0950 F   0  0  0  0  0  0
   29.1660   22.1840   19.6320 F   0  0  0  0  0  0
   29.7070   20.4620   18.3990 F   0  0  0  0  0  0
   24.0480   21.3750   17.1220 C   0  0  0  0  0  0
   23.3420   22.2590   16.2920 C   0  0  0  0  0  0
   23.8350   23.0590   15.7470 H   0  0  0  0  0  0
   21.9500   22.1700   16.1790 C   0  0  0  0  0  0
   21.4230   22.8670   15.5300 H   0  0  0  0  0  0
   21.2540   21.2070   16.9100 C   0  0  0  0  0  0
   21.9390   20.3250   17.7460 C   0  0  0  0  0  0
   21.4070   19.5640   18.3140 H   0  0  0  0  0  0
   23.3310   20.4160   17.8580 C   0  0  0  0  0  0
   23.8310   19.6970   18.5050 H   0  0  0  0  0  0
   19.4870   21.0840   16.7490 S   0  0  0  0  0  0
   18.9590   22.4280   16.5380 O   0  0  0  0  0  0
   18.9870   20.3120   17.8820 O   0  0  0  0  0  0
   19.2660   20.1400   15.2640 C   0  0  0  0  0  0
   18.1930   20.0230   15.0940 H   0  0  0  0  0  0
   19.7300   19.1600   15.3920 H   0  0  0  0  0  0
   19.7170   20.6790   14.4290 H   0  0  0  0  0  0
   26.1810   22.6990   15.1260 C   0  0  0  0  0  0
   26.4430   24.0620   14.8990 C   0  0  0  0  0  0
   26.7930   24.6740   15.7300 H   0  0  0  0  0  0
   26.2590   24.6520   13.6400 C   0  0  0  0  0  0
   25.8160   23.8320   12.5970 C   0  0  0  0  0  0
   25.6560   24.2350   11.5990 H   0  0  0  0  0  0
   25.5720   22.4690   12.7980 C   0  0  0  0  0  0
   25.2370   21.8500   11.9670 H   0  0  0  0  0  0
   25.7600   21.9030   14.0560 C   0  0  0  0  0  0
   25.5770   20.8380   14.1910 H   0  0  0  0  0  0
   26.5200   25.9990   13.4860 N   0  0  0  0  0  0
   26.3860   26.4270   12.5690 H   0  0  0  0  0  0
   26.9830   26.8680   14.5480 C   0  0  0  0  0  0
   27.1130   27.8830   14.1590 H   0  0  0  0  0  0
   27.9500   26.5330   14.9380 H   0  0  0  0  0  0
   26.2560   26.9140   15.3650 H   0  0  0  0  0  0
  1  2  1  0  0  0
  1  6  2  0  0  0
  1 28  1  0  0  0
  2  3  1  0  0  0
  2 11  1  0  0  0
  3  4  1  0  0  0
  3  5  2  0  0  0
  5  6  1  0  0  0
  5  7  1  0  0  0
  7  8  1  0  0  0
  7  9  1  0  0  0
  7 10  1  0  0  0
 11 12  1  0  0  0
 11 19  2  0  0  0
 12 13  1  0  0  0
 12 14  2  0  0  0
 14 15  1  0  0  0
 14 16  1  0  0  0
 16 17  2  0  0  0
 16 21  1  0  0  0
 17 18  1  0  0  0
 17 19  1  0  0  0
 19 20  1  0  0  0
 21 22  2  0  0  0
 21 23  2  0  0  0
 21 24  1  0  0  0
 24 25  1  0  0  0
 24 26  1  0  0  0
 24 27  1  0  0  0
 28 29  1  0  0  0
 28 36  2  0  0  0
 29 30  1  0  0  0
 29 31  2  0  0  0
 31 32  1  0  0  0
 31 38  1  0  0  0
 32 33  1  0  0  0
 32 34  2  0  0  0
 34 35  1  0  0  0
 34 36  1  0  0  0
 36 37  1  0  0  0
 38 39  1  0  0  0
 38 40  1  0  0  0
 40 41  1  0  0  0
 40 42  1  0  0  0
 40 43  1  0  0  0
M  END
>  <ACTIVITY>
6.04

>  <SET>
1

>  <Min_dist>
999.9

>  <Avg_dist>
999.9

$$$$
3-32
  Cerius2 12110214053D 1   1.00000                          
Structure written by Cerius2 SD Exporter
 40 42  0  0  0  0  0  0  0  0999 V2000
   26.4070   22.1290   16.4580 C   0  0  0  0  0  0
   25.4690   21.4610   17.2560 N   0  0  0  0  0  0
   26.1970   20.8900   18.2840 C   0  0  0  0  0  0
   25.7380   20.2860   19.0540 H   0  0  0  0  0  0
   27.5000   21.3270   18.1620 C   0  0  0  0  0  0
   27.6050   22.1140   17.0290 N   0  0  0  0  0  0
   28.6670   21.0470   19.0630 C   0  0  0  0  0  0
   28.3560   20.1960   20.0840 F   0  0  0  0  0  0
   29.1550   22.1810   19.6450 F   0  0  0  0  0  0
   29.7120   20.4760   18.3950 F   0  0  0  0  0  0
   24.0470   21.3740   17.1200 C   0  0  0  0  0  0
   23.3410   22.2580   16.2910 C   0  0  0  0  0  0
   23.8340   23.0590   15.7470 H   0  0  0  0  0  0
   21.9490   22.1700   16.1790 C   0  0  0  0  0  0
   21.4210   22.8670   15.5310 H   0  0  0  0  0  0
   21.2530   21.2070   16.9110 C   0  0  0  0  0  0
   21.9390   20.3240   17.7460 C   0  0  0  0  0  0
   21.4070   19.5640   18.3150 H   0  0  0  0  0  0
   23.3310   20.4140   17.8570 C   0  0  0  0  0  0
   23.8310   19.6960   18.5030 H   0  0  0  0  0  0
   19.4860   21.0840   16.7520 S   0  0  0  0  0  0
   18.9590   22.4280   16.5410 O   0  0  0  0  0  0
   18.9870   20.3130   17.8860 O   0  0  0  0  0  0
   19.2620   20.1400   15.2680 C   0  0  0  0  0  0
   18.1900   20.0220   15.0990 H   0  0  0  0  0  0
   19.7270   19.1600   15.3950 H   0  0  0  0  0  0
   19.7130   20.6780   14.4320 H   0  0  0  0  0  0
   26.1810   22.7040   15.1270 C   0  0  0  0  0  0
   26.4320   24.0680   14.9060 C   0  0  0  0  0  0
   26.7660   24.6890   15.7370 H   0  0  0  0  0  0
   26.2600   24.6420   13.6430 C   0  0  0  0  0  0
   25.7960   23.8380   12.6000 C   0  0  0  0  0  0
   25.6190   24.2670   11.6150 H   0  0  0  0  0  0
   25.5620   22.4760   12.7960 C   0  0  0  0  0  0
   25.2190   21.8580   11.9680 H   0  0  0  0  0  0
   25.7640   21.9070   14.0530 C   0  0  0  0  0  0
   25.5870   20.8410   14.1870 H   0  0  0  0  0  0
   26.4370   26.0010   13.4570 N   0  0  0  0  0  0
   26.4380   26.3960   12.5200 H   0  0  0  0  0  0
   26.8970   26.5630   14.1690 H   0  0  0  0  0  0
  1  2  1  0  0  0
  1  6  2  0  0  0
  1 28  1  0  0  0
  2  3  1  0  0  0
  2 11  1  0  0  0
  3  4  1  0  0  0
  3  5  2  0  0  0
  5  6  1  0  0  0
  5  7  1  0  0  0
  7  8  1  0  0  0
  7  9  1  0  0  0
  7 10  1  0  0  0
 11 12  1  0  0  0
 11 19  2  0  0  0
 12 13  1  0  0  0
 12 14  2  0  0  0
 14 15  1  0  0  0
 14 16  1  0  0  0
 16 17  2  0  0  0
 16 21  1  0  0  0
 17 18  1  0  0  0
 17 19  1  0  0  0
 19 20  1  0  0  0
 21 22  2  0  0  0
 21 23  2  0  0  0
 21 24  1  0  0  0
 24 25  1  0  0  0
 24 26  1  0  0  0
 24 27  1  0  0  0
 28 29  1  0  0  0
 28 36  2  0  0  0
 29 30  1  0  0  0
 29 31  2  0  0  0
 31 32  1  0  0  0
 31 38  1  0  0  0
 32 33  1  0  0  0
 32 34  2  0  0  0
 34 35  1  0  0  0
 34 36  1  0  0  0
 36 37  1  0  0  0
 38 39  1  0  0  0
 38 40  1  0  0  0
M  END
>  <ACTIVITY>
5.23

>  <SET>
1

>  <Min_dist>
999.9

>  <Avg_dist>
999.9

$$$$
3-33
  Cerius2 12110214053D 1   1.00000                          
Structure written by Cerius2 SD Exporter
 40 42  0  0  0  0  0  0  0  0999 V2000
   26.4060   22.1310   16.4600 C   0  0  0  0  0  0
   25.4690   21.4590   17.2550 N   0  0  0  0  0  0
   26.1990   20.8820   18.2790 C   0  0  0  0  0  0
   25.7410   20.2730   19.0460 H   0  0  0  0  0  0
   27.5000   21.3240   18.1600 C   0  0  0  0  0  0
   27.6030   22.1180   17.0320 N   0  0  0  0  0  0
   28.6680   21.0430   19.0610 C   0  0  0  0  0  0
   28.3580   20.1910   20.0810 F   0  0  0  0  0  0
   29.1560   22.1770   19.6440 F   0  0  0  0  0  0
   29.7130   20.4740   18.3920 F   0  0  0  0  0  0
   24.0480   21.3730   17.1210 C   0  0  0  0  0  0
   23.3430   22.2580   16.2910 C   0  0  0  0  0  0
   23.8360   23.0590   15.7480 H   0  0  0  0  0  0
   21.9510   22.1710   16.1790 C   0  0  0  0  0  0
   21.4240   22.8680   15.5300 H   0  0  0  0  0  0
   21.2540   21.2080   16.9110 C   0  0  0  0  0  0
   21.9390   20.3250   17.7460 C   0  0  0  0  0  0
   21.4070   19.5650   18.3140 H   0  0  0  0  0  0
   23.3310   20.4140   17.8570 C   0  0  0  0  0  0
   23.8310   19.6960   18.5040 H   0  0  0  0  0  0
   19.4870   21.0860   16.7510 S   0  0  0  0  0  0
   18.9610   22.4320   16.5420 O   0  0  0  0  0  0
   18.9880   20.3130   17.8840 O   0  0  0  0  0  0
   19.2630   20.1450   15.2650 C   0  0  0  0  0  0
   18.1910   20.0270   15.0970 H   0  0  0  0  0  0
   19.7290   19.1650   15.3910 H   0  0  0  0  0  0
   19.7130   20.6850   14.4310 H   0  0  0  0  0  0
   26.1810   22.7110   15.1310 C   0  0  0  0  0  0
   26.4420   24.0720   14.9150 C   0  0  0  0  0  0
   26.7880   24.6860   15.7440 H   0  0  0  0  0  0
   26.2550   24.6270   13.6410 C   0  0  0  0  0  0
   25.8190   23.8310   12.5740 C   0  0  0  0  0  0
   25.6680   24.2460   11.5810 H   0  0  0  0  0  0
   25.5790   22.4720   12.7840 C   0  0  0  0  0  0
   25.2490   21.8440   11.9580 H   0  0  0  0  0  0
   25.7660   21.9150   14.0520 C   0  0  0  0  0  0
   25.5870   20.8490   14.1870 H   0  0  0  0  0  0
   26.5210   26.0540   13.4220 N   0  3  0  0  0  0
   26.4330   26.5010   12.2630 O   0  0  0  0  0  0
   26.8230   26.7560   14.4060 O   0  5  0  0  0  0
  1  2  1  0  0  0
  1  6  2  0  0  0
  1 28  1  0  0  0
  2  3  1  0  0  0
  2 11  1  0  0  0
  3  4  1  0  0  0
  3  5  2  0  0  0
  5  6  1  0  0  0
  5  7  1  0  0  0
  7  8  1  0  0  0
  7  9  1  0  0  0
  7 10  1  0  0  0
 11 12  1  0  0  0
 11 19  2  0  0  0
 12 13  1  0  0  0
 12 14  2  0  0  0
 14 15  1  0  0  0
 14 16  1  0  0  0
 16 17  2  0  0  0
 16 21  1  0  0  0
 17 18  1  0  0  0
 17 19  1  0  0  0
 19 20  1  0  0  0
 21 22  2  0  0  0
 21 23  2  0  0  0
 21 24  1  0  0  0
 24 25  1  0  0  0
 24 26  1  0  0  0
 24 27  1  0  0  0
 28 29  1  0  0  0
 28 36  2  0  0  0
 29 30  1  0  0  0
 29 31  2  0  0  0
 31 32  1  0  0  0
 31 38  1  0  0  0
 32 33  1  0  0  0
 32 34  2  0  0  0
 34 35  1  0  0  0
 34 36  1  0  0  0
 36 37  1  0  0  0
 38 39  2  0  0  0
 38 40  1  0  0  0
M  CHG  2  38   1  40  -1
M  END
>  <ACTIVITY>
6.24

>  <SET>
2

>  <Min_dist>
0.1

>  <Avg_dist>
0.48

$$$$
3-38
  Cerius2 12110214053D 1   1.00000                          
Structure written by Cerius2 SD Exporter
 38 40  0  0  0  0  0  0  0  0999 V2000
   26.4210   22.1290   16.4660 C   0  0  0  0  0  0
   25.4730   21.4800   17.2680 N   0  0  0  0  0  0
   26.1960   20.9030   18.2980 C   0  0  0  0  0  0
   25.7270   20.3290   19.0850 H   0  0  0  0  0  0
   27.5150   21.2740   18.1420 C   0  0  0  0  0  0
   27.6340   22.0370   16.9960 N   0  0  0  0  0  0
   28.6880   20.9480   19.0200 C   0  0  0  0  0  0
   28.3430   20.2030   20.1110 F   0  0  0  0  0  0
   29.3020   22.0680   19.5020 F   0  0  0  0  0  0
   29.6480   20.2360   18.3600 F   0  0  0  0  0  0
   24.0510   21.3940   17.1240 C   0  0  0  0  0  0
   23.3430   22.2690   16.2880 C   0  0  0  0  0  0
   23.8260   23.0740   15.7440 H   0  0  0  0  0  0
   21.9510   22.1720   16.1680 C   0  0  0  0  0  0
   21.4240   22.8640   15.5140 H   0  0  0  0  0  0
   21.2560   21.2060   16.8960 C   0  0  0  0  0  0
   21.9420   20.3310   17.7360 C   0  0  0  0  0  0
   21.4120   19.5670   18.3030 H   0  0  0  0  0  0
   23.3330   20.4300   17.8550 C   0  0  0  0  0  0
   23.8310   19.7130   18.5050 H   0  0  0  0  0  0
   19.4910   21.0720   16.7240 S   0  0  0  0  0  0
   18.9580   22.4120   16.4960 O   0  0  0  0  0  0
   18.9880   20.3090   17.8620 O   0  0  0  0  0  0
   19.2830   20.1130   15.2470 C   0  0  0  0  0  0
   18.2130   19.9880   15.0720 H   0  0  0  0  0  0
   19.7520   19.1370   15.3880 H   0  0  0  0  0  0
   19.7380   20.6460   14.4100 H   0  0  0  0  0  0
   26.1860   22.7350   15.1510 C   0  0  0  0  0  0
   26.4260   24.0960   14.8990 C   0  0  0  0  0  0
   26.2120   24.6270   13.6220 C   0  0  0  0  0  0
   26.3880   25.6830   13.4270 H   0  0  0  0  0  0
   25.7670   23.8070   12.5860 C   0  0  0  0  0  0
   25.6020   24.2240   11.5940 H   0  0  0  0  0  0
   25.5360   22.4540   12.8200 C   0  0  0  0  0  0
   25.1920   21.8110   12.0110 H   0  0  0  0  0  0
   25.7480   21.9190   14.0930 C   0  0  0  0  0  0
   25.5710   20.8560   14.2530 H   0  0  0  0  0  0
   26.9480   25.1840   16.1410 Cl  0  0  0  0  0  0
  1  2  1  0  0  0
  1  6  2  0  0  0
  1 28  1  0  0  0
  2  3  1  0  0  0
  2 11  1  0  0  0
  3  4  1  0  0  0
  3  5  2  0  0  0
  5  6  1  0  0  0
  5  7  1  0  0  0
  7  8  1  0  0  0
  7  9  1  0  0  0
  7 10  1  0  0  0
 11 12  1  0  0  0
 11 19  2  0  0  0
 12 13  1  0  0  0
 12 14  2  0  0  0
 14 15  1  0  0  0
 14 16  1  0  0  0
 16 17  2  0  0  0
 16 21  1  0  0  0
 17 18  1  0  0  0
 17 19  1  0  0  0
 19 20  1  0  0  0
 21 22  2  0  0  0
 21 23  2  0  0  0
 21 24  1  0  0  0
 24 25  1  0  0  0
 24 26  1  0  0  0
 24 27  1  0  0  0
 28 29  1  0  0  0
 28 36  2  0  0  0
 29 30  2  0  0  0
 29 38  1  0  0  0
 30 31  1  0  0  0
 30 32  1  0  0  0
 32 33  1  0  0  0
 32 34  2  0  0  0
 34 35  1  0  0  0
 34 36  1  0  0  0
 36 37  1  0  0  0
M  END
>  <ACTIVITY>
6.05

>  <SET>
1

>  <Min_dist>
999.9

>  <Avg_dist>
999.9

$$$$
3-40
  Cerius2 12110214053D 1   1.00000                          
Structure written by Cerius2 SD Exporter
 41 43  0  0  0  0  0  0  0  0999 V2000
   26.4180   22.1310   16.4680 C   0  0  0  0  0  0
   25.4740   21.4680   17.2620 N   0  0  0  0  0  0
   26.1990   20.8860   18.2880 C   0  0  0  0  0  0
   25.7350   20.2930   19.0630 H   0  0  0  0  0  0
   27.5110   21.2880   18.1510 C   0  0  0  0  0  0
   27.6250   22.0700   17.0160 N   0  0  0  0  0  0
   28.6820   20.9760   19.0370 C   0  0  0  0  0  0
   28.3300   20.2660   20.1490 F   0  0  0  0  0  0
   29.3070   22.1030   19.4850 F   0  0  0  0  0  0
   29.6330   20.2360   18.3950 F   0  0  0  0  0  0
   24.0520   21.3830   17.1210 C   0  0  0  0  0  0
   23.3470   22.2640   16.2870 C   0  0  0  0  0  0
   23.8360   23.0650   15.7420 H   0  0  0  0  0  0
   21.9550   22.1730   16.1690 C   0  0  0  0  0  0
   21.4300   22.8690   15.5180 H   0  0  0  0  0  0
   21.2570   21.2100   16.8980 C   0  0  0  0  0  0
   21.9410   20.3290   17.7360 C   0  0  0  0  0  0
   21.4080   19.5680   18.3020 H   0  0  0  0  0  0
   23.3320   20.4220   17.8530 C   0  0  0  0  0  0
   23.8290   19.7030   18.5010 H   0  0  0  0  0  0
   19.4910   21.0840   16.7310 S   0  0  0  0  0  0
   18.9640   22.4260   16.5030 O   0  0  0  0  0  0
   18.9860   20.3250   17.8710 O   0  0  0  0  0  0
   19.2760   20.1230   15.2570 C   0  0  0  0  0  0
   18.2040   20.0030   15.0850 H   0  0  0  0  0  0
   19.7410   19.1460   15.3980 H   0  0  0  0  0  0
   19.7290   20.6530   14.4180 H   0  0  0  0  0  0
   26.1840   22.7350   15.1480 C   0  0  0  0  0  0
   26.4250   24.1050   14.9080 C   0  0  0  0  0  0
   26.2150   24.6220   13.6180 C   0  0  0  0  0  0
   26.3960   25.6760   13.4110 H   0  0  0  0  0  0
   25.7700   23.7990   12.5820 C   0  0  0  0  0  0
   25.6100   24.2150   11.5890 H   0  0  0  0  0  0
   25.5400   22.4480   12.8160 C   0  0  0  0  0  0
   25.2000   21.8040   12.0080 H   0  0  0  0  0  0
   25.7510   21.9170   14.0890 C   0  0  0  0  0  0
   25.5770   20.8530   14.2500 H   0  0  0  0  0  0
   26.9130   25.0270   15.9930 C   0  0  0  0  0  0
   27.9510   24.7930   16.2490 H   0  0  0  0  0  0
   26.2860   24.9400   16.8860 H   0  0  0  0  0  0
   26.8740   26.0750   15.6750 H   0  0  0  0  0  0
  1  2  1  0  0  0
  1  6  2  0  0  0
  1 28  1  0  0  0
  2  3  1  0  0  0
  2 11  1  0  0  0
  3  4  1  0  0  0
  3  5  2  0  0  0
  5  6  1  0  0  0
  5  7  1  0  0  0
  7  8  1  0  0  0
  7  9  1  0  0  0
  7 10  1  0  0  0
 11 12  1  0  0  0
 11 19  2  0  0  0
 12 13  1  0  0  0
 12 14  2  0  0  0
 14 15  1  0  0  0
 14 16  1  0  0  0
 16 17  2  0  0  0
 16 21  1  0  0  0
 17 18  1  0  0  0
 17 19  1  0  0  0
 19 20  1  0  0  0
 21 22  2  0  0  0
 21 23  2  0  0  0
 21 24  1  0  0  0
 24 25  1  0  0  0
 24 26  1  0  0  0
 24 27  1  0  0  0
 28 29  1  0  0  0
 28 36  2  0  0  0
 29 30  2  0  0  0
 29 38  1  0  0  0
 30 31  1  0  0  0
 30 32  1  0  0  0
 32 33  1  0  0  0
 32 34  2  0  0  0
 34 35  1  0  0  0
 34 36  1  0  0  0
 36 37  1  0  0  0
 38 39  1  0  0  0
 38 40  1  0  0  0
 38 41  1  0  0  0
M  END
>  <ACTIVITY>
6.1

>  <SET>
1

>  <Min_dist>
999.9

>  <Avg_dist>
999.9

$$$$
3-41
  Cerius2 12110214053D 1   1.00000                          
Structure written by Cerius2 SD Exporter
 42 44  0  0  0  0  0  0  0  0999 V2000
   26.4200   22.1330   16.4660 C   0  0  0  0  0  0
   25.4710   21.4800   17.2650 N   0  0  0  0  0  0
   26.1930   20.9020   18.2940 C   0  0  0  0  0  0
   25.7240   20.3240   19.0790 H   0  0  0  0  0  0
   27.5120   21.2760   18.1440 C   0  0  0  0  0  0
   27.6320   22.0430   17.0000 N   0  0  0  0  0  0
   28.6830   20.9470   19.0230 C   0  0  0  0  0  0
   28.3220   20.2750   20.1550 F   0  0  0  0  0  0
   29.3510   22.0630   19.4380 F   0  0  0  0  0  0
   29.6010   20.1620   18.3870 F   0  0  0  0  0  0
   24.0490   21.3920   17.1200 C   0  0  0  0  0  0
   23.3400   22.2670   16.2840 C   0  0  0  0  0  0
   23.8250   23.0710   15.7390 H   0  0  0  0  0  0
   21.9480   22.1710   16.1660 C   0  0  0  0  0  0
   21.4200   22.8630   15.5130 H   0  0  0  0  0  0
   21.2530   21.2070   16.8970 C   0  0  0  0  0  0
   21.9410   20.3290   17.7340 C   0  0  0  0  0  0
   21.4100   19.5650   18.3000 H   0  0  0  0  0  0
   23.3320   20.4280   17.8510 C   0  0  0  0  0  0
   23.8310   19.7090   18.4980 H   0  0  0  0  0  0
   19.4870   21.0700   16.7370 S   0  0  0  0  0  0
   18.9510   22.4150   16.5490 O   0  0  0  0  0  0
   18.9930   20.2770   17.8590 O   0  0  0  0  0  0
   19.2690   20.1450   15.2410 C   0  0  0  0  0  0
   18.1970   20.0190   15.0740 H   0  0  0  0  0  0
   19.7440   19.1680   15.3530 H   0  0  0  0  0  0
   19.7110   20.6990   14.4110 H   0  0  0  0  0  0
   26.1860   22.7360   15.1470 C   0  0  0  0  0  0
   26.4350   24.1050   14.9090 C   0  0  0  0  0  0
   26.2230   24.6260   13.6270 C   0  0  0  0  0  0
   26.3860   25.6760   13.3980 H   0  0  0  0  0  0
   25.7820   23.8000   12.5890 C   0  0  0  0  0  0
   25.6200   24.2180   11.5960 H   0  0  0  0  0  0
   25.5490   22.4480   12.8180 C   0  0  0  0  0  0
   25.2110   21.8070   12.0060 H   0  0  0  0  0  0
   25.7540   21.9160   14.0890 C   0  0  0  0  0  0
   25.5790   20.8530   14.2520 H   0  0  0  0  0  0
   26.8460   24.8490   15.9870 O   0  0  0  0  0  0
   27.0690   26.2410   15.7760 C   0  0  0  0  0  0
   27.4570   26.6600   16.7090 H   0  0  0  0  0  0
   26.1320   26.7570   15.5430 H   0  0  0  0  0  0
   27.8210   26.4080   14.9980 H   0  0  0  0  0  0
  1  2  1  0  0  0
  1  6  2  0  0  0
  1 28  1  0  0  0
  2  3  1  0  0  0
  2 11  1  0  0  0
  3  4  1  0  0  0
  3  5  2  0  0  0
  5  6  1  0  0  0
  5  7  1  0  0  0
  7  8  1  0  0  0
  7  9  1  0  0  0
  7 10  1  0  0  0
 11 12  1  0  0  0
 11 19  2  0  0  0
 12 13  1  0  0  0
 12 14  2  0  0  0
 14 15  1  0  0  0
 14 16  1  0  0  0
 16 17  2  0  0  0
 16 21  1  0  0  0
 17 18  1  0  0  0
 17 19  1  0  0  0
 19 20  1  0  0  0
 21 22  2  0  0  0
 21 23  2  0  0  0
 21 24  1  0  0  0
 24 25  1  0  0  0
 24 26  1  0  0  0
 24 27  1  0  0  0
 28 29  1  0  0  0
 28 36  2  0  0  0
 29 30  2  0  0  0
 29 38  1  0  0  0
 30 31  1  0  0  0
 30 32  1  0  0  0
 32 33  1  0  0  0
 32 34  2  0  0  0
 34 35  1  0  0  0
 34 36  1  0  0  0
 36 37  1  0  0  0
 38 39  1  0  0  0
 39 40  1  0  0  0
 39 41  1  0  0  0
 39 42  1  0  0  0
M  END
>  <ACTIVITY>
4

>  <SET>
3

>  <Min_dist>
0.06

>  <Avg_dist>
0.46

$$$$
3-42
  Cerius2 12110214053D 1   1.00000                          
Structure written by Cerius2 SD Exporter
 37 39  0  0  0  0  0  0  0  0999 V2000
   26.4130   22.1310   16.4620 C   0  0  0  0  0  0
   25.4720   21.4700   17.2620 N   0  0  0  0  0  0
   26.2000   20.8940   18.2880 C   0  0  0  0  0  0
   25.7370   20.3000   19.0650 H   0  0  0  0  0  0
   27.5100   21.3030   18.1510 C   0  0  0  0  0  0
   27.6190   22.0830   17.0140 N   0  0  0  0  0  0
   28.6810   21.0000   19.0400 C   0  0  0  0  0  0
   28.3660   20.1510   20.0610 F   0  0  0  0  0  0
   29.1940   22.1240   19.6210 F   0  0  0  0  0  0
   29.7100   20.4150   18.3600 F   0  0  0  0  0  0
   24.0500   21.3840   17.1240 C   0  0  0  0  0  0
   23.3450   22.2650   16.2920 C   0  0  0  0  0  0
   23.8320   23.0690   15.7490 H   0  0  0  0  0  0
   21.9520   22.1720   16.1760 C   0  0  0  0  0  0
   21.4200   22.8660   15.5290 H   0  0  0  0  0  0
   21.2550   21.2060   16.9050 C   0  0  0  0  0  0
   21.9420   20.3280   17.7440 C   0  0  0  0  0  0
   21.4100   19.5680   18.3120 H   0  0  0  0  0  0
   23.3340   20.4240   17.8590 C   0  0  0  0  0  0
   23.8330   19.7070   18.5080 H   0  0  0  0  0  0
   19.4970   21.0820   16.7270 S   0  0  0  0  0  0
   18.9460   22.3930   16.4310 O   0  0  0  0  0  0
   18.9670   20.2890   17.8220 O   0  0  0  0  0  0
   19.3480   20.1680   15.3310 N   0  0  0  0  0  0
   18.8740   20.6960   14.5940 H   0  0  0  0  0  0
   18.8720   19.2820   15.5200 H   0  0  0  0  0  0
   26.1790   22.7110   15.1380 C   0  0  0  0  0  0
   26.4300   24.0670   14.9020 C   0  0  0  0  0  0
   26.2330   24.6290   13.6420 C   0  0  0  0  0  0
   26.4260   25.6870   13.4860 H   0  0  0  0  0  0
   25.7880   23.8300   12.5900 C   0  0  0  0  0  0
   25.6330   24.2630   11.6040 H   0  0  0  0  0  0
   25.5480   22.4720   12.8030 C   0  0  0  0  0  0
   25.2070   21.8450   11.9800 H   0  0  0  0  0  0
   25.7470   21.9130   14.0680 C   0  0  0  0  0  0
   25.5640   20.8480   14.2100 H   0  0  0  0  0  0
   26.8490   24.8640   15.8980 F   0  0  0  0  0  0
  1  2  1  0  0  0
  1  6  2  0  0  0
  1 27  1  0  0  0
  2  3  1  0  0  0
  2 11  1  0  0  0
  3  4  1  0  0  0
  3  5  2  0  0  0
  5  6  1  0  0  0
  5  7  1  0  0  0
  7  8  1  0  0  0
  7  9  1  0  0  0
  7 10  1  0  0  0
 11 12  1  0  0  0
 11 19  2  0  0  0
 12 13  1  0  0  0
 12 14  2  0  0  0
 14 15  1  0  0  0
 14 16  1  0  0  0
 16 17  2  0  0  0
 16 21  1  0  0  0
 17 18  1  0  0  0
 17 19  1  0  0  0
 19 20  1  0  0  0
 21 22  2  0  0  0
 21 23  2  0  0  0
 21 24  1  0  0  0
 24 25  1  0  0  0
 24 26  1  0  0  0
 27 28  1  0  0  0
 27 35  2  0  0  0
 28 29  2  0  0  0
 28 37  1  0  0  0
 29 30  1  0  0  0
 29 31  1  0  0  0
 31 32  1  0  0  0
 31 33  2  0  0  0
 33 34  1  0  0  0
 33 35  1  0  0  0
 35 36  1  0  0  0
M  END
>  <ACTIVITY>
7

>  <SET>
1

>  <Min_dist>
999.9

>  <Avg_dist>
999.9

$$$$
3-43
  Cerius2 12110214053D 1   1.00000                          
Structure written by Cerius2 SD Exporter
 40 42  0  0  0  0  0  0  0  0999 V2000
   26.4180   22.1300   16.4670 C   0  0  0  0  0  0
   25.4740   21.4680   17.2630 N   0  0  0  0  0  0
   26.1990   20.8870   18.2880 C   0  0  0  0  0  0
   25.7350   20.2950   19.0650 H   0  0  0  0  0  0
   27.5120   21.2880   18.1500 C   0  0  0  0  0  0
   27.6240   22.0690   17.0150 N   0  0  0  0  0  0
   28.6830   20.9750   19.0340 C   0  0  0  0  0  0
   28.3300   20.2730   20.1510 F   0  0  0  0  0  0
   29.3160   22.1010   19.4750 F   0  0  0  0  0  0
   29.6280   20.2260   18.3950 F   0  0  0  0  0  0
   24.0510   21.3830   17.1210 C   0  0  0  0  0  0
   23.3460   22.2630   16.2880 C   0  0  0  0  0  0
   23.8340   23.0650   15.7430 H   0  0  0  0  0  0
   21.9540   22.1720   16.1730 C   0  0  0  0  0  0
   21.4240   22.8680   15.5250 H   0  0  0  0  0  0
   21.2550   21.2080   16.9010 C   0  0  0  0  0  0
   21.9410   20.3290   17.7390 C   0  0  0  0  0  0
   21.4080   19.5690   18.3070 H   0  0  0  0  0  0
   23.3330   20.4220   17.8540 C   0  0  0  0  0  0
   23.8300   19.7030   18.5030 H   0  0  0  0  0  0
   19.4970   21.0860   16.7260 S   0  0  0  0  0  0
   18.9470   22.3980   16.4310 O   0  0  0  0  0  0
   18.9660   20.2940   17.8210 O   0  0  0  0  0  0
   19.3460   20.1710   15.3310 N   0  0  0  0  0  0
   18.8690   20.6980   14.5950 H   0  0  0  0  0  0
   18.8730   19.2840   15.5210 H   0  0  0  0  0  0
   26.1830   22.7350   15.1480 C   0  0  0  0  0  0
   26.4230   24.1050   14.9080 C   0  0  0  0  0  0
   26.2140   24.6220   13.6190 C   0  0  0  0  0  0
   26.3960   25.6770   13.4120 H   0  0  0  0  0  0
   25.7710   23.8000   12.5820 C   0  0  0  0  0  0
   25.6110   24.2160   11.5890 H   0  0  0  0  0  0
   25.5400   22.4480   12.8160 C   0  0  0  0  0  0
   25.2010   21.8050   12.0060 H   0  0  0  0  0  0
   25.7500   21.9170   14.0890 C   0  0  0  0  0  0
   25.5760   20.8530   14.2490 H   0  0  0  0  0  0
   26.9100   25.0270   15.9950 C   0  0  0  0  0  0
   27.9480   24.7940   16.2520 H   0  0  0  0  0  0
   26.2820   24.9380   16.8870 H   0  0  0  0  0  0
   26.8700   26.0740   15.6770 H   0  0  0  0  0  0
  1  2  1  0  0  0
  1  6  2  0  0  0
  1 27  1  0  0  0
  2  3  1  0  0  0
  2 11  1  0  0  0
  3  4  1  0  0  0
  3  5  2  0  0  0
  5  6  1  0  0  0
  5  7  1  0  0  0
  7  8  1  0  0  0
  7  9  1  0  0  0
  7 10  1  0  0  0
 11 12  1  0  0  0
 11 19  2  0  0  0
 12 13  1  0  0  0
 12 14  2  0  0  0
 14 15  1  0  0  0
 14 16  1  0  0  0
 16 17  2  0  0  0
 16 21  1  0  0  0
 17 18  1  0  0  0
 17 19  1  0  0  0
 19 20  1  0  0  0
 21 22  2  0  0  0
 21 23  2  0  0  0
 21 24  1  0  0  0
 24 25  1  0  0  0
 24 26  1  0  0  0
 27 28  1  0  0  0
 27 35  2  0  0  0
 28 29  2  0  0  0
 28 37  1  0  0  0
 29 30  1  0  0  0
 29 31  1  0  0  0
 31 32  1  0  0  0
 31 33  2  0  0  0
 33 34  1  0  0  0
 33 35  1  0  0  0
 35 36  1  0  0  0
 37 38  1  0  0  0
 37 39  1  0  0  0
 37 40  1  0  0  0
M  END
>  <ACTIVITY>
6.7

>  <SET>
1

>  <Min_dist>
999.9

>  <Avg_dist>
999.9

$$$$
3-44
  Cerius2 12110214053D 1   1.00000                          
Structure written by Cerius2 SD Exporter
 42 44  0  0  0  0  0  0  0  0999 V2000
   26.4060   22.1310   16.4600 C   0  0  0  0  0  0
   25.4690   21.4590   17.2560 N   0  0  0  0  0  0
   26.1990   20.8830   18.2790 C   0  0  0  0  0  0
   25.7420   20.2730   19.0460 H   0  0  0  0  0  0
   27.5000   21.3260   18.1600 C   0  0  0  0  0  0
   27.6030   22.1190   17.0310 N   0  0  0  0  0  0
   28.6680   21.0470   19.0610 C   0  0  0  0  0  0
   28.3550   20.2060   20.0900 F   0  0  0  0  0  0
   29.1640   22.1830   19.6320 F   0  0  0  0  0  0
   29.7080   20.4640   18.3950 F   0  0  0  0  0  0
   24.0480   21.3740   17.1210 C   0  0  0  0  0  0
   23.3440   22.2590   16.2910 C   0  0  0  0  0  0
   23.8380   23.0600   15.7480 H   0  0  0  0  0  0
   21.9520   22.1720   16.1780 C   0  0  0  0  0  0
   21.4250   22.8690   15.5300 H   0  0  0  0  0  0
   21.2550   21.2090   16.9100 C   0  0  0  0  0  0
   21.9400   20.3260   17.7460 C   0  0  0  0  0  0
   21.4070   19.5660   18.3140 H   0  0  0  0  0  0
   23.3320   20.4160   17.8580 C   0  0  0  0  0  0
   23.8320   19.6980   18.5050 H   0  0  0  0  0  0
   19.4890   21.0860   16.7490 S   0  0  0  0  0  0
   18.9610   22.4310   16.5410 O   0  0  0  0  0  0
   18.9890   20.3120   17.8810 O   0  0  0  0  0  0
   19.2660   20.1450   15.2620 C   0  0  0  0  0  0
   18.1940   20.0270   15.0940 H   0  0  0  0  0  0
   19.7320   19.1660   15.3880 H   0  0  0  0  0  0
   19.7160   20.6860   14.4280 H   0  0  0  0  0  0
   26.1800   22.7080   15.1300 C   0  0  0  0  0  0
   26.4400   24.0650   14.9100 C   0  0  0  0  0  0
   26.7870   24.7010   15.7200 H   0  0  0  0  0  0
   26.2530   24.6230   13.6450 C   0  0  0  0  0  0
   25.8180   23.8450   12.5690 C   0  0  0  0  0  0
   25.5780   22.4850   12.7850 C   0  0  0  0  0  0
   25.2470   21.8520   11.9630 H   0  0  0  0  0  0
   25.7640   21.9180   14.0510 C   0  0  0  0  0  0
   25.5830   20.8510   14.1810 H   0  0  0  0  0  0
   25.5930   24.2570   11.2830 O   0  0  0  0  0  0
   25.8170   25.6340   10.9920 C   0  0  0  0  0  0
   25.5780   25.7920    9.9350 H   0  0  0  0  0  0
   26.8690   25.9000   11.1370 H   0  0  0  0  0  0
   25.1530   26.2750   11.5810 H   0  0  0  0  0  0
   26.5120   25.9320   13.5030 F   0  0  0  0  0  0
  1  2  1  0  0  0
  1  6  2  0  0  0
  1 28  1  0  0  0
  2  3  1  0  0  0
  2 11  1  0  0  0
  3  4  1  0  0  0
  3  5  2  0  0  0
  5  6  1  0  0  0
  5  7  1  0  0  0
  7  8  1  0  0  0
  7  9  1  0  0  0
  7 10  1  0  0  0
 11 12  1  0  0  0
 11 19  2  0  0  0
 12 13  1  0  0  0
 12 14  2  0  0  0
 14 15  1  0  0  0
 14 16  1  0  0  0
 16 17  2  0  0  0
 16 21  1  0  0  0
 17 18  1  0  0  0
 17 19  1  0  0  0
 19 20  1  0  0  0
 21 22  2  0  0  0
 21 23  2  0  0  0
 21 24  1  0  0  0
 24 25  1  0  0  0
 24 26  1  0  0  0
 24 27  1  0  0  0
 28 29  1  0  0  0
 28 35  2  0  0  0
 29 30  1  0  0  0
 29 31  2  0  0  0
 31 32  1  0  0  0
 31 42  1  0  0  0
 32 33  2  0  0  0
 32 37  1  0  0  0
 33 34  1  0  0  0
 33 35  1  0  0  0
 35 36  1  0  0  0
 37 38  1  0  0  0
 38 39  1  0  0  0
 38 40  1  0  0  0
 38 41  1  0  0  0
M  END
>  <ACTIVITY>
6.82

>  <SET>
1

>  <Min_dist>
999.9

>  <Avg_dist>
999.9

$$$$
3-46
  Cerius2 12110214053D 1   1.00000                          
Structure written by Cerius2 SD Exporter
 42 44  0  0  0  0  0  0  0  0999 V2000
   26.4060   22.1310   16.4600 C   0  0  0  0  0  0
   25.4690   21.4590   17.2550 N   0  0  0  0  0  0
   26.1990   20.8830   18.2790 C   0  0  0  0  0  0
   25.7410   20.2730   19.0460 H   0  0  0  0  0  0
   27.5000   21.3280   18.1620 C   0  0  0  0  0  0
   27.6020   22.1200   17.0320 N   0  0  0  0  0  0
   28.6670   21.0500   19.0630 C   0  0  0  0  0  0
   28.3450   20.2380   20.1120 F   0  0  0  0  0  0
   29.1850   22.1900   19.6070 F   0  0  0  0  0  0
   29.6940   20.4360   18.4050 F   0  0  0  0  0  0
   24.0480   21.3730   17.1200 C   0  0  0  0  0  0
   23.3430   22.2580   16.2910 C   0  0  0  0  0  0
   23.8360   23.0590   15.7480 H   0  0  0  0  0  0
   21.9510   22.1700   16.1790 C   0  0  0  0  0  0
   21.4230   22.8680   15.5310 H   0  0  0  0  0  0
   21.2540   21.2070   16.9110 C   0  0  0  0  0  0
   21.9400   20.3240   17.7450 C   0  0  0  0  0  0
   21.4070   19.5640   18.3140 H   0  0  0  0  0  0
   23.3320   20.4140   17.8570 C   0  0  0  0  0  0
   23.8320   19.6960   18.5030 H   0  0  0  0  0  0
   19.4870   21.0870   16.7520 S   0  0  0  0  0  0
   18.9610   22.4330   16.5430 O   0  0  0  0  0  0
   18.9880   20.3140   17.8850 O   0  0  0  0  0  0
   19.2610   20.1450   15.2660 C   0  0  0  0  0  0
   18.1880   20.0310   15.0980 H   0  0  0  0  0  0
   19.7230   19.1650   15.3920 H   0  0  0  0  0  0
   19.7130   20.6840   14.4320 H   0  0  0  0  0  0
   26.1810   22.7070   15.1300 C   0  0  0  0  0  0
   26.4390   24.0650   14.9090 C   0  0  0  0  0  0
   26.7830   24.6870   15.7350 H   0  0  0  0  0  0
   26.2560   24.6310   13.6420 C   0  0  0  0  0  0
   25.8260   23.8380   12.5650 C   0  0  0  0  0  0
   25.5800   22.4760   12.7860 C   0  0  0  0  0  0
   25.2480   21.8330   11.9720 H   0  0  0  0  0  0
   25.7650   21.9140   14.0530 C   0  0  0  0  0  0
   25.5830   20.8480   14.1860 H   0  0  0  0  0  0
   25.5590   24.4680   10.9090 S   0  0  0  0  0  0
   25.0260   22.9240   10.1190 C   0  0  0  0  0  0
   24.8090   23.1170    9.0650 H   0  0  0  0  0  0
   24.1190   22.5430   10.5970 H   0  0  0  0  0  0
   25.8120   22.1670   10.1790 H   0  0  0  0  0  0
   26.5810   26.3230   13.4730 Cl  0  0  0  0  0  0
  1  2  1  0  0  0
  1  6  2  0  0  0
  1 28  1  0  0  0
  2  3  1  0  0  0
  2 11  1  0  0  0
  3  4  1  0  0  0
  3  5  2  0  0  0
  5  6  1  0  0  0
  5  7  1  0  0  0
  7  8  1  0  0  0
  7  9  1  0  0  0
  7 10  1  0  0  0
 11 12  1  0  0  0
 11 19  2  0  0  0
 12 13  1  0  0  0
 12 14  2  0  0  0
 14 15  1  0  0  0
 14 16  1  0  0  0
 16 17  2  0  0  0
 16 21  1  0  0  0
 17 18  1  0  0  0
 17 19  1  0  0  0
 19 20  1  0  0  0
 21 22  2  0  0  0
 21 23  2  0  0  0
 21 24  1  0  0  0
 24 25  1  0  0  0
 24 26  1  0  0  0
 24 27  1  0  0  0
 28 29  1  0  0  0
 28 35  2  0  0  0
 29 30  1  0  0  0
 29 31  2  0  0  0
 31 32  1  0  0  0
 31 42  1  0  0  0
 32 33  2  0  0  0
 32 37  1  0  0  0
 33 34  1  0  0  0
 33 35  1  0  0  0
 35 36  1  0  0  0
 37 38  1  0  0  0
 38 39  1  0  0  0
 38 40  1  0  0  0
 38 41  1  0  0  0
M  END
>  <ACTIVITY>
7.4

>  <SET>
1

>  <Min_dist>
999.9

>  <Avg_dist>
999.9

$$$$
3-47
  Cerius2 12110214053D 1   1.00000                          
Structure written by Cerius2 SD Exporter
 46 48  0  0  0  0  0  0  0  0999 V2000
   26.4060   22.1300   16.4600 C   0  0  0  0  0  0
   25.4690   21.4590   17.2560 N   0  0  0  0  0  0
   26.1990   20.8820   18.2800 C   0  0  0  0  0  0
   25.7420   20.2730   19.0470 H   0  0  0  0  0  0
   27.5010   21.3220   18.1590 C   0  0  0  0  0  0
   27.6040   22.1160   17.0300 N   0  0  0  0  0  0
   28.6700   21.0390   19.0580 C   0  0  0  0  0  0
   28.3610   20.1830   20.0760 F   0  0  0  0  0  0
   29.1580   22.1710   19.6440 F   0  0  0  0  0  0
   29.7150   20.4720   18.3860 F   0  0  0  0  0  0
   24.0480   21.3750   17.1220 C   0  0  0  0  0  0
   23.3430   22.2590   16.2920 C   0  0  0  0  0  0
   23.8360   23.0600   15.7490 H   0  0  0  0  0  0
   21.9510   22.1710   16.1800 C   0  0  0  0  0  0
   21.4240   22.8680   15.5310 H   0  0  0  0  0  0
   21.2540   21.2080   16.9110 C   0  0  0  0  0  0
   21.9390   20.3260   17.7470 C   0  0  0  0  0  0
   21.4070   19.5660   18.3150 H   0  0  0  0  0  0
   23.3310   20.4160   17.8590 C   0  0  0  0  0  0
   23.8310   19.6980   18.5060 H   0  0  0  0  0  0
   19.4880   21.0850   16.7470 S   0  0  0  0  0  0
   18.9610   22.4290   16.5320 O   0  0  0  0  0  0
   18.9870   20.3170   17.8830 O   0  0  0  0  0  0
   19.2660   20.1370   15.2660 C   0  0  0  0  0  0
   18.1930   20.0220   15.0950 H   0  0  0  0  0  0
   19.7280   19.1570   15.3970 H   0  0  0  0  0  0
   19.7200   20.6720   14.4300 H   0  0  0  0  0  0
   26.1800   22.7090   15.1310 C   0  0  0  0  0  0
   26.4420   24.0640   14.9090 C   0  0  0  0  0  0
   26.7970   24.6850   15.7290 H   0  0  0  0  0  0
   26.2530   24.6260   13.6400 C   0  0  0  0  0  0
   25.8090   23.8480   12.5470 C   0  0  0  0  0  0
   25.5770   22.4830   12.7850 C   0  0  0  0  0  0
   25.2270   21.8320   11.9860 H   0  0  0  0  0  0
   25.7650   21.9190   14.0540 C   0  0  0  0  0  0
   25.5810   20.8540   14.1850 H   0  0  0  0  0  0
   25.5910   24.4030   11.2800 N   0  0  0  0  0  0
   26.4500   23.9760   10.1750 C   0  0  0  0  0  0
   26.3700   24.6850    9.3440 H   0  0  0  0  0  0
   26.1610   22.9870    9.8030 H   0  0  0  0  0  0
   27.5020   23.9520   10.4810 H   0  0  0  0  0  0
   24.1860   24.6530   10.9440 C   0  0  0  0  0  0
   24.1180   25.2760   10.0460 H   0  0  0  0  0  0
   23.6540   25.1770   11.7440 H   0  0  0  0  0  0
   23.6660   23.7090   10.7440 H   0  0  0  0  0  0
   26.6460   26.3060   13.4530 Cl  0  0  0  0  0  0
  1  2  1  0  0  0
  1  6  2  0  0  0
  1 28  1  0  0  0
  2  3  1  0  0  0
  2 11  1  0  0  0
  3  4  1  0  0  0
  3  5  2  0  0  0
  5  6  1  0  0  0
  5  7  1  0  0  0
  7  8  1  0  0  0
  7  9  1  0  0  0
  7 10  1  0  0  0
 11 12  1  0  0  0
 11 19  2  0  0  0
 12 13  1  0  0  0
 12 14  2  0  0  0
 14 15  1  0  0  0
 14 16  1  0  0  0
 16 17  2  0  0  0
 16 21  1  0  0  0
 17 18  1  0  0  0
 17 19  1  0  0  0
 19 20  1  0  0  0
 21 22  2  0  0  0
 21 23  2  0  0  0
 21 24  1  0  0  0
 24 25  1  0  0  0
 24 26  1  0  0  0
 24 27  1  0  0  0
 28 29  1  0  0  0
 28 35  2  0  0  0
 29 30  1  0  0  0
 29 31  2  0  0  0
 31 32  1  0  0  0
 31 46  1  0  0  0
 32 33  2  0  0  0
 32 37  1  0  0  0
 33 34  1  0  0  0
 33 35  1  0  0  0
 35 36  1  0  0  0
 37 38  1  0  0  0
 37 42  1  0  0  0
 38 39  1  0  0  0
 38 40  1  0  0  0
 38 41  1  0  0  0
 42 43  1  0  0  0
 42 44  1  0  0  0
 42 45  1  0  0  0
M  END
>  <ACTIVITY>
6.49

>  <SET>
1

>  <Min_dist>
999.9

>  <Avg_dist>
999.9

$$$$
3-49
  Cerius2 12110214053D 1   1.00000                          
Structure written by Cerius2 SD Exporter
 43 45  0  0  0  0  0  0  0  0999 V2000
   26.4050   22.1310   16.4600 C   0  0  0  0  0  0
   25.4680   21.4590   17.2540 N   0  0  0  0  0  0
   26.1970   20.8840   18.2800 C   0  0  0  0  0  0
   25.7390   20.2750   19.0470 H   0  0  0  0  0  0
   27.4980   21.3260   18.1620 C   0  0  0  0  0  0
   27.6020   22.1180   17.0320 N   0  0  0  0  0  0
   28.6660   21.0460   19.0630 C   0  0  0  0  0  0
   28.3500   20.2090   20.0940 F   0  0  0  0  0  0
   29.1640   22.1820   19.6310 F   0  0  0  0  0  0
   29.7040   20.4590   18.3990 F   0  0  0  0  0  0
   24.0470   21.3720   17.1190 C   0  0  0  0  0  0
   23.3410   22.2570   16.2910 C   0  0  0  0  0  0
   23.8330   23.0580   15.7470 H   0  0  0  0  0  0
   21.9480   22.1690   16.1800 C   0  0  0  0  0  0
   21.4200   22.8660   15.5320 H   0  0  0  0  0  0
   21.2530   21.2060   16.9130 C   0  0  0  0  0  0
   21.9390   20.3230   17.7470 C   0  0  0  0  0  0
   21.4080   19.5630   18.3160 H   0  0  0  0  0  0
   23.3310   20.4130   17.8560 C   0  0  0  0  0  0
   23.8320   19.6940   18.5020 H   0  0  0  0  0  0
   19.4860   21.0860   16.7550 S   0  0  0  0  0  0
   18.9590   22.4320   16.5470 O   0  0  0  0  0  0
   18.9880   20.3140   17.8890 O   0  0  0  0  0  0
   19.2580   20.1450   15.2700 C   0  0  0  0  0  0
   18.1850   20.0310   15.1020 H   0  0  0  0  0  0
   19.7210   19.1640   15.3950 H   0  0  0  0  0  0
   19.7100   20.6840   14.4350 H   0  0  0  0  0  0
   26.1820   22.7100   15.1300 C   0  0  0  0  0  0
   26.4420   24.0660   14.9110 C   0  0  0  0  0  0
   26.7860   24.6910   15.7330 H   0  0  0  0  0  0
   26.2590   24.6230   13.6400 C   0  0  0  0  0  0
   25.8220   23.8490   12.5440 C   0  0  0  0  0  0
   25.5880   22.4880   12.7800 C   0  0  0  0  0  0
   25.2610   21.8300   11.9770 H   0  0  0  0  0  0
   25.7710   21.9220   14.0500 C   0  0  0  0  0  0
   25.5900   20.8560   14.1780 H   0  0  0  0  0  0
   25.6470   24.4230   11.2960 N   0  0  0  0  0  0
   25.8330   25.4230   11.2040 H   0  0  0  0  0  0
   25.1990   23.7200   10.1130 C   0  0  0  0  0  0
   25.1490   24.4170    9.2710 H   0  0  0  0  0  0
   24.1990   23.3000   10.2600 H   0  0  0  0  0  0
   25.8950   22.9200    9.8430 H   0  0  0  0  0  0
   26.5880   26.3160   13.4470 Cl  0  0  0  0  0  0
  1  2  1  0  0  0
  1  6  2  0  0  0
  1 28  1  0  0  0
  2  3  1  0  0  0
  2 11  1  0  0  0
  3  4  1  0  0  0
  3  5  2  0  0  0
  5  6  1  0  0  0
  5  7  1  0  0  0
  7  8  1  0  0  0
  7  9  1  0  0  0
  7 10  1  0  0  0
 11 12  1  0  0  0
 11 19  2  0  0  0
 12 13  1  0  0  0
 12 14  2  0  0  0
 14 15  1  0  0  0
 14 16  1  0  0  0
 16 17  2  0  0  0
 16 21  1  0  0  0
 17 18  1  0  0  0
 17 19  1  0  0  0
 19 20  1  0  0  0
 21 22  2  0  0  0
 21 23  2  0  0  0
 21 24  1  0  0  0
 24 25  1  0  0  0
 24 26  1  0  0  0
 24 27  1  0  0  0
 28 29  1  0  0  0
 28 35  2  0  0  0
 29 30  1  0  0  0
 29 31  2  0  0  0
 31 32  1  0  0  0
 31 43  1  0  0  0
 32 33  2  0  0  0
 32 37  1  0  0  0
 33 34  1  0  0  0
 33 35  1  0  0  0
 35 36  1  0  0  0
 37 38  1  0  0  0
 37 39  1  0  0  0
 39 40  1  0  0  0
 39 41  1  0  0  0
 39 42  1  0  0  0
M  END
>  <ACTIVITY>
6.18

>  <SET>
2

>  <Min_dist>
0.05

>  <Avg_dist>
0.46

$$$$
3-5
  Cerius2 12110214053D 1   1.00000                          
Structure written by Cerius2 SD Exporter
 38 40  0  0  0  0  0  0  0  0999 V2000
   26.4090   22.1300   16.4600 C   0  0  0  0  0  0
   25.4690   21.4610   17.2560 N   0  0  0  0  0  0
   26.1990   20.8890   18.2820 C   0  0  0  0  0  0
   25.7420   20.2840   19.0530 H   0  0  0  0  0  0
   27.4930   21.3300   18.1480 C   0  0  0  0  0  0
   27.6070   22.1110   17.0310 N   0  0  0  0  0  0
   28.6610   21.0690   19.0180 C   0  0  0  0  0  0
   28.9490   21.9820   19.5470 H   0  0  0  0  0  0
   29.5130   20.7320   18.4200 H   0  0  0  0  0  0
   28.4390   20.2970   19.7610 H   0  0  0  0  0  0
   24.0470   21.3750   17.1200 C   0  0  0  0  0  0
   23.3420   22.2590   16.2910 C   0  0  0  0  0  0
   23.8350   23.0610   15.7470 H   0  0  0  0  0  0
   21.9500   22.1710   16.1780 C   0  0  0  0  0  0
   21.4220   22.8680   15.5290 H   0  0  0  0  0  0
   21.2540   21.2080   16.9100 C   0  0  0  0  0  0
   21.9390   20.3260   17.7450 C   0  0  0  0  0  0
   21.4070   19.5650   18.3130 H   0  0  0  0  0  0
   23.3310   20.4160   17.8570 C   0  0  0  0  0  0
   23.8320   19.6980   18.5040 H   0  0  0  0  0  0
   19.4870   21.0840   16.7490 S   0  0  0  0  0  0
   18.9590   22.4290   16.5440 O   0  0  0  0  0  0
   18.9880   20.3070   17.8800 O   0  0  0  0  0  0
   19.2640   20.1460   15.2610 C   0  0  0  0  0  0
   18.1920   20.0270   15.0930 H   0  0  0  0  0  0
   19.7310   19.1670   15.3840 H   0  0  0  0  0  0
   19.7130   20.6890   14.4280 H   0  0  0  0  0  0
   26.1830   22.7070   15.1300 C   0  0  0  0  0  0
   26.4430   24.0680   14.9090 C   0  0  0  0  0  0
   26.7930   24.6980   15.7250 H   0  0  0  0  0  0
   26.2530   24.6320   13.6430 C   0  0  0  0  0  0
   26.4520   25.6900   13.4920 H   0  0  0  0  0  0
   25.8140   23.8340   12.5890 C   0  0  0  0  0  0
   25.5700   22.4760   12.7870 C   0  0  0  0  0  0
   25.2360   21.8480   11.9650 H   0  0  0  0  0  0
   25.7610   21.9130   14.0530 C   0  0  0  0  0  0
   25.5790   20.8480   14.1880 H   0  0  0  0  0  0
   25.5790   24.5270   11.0310 Cl  0  0  0  0  0  0
  1  2  1  0  0  0
  1  6  2  0  0  0
  1 28  1  0  0  0
  2  3  1  0  0  0
  2 11  1  0  0  0
  3  4  1  0  0  0
  3  5  2  0  0  0
  5  6  1  0  0  0
  5  7  1  0  0  0
  7  8  1  0  0  0
  7  9  1  0  0  0
  7 10  1  0  0  0
 11 12  1  0  0  0
 11 19  2  0  0  0
 12 13  1  0  0  0
 12 14  2  0  0  0
 14 15  1  0  0  0
 14 16  1  0  0  0
 16 17  2  0  0  0
 16 21  1  0  0  0
 17 18  1  0  0  0
 17 19  1  0  0  0
 19 20  1  0  0  0
 21 22  2  0  0  0
 21 23  2  0  0  0
 21 24  1  0  0  0
 24 25  1  0  0  0
 24 26  1  0  0  0
 24 27  1  0  0  0
 28 29  1  0  0  0
 28 36  2  0  0  0
 29 30  1  0  0  0
 29 31  2  0  0  0
 31 32  1  0  0  0
 31 33  1  0  0  0
 33 34  2  0  0  0
 33 38  1  0  0  0
 34 35  1  0  0  0
 34 36  1  0  0  0
 36 37  1  0  0  0
M  END
>  <ACTIVITY>
6.62

>  <SET>
1

>  <Min_dist>
999.9

>  <Avg_dist>
999.9

$$$$
3-50
  Cerius2 12110214053D 1   1.00000                          
Structure written by Cerius2 SD Exporter
 41 43  0  0  0  0  0  0  0  0999 V2000
   26.4070   22.1300   16.4590 C   0  0  0  0  0  0
   25.4690   21.4590   17.2560 N   0  0  0  0  0  0
   26.1980   20.8850   18.2810 C   0  0  0  0  0  0
   25.7400   20.2770   19.0490 H   0  0  0  0  0  0
   27.5000   21.3260   18.1620 C   0  0  0  0  0  0
   27.6040   22.1170   17.0310 N   0  0  0  0  0  0
   28.6680   21.0470   19.0620 C   0  0  0  0  0  0
   28.3510   20.2150   20.0980 F   0  0  0  0  0  0
   29.1710   22.1840   19.6250 F   0  0  0  0  0  0
   29.7030   20.4540   18.3990 F   0  0  0  0  0  0
   24.0480   21.3740   17.1200 C   0  0  0  0  0  0
   23.3440   22.2580   16.2910 C   0  0  0  0  0  0
   23.8370   23.0590   15.7470 H   0  0  0  0  0  0
   21.9510   22.1710   16.1780 C   0  0  0  0  0  0
   21.4240   22.8690   15.5300 H   0  0  0  0  0  0
   21.2550   21.2080   16.9100 C   0  0  0  0  0  0
   21.9400   20.3250   17.7450 C   0  0  0  0  0  0
   21.4070   19.5650   18.3130 H   0  0  0  0  0  0
   23.3320   20.4150   17.8570 C   0  0  0  0  0  0
   23.8310   19.6970   18.5040 H   0  0  0  0  0  0
   19.4880   21.0860   16.7500 S   0  0  0  0  0  0
   18.9600   22.4310   16.5450 O   0  0  0  0  0  0
   18.9890   20.3100   17.8810 O   0  0  0  0  0  0
   19.2640   20.1470   15.2630 C   0  0  0  0  0  0
   18.1910   20.0290   15.0950 H   0  0  0  0  0  0
   19.7300   19.1680   15.3860 H   0  0  0  0  0  0
   19.7130   20.6890   14.4290 H   0  0  0  0  0  0
   26.1810   22.7070   15.1300 C   0  0  0  0  0  0
   26.4420   24.0650   14.9090 C   0  0  0  0  0  0
   26.7900   24.6860   15.7330 H   0  0  0  0  0  0
   26.2540   24.6280   13.6430 C   0  0  0  0  0  0
   25.8130   23.8430   12.5680 C   0  0  0  0  0  0
   25.5750   22.4780   12.7870 C   0  0  0  0  0  0
   25.2430   21.8370   11.9720 H   0  0  0  0  0  0
   25.7640   21.9150   14.0530 C   0  0  0  0  0  0
   25.5830   20.8490   14.1860 H   0  0  0  0  0  0
   25.6020   24.4170   11.1950 C   0  0  0  0  0  0
   24.8550   25.2170   11.2260 H   0  0  0  0  0  0
   25.2380   23.6580   10.4940 H   0  0  0  0  0  0
   26.5430   24.8080   10.7960 H   0  0  0  0  0  0
   26.5850   26.3140   13.4520 Cl  0  0  0  0  0  0
  1  2  1  0  0  0
  1  6  2  0  0  0
  1 28  1  0  0  0
  2  3  1  0  0  0
  2 11  1  0  0  0
  3  4  1  0  0  0
  3  5  2  0  0  0
  5  6  1  0  0  0
  5  7  1  0  0  0
  7  8  1  0  0  0
  7  9  1  0  0  0
  7 10  1  0  0  0
 11 12  1  0  0  0
 11 19  2  0  0  0
 12 13  1  0  0  0
 12 14  2  0  0  0
 14 15  1  0  0  0
 14 16  1  0  0  0
 16 17  2  0  0  0
 16 21  1  0  0  0
 17 18  1  0  0  0
 17 19  1  0  0  0
 19 20  1  0  0  0
 21 22  2  0  0  0
 21 23  2  0  0  0
 21 24  1  0  0  0
 24 25  1  0  0  0
 24 26  1  0  0  0
 24 27  1  0  0  0
 28 29  1  0  0  0
 28 35  2  0  0  0
 29 30  1  0  0  0
 29 31  2  0  0  0
 31 32  1  0  0  0
 31 41  1  0  0  0
 32 33  2  0  0  0
 32 37  1  0  0  0
 33 34  1  0  0  0
 33 35  1  0  0  0
 35 36  1  0  0  0
 37 38  1  0  0  0
 37 39  1  0  0  0
 37 40  1  0  0  0
M  END
>  <ACTIVITY>
7.52

>  <SET>
1

>  <Min_dist>
999.9

>  <Avg_dist>
999.9

$$$$
3-52
  Cerius2 12110214053D 1   1.00000                          
Structure written by Cerius2 SD Exporter
 41 43  0  0  0  0  0  0  0  0999 V2000
   26.4080   22.1290   16.4600 C   0  0  0  0  0  0
   25.4700   21.4600   17.2570 N   0  0  0  0  0  0
   26.1990   20.8870   18.2840 C   0  0  0  0  0  0
   25.7400   20.2820   19.0540 H   0  0  0  0  0  0
   27.5010   21.3270   18.1630 C   0  0  0  0  0  0
   27.6050   22.1140   17.0300 N   0  0  0  0  0  0
   28.6690   21.0480   19.0640 C   0  0  0  0  0  0
   28.3560   20.2050   20.0910 F   0  0  0  0  0  0
   29.1620   22.1840   19.6370 F   0  0  0  0  0  0
   29.7100   20.4690   18.3980 F   0  0  0  0  0  0
   24.0490   21.3740   17.1210 C   0  0  0  0  0  0
   23.3450   22.2580   16.2910 C   0  0  0  0  0  0
   23.8380   23.0600   15.7480 H   0  0  0  0  0  0
   21.9520   22.1710   16.1770 C   0  0  0  0  0  0
   21.4260   22.8680   15.5280 H   0  0  0  0  0  0
   21.2560   21.2080   16.9080 C   0  0  0  0  0  0
   21.9400   20.3250   17.7440 C   0  0  0  0  0  0
   21.4070   19.5650   18.3110 H   0  0  0  0  0  0
   23.3320   20.4150   17.8560 C   0  0  0  0  0  0
   23.8310   19.6960   18.5030 H   0  0  0  0  0  0
   19.4890   21.0870   16.7480 S   0  0  0  0  0  0
   18.9630   22.4320   16.5360 O   0  0  0  0  0  0
   18.9880   20.3170   17.8830 O   0  0  0  0  0  0
   19.2650   20.1410   15.2650 C   0  0  0  0  0  0
   18.1920   20.0240   15.0970 H   0  0  0  0  0  0
   19.7300   19.1620   15.3930 H   0  0  0  0  0  0
   19.7150   20.6790   14.4290 H   0  0  0  0  0  0
   26.1800   22.7040   15.1300 C   0  0  0  0  0  0
   26.4370   24.0680   14.9090 C   0  0  0  0  0  0
   26.7790   24.6890   15.7370 H   0  0  0  0  0  0
   26.2530   24.6400   13.6420 C   0  0  0  0  0  0
   25.7990   23.8280   12.6000 C   0  0  0  0  0  0
   25.5600   22.4710   12.7940 C   0  0  0  0  0  0
   25.2200   21.8580   11.9640 H   0  0  0  0  0  0
   25.7580   21.9070   14.0550 C   0  0  0  0  0  0
   25.5790   20.8420   14.1910 H   0  0  0  0  0  0
   25.5940   24.3540   11.3840 F   0  0  0  0  0  0
   26.4850   26.1040   13.4190 C   0  0  0  0  0  0
   26.9390   26.2800   12.4390 H   0  0  0  0  0  0
   27.1680   26.5140   14.1710 H   0  0  0  0  0  0
   25.5360   26.6460   13.4770 H   0  0  0  0  0  0
  1  2  1  0  0  0
  1  6  2  0  0  0
  1 28  1  0  0  0
  2  3  1  0  0  0
  2 11  1  0  0  0
  3  4  1  0  0  0
  3  5  2  0  0  0
  5  6  1  0  0  0
  5  7  1  0  0  0
  7  8  1  0  0  0
  7  9  1  0  0  0
  7 10  1  0  0  0
 11 12  1  0  0  0
 11 19  2  0  0  0
 12 13  1  0  0  0
 12 14  2  0  0  0
 14 15  1  0  0  0
 14 16  1  0  0  0
 16 17  2  0  0  0
 16 21  1  0  0  0
 17 18  1  0  0  0
 17 19  1  0  0  0
 19 20  1  0  0  0
 21 22  2  0  0  0
 21 23  2  0  0  0
 21 24  1  0  0  0
 24 25  1  0  0  0
 24 26  1  0  0  0
 24 27  1  0  0  0
 28 29  1  0  0  0
 28 35  2  0  0  0
 29 30  1  0  0  0
 29 31  2  0  0  0
 31 32  1  0  0  0
 31 38  1  0  0  0
 32 33  2  0  0  0
 32 37  1  0  0  0
 33 34  1  0  0  0
 33 35  1  0  0  0
 35 36  1  0  0  0
 38 39  1  0  0  0
 38 40  1  0  0  0
 38 41  1  0  0  0
M  END
>  <ACTIVITY>
6.77

>  <SET>
1

>  <Min_dist>
999.9

>  <Avg_dist>
999.9

$$$$
3-54
  Cerius2 12110214053D 1   1.00000                          
Structure written by Cerius2 SD Exporter
 42 44  0  0  0  0  0  0  0  0999 V2000
   26.4070   22.1270   16.4580 C   0  0  0  0  0  0
   25.4700   21.4610   17.2580 N   0  0  0  0  0  0
   26.2000   20.8890   18.2840 C   0  0  0  0  0  0
   25.7420   20.2860   19.0560 H   0  0  0  0  0  0
   27.5030   21.3250   18.1590 C   0  0  0  0  0  0
   27.6060   22.1120   17.0260 N   0  0  0  0  0  0
   28.6720   21.0440   19.0580 C   0  0  0  0  0  0
   28.3600   20.2010   20.0850 F   0  0  0  0  0  0
   29.1690   22.1790   19.6310 F   0  0  0  0  0  0
   29.7110   20.4630   18.3890 F   0  0  0  0  0  0
   24.0490   21.3760   17.1230 C   0  0  0  0  0  0
   23.3440   22.2600   16.2930 C   0  0  0  0  0  0
   23.8370   23.0620   15.7510 H   0  0  0  0  0  0
   21.9520   22.1710   16.1790 C   0  0  0  0  0  0
   21.4250   22.8670   15.5290 H   0  0  0  0  0  0
   21.2550   21.2070   16.9090 C   0  0  0  0  0  0
   21.9400   20.3260   17.7460 C   0  0  0  0  0  0
   21.4080   19.5650   18.3140 H   0  0  0  0  0  0
   23.3320   20.4170   17.8600 C   0  0  0  0  0  0
   23.8320   19.6990   18.5070 H   0  0  0  0  0  0
   19.4890   21.0850   16.7440 S   0  0  0  0  0  0
   18.9630   22.4270   16.5160 O   0  0  0  0  0  0
   18.9860   20.3260   17.8840 O   0  0  0  0  0  0
   19.2700   20.1260   15.2680 C   0  0  0  0  0  0
   18.1980   20.0080   15.0970 H   0  0  0  0  0  0
   19.7330   19.1470   15.4080 H   0  0  0  0  0  0
   19.7250   20.6550   14.4290 H   0  0  0  0  0  0
   26.1790   22.7030   15.1270 C   0  0  0  0  0  0
   26.4420   24.0670   14.9080 C   0  0  0  0  0  0
   26.7910   24.6580   15.7510 H   0  0  0  0  0  0
   26.2540   24.6420   13.6450 C   0  0  0  0  0  0
   25.8110   23.8270   12.5900 C   0  0  0  0  0  0
   25.5670   22.4670   12.7930 C   0  0  0  0  0  0
   25.2320   21.8360   11.9730 H   0  0  0  0  0  0
   25.7580   21.9050   14.0560 C   0  0  0  0  0  0
   25.5760   20.8400   14.1930 H   0  0  0  0  0  0
   25.5560   24.4680   11.0030 Cl  0  0  0  0  0  0
   26.4770   25.9640   13.3520 O   0  0  0  0  0  0
   26.9090   26.8090   14.4160 C   0  0  0  0  0  0
   27.0280   27.8190   14.0110 H   0  0  0  0  0  0
   27.8820   26.4880   14.8020 H   0  0  0  0  0  0
   26.1590   26.8550   15.2110 H   0  0  0  0  0  0
  1  2  1  0  0  0
  1  6  2  0  0  0
  1 28  1  0  0  0
  2  3  1  0  0  0
  2 11  1  0  0  0
  3  4  1  0  0  0
  3  5  2  0  0  0
  5  6  1  0  0  0
  5  7  1  0  0  0
  7  8  1  0  0  0
  7  9  1  0  0  0
  7 10  1  0  0  0
 11 12  1  0  0  0
 11 19  2  0  0  0
 12 13  1  0  0  0
 12 14  2  0  0  0
 14 15  1  0  0  0
 14 16  1  0  0  0
 16 17  2  0  0  0
 16 21  1  0  0  0
 17 18  1  0  0  0
 17 19  1  0  0  0
 19 20  1  0  0  0
 21 22  2  0  0  0
 21 23  2  0  0  0
 21 24  1  0  0  0
 24 25  1  0  0  0
 24 26  1  0  0  0
 24 27  1  0  0  0
 28 29  1  0  0  0
 28 35  2  0  0  0
 29 30  1  0  0  0
 29 31  2  0  0  0
 31 32  1  0  0  0
 31 38  1  0  0  0
 32 33  2  0  0  0
 32 37  1  0  0  0
 33 34  1  0  0  0
 33 35  1  0  0  0
 35 36  1  0  0  0
 38 39  1  0  0  0
 39 40  1  0  0  0
 39 41  1  0  0  0
 39 42  1  0  0  0
M  END
>  <ACTIVITY>
6.6

>  <SET>
1

>  <Min_dist>
999.9

>  <Avg_dist>
999.9

$$$$
3-55
  Cerius2 12110214053D 1   1.00000                          
Structure written by Cerius2 SD Exporter
 46 48  0  0  0  0  0  0  0  0999 V2000
   26.4070   22.1260   16.4590 C   0  0  0  0  0  0
   25.4700   21.4600   17.2580 N   0  0  0  0  0  0
   26.1980   20.8890   18.2850 C   0  0  0  0  0  0
   25.7390   20.2850   19.0560 H   0  0  0  0  0  0
   27.5010   21.3270   18.1630 C   0  0  0  0  0  0
   27.6050   22.1140   17.0290 N   0  0  0  0  0  0
   28.6680   21.0490   19.0650 C   0  0  0  0  0  0
   28.3770   20.1440   20.0450 F   0  0  0  0  0  0
   29.1080   22.1740   19.7010 F   0  0  0  0  0  0
   29.7400   20.5460   18.3860 F   0  0  0  0  0  0
   24.0490   21.3750   17.1220 C   0  0  0  0  0  0
   23.3450   22.2590   16.2920 C   0  0  0  0  0  0
   23.8380   23.0610   15.7490 H   0  0  0  0  0  0
   21.9520   22.1720   16.1780 C   0  0  0  0  0  0
   21.4260   22.8690   15.5290 H   0  0  0  0  0  0
   21.2560   21.2080   16.9090 C   0  0  0  0  0  0
   21.9400   20.3260   17.7450 C   0  0  0  0  0  0
   21.4070   19.5660   18.3130 H   0  0  0  0  0  0
   23.3320   20.4160   17.8590 C   0  0  0  0  0  0
   23.8310   19.6980   18.5060 H   0  0  0  0  0  0
   19.4890   21.0840   16.7460 S   0  0  0  0  0  0
   18.9610   22.4290   16.5390 O   0  0  0  0  0  0
   18.9890   20.3080   17.8770 O   0  0  0  0  0  0
   19.2680   20.1440   15.2590 C   0  0  0  0  0  0
   18.1960   20.0240   15.0900 H   0  0  0  0  0  0
   19.7360   19.1660   15.3840 H   0  0  0  0  0  0
   19.7180   20.6860   14.4260 H   0  0  0  0  0  0
   26.1810   22.6970   15.1260 C   0  0  0  0  0  0
   26.4420   24.0600   14.9000 C   0  0  0  0  0  0
   26.7750   24.6660   15.7420 H   0  0  0  0  0  0
   26.2570   24.6560   13.6390 C   0  0  0  0  0  0
   25.8110   23.8230   12.5880 C   0  0  0  0  0  0
   25.5670   22.4610   12.7960 C   0  0  0  0  0  0
   25.2390   21.8270   11.9750 H   0  0  0  0  0  0
   25.7560   21.8990   14.0580 C   0  0  0  0  0  0
   25.5750   20.8350   14.1950 H   0  0  0  0  0  0
   25.6080   24.4270   10.9750 Cl  0  0  0  0  0  0
   26.4910   26.0260   13.4500 N   0  0  0  0  0  0
   25.5810   26.9160   14.1750 C   0  0  0  0  0  0
   25.6910   27.9440   13.8130 H   0  0  0  0  0  0
   25.8080   26.9070   15.2480 H   0  0  0  0  0  0
   24.5310   26.6370   14.0430 H   0  0  0  0  0  0
   27.8730   26.4840   13.3180 C   0  0  0  0  0  0
   27.8930   27.4920   12.8900 H   0  0  0  0  0  0
   28.4410   25.8330   12.6430 H   0  0  0  0  0  0
   28.3770   26.5210   14.2900 H   0  0  0  0  0  0
  1  2  1  0  0  0
  1  6  2  0  0  0
  1 28  1  0  0  0
  2  3  1  0  0  0
  2 11  1  0  0  0
  3  4  1  0  0  0
  3  5  2  0  0  0
  5  6  1  0  0  0
  5  7  1  0  0  0
  7  8  1  0  0  0
  7  9  1  0  0  0
  7 10  1  0  0  0
 11 12  1  0  0  0
 11 19  2  0  0  0
 12 13  1  0  0  0
 12 14  2  0  0  0
 14 15  1  0  0  0
 14 16  1  0  0  0
 16 17  2  0  0  0
 16 21  1  0  0  0
 17 18  1  0  0  0
 17 19  1  0  0  0
 19 20  1  0  0  0
 21 22  2  0  0  0
 21 23  2  0  0  0
 21 24  1  0  0  0
 24 25  1  0  0  0
 24 26  1  0  0  0
 24 27  1  0  0  0
 28 29  1  0  0  0
 28 35  2  0  0  0
 29 30  1  0  0  0
 29 31  2  0  0  0
 31 32  1  0  0  0
 31 38  1  0  0  0
 32 33  2  0  0  0
 32 37  1  0  0  0
 33 34  1  0  0  0
 33 35  1  0  0  0
 35 36  1  0  0  0
 38 39  1  0  0  0
 38 43  1  0  0  0
 39 40  1  0  0  0
 39 41  1  0  0  0
 39 42  1  0  0  0
 43 44  1  0  0  0
 43 45  1  0  0  0
 43 46  1  0  0  0
M  END
>  <ACTIVITY>
5.98

>  <SET>
1

>  <Min_dist>
999.9

>  <Avg_dist>
999.9

$$$$
3-56
  Cerius2 12110214053D 1   1.00000                          
Structure written by Cerius2 SD Exporter
 41 44  0  0  0  0  0  0  0  0999 V2000
   26.4090   22.1360   16.4610 C   0  0  0  0  0  0
   25.4720   21.4610   17.2550 N   0  0  0  0  0  0
   26.2020   20.8820   18.2770 C   0  0  0  0  0  0
   25.7440   20.2710   19.0430 H   0  0  0  0  0  0
   27.5040   21.3220   18.1570 C   0  0  0  0  0  0
   27.6070   22.1180   17.0300 N   0  0  0  0  0  0
   28.6730   21.0380   19.0550 C   0  0  0  0  0  0
   28.3650   20.1760   20.0680 F   0  0  0  0  0  0
   29.1570   22.1690   19.6470 F   0  0  0  0  0  0
   29.7200   20.4770   18.3820 F   0  0  0  0  0  0
   24.0510   21.3770   17.1190 C   0  0  0  0  0  0
   23.3470   22.2610   16.2900 C   0  0  0  0  0  0
   23.8400   23.0630   15.7470 H   0  0  0  0  0  0
   21.9540   22.1730   16.1760 C   0  0  0  0  0  0
   21.4280   22.8710   15.5270 H   0  0  0  0  0  0
   21.2570   21.2100   16.9060 C   0  0  0  0  0  0
   21.9420   20.3280   17.7420 C   0  0  0  0  0  0
   21.4090   19.5670   18.3100 H   0  0  0  0  0  0
   23.3340   20.4180   17.8550 C   0  0  0  0  0  0
   23.8330   19.6990   18.5030 H   0  0  0  0  0  0
   19.4910   21.0880   16.7440 S   0  0  0  0  0  0
   18.9650   22.4320   16.5230 O   0  0  0  0  0  0
   18.9890   20.3250   17.8810 O   0  0  0  0  0  0
   19.2690   20.1360   15.2640 C   0  0  0  0  0  0
   18.1970   20.0200   15.0940 H   0  0  0  0  0  0
   19.7320   19.1570   15.3990 H   0  0  0  0  0  0
   19.7230   20.6690   14.4270 H   0  0  0  0  0  0
   26.1810   22.7200   15.1340 C   0  0  0  0  0  0
   26.4430   24.0830   14.9250 C   0  0  0  0  0  0
   26.7910   24.7190   15.7340 H   0  0  0  0  0  0
   26.2410   24.5980   13.6610 C   0  0  0  0  0  0
   25.8090   23.8140   12.6180 C   0  0  0  0  0  0
   25.5590   22.4680   12.7770 C   0  0  0  0  0  0
   25.2270   21.8530   11.9470 H   0  0  0  0  0  0
   25.7550   21.9170   14.0490 C   0  0  0  0  0  0
   25.5770   20.8520   14.1910 H   0  0  0  0  0  0
   25.6760   24.5150   11.4610 O   0  0  0  0  0  0
   26.0710   25.8390   11.8920 C   0  0  0  0  0  0
   25.2370   26.5280   11.7190 H   0  0  0  0  0  0
   26.9300   26.1620   11.2930 H   0  0  0  0  0  0
   26.4350   25.8920   13.2910 O   0  0  0  0  0  0
  1  2  1  0  0  0
  1  6  2  0  0  0
  1 28  1  0  0  0
  2  3  1  0  0  0
  2 11  1  0  0  0
  3  4  1  0  0  0
  3  5  2  0  0  0
  5  6  1  0  0  0
  5  7  1  0  0  0
  7  8  1  0  0  0
  7  9  1  0  0  0
  7 10  1  0  0  0
 11 12  1  0  0  0
 11 19  2  0  0  0
 12 13  1  0  0  0
 12 14  2  0  0  0
 14 15  1  0  0  0
 14 16  1  0  0  0
 16 17  2  0  0  0
 16 21  1  0  0  0
 17 18  1  0  0  0
 17 19  1  0  0  0
 19 20  1  0  0  0
 21 22  2  0  0  0
 21 23  2  0  0  0
 21 24  1  0  0  0
 24 25  1  0  0  0
 24 26  1  0  0  0
 24 27  1  0  0  0
 28 29  1  0  0  0
 28 35  2  0  0  0
 29 30  1  0  0  0
 29 31  2  0  0  0
 31 32  1  0  0  0
 31 41  1  0  0  0
 32 33  2  0  0  0
 32 37  1  0  0  0
 33 34  1  0  0  0
 33 35  1  0  0  0
 35 36  1  0  0  0
 37 38  1  0  0  0
 38 39  1  0  0  0
 38 40  1  0  0  0
 38 41  1  0  0  0
M  END
>  <ACTIVITY>
6.77

>  <SET>
1

>  <Min_dist>
999.9

>  <Avg_dist>
999.9

$$$$
3-57
  Cerius2 12110214053D 1   1.00000                          
Structure written by Cerius2 SD Exporter
 38 40  0  0  0  0  0  0  0  0999 V2000
   26.4050   22.1330   16.4600 C   0  0  0  0  0  0
   25.4690   21.4590   17.2550 N   0  0  0  0  0  0
   26.1990   20.8820   18.2780 C   0  0  0  0  0  0
   25.7420   20.2710   19.0440 H   0  0  0  0  0  0
   27.5000   21.3260   18.1590 C   0  0  0  0  0  0
   27.6020   22.1200   17.0300 N   0  0  0  0  0  0
   28.6690   21.0450   19.0580 C   0  0  0  0  0  0
   28.3570   20.2050   20.0870 F   0  0  0  0  0  0
   29.1670   22.1810   19.6290 F   0  0  0  0  0  0
   29.7080   20.4620   18.3910 F   0  0  0  0  0  0
   24.0480   21.3740   17.1210 C   0  0  0  0  0  0
   23.3430   22.2590   16.2910 C   0  0  0  0  0  0
   23.8370   23.0610   15.7490 H   0  0  0  0  0  0
   21.9510   22.1720   16.1790 C   0  0  0  0  0  0
   21.4240   22.8690   15.5310 H   0  0  0  0  0  0
   21.2550   21.2090   16.9100 C   0  0  0  0  0  0
   21.9400   20.3260   17.7460 C   0  0  0  0  0  0
   21.4070   19.5660   18.3140 H   0  0  0  0  0  0
   23.3320   20.4160   17.8580 C   0  0  0  0  0  0
   23.8320   19.6980   18.5050 H   0  0  0  0  0  0
   19.4880   21.0850   16.7510 S   0  0  0  0  0  0
   18.9600   22.4300   16.5480 O   0  0  0  0  0  0
   18.9890   20.3070   17.8810 O   0  0  0  0  0  0
   19.2640   20.1480   15.2620 C   0  0  0  0  0  0
   18.1920   20.0300   15.0940 H   0  0  0  0  0  0
   19.7300   19.1690   15.3840 H   0  0  0  0  0  0
   19.7130   20.6920   14.4290 H   0  0  0  0  0  0
   26.1800   22.7110   15.1300 C   0  0  0  0  0  0
   26.4400   24.0720   14.9140 C   0  0  0  0  0  0
   26.7830   24.7090   15.7260 H   0  0  0  0  0  0
   26.2560   24.6210   13.6490 C   0  0  0  0  0  0
   25.8280   23.8290   12.5900 C   0  0  0  0  0  0
   25.5830   22.4750   12.7800 C   0  0  0  0  0  0
   25.2570   21.8590   11.9470 H   0  0  0  0  0  0
   25.7660   21.9140   14.0480 C   0  0  0  0  0  0
   25.5870   20.8480   14.1820 H   0  0  0  0  0  0
   25.6550   24.3690   11.3750 F   0  0  0  0  0  0
   26.5000   25.9250   13.4530 F   0  0  0  0  0  0
  1  2  1  0  0  0
  1  6  2  0  0  0
  1 28  1  0  0  0
  2  3  1  0  0  0
  2 11  1  0  0  0
  3  4  1  0  0  0
  3  5  2  0  0  0
  5  6  1  0  0  0
  5  7  1  0  0  0
  7  8  1  0  0  0
  7  9  1  0  0  0
  7 10  1  0  0  0
 11 12  1  0  0  0
 11 19  2  0  0  0
 12 13  1  0  0  0
 12 14  2  0  0  0
 14 15  1  0  0  0
 14 16  1  0  0  0
 16 17  2  0  0  0
 16 21  1  0  0  0
 17 18  1  0  0  0
 17 19  1  0  0  0
 19 20  1  0  0  0
 21 22  2  0  0  0
 21 23  2  0  0  0
 21 24  1  0  0  0
 24 25  1  0  0  0
 24 26  1  0  0  0
 24 27  1  0  0  0
 28 29  1  0  0  0
 28 35  2  0  0  0
 29 30  1  0  0  0
 29 31  2  0  0  0
 31 32  1  0  0  0
 31 38  1  0  0  0
 32 33  2  0  0  0
 32 37  1  0  0  0
 33 34  1  0  0  0
 33 35  1  0  0  0
 35 36  1  0  0  0
M  END
>  <ACTIVITY>
6.92

>  <SET>
1

>  <Min_dist>
999.9

>  <Avg_dist>
999.9

$$$$
3-58
  Cerius2 12110214053D 1   1.00000                          
Structure written by Cerius2 SD Exporter
 44 46  0  0  0  0  0  0  0  0999 V2000
   26.4090   22.1270   16.4590 C   0  0  0  0  0  0
   25.4710   21.4590   17.2570 N   0  0  0  0  0  0
   26.1980   20.8880   18.2850 C   0  0  0  0  0  0
   25.7390   20.2840   19.0550 H   0  0  0  0  0  0
   27.5010   21.3250   18.1640 C   0  0  0  0  0  0
   27.6070   22.1120   17.0310 N   0  0  0  0  0  0
   28.6680   21.0460   19.0660 C   0  0  0  0  0  0
   28.3570   20.1910   20.0840 F   0  0  0  0  0  0
   29.1500   22.1800   19.6540 F   0  0  0  0  0  0
   29.7160   20.4820   18.3990 F   0  0  0  0  0  0
   24.0490   21.3740   17.1220 C   0  0  0  0  0  0
   23.3450   22.2590   16.2920 C   0  0  0  0  0  0
   23.8380   23.0590   15.7480 H   0  0  0  0  0  0
   21.9520   22.1710   16.1780 C   0  0  0  0  0  0
   21.4260   22.8680   15.5290 H   0  0  0  0  0  0
   21.2550   21.2080   16.9090 C   0  0  0  0  0  0
   21.9400   20.3260   17.7450 C   0  0  0  0  0  0
   21.4070   19.5660   18.3130 H   0  0  0  0  0  0
   23.3320   20.4160   17.8580 C   0  0  0  0  0  0
   23.8310   19.6970   18.5050 H   0  0  0  0  0  0
   19.4890   21.0860   16.7440 S   0  0  0  0  0  0
   18.9630   22.4300   16.5250 O   0  0  0  0  0  0
   18.9870   20.3210   17.8810 O   0  0  0  0  0  0
   19.2690   20.1350   15.2640 C   0  0  0  0  0  0
   18.1960   20.0190   15.0930 H   0  0  0  0  0  0
   19.7310   19.1550   15.3990 H   0  0  0  0  0  0
   19.7230   20.6680   14.4280 H   0  0  0  0  0  0
   26.1820   22.7020   15.1290 C   0  0  0  0  0  0
   26.4420   24.0610   14.9040 C   0  0  0  0  0  0
   26.7960   24.6760   15.7320 H   0  0  0  0  0  0
   26.2500   24.6420   13.6380 C   0  0  0  0  0  0
   25.7980   23.8390   12.5720 C   0  0  0  0  0  0
   25.5610   22.4750   12.7950 C   0  0  0  0  0  0
   25.2220   21.8340   11.9810 H   0  0  0  0  0  0
   25.7570   21.9100   14.0570 C   0  0  0  0  0  0
   25.5740   20.8450   14.1920 H   0  0  0  0  0  0
   25.5760   24.4110   11.1970 C   0  0  0  0  0  0
   25.1930   23.6540   10.5050 H   0  0  0  0  0  0
   26.5180   24.7890   10.7870 H   0  0  0  0  0  0
   24.8420   25.2220   11.2360 H   0  0  0  0  0  0
   26.5320   26.1090   13.4510 C   0  0  0  0  0  0
   27.3010   26.2550   12.6870 H   0  0  0  0  0  0
   26.8950   26.5690   14.3760 H   0  0  0  0  0  0
   25.6190   26.6360   13.1570 H   0  0  0  0  0  0
  1  2  1  0  0  0
  1  6  2  0  0  0
  1 28  1  0  0  0
  2  3  1  0  0  0
  2 11  1  0  0  0
  3  4  1  0  0  0
  3  5  2  0  0  0
  5  6  1  0  0  0
  5  7  1  0  0  0
  7  8  1  0  0  0
  7  9  1  0  0  0
  7 10  1  0  0  0
 11 12  1  0  0  0
 11 19  2  0  0  0
 12 13  1  0  0  0
 12 14  2  0  0  0
 14 15  1  0  0  0
 14 16  1  0  0  0
 16 17  2  0  0  0
 16 21  1  0  0  0
 17 18  1  0  0  0
 17 19  1  0  0  0
 19 20  1  0  0  0
 21 22  2  0  0  0
 21 23  2  0  0  0
 21 24  1  0  0  0
 24 25  1  0  0  0
 24 26  1  0  0  0
 24 27  1  0  0  0
 28 29  1  0  0  0
 28 35  2  0  0  0
 29 30  1  0  0  0
 29 31  2  0  0  0
 31 32  1  0  0  0
 31 41  1  0  0  0
 32 33  2  0  0  0
 32 37  1  0  0  0
 33 34  1  0  0  0
 33 35  1  0  0  0
 35 36  1  0  0  0
 37 38  1  0  0  0
 37 39  1  0  0  0
 37 40  1  0  0  0
 41 42  1  0  0  0
 41 43  1  0  0  0
 41 44  1  0  0  0
M  END
>  <ACTIVITY>
6.48

>  <SET>
1

>  <Min_dist>
999.9

>  <Avg_dist>
999.9

$$$$
3-6
  Cerius2 12110214053D 1   1.00000                          
Structure written by Cerius2 SD Exporter
 38 40  0  0  0  0  0  0  0  0999 V2000
   26.4080   22.1300   16.4600 C   0  0  0  0  0  0
   25.4700   21.4600   17.2560 N   0  0  0  0  0  0
   26.1980   20.8850   18.2820 C   0  0  0  0  0  0
   25.7400   20.2780   19.0500 H   0  0  0  0  0  0
   27.5010   21.3250   18.1620 C   0  0  0  0  0  0
   27.6050   22.1150   17.0310 N   0  0  0  0  0  0
   28.6680   21.0440   19.0620 C   0  0  0  0  0  0
   28.3530   20.2040   20.0920 F   0  0  0  0  0  0
   29.1660   22.1790   19.6340 F   0  0  0  0  0  0
   29.7070   20.4600   18.3970 F   0  0  0  0  0  0
   24.0490   21.3750   17.1200 C   0  0  0  0  0  0
   23.3440   22.2590   16.2910 C   0  0  0  0  0  0
   23.8380   23.0600   15.7470 H   0  0  0  0  0  0
   21.9520   22.1720   16.1780 C   0  0  0  0  0  0
   21.4250   22.8690   15.5290 H   0  0  0  0  0  0
   21.2550   21.2090   16.9090 C   0  0  0  0  0  0
   21.9400   20.3260   17.7440 C   0  0  0  0  0  0
   21.4070   19.5660   18.3120 H   0  0  0  0  0  0
   23.3320   20.4160   17.8570 C   0  0  0  0  0  0
   23.8310   19.6970   18.5040 H   0  0  0  0  0  0
   19.4880   21.0850   16.7480 S   0  0  0  0  0  0
   18.9610   22.4310   16.5430 O   0  0  0  0  0  0
   18.9890   20.3100   17.8800 O   0  0  0  0  0  0
   19.2660   20.1460   15.2610 C   0  0  0  0  0  0
   18.1930   20.0290   15.0920 H   0  0  0  0  0  0
   19.7310   19.1670   15.3860 H   0  0  0  0  0  0
   19.7160   20.6880   14.4280 H   0  0  0  0  0  0
   26.1810   22.7070   15.1300 C   0  0  0  0  0  0
   26.4410   24.0670   14.9090 C   0  0  0  0  0  0
   26.7900   24.6990   15.7250 H   0  0  0  0  0  0
   26.2520   24.6310   13.6430 C   0  0  0  0  0  0
   26.4510   25.6890   13.4920 H   0  0  0  0  0  0
   25.8150   23.8320   12.5880 C   0  0  0  0  0  0
   25.5710   22.4750   12.7870 C   0  0  0  0  0  0
   25.2380   21.8460   11.9650 H   0  0  0  0  0  0
   25.7600   21.9120   14.0530 C   0  0  0  0  0  0
   25.5790   20.8470   14.1880 H   0  0  0  0  0  0
   25.5820   24.5240   11.0300 Cl  0  0  0  0  0  0
  1  2  1  0  0  0
  1  6  2  0  0  0
  1 28  1  0  0  0
  2  3  1  0  0  0
  2 11  1  0  0  0
  3  4  1  0  0  0
  3  5  2  0  0  0
  5  6  1  0  0  0
  5  7  1  0  0  0
  7  8  1  0  0  0
  7  9  1  0  0  0
  7 10  1  0  0  0
 11 12  1  0  0  0
 11 19  2  0  0  0
 12 13  1  0  0  0
 12 14  2  0  0  0
 14 15  1  0  0  0
 14 16  1  0  0  0
 16 17  2  0  0  0
 16 21  1  0  0  0
 17 18  1  0  0  0
 17 19  1  0  0  0
 19 20  1  0  0  0
 21 22  2  0  0  0
 21 23  2  0  0  0
 21 24  1  0  0  0
 24 25  1  0  0  0
 24 26  1  0  0  0
 24 27  1  0  0  0
 28 29  1  0  0  0
 28 36  2  0  0  0
 29 30  1  0  0  0
 29 31  2  0  0  0
 31 32  1  0  0  0
 31 33  1  0  0  0
 33 34  2  0  0  0
 33 38  1  0  0  0
 34 35  1  0  0  0
 34 36  1  0  0  0
 36 37  1  0  0  0
M  END
>  <ACTIVITY>
6.96

>  <SET>
1

>  <Min_dist>
999.9

>  <Avg_dist>
999.9

$$$$
3-61
  Cerius2 12110214053D 1   1.00000                          
Structure written by Cerius2 SD Exporter
 42 44  0  0  0  0  0  0  0  0999 V2000
   26.4070   22.1280   16.4590 C   0  0  0  0  0  0
   25.4700   21.4600   17.2590 N   0  0  0  0  0  0
   26.2000   20.8870   18.2840 C   0  0  0  0  0  0
   25.7420   20.2830   19.0550 H   0  0  0  0  0  0
   27.5030   21.3250   18.1600 C   0  0  0  0  0  0
   27.6060   22.1120   17.0260 N   0  0  0  0  0  0
   28.6720   21.0470   19.0610 C   0  0  0  0  0  0
   28.3550   20.2180   20.0980 F   0  0  0  0  0  0
   29.1760   22.1850   19.6210 F   0  0  0  0  0  0
   29.7060   20.4520   18.3980 F   0  0  0  0  0  0
   24.0490   21.3750   17.1240 C   0  0  0  0  0  0
   23.3460   22.2600   16.2940 C   0  0  0  0  0  0
   23.8400   23.0630   15.7530 H   0  0  0  0  0  0
   21.9540   22.1720   16.1790 C   0  0  0  0  0  0
   21.4270   22.8690   15.5300 H   0  0  0  0  0  0
   21.2570   21.2080   16.9090 C   0  0  0  0  0  0
   21.9400   20.3270   17.7460 C   0  0  0  0  0  0
   21.4070   19.5670   18.3140 H   0  0  0  0  0  0
   23.3320   20.4170   17.8600 C   0  0  0  0  0  0
   23.8320   19.6990   18.5080 H   0  0  0  0  0  0
   19.4900   21.0850   16.7410 S   0  0  0  0  0  0
   18.9630   22.4290   16.5240 O   0  0  0  0  0  0
   18.9870   20.3180   17.8770 O   0  0  0  0  0  0
   19.2720   20.1360   15.2600 C   0  0  0  0  0  0
   18.2000   20.0210   15.0860 H   0  0  0  0  0  0
   19.7340   19.1560   15.3930 H   0  0  0  0  0  0
   19.7280   20.6700   14.4250 H   0  0  0  0  0  0
   26.1780   22.7030   15.1290 C   0  0  0  0  0  0
   26.4390   24.0640   14.9040 C   0  0  0  0  0  0
   26.7900   24.6870   15.7270 H   0  0  0  0  0  0
   26.2510   24.6390   13.6410 C   0  0  0  0  0  0
   25.8110   23.8420   12.5880 C   0  0  0  0  0  0
   25.6480   24.2310   11.5890 H   0  0  0  0  0  0
   25.5740   22.4870   12.8060 C   0  0  0  0  0  0
   25.7570   21.9100   14.0570 C   0  0  0  0  0  0
   25.5720   20.8460   14.1800 H   0  0  0  0  0  0
   25.1630   21.7220   11.7860 F   0  0  0  0  0  0
   26.5320   25.9770   13.5730 O   0  0  0  0  0  0
   26.9720   26.6030   14.7780 C   0  0  0  0  0  0
   27.1540   27.6590   14.5570 H   0  0  0  0  0  0
   27.9140   26.1670   15.1260 H   0  0  0  0  0  0
   26.1990   26.5510   15.5520 H   0  0  0  0  0  0
  1  2  1  0  0  0
  1  6  2  0  0  0
  1 28  1  0  0  0
  2  3  1  0  0  0
  2 11  1  0  0  0
  3  4  1  0  0  0
  3  5  2  0  0  0
  5  6  1  0  0  0
  5  7  1  0  0  0
  7  8  1  0  0  0
  7  9  1  0  0  0
  7 10  1  0  0  0
 11 12  1  0  0  0
 11 19  2  0  0  0
 12 13  1  0  0  0
 12 14  2  0  0  0
 14 15  1  0  0  0
 14 16  1  0  0  0
 16 17  2  0  0  0
 16 21  1  0  0  0
 17 18  1  0  0  0
 17 19  1  0  0  0
 19 20  1  0  0  0
 21 22  2  0  0  0
 21 23  2  0  0  0
 21 24  1  0  0  0
 24 25  1  0  0  0
 24 26  1  0  0  0
 24 27  1  0  0  0
 28 29  1  0  0  0
 28 35  2  0  0  0
 29 30  1  0  0  0
 29 31  2  0  0  0
 31 32  1  0  0  0
 31 38  1  0  0  0
 32 33  1  0  0  0
 32 34  2  0  0  0
 34 35  1  0  0  0
 34 37  1  0  0  0
 35 36  1  0  0  0
 38 39  1  0  0  0
 39 40  1  0  0  0
 39 41  1  0  0  0
 39 42  1  0  0  0
M  END
>  <ACTIVITY>
6.02

>  <SET>
1

>  <Min_dist>
999.9

>  <Avg_dist>
999.9

$$$$
3-64
  Cerius2 12110214053D 1   1.00000                          
Structure written by Cerius2 SD Exporter
 41 43  0  0  0  0  0  0  0  0999 V2000
   26.4170   22.1310   16.4680 C   0  0  0  0  0  0
   25.4740   21.4680   17.2650 N   0  0  0  0  0  0
   26.2000   20.8870   18.2880 C   0  0  0  0  0  0
   25.7360   20.2940   19.0650 H   0  0  0  0  0  0
   27.5130   21.2870   18.1480 C   0  0  0  0  0  0
   27.6250   22.0680   17.0120 N   0  0  0  0  0  0
   28.6850   20.9740   19.0310 C   0  0  0  0  0  0
   28.3350   20.2670   20.1460 F   0  0  0  0  0  0
   29.3150   22.1010   19.4760 F   0  0  0  0  0  0
   29.6330   20.2310   18.3890 F   0  0  0  0  0  0
   24.0520   21.3840   17.1230 C   0  0  0  0  0  0
   23.3490   22.2650   16.2880 C   0  0  0  0  0  0
   23.8380   23.0680   15.7460 H   0  0  0  0  0  0
   21.9570   22.1740   16.1690 C   0  0  0  0  0  0
   21.4320   22.8690   15.5170 H   0  0  0  0  0  0
   21.2580   21.2100   16.8970 C   0  0  0  0  0  0
   21.9410   20.3300   17.7360 C   0  0  0  0  0  0
   21.4080   19.5680   18.3020 H   0  0  0  0  0  0
   23.3330   20.4230   17.8540 C   0  0  0  0  0  0
   23.8290   19.7050   18.5040 H   0  0  0  0  0  0
   19.4930   21.0840   16.7280 S   0  0  0  0  0  0
   18.9660   22.4260   16.4980 O   0  0  0  0  0  0
   18.9870   20.3260   17.8690 O   0  0  0  0  0  0
   19.2780   20.1220   15.2550 C   0  0  0  0  0  0
   18.2070   20.0010   15.0820 H   0  0  0  0  0  0
   19.7440   19.1450   15.3970 H   0  0  0  0  0  0
   19.7330   20.6500   14.4150 H   0  0  0  0  0  0
   26.1810   22.7330   15.1490 C   0  0  0  0  0  0
   26.4220   24.1050   14.9080 C   0  0  0  0  0  0
   26.2140   24.6250   13.6180 C   0  0  0  0  0  0
   26.3960   25.6800   13.4110 H   0  0  0  0  0  0
   25.7720   23.8020   12.5830 C   0  0  0  0  0  0
   25.6100   24.2060   11.5880 H   0  0  0  0  0  0
   25.5460   22.4560   12.8290 C   0  0  0  0  0  0
   25.7490   21.9140   14.0920 C   0  0  0  0  0  0
   25.5740   20.8520   14.2430 H   0  0  0  0  0  0
   25.1300   21.6640   11.8320 F   0  0  0  0  0  0
   26.9100   25.0260   15.9950 C   0  0  0  0  0  0
   27.9470   24.7910   16.2520 H   0  0  0  0  0  0
   26.2810   24.9390   16.8870 H   0  0  0  0  0  0
   26.8720   26.0740   15.6770 H   0  0  0  0  0  0
  1  2  1  0  0  0
  1  6  2  0  0  0
  1 28  1  0  0  0
  2  3  1  0  0  0
  2 11  1  0  0  0
  3  4  1  0  0  0
  3  5  2  0  0  0
  5  6  1  0  0  0
  5  7  1  0  0  0
  7  8  1  0  0  0
  7  9  1  0  0  0
  7 10  1  0  0  0
 11 12  1  0  0  0
 11 19  2  0  0  0
 12 13  1  0  0  0
 12 14  2  0  0  0
 14 15  1  0  0  0
 14 16  1  0  0  0
 16 17  2  0  0  0
 16 21  1  0  0  0
 17 18  1  0  0  0
 17 19  1  0  0  0
 19 20  1  0  0  0
 21 22  2  0  0  0
 21 23  2  0  0  0
 21 24  1  0  0  0
 24 25  1  0  0  0
 24 26  1  0  0  0
 24 27  1  0  0  0
 28 29  1  0  0  0
 28 35  2  0  0  0
 29 30  2  0  0  0
 29 38  1  0  0  0
 30 31  1  0  0  0
 30 32  1  0  0  0
 32 33  1  0  0  0
 32 34  2  0  0  0
 34 35  1  0  0  0
 34 37  1  0  0  0
 35 36  1  0  0  0
 38 39  1  0  0  0
 38 40  1  0  0  0
 38 41  1  0  0  0
M  END
>  <ACTIVITY>
4

>  <SET>
3

>  <Min_dist>
0.04

>  <Avg_dist>
0.43

$$$$
3-65
  Cerius2 12110214053D 1   1.00000                          
Structure written by Cerius2 SD Exporter
 41 43  0  0  0  0  0  0  0  0999 V2000
   26.4190   22.1140   16.4580 C   0  0  0  0  0  0
   25.4700   21.4800   17.2710 N   0  0  0  0  0  0
   26.1930   20.9210   18.3110 C   0  0  0  0  0  0
   25.7260   20.3540   19.1040 H   0  0  0  0  0  0
   27.5100   21.3000   18.1570 C   0  0  0  0  0  0
   27.6280   22.0520   17.0020 N   0  0  0  0  0  0
   28.6810   20.9950   19.0440 C   0  0  0  0  0  0
   28.3320   20.2840   20.1560 F   0  0  0  0  0  0
   29.2990   22.1270   19.4930 F   0  0  0  0  0  0
   29.6380   20.2610   18.4060 F   0  0  0  0  0  0
   24.0480   21.3940   17.1300 C   0  0  0  0  0  0
   23.3400   22.2670   16.2920 C   0  0  0  0  0  0
   23.8210   23.0730   15.7480 H   0  0  0  0  0  0
   21.9480   22.1680   16.1720 C   0  0  0  0  0  0
   21.4190   22.8600   15.5180 H   0  0  0  0  0  0
   21.2540   21.2030   16.9010 C   0  0  0  0  0  0
   21.9410   20.3280   17.7410 C   0  0  0  0  0  0
   21.4120   19.5640   18.3070 H   0  0  0  0  0  0
   23.3320   20.4290   17.8610 C   0  0  0  0  0  0
   23.8300   19.7130   18.5110 H   0  0  0  0  0  0
   19.4890   21.0670   16.7320 S   0  0  0  0  0  0
   18.9530   22.4080   16.5200 O   0  0  0  0  0  0
   18.9890   20.2910   17.8620 O   0  0  0  0  0  0
   19.2800   20.1230   15.2450 C   0  0  0  0  0  0
   18.2090   19.9980   15.0710 H   0  0  0  0  0  0
   19.7520   19.1470   15.3740 H   0  0  0  0  0  0
   19.7310   20.6660   14.4130 H   0  0  0  0  0  0
   26.1860   22.7100   15.1340 C   0  0  0  0  0  0
   26.4440   24.0870   14.9220 C   0  0  0  0  0  0
   26.2380   24.6410   13.6470 C   0  0  0  0  0  0
   26.4310   25.6990   13.4670 H   0  0  0  0  0  0
   25.7830   23.8530   12.5910 C   0  0  0  0  0  0
   25.6260   24.2970   11.6090 H   0  0  0  0  0  0
   25.5390   22.4970   12.7900 C   0  0  0  0  0  0
   25.1950   21.8900   11.9560 H   0  0  0  0  0  0
   25.7450   21.9240   14.0490 C   0  0  0  0  0  0
   25.4560   20.2210   14.1950 Cl  0  0  0  0  0  0
   26.9430   24.9800   16.0280 C   0  0  0  0  0  0
   27.9650   24.7050   16.3050 H   0  0  0  0  0  0
   26.2920   24.9090   16.9050 H   0  0  0  0  0  0
   26.9530   26.0310   15.7190 H   0  0  0  0  0  0
  1  2  1  0  0  0
  1  6  2  0  0  0
  1 28  1  0  0  0
  2  3  1  0  0  0
  2 11  1  0  0  0
  3  4  1  0  0  0
  3  5  2  0  0  0
  5  6  1  0  0  0
  5  7  1  0  0  0
  7  8  1  0  0  0
  7  9  1  0  0  0
  7 10  1  0  0  0
 11 12  1  0  0  0
 11 19  2  0  0  0
 12 13  1  0  0  0
 12 14  2  0  0  0
 14 15  1  0  0  0
 14 16  1  0  0  0
 16 17  2  0  0  0
 16 21  1  0  0  0
 17 18  1  0  0  0
 17 19  1  0  0  0
 19 20  1  0  0  0
 21 22  2  0  0  0
 21 23  2  0  0  0
 21 24  1  0  0  0
 24 25  1  0  0  0
 24 26  1  0  0  0
 24 27  1  0  0  0
 28 29  1  0  0  0
 28 36  2  0  0  0
 29 30  2  0  0  0
 29 38  1  0  0  0
 30 31  1  0  0  0
 30 32  1  0  0  0
 32 33  1  0  0  0
 32 34  2  0  0  0
 34 35  1  0  0  0
 34 36  1  0  0  0
 36 37  1  0  0  0
 38 39  1  0  0  0
 38 40  1  0  0  0
 38 41  1  0  0  0
M  END
>  <ACTIVITY>
4

>  <SET>
3

>  <Min_dist>
0.03

>  <Avg_dist>
0.44

$$$$
3-66
  Cerius2 12110214053D 1   1.00000                          
Structure written by Cerius2 SD Exporter
 41 43  0  0  0  0  0  0  0  0999 V2000
   26.4050   22.1310   16.4600 C   0  0  0  0  0  0
   25.4700   21.4590   17.2570 N   0  0  0  0  0  0
   26.2010   20.8820   18.2790 C   0  0  0  0  0  0
   25.7440   20.2720   19.0470 H   0  0  0  0  0  0
   27.5020   21.3250   18.1590 C   0  0  0  0  0  0
   27.6030   22.1180   17.0290 N   0  0  0  0  0  0
   28.6710   21.0460   19.0580 C   0  0  0  0  0  0
   28.3600   20.1980   20.0830 F   0  0  0  0  0  0
   29.1620   22.1800   19.6360 F   0  0  0  0  0  0
   29.7130   20.4710   18.3890 F   0  0  0  0  0  0
   24.0480   21.3730   17.1230 C   0  0  0  0  0  0
   23.3440   22.2590   16.2940 C   0  0  0  0  0  0
   23.8370   23.0610   15.7520 H   0  0  0  0  0  0
   21.9520   22.1710   16.1830 C   0  0  0  0  0  0
   21.4200   22.8690   15.5370 H   0  0  0  0  0  0
   21.2540   21.2070   16.9130 C   0  0  0  0  0  0
   21.9390   20.3260   17.7490 C   0  0  0  0  0  0
   21.4060   19.5680   18.3190 H   0  0  0  0  0  0
   23.3320   20.4150   17.8610 C   0  0  0  0  0  0
   23.8320   19.6980   18.5080 H   0  0  0  0  0  0
   19.4950   21.0880   16.7400 S   0  0  0  0  0  0
   18.9470   22.4010   16.4470 O   0  0  0  0  0  0
   18.9650   20.2970   17.8360 O   0  0  0  0  0  0
   19.3390   20.1750   15.3450 N   0  0  0  0  0  0
   18.8620   20.7030   14.6090 H   0  0  0  0  0  0
   18.8650   19.2880   15.5340 H   0  0  0  0  0  0
   26.1780   22.7080   15.1300 C   0  0  0  0  0  0
   26.4380   24.0650   14.9090 C   0  0  0  0  0  0
   26.7850   24.7010   15.7200 H   0  0  0  0  0  0
   26.2510   24.6230   13.6440 C   0  0  0  0  0  0
   25.8140   23.8450   12.5690 C   0  0  0  0  0  0
   25.5750   22.4850   12.7860 C   0  0  0  0  0  0
   25.2430   21.8520   11.9640 H   0  0  0  0  0  0
   25.7620   21.9180   14.0520 C   0  0  0  0  0  0
   25.5800   20.8510   14.1810 H   0  0  0  0  0  0
   25.5880   24.2560   11.2840 O   0  0  0  0  0  0
   25.8030   25.6350   10.9930 C   0  0  0  0  0  0
   25.5680   25.7910    9.9360 H   0  0  0  0  0  0
   26.8520   25.9090   11.1430 H   0  0  0  0  0  0
   25.1320   26.2710   11.5790 H   0  0  0  0  0  0
   26.5090   25.9310   13.5020 F   0  0  0  0  0  0
  1  2  1  0  0  0
  1  6  2  0  0  0
  1 27  1  0  0  0
  2  3  1  0  0  0
  2 11  1  0  0  0
  3  4  1  0  0  0
  3  5  2  0  0  0
  5  6  1  0  0  0
  5  7  1  0  0  0
  7  8  1  0  0  0
  7  9  1  0  0  0
  7 10  1  0  0  0
 11 12  1  0  0  0
 11 19  2  0  0  0
 12 13  1  0  0  0
 12 14  2  0  0  0
 14 15  1  0  0  0
 14 16  1  0  0  0
 16 17  2  0  0  0
 16 21  1  0  0  0
 17 18  1  0  0  0
 17 19  1  0  0  0
 19 20  1  0  0  0
 21 22  2  0  0  0
 21 23  2  0  0  0
 21 24  1  0  0  0
 24 25  1  0  0  0
 24 26  1  0  0  0
 27 28  1  0  0  0
 27 34  2  0  0  0
 28 29  1  0  0  0
 28 30  2  0  0  0
 30 31  1  0  0  0
 30 41  1  0  0  0
 31 32  2  0  0  0
 31 36  1  0  0  0
 32 33  1  0  0  0
 32 34  1  0  0  0
 34 35  1  0  0  0
 36 37  1  0  0  0
 37 38  1  0  0  0
 37 39  1  0  0  0
 37 40  1  0  0  0
M  END
>  <ACTIVITY>
7.52

>  <SET>
1

>  <Min_dist>
999.9

>  <Avg_dist>
999.9

$$$$
3-69
  Cerius2 12110214053D 1   1.00000                          
Structure written by Cerius2 SD Exporter
 41 43  0  0  0  0  0  0  0  0999 V2000
   26.4040   22.1310   16.4590 C   0  0  0  0  0  0
   25.4680   21.4590   17.2560 N   0  0  0  0  0  0
   26.1990   20.8840   18.2800 C   0  0  0  0  0  0
   25.7420   20.2750   19.0480 H   0  0  0  0  0  0
   27.5010   21.3240   18.1580 C   0  0  0  0  0  0
   27.6020   22.1170   17.0290 N   0  0  0  0  0  0
   28.6710   21.0410   19.0550 C   0  0  0  0  0  0
   28.3490   20.2300   20.1050 F   0  0  0  0  0  0
   29.1950   22.1780   19.5970 F   0  0  0  0  0  0
   29.6920   20.4220   18.3940 F   0  0  0  0  0  0
   24.0470   21.3740   17.1220 C   0  0  0  0  0  0
   23.3420   22.2580   16.2940 C   0  0  0  0  0  0
   23.8340   23.0610   15.7510 H   0  0  0  0  0  0
   21.9490   22.1700   16.1830 C   0  0  0  0  0  0
   21.4170   22.8670   15.5380 H   0  0  0  0  0  0
   21.2520   21.2060   16.9140 C   0  0  0  0  0  0
   21.9390   20.3250   17.7500 C   0  0  0  0  0  0
   21.4070   19.5660   18.3200 H   0  0  0  0  0  0
   23.3310   20.4150   17.8600 C   0  0  0  0  0  0
   23.8320   19.6970   18.5070 H   0  0  0  0  0  0
   19.4930   21.0860   16.7440 S   0  0  0  0  0  0
   18.9440   22.3990   16.4520 O   0  0  0  0  0  0
   18.9650   20.2950   17.8410 O   0  0  0  0  0  0
   19.3360   20.1730   15.3490 N   0  0  0  0  0  0
   18.8580   20.7010   14.6150 H   0  0  0  0  0  0
   18.8610   19.2860   15.5400 H   0  0  0  0  0  0
   26.1790   22.7070   15.1290 C   0  0  0  0  0  0
   26.4370   24.0660   14.9100 C   0  0  0  0  0  0
   26.7790   24.6880   15.7360 H   0  0  0  0  0  0
   26.2570   24.6310   13.6410 C   0  0  0  0  0  0
   25.8290   23.8380   12.5640 C   0  0  0  0  0  0
   25.5830   22.4760   12.7840 C   0  0  0  0  0  0
   25.2530   21.8320   11.9710 H   0  0  0  0  0  0
   25.7660   21.9140   14.0520 C   0  0  0  0  0  0
   25.5840   20.8480   14.1850 H   0  0  0  0  0  0
   25.5650   24.4680   10.9080 S   0  0  0  0  0  0
   25.0320   22.9240   10.1150 C   0  0  0  0  0  0
   24.8090   23.1210    9.0630 H   0  0  0  0  0  0
   24.1300   22.5380   10.5970 H   0  0  0  0  0  0
   25.8220   22.1710   10.1680 H   0  0  0  0  0  0
   26.5810   26.3240   13.4730 Cl  0  0  0  0  0  0
  1  2  1  0  0  0
  1  6  2  0  0  0
  1 27  1  0  0  0
  2  3  1  0  0  0
  2 11  1  0  0  0
  3  4  1  0  0  0
  3  5  2  0  0  0
  5  6  1  0  0  0
  5  7  1  0  0  0
  7  8  1  0  0  0
  7  9  1  0  0  0
  7 10  1  0  0  0
 11 12  1  0  0  0
 11 19  2  0  0  0
 12 13  1  0  0  0
 12 14  2  0  0  0
 14 15  1  0  0  0
 14 16  1  0  0  0
 16 17  2  0  0  0
 16 21  1  0  0  0
 17 18  1  0  0  0
 17 19  1  0  0  0
 19 20  1  0  0  0
 21 22  2  0  0  0
 21 23  2  0  0  0
 21 24  1  0  0  0
 24 25  1  0  0  0
 24 26  1  0  0  0
 27 28  1  0  0  0
 27 34  2  0  0  0
 28 29  1  0  0  0
 28 30  2  0  0  0
 30 31  1  0  0  0
 30 41  1  0  0  0
 31 32  2  0  0  0
 31 36  1  0  0  0
 32 33  1  0  0  0
 32 34  1  0  0  0
 34 35  1  0  0  0
 36 37  1  0  0  0
 37 38  1  0  0  0
 37 39  1  0  0  0
 37 40  1  0  0  0
M  END
>  <ACTIVITY>
8

>  <SET>
1

>  <Min_dist>
999.9

>  <Avg_dist>
999.9

$$$$
3-70
  Cerius2 12110214053D 1   1.00000                          
Structure written by Cerius2 SD Exporter
 40 42  0  0  0  0  0  0  0  0999 V2000
   26.4060   22.1300   16.4590 C   0  0  0  0  0  0
   25.4690   21.4590   17.2550 N   0  0  0  0  0  0
   26.1980   20.8850   18.2800 C   0  0  0  0  0  0
   25.7410   20.2770   19.0490 H   0  0  0  0  0  0
   27.5000   21.3270   18.1610 C   0  0  0  0  0  0
   27.6030   22.1180   17.0300 N   0  0  0  0  0  0
   28.6680   21.0490   19.0620 C   0  0  0  0  0  0
   28.3530   20.2130   20.0950 F   0  0  0  0  0  0
   29.1660   22.1870   19.6290 F   0  0  0  0  0  0
   29.7070   20.4630   18.3990 F   0  0  0  0  0  0
   24.0470   21.3730   17.1200 C   0  0  0  0  0  0
   23.3420   22.2580   16.2920 C   0  0  0  0  0  0
   23.8340   23.0590   15.7480 H   0  0  0  0  0  0
   21.9490   22.1700   16.1820 C   0  0  0  0  0  0
   21.4170   22.8670   15.5380 H   0  0  0  0  0  0
   21.2520   21.2060   16.9130 C   0  0  0  0  0  0
   21.9390   20.3240   17.7490 C   0  0  0  0  0  0
   21.4070   19.5660   18.3180 H   0  0  0  0  0  0
   23.3320   20.4140   17.8580 C   0  0  0  0  0  0
   23.8320   19.6960   18.5040 H   0  0  0  0  0  0
   19.4920   21.0880   16.7460 S   0  0  0  0  0  0
   18.9450   22.4010   16.4550 O   0  0  0  0  0  0
   18.9650   20.2960   17.8430 O   0  0  0  0  0  0
   19.3330   20.1760   15.3500 N   0  0  0  0  0  0
   18.8530   20.7040   14.6170 H   0  0  0  0  0  0
   18.8600   19.2880   15.5410 H   0  0  0  0  0  0
   26.1800   22.7070   15.1290 C   0  0  0  0  0  0
   26.4410   24.0650   14.9090 C   0  0  0  0  0  0
   26.7880   24.6870   15.7330 H   0  0  0  0  0  0
   26.2550   24.6280   13.6430 C   0  0  0  0  0  0
   25.8160   23.8430   12.5670 C   0  0  0  0  0  0
   25.5770   22.4780   12.7870 C   0  0  0  0  0  0
   25.2460   21.8360   11.9710 H   0  0  0  0  0  0
   25.7640   21.9150   14.0530 C   0  0  0  0  0  0
   25.5830   20.8490   14.1850 H   0  0  0  0  0  0
   25.6060   24.4170   11.1940 C   0  0  0  0  0  0
   25.2510   23.6550   10.4910 H   0  0  0  0  0  0
   26.5470   24.8150   10.7990 H   0  0  0  0  0  0
   24.8540   25.2110   11.2230 H   0  0  0  0  0  0
   26.5840   26.3150   13.4520 Cl  0  0  0  0  0  0
  1  2  1  0  0  0
  1  6  2  0  0  0
  1 27  1  0  0  0
  2  3  1  0  0  0
  2 11  1  0  0  0
  3  4  1  0  0  0
  3  5  2  0  0  0
  5  6  1  0  0  0
  5  7  1  0  0  0
  7  8  1  0  0  0
  7  9  1  0  0  0
  7 10  1  0  0  0
 11 12  1  0  0  0
 11 19  2  0  0  0
 12 13  1  0  0  0
 12 14  2  0  0  0
 14 15  1  0  0  0
 14 16  1  0  0  0
 16 17  2  0  0  0
 16 21  1  0  0  0
 17 18  1  0  0  0
 17 19  1  0  0  0
 19 20  1  0  0  0
 21 22  2  0  0  0
 21 23  2  0  0  0
 21 24  1  0  0  0
 24 25  1  0  0  0
 24 26  1  0  0  0
 27 28  1  0  0  0
 27 34  2  0  0  0
 28 29  1  0  0  0
 28 30  2  0  0  0
 30 31  1  0  0  0
 30 40  1  0  0  0
 31 32  2  0  0  0
 31 36  1  0  0  0
 32 33  1  0  0  0
 32 34  1  0  0  0
 34 35  1  0  0  0
 36 37  1  0  0  0
 36 38  1  0  0  0
 36 39  1  0  0  0
M  END
>  <ACTIVITY>
8.52

>  <SET>
1

>  <Min_dist>
999.9

>  <Avg_dist>
999.9

$$$$
3-71
  Cerius2 12110214053D 1   1.00000                          
Structure written by Cerius2 SD Exporter
 41 43  0  0  0  0  0  0  0  0999 V2000
   26.4060   22.1280   16.4580 C   0  0  0  0  0  0
   25.4700   21.4590   17.2570 N   0  0  0  0  0  0
   26.2000   20.8870   18.2830 C   0  0  0  0  0  0
   25.7430   20.2810   19.0520 H   0  0  0  0  0  0
   27.5020   21.3280   18.1600 C   0  0  0  0  0  0
   27.6040   22.1160   17.0280 N   0  0  0  0  0  0
   28.6700   21.0500   19.0600 C   0  0  0  0  0  0
   28.3570   20.2160   20.0940 F   0  0  0  0  0  0
   29.1710   22.1880   19.6250 F   0  0  0  0  0  0
   29.7070   20.4610   18.3960 F   0  0  0  0  0  0
   24.0480   21.3740   17.1230 C   0  0  0  0  0  0
   23.3440   22.2590   16.2940 C   0  0  0  0  0  0
   23.8360   23.0610   15.7520 H   0  0  0  0  0  0
   21.9510   22.1700   16.1820 C   0  0  0  0  0  0
   21.4190   22.8670   15.5370 H   0  0  0  0  0  0
   21.2540   21.2050   16.9120 C   0  0  0  0  0  0
   21.9400   20.3250   17.7490 C   0  0  0  0  0  0
   21.4070   19.5660   18.3190 H   0  0  0  0  0  0
   23.3320   20.4150   17.8600 C   0  0  0  0  0  0
   23.8320   19.6970   18.5080 H   0  0  0  0  0  0
   19.4950   21.0890   16.7400 S   0  0  0  0  0  0
   18.9480   22.4020   16.4480 O   0  0  0  0  0  0
   18.9660   20.2960   17.8360 O   0  0  0  0  0  0
   19.3370   20.1780   15.3430 N   0  0  0  0  0  0
   18.8610   20.7080   14.6090 H   0  0  0  0  0  0
   18.8610   19.2920   15.5310 H   0  0  0  0  0  0
   26.1780   22.7030   15.1270 C   0  0  0  0  0  0
   26.4400   24.0670   14.9070 C   0  0  0  0  0  0
   26.7890   24.6590   15.7500 H   0  0  0  0  0  0
   26.2540   24.6420   13.6430 C   0  0  0  0  0  0
   25.8120   23.8260   12.5890 C   0  0  0  0  0  0
   25.5690   22.4660   12.7920 C   0  0  0  0  0  0
   25.2360   21.8340   11.9720 H   0  0  0  0  0  0
   25.7580   21.9050   14.0560 C   0  0  0  0  0  0
   25.5770   20.8400   14.1930 H   0  0  0  0  0  0
   25.5600   24.4660   11.0010 Cl  0  0  0  0  0  0
   26.4770   25.9640   13.3500 O   0  0  0  0  0  0
   26.9150   26.8070   14.4120 C   0  0  0  0  0  0
   27.0320   27.8170   14.0080 H   0  0  0  0  0  0
   27.8900   26.4860   14.7930 H   0  0  0  0  0  0
   26.1690   26.8530   15.2130 H   0  0  0  0  0  0
  1  2  1  0  0  0
  1  6  2  0  0  0
  1 27  1  0  0  0
  2  3  1  0  0  0
  2 11  1  0  0  0
  3  4  1  0  0  0
  3  5  2  0  0  0
  5  6  1  0  0  0
  5  7  1  0  0  0
  7  8  1  0  0  0
  7  9  1  0  0  0
  7 10  1  0  0  0
 11 12  1  0  0  0
 11 19  2  0  0  0
 12 13  1  0  0  0
 12 14  2  0  0  0
 14 15  1  0  0  0
 14 16  1  0  0  0
 16 17  2  0  0  0
 16 21  1  0  0  0
 17 18  1  0  0  0
 17 19  1  0  0  0
 19 20  1  0  0  0
 21 22  2  0  0  0
 21 23  2  0  0  0
 21 24  1  0  0  0
 24 25  1  0  0  0
 24 26  1  0  0  0
 27 28  1  0  0  0
 27 34  2  0  0  0
 28 29  1  0  0  0
 28 30  2  0  0  0
 30 31  1  0  0  0
 30 37  1  0  0  0
 31 32  2  0  0  0
 31 36  1  0  0  0
 32 33  1  0  0  0
 32 34  1  0  0  0
 34 35  1  0  0  0
 37 38  1  0  0  0
 38 39  1  0  0  0
 38 40  1  0  0  0
 38 41  1  0  0  0
M  END
>  <ACTIVITY>
7.7

>  <SET>
1

>  <Min_dist>
999.9

>  <Avg_dist>
999.9

$$$$
3-72
  Cerius2 12110214053D 1   1.00000                          
Structure written by Cerius2 SD Exporter
 37 39  0  0  0  0  0  0  0  0999 V2000
   26.4040   22.1330   16.4600 C   0  0  0  0  0  0
   25.4690   21.4600   17.2560 N   0  0  0  0  0  0
   26.2000   20.8810   18.2770 C   0  0  0  0  0  0
   25.7440   20.2690   19.0430 H   0  0  0  0  0  0
   27.5020   21.3240   18.1570 C   0  0  0  0  0  0
   27.6030   22.1190   17.0290 N   0  0  0  0  0  0
   28.6710   21.0400   19.0540 C   0  0  0  0  0  0
   28.3540   20.2130   20.0930 F   0  0  0  0  0  0
   29.1820   22.1760   19.6130 F   0  0  0  0  0  0
   29.7020   20.4410   18.3880 F   0  0  0  0  0  0
   24.0480   21.3750   17.1220 C   0  0  0  0  0  0
   23.3430   22.2600   16.2930 C   0  0  0  0  0  0
   23.8360   23.0620   15.7510 H   0  0  0  0  0  0
   21.9510   22.1720   16.1820 C   0  0  0  0  0  0
   21.4190   22.8690   15.5370 H   0  0  0  0  0  0
   21.2530   21.2080   16.9130 C   0  0  0  0  0  0
   21.9400   20.3270   17.7490 C   0  0  0  0  0  0
   21.4070   19.5680   18.3190 H   0  0  0  0  0  0
   23.3320   20.4160   17.8600 C   0  0  0  0  0  0
   23.8320   19.6980   18.5060 H   0  0  0  0  0  0
   19.4940   21.0860   16.7430 S   0  0  0  0  0  0
   18.9440   22.3980   16.4500 O   0  0  0  0  0  0
   18.9650   20.2950   17.8400 O   0  0  0  0  0  0
   19.3390   20.1710   15.3490 N   0  0  0  0  0  0
   18.8600   20.6970   14.6140 H   0  0  0  0  0  0
   18.8660   19.2840   15.5410 H   0  0  0  0  0  0
   26.1780   22.7120   15.1310 C   0  0  0  0  0  0
   26.4380   24.0720   14.9140 C   0  0  0  0  0  0
   26.7820   24.7090   15.7250 H   0  0  0  0  0  0
   26.2530   24.6200   13.6490 C   0  0  0  0  0  0
   25.8240   23.8280   12.5910 C   0  0  0  0  0  0
   25.5790   22.4740   12.7820 C   0  0  0  0  0  0
   25.2540   21.8570   11.9490 H   0  0  0  0  0  0
   25.7630   21.9140   14.0500 C   0  0  0  0  0  0
   25.5850   20.8480   14.1840 H   0  0  0  0  0  0
   25.6520   24.3670   11.3750 F   0  0  0  0  0  0
   26.4960   25.9240   13.4520 F   0  0  0  0  0  0
  1  2  1  0  0  0
  1  6  2  0  0  0
  1 27  1  0  0  0
  2  3  1  0  0  0
  2 11  1  0  0  0
  3  4  1  0  0  0
  3  5  2  0  0  0
  5  6  1  0  0  0
  5  7  1  0  0  0
  7  8  1  0  0  0
  7  9  1  0  0  0
  7 10  1  0  0  0
 11 12  1  0  0  0
 11 19  2  0  0  0
 12 13  1  0  0  0
 12 14  2  0  0  0
 14 15  1  0  0  0
 14 16  1  0  0  0
 16 17  2  0  0  0
 16 21  1  0  0  0
 17 18  1  0  0  0
 17 19  1  0  0  0
 19 20  1  0  0  0
 21 22  2  0  0  0
 21 23  2  0  0  0
 21 24  1  0  0  0
 24 25  1  0  0  0
 24 26  1  0  0  0
 27 28  1  0  0  0
 27 34  2  0  0  0
 28 29  1  0  0  0
 28 30  2  0  0  0
 30 31  1  0  0  0
 30 37  1  0  0  0
 31 32  2  0  0  0
 31 36  1  0  0  0
 32 33  1  0  0  0
 32 34  1  0  0  0
 34 35  1  0  0  0
M  END
>  <ACTIVITY>
7.52

>  <SET>
1

>  <Min_dist>
999.9

>  <Avg_dist>
999.9

$$$$
3-73
  Cerius2 12110214053D 1   1.00000                          
Structure written by Cerius2 SD Exporter
 40 42  0  0  0  0  0  0  0  0999 V2000
   26.4090   22.1280   16.4600 C   0  0  0  0  0  0
   25.4710   21.4610   17.2590 N   0  0  0  0  0  0
   26.2010   20.8870   18.2850 C   0  0  0  0  0  0
   25.7430   20.2840   19.0560 H   0  0  0  0  0  0
   27.5040   21.3230   18.1600 C   0  0  0  0  0  0
   27.6080   22.1100   17.0260 N   0  0  0  0  0  0
   28.6730   21.0420   19.0590 C   0  0  0  0  0  0
   28.3630   20.1930   20.0820 F   0  0  0  0  0  0
   29.1650   22.1760   19.6390 F   0  0  0  0  0  0
   29.7150   20.4680   18.3890 F   0  0  0  0  0  0
   24.0500   21.3760   17.1230 C   0  0  0  0  0  0
   23.3460   22.2610   16.2930 C   0  0  0  0  0  0
   23.8390   23.0640   15.7520 H   0  0  0  0  0  0
   21.9540   22.1720   16.1800 C   0  0  0  0  0  0
   21.4240   22.8700   15.5340 H   0  0  0  0  0  0
   21.2560   21.2080   16.9090 C   0  0  0  0  0  0
   21.9410   20.3270   17.7460 C   0  0  0  0  0  0
   21.4070   19.5690   18.3150 H   0  0  0  0  0  0
   23.3330   20.4170   17.8600 C   0  0  0  0  0  0
   23.8320   19.6990   18.5070 H   0  0  0  0  0  0
   19.4970   21.0880   16.7340 S   0  0  0  0  0  0
   18.9490   22.4000   16.4410 O   0  0  0  0  0  0
   18.9660   20.2960   17.8300 O   0  0  0  0  0  0
   19.3430   20.1740   15.3390 N   0  0  0  0  0  0
   18.8670   20.7020   14.6030 H   0  0  0  0  0  0
   18.8690   19.2880   15.5280 H   0  0  0  0  0  0
   26.1780   22.7030   15.1300 C   0  0  0  0  0  0
   26.4350   24.0650   14.9080 C   0  0  0  0  0  0
   26.7840   24.6860   15.7340 H   0  0  0  0  0  0
   26.2440   24.6390   13.6430 C   0  0  0  0  0  0
   25.7800   23.8360   12.5950 C   0  0  0  0  0  0
   25.6080   24.2700   11.6110 H   0  0  0  0  0  0
   25.5460   22.4770   12.8050 C   0  0  0  0  0  0
   25.7500   21.9060   14.0600 C   0  0  0  0  0  0
   25.5730   20.8430   14.2040 H   0  0  0  0  0  0
   24.9940   21.4950   11.5020 Cl  0  0  0  0  0  0
   26.4770   26.1070   13.4310 C   0  0  0  0  0  0
   26.7830   26.3090   12.4000 H   0  0  0  0  0  0
   27.2750   26.4740   14.0850 H   0  0  0  0  0  0
   25.5600   26.6650   13.6440 H   0  0  0  0  0  0
  1  2  1  0  0  0
  1  6  2  0  0  0
  1 27  1  0  0  0
  2  3  1  0  0  0
  2 11  1  0  0  0
  3  4  1  0  0  0
  3  5  2  0  0  0
  5  6  1  0  0  0
  5  7  1  0  0  0
  7  8  1  0  0  0
  7  9  1  0  0  0
  7 10  1  0  0  0
 11 12  1  0  0  0
 11 19  2  0  0  0
 12 13  1  0  0  0
 12 14  2  0  0  0
 14 15  1  0  0  0
 14 16  1  0  0  0
 16 17  2  0  0  0
 16 21  1  0  0  0
 17 18  1  0  0  0
 17 19  1  0  0  0
 19 20  1  0  0  0
 21 22  2  0  0  0
 21 23  2  0  0  0
 21 24  1  0  0  0
 24 25  1  0  0  0
 24 26  1  0  0  0
 27 28  1  0  0  0
 27 34  2  0  0  0
 28 29  1  0  0  0
 28 30  2  0  0  0
 30 31  1  0  0  0
 30 37  1  0  0  0
 31 32  1  0  0  0
 31 33  2  0  0  0
 33 34  1  0  0  0
 33 36  1  0  0  0
 34 35  1  0  0  0
 37 38  1  0  0  0
 37 39  1  0  0  0
 37 40  1  0  0  0
M  END
>  <ACTIVITY>
7.4

>  <SET>
1

>  <Min_dist>
999.9

>  <Avg_dist>
999.9

$$$$
3-75
  Cerius2 12110214053D 1   1.00000                          
Structure written by Cerius2 SD Exporter
 41 43  0  0  0  0  0  0  0  0999 V2000
   26.4070   22.1280   16.4600 C   0  0  0  0  0  0
   25.4710   21.4610   17.2600 N   0  0  0  0  0  0
   26.2010   20.8860   18.2840 C   0  0  0  0  0  0
   25.7440   20.2810   19.0540 H   0  0  0  0  0  0
   27.5040   21.3240   18.1600 C   0  0  0  0  0  0
   27.6070   22.1120   17.0260 N   0  0  0  0  0  0
   28.6740   21.0440   19.0580 C   0  0  0  0  0  0
   28.3600   20.2120   20.0930 F   0  0  0  0  0  0
   29.1770   22.1810   19.6210 F   0  0  0  0  0  0
   29.7090   20.4530   18.3920 F   0  0  0  0  0  0
   24.0500   21.3760   17.1250 C   0  0  0  0  0  0
   23.3470   22.2610   16.2940 C   0  0  0  0  0  0
   23.8400   23.0640   15.7540 H   0  0  0  0  0  0
   21.9550   22.1720   16.1790 C   0  0  0  0  0  0
   21.4250   22.8690   15.5330 H   0  0  0  0  0  0
   21.2570   21.2070   16.9080 C   0  0  0  0  0  0
   21.9420   20.3260   17.7460 C   0  0  0  0  0  0
   21.4080   19.5670   18.3140 H   0  0  0  0  0  0
   23.3340   20.4170   17.8610 C   0  0  0  0  0  0
   23.8330   19.6990   18.5090 H   0  0  0  0  0  0
   19.4980   21.0900   16.7340 S   0  0  0  0  0  0
   18.9520   22.4040   16.4420 O   0  0  0  0  0  0
   18.9670   20.2970   17.8280 O   0  0  0  0  0  0
   19.3430   20.1800   15.3370 N   0  0  0  0  0  0
   18.8680   20.7100   14.6010 H   0  0  0  0  0  0
   18.8670   19.2930   15.5240 H   0  0  0  0  0  0
   26.1770   22.7020   15.1300 C   0  0  0  0  0  0
   26.4380   24.0620   14.9050 C   0  0  0  0  0  0
   26.7930   24.6850   15.7260 H   0  0  0  0  0  0
   26.2440   24.6370   13.6440 C   0  0  0  0  0  0
   25.7960   23.8400   12.5910 C   0  0  0  0  0  0
   25.6310   24.2480   11.5980 H   0  0  0  0  0  0
   25.5560   22.4820   12.8040 C   0  0  0  0  0  0
   25.7500   21.9080   14.0590 C   0  0  0  0  0  0
   25.5700   20.8440   14.2000 H   0  0  0  0  0  0
   25.0130   21.4980   11.4970 Cl  0  0  0  0  0  0
   26.5260   25.9740   13.5760 O   0  0  0  0  0  0
   26.9740   26.5990   14.7780 C   0  0  0  0  0  0
   27.1520   27.6560   14.5570 H   0  0  0  0  0  0
   27.9210   26.1650   15.1170 H   0  0  0  0  0  0
   26.2080   26.5450   15.5590 H   0  0  0  0  0  0
  1  2  1  0  0  0
  1  6  2  0  0  0
  1 27  1  0  0  0
  2  3  1  0  0  0
  2 11  1  0  0  0
  3  4  1  0  0  0
  3  5  2  0  0  0
  5  6  1  0  0  0
  5  7  1  0  0  0
  7  8  1  0  0  0
  7  9  1  0  0  0
  7 10  1  0  0  0
 11 12  1  0  0  0
 11 19  2  0  0  0
 12 13  1  0  0  0
 12 14  2  0  0  0
 14 15  1  0  0  0
 14 16  1  0  0  0
 16 17  2  0  0  0
 16 21  1  0  0  0
 17 18  1  0  0  0
 17 19  1  0  0  0
 19 20  1  0  0  0
 21 22  2  0  0  0
 21 23  2  0  0  0
 21 24  1  0  0  0
 24 25  1  0  0  0
 24 26  1  0  0  0
 27 28  1  0  0  0
 27 34  2  0  0  0
 28 29  1  0  0  0
 28 30  2  0  0  0
 30 31  1  0  0  0
 30 37  1  0  0  0
 31 32  1  0  0  0
 31 33  2  0  0  0
 33 34  1  0  0  0
 33 36  1  0  0  0
 34 35  1  0  0  0
 37 38  1  0  0  0
 38 39  1  0  0  0
 38 40  1  0  0  0
 38 41  1  0  0  0
M  END
>  <ACTIVITY>
6.34

>  <SET>
2

>  <Min_dist>
0.08

>  <Avg_dist>
0.47

$$$$
3-79
  Cerius2 12110214053D 1   1.00000                          
Structure written by Cerius2 SD Exporter
 48 50  0  0  0  0  0  0  0  0999 V2000
   26.4090   22.1280   16.4590 C   0  0  0  0  0  0
   25.4700   21.4610   17.2580 N   0  0  0  0  0  0
   26.1980   20.8890   18.2860 C   0  0  0  0  0  0
   25.7380   20.2860   19.0560 H   0  0  0  0  0  0
   27.5010   21.3260   18.1640 C   0  0  0  0  0  0
   27.6070   22.1120   17.0300 N   0  0  0  0  0  0
   28.6680   21.0460   19.0660 C   0  0  0  0  0  0
   28.3500   20.2150   20.1010 F   0  0  0  0  0  0
   29.1720   22.1830   19.6290 F   0  0  0  0  0  0
   29.7040   20.4520   18.4040 F   0  0  0  0  0  0
   24.0490   21.3750   17.1210 C   0  0  0  0  0  0
   23.3440   22.2590   16.2910 C   0  0  0  0  0  0
   23.8370   23.0600   15.7470 H   0  0  0  0  0  0
   21.9520   22.1700   16.1770 C   0  0  0  0  0  0
   21.4250   22.8670   15.5280 H   0  0  0  0  0  0
   21.2560   21.2070   16.9080 C   0  0  0  0  0  0
   21.9400   20.3250   17.7440 C   0  0  0  0  0  0
   21.4080   19.5640   18.3110 H   0  0  0  0  0  0
   23.3320   20.4150   17.8560 C   0  0  0  0  0  0
   23.8320   19.6970   18.5030 H   0  0  0  0  0  0
   19.4890   21.0870   16.7470 S   0  0  0  0  0  0
   18.9630   22.4310   16.5310 O   0  0  0  0  0  0
   18.9880   20.3190   17.8830 O   0  0  0  0  0  0
   19.2650   20.1390   15.2650 C   0  0  0  0  0  0
   18.1920   20.0240   15.0950 H   0  0  0  0  0  0
   19.7270   19.1590   15.3950 H   0  0  0  0  0  0
   19.7180   20.6750   14.4280 H   0  0  0  0  0  0
   26.1830   22.7030   15.1280 C   0  0  0  0  0  0
   26.4410   24.0630   14.9070 C   0  0  0  0  0  0
   26.7870   24.6810   15.7360 H   0  0  0  0  0  0
   26.2500   24.6410   13.6420 C   0  0  0  0  0  0
   25.8480   23.8180   12.5780 C   0  0  0  0  0  0
   25.5530   22.4600   12.7810 C   0  0  0  0  0  0
   25.7550   21.9080   14.0560 C   0  0  0  0  0  0
   25.5720   20.8450   14.2110 H   0  0  0  0  0  0
   25.0780   21.5730   11.6640 C   0  0  0  0  0  0
   24.5010   20.7270   12.0550 H   0  0  0  0  0  0
   25.9330   21.1810   11.1050 H   0  0  0  0  0  0
   24.4190   22.1170   10.9810 H   0  0  0  0  0  0
   25.6650   24.3680   11.3330 O   0  0  0  0  0  0
   26.8740   24.2820   10.5690 C   0  0  0  0  0  0
   26.6820   24.7310    9.5910 H   0  0  0  0  0  0
   27.1720   23.2400   10.4110 H   0  0  0  0  0  0
   27.6880   24.8390   11.0450 H   0  0  0  0  0  0
   26.5290   26.1060   13.4540 C   0  0  0  0  0  0
   27.5530   26.2510   13.0980 H   0  0  0  0  0  0
   26.4080   26.6510   14.3960 H   0  0  0  0  0  0
   25.8310   26.5510   12.7380 H   0  0  0  0  0  0
  1  2  1  0  0  0
  1  6  2  0  0  0
  1 28  1  0  0  0
  2  3  1  0  0  0
  2 11  1  0  0  0
  3  4  1  0  0  0
  3  5  2  0  0  0
  5  6  1  0  0  0
  5  7  1  0  0  0
  7  8  1  0  0  0
  7  9  1  0  0  0
  7 10  1  0  0  0
 11 12  1  0  0  0
 11 19  2  0  0  0
 12 13  1  0  0  0
 12 14  2  0  0  0
 14 15  1  0  0  0
 14 16  1  0  0  0
 16 17  2  0  0  0
 16 21  1  0  0  0
 17 18  1  0  0  0
 17 19  1  0  0  0
 19 20  1  0  0  0
 21 22  2  0  0  0
 21 23  2  0  0  0
 21 24  1  0  0  0
 24 25  1  0  0  0
 24 26  1  0  0  0
 24 27  1  0  0  0
 28 29  1  0  0  0
 28 34  2  0  0  0
 29 30  1  0  0  0
 29 31  2  0  0  0
 31 32  1  0  0  0
 31 45  1  0  0  0
 32 33  2  0  0  0
 32 40  1  0  0  0
 33 34  1  0  0  0
 33 36  1  0  0  0
 34 35  1  0  0  0
 36 37  1  0  0  0
 36 38  1  0  0  0
 36 39  1  0  0  0
 40 41  1  0  0  0
 41 42  1  0  0  0
 41 43  1  0  0  0
 41 44  1  0  0  0
 45 46  1  0  0  0
 45 47  1  0  0  0
 45 48  1  0  0  0
M  END
>  <ACTIVITY>
6.14

>  <SET>
1

>  <Min_dist>
999.9

>  <Avg_dist>
999.9

$$$$
3-80
  Cerius2 12110214053D 1   1.00000                          
Structure written by Cerius2 SD Exporter
 48 50  0  0  0  0  0  0  0  0999 V2000
   26.4180   22.1310   16.4680 C   0  0  0  0  0  0
   25.4740   21.4680   17.2650 N   0  0  0  0  0  0
   26.2000   20.8850   18.2880 C   0  0  0  0  0  0
   25.7360   20.2910   19.0630 H   0  0  0  0  0  0
   27.5130   21.2850   18.1490 C   0  0  0  0  0  0
   27.6250   22.0670   17.0150 N   0  0  0  0  0  0
   28.6850   20.9690   19.0310 C   0  0  0  0  0  0
   28.3330   20.2680   20.1490 F   0  0  0  0  0  0
   29.3210   22.0940   19.4710 F   0  0  0  0  0  0
   29.6280   20.2190   18.3900 F   0  0  0  0  0  0
   24.0520   21.3850   17.1230 C   0  0  0  0  0  0
   23.3480   22.2650   16.2890 C   0  0  0  0  0  0
   23.8380   23.0670   15.7460 H   0  0  0  0  0  0
   21.9560   22.1740   16.1690 C   0  0  0  0  0  0
   21.4320   22.8690   15.5160 H   0  0  0  0  0  0
   21.2580   21.2100   16.8970 C   0  0  0  0  0  0
   21.9410   20.3300   17.7360 C   0  0  0  0  0  0
   21.4080   19.5690   18.3020 H   0  0  0  0  0  0
   23.3320   20.4240   17.8550 C   0  0  0  0  0  0
   23.8290   19.7050   18.5050 H   0  0  0  0  0  0
   19.4920   21.0840   16.7280 S   0  0  0  0  0  0
   18.9660   22.4250   16.4950 O   0  0  0  0  0  0
   18.9860   20.3280   17.8690 O   0  0  0  0  0  0
   19.2790   20.1180   15.2560 C   0  0  0  0  0  0
   18.2080   19.9970   15.0830 H   0  0  0  0  0  0
   19.7450   19.1420   15.4000 H   0  0  0  0  0  0
   19.7340   20.6460   14.4150 H   0  0  0  0  0  0
   26.1830   22.7350   15.1490 C   0  0  0  0  0  0
   26.4210   24.1010   14.9080 C   0  0  0  0  0  0
   26.2110   24.6210   13.6160 C   0  0  0  0  0  0
   26.4080   25.6790   13.4530 H   0  0  0  0  0  0
   25.7650   23.8070   12.5690 C   0  0  0  0  0  0
   25.5300   22.4440   12.8070 C   0  0  0  0  0  0
   25.7500   21.9190   14.0900 C   0  0  0  0  0  0
   25.5830   20.8560   14.2680 H   0  0  0  0  0  0
   25.0550   21.5350   11.7050 C   0  0  0  0  0  0
   24.9050   20.5110   12.0640 H   0  0  0  0  0  0
   25.7940   21.5000   10.8990 H   0  0  0  0  0  0
   24.0980   21.8890   11.3090 H   0  0  0  0  0  0
   25.5320   24.2360   11.2880 O   0  0  0  0  0  0
   25.7510   25.6170   11.0090 C   0  0  0  0  0  0
   25.5140   25.7850    9.9540 H   0  0  0  0  0  0
   26.8010   25.8880   11.1620 H   0  0  0  0  0  0
   25.0840   26.2490   11.6060 H   0  0  0  0  0  0
   26.9130   25.0230   15.9930 C   0  0  0  0  0  0
   27.9580   24.8020   16.2320 H   0  0  0  0  0  0
   26.3000   24.9220   16.8950 H   0  0  0  0  0  0
   26.8530   26.0730   15.6840 H   0  0  0  0  0  0
  1  2  1  0  0  0
  1  6  2  0  0  0
  1 28  1  0  0  0
  2  3  1  0  0  0
  2 11  1  0  0  0
  3  4  1  0  0  0
  3  5  2  0  0  0
  5  6  1  0  0  0
  5  7  1  0  0  0
  7  8  1  0  0  0
  7  9  1  0  0  0
  7 10  1  0  0  0
 11 12  1  0  0  0
 11 19  2  0  0  0
 12 13  1  0  0  0
 12 14  2  0  0  0
 14 15  1  0  0  0
 14 16  1  0  0  0
 16 17  2  0  0  0
 16 21  1  0  0  0
 17 18  1  0  0  0
 17 19  1  0  0  0
 19 20  1  0  0  0
 21 22  2  0  0  0
 21 23  2  0  0  0
 21 24  1  0  0  0
 24 25  1  0  0  0
 24 26  1  0  0  0
 24 27  1  0  0  0
 28 29  1  0  0  0
 28 34  2  0  0  0
 29 30  2  0  0  0
 29 45  1  0  0  0
 30 31  1  0  0  0
 30 32  1  0  0  0
 32 33  2  0  0  0
 32 40  1  0  0  0
 33 34  1  0  0  0
 33 36  1  0  0  0
 34 35  1  0  0  0
 36 37  1  0  0  0
 36 38  1  0  0  0
 36 39  1  0  0  0
 40 41  1  0  0  0
 41 42  1  0  0  0
 41 43  1  0  0  0
 41 44  1  0  0  0
 45 46  1  0  0  0
 45 47  1  0  0  0
 45 48  1  0  0  0
M  END
>  <ACTIVITY>
4.91

>  <SET>
2

>  <Min_dist>
0.06

>  <Avg_dist>
0.47

$$$$
3-83
  Cerius2 12110214053D 1   1.00000                          
Structure written by Cerius2 SD Exporter
 35 37  0  0  0  0  0  0  0  0999 V2000
   26.4090   22.1300   16.4590 C   0  0  0  0  0  0
   25.4680   21.4610   17.2550 N   0  0  0  0  0  0
   26.1970   20.8890   18.2820 C   0  0  0  0  0  0
   25.7440   20.2840   19.0540 H   0  0  0  0  0  0
   27.4860   21.3340   18.1450 C   0  0  0  0  0  0
   28.3270   21.1300   18.7970 H   0  0  0  0  0  0
   27.6070   22.1120   17.0320 N   0  0  0  0  0  0
   24.0470   21.3740   17.1190 C   0  0  0  0  0  0
   23.3400   22.2580   16.2900 C   0  0  0  0  0  0
   23.8320   23.0600   15.7460 H   0  0  0  0  0  0
   21.9480   22.1690   16.1780 C   0  0  0  0  0  0
   21.4200   22.8660   15.5300 H   0  0  0  0  0  0
   21.2530   21.2060   16.9100 C   0  0  0  0  0  0
   21.9390   20.3230   17.7450 C   0  0  0  0  0  0
   21.4080   19.5630   18.3140 H   0  0  0  0  0  0
   23.3310   20.4140   17.8560 C   0  0  0  0  0  0
   23.8320   19.6970   18.5030 H   0  0  0  0  0  0
   19.4860   21.0850   16.7530 S   0  0  0  0  0  0
   18.9590   22.4300   16.5460 O   0  0  0  0  0  0
   18.9880   20.3110   17.8860 O   0  0  0  0  0  0
   19.2600   20.1450   15.2660 C   0  0  0  0  0  0
   18.1870   20.0310   15.0970 H   0  0  0  0  0  0
   19.7220   19.1640   15.3910 H   0  0  0  0  0  0
   19.7120   20.6850   14.4320 H   0  0  0  0  0  0
   26.1840   22.7080   15.1290 C   0  0  0  0  0  0
   26.4440   24.0680   14.9080 C   0  0  0  0  0  0
   26.7930   24.6990   15.7250 H   0  0  0  0  0  0
   26.2560   24.6320   13.6430 C   0  0  0  0  0  0
   26.4550   25.6910   13.4920 H   0  0  0  0  0  0
   25.8190   23.8340   12.5880 C   0  0  0  0  0  0
   25.5750   22.4770   12.7860 C   0  0  0  0  0  0
   25.2420   21.8480   11.9630 H   0  0  0  0  0  0
   25.7640   21.9130   14.0520 C   0  0  0  0  0  0
   25.5810   20.8480   14.1860 H   0  0  0  0  0  0
   25.5870   24.5270   11.0290 Cl  0  0  0  0  0  0
  1  2  1  0  0  0
  1  7  2  0  0  0
  1 25  1  0  0  0
  2  3  1  0  0  0
  2  8  1  0  0  0
  3  4  1  0  0  0
  3  5  2  0  0  0
  5  6  1  0  0  0
  5  7  1  0  0  0
  8  9  1  0  0  0
  8 16  2  0  0  0
  9 10  1  0  0  0
  9 11  2  0  0  0
 11 12  1  0  0  0
 11 13  1  0  0  0
 13 14  2  0  0  0
 13 18  1  0  0  0
 14 15  1  0  0  0
 14 16  1  0  0  0
 16 17  1  0  0  0
 18 19  2  0  0  0
 18 20  2  0  0  0
 18 21  1  0  0  0
 21 22  1  0  0  0
 21 23  1  0  0  0
 21 24  1  0  0  0
 25 26  1  0  0  0
 25 33  2  0  0  0
 26 27  1  0  0  0
 26 28  2  0  0  0
 28 29  1  0  0  0
 28 30  1  0  0  0
 30 31  2  0  0  0
 30 35  1  0  0  0
 31 32  1  0  0  0
 31 33  1  0  0  0
 33 34  1  0  0  0
M  END
>  <ACTIVITY>
4

>  <SET>
3

>  <Min_dist>
0.14

>  <Avg_dist>
0.51

$$$$
3-87
  Cerius2 12110214053D 1   1.00000                          
Structure written by Cerius2 SD Exporter
 38 40  0  0  0  0  0  0  0  0999 V2000
   26.4090   22.1300   16.4600 C   0  0  0  0  0  0
   25.4700   21.4600   17.2560 N   0  0  0  0  0  0
   26.1990   20.8860   18.2830 C   0  0  0  0  0  0
   25.7390   20.2810   19.0510 H   0  0  0  0  0  0
   27.4990   21.3260   18.1580 C   0  0  0  0  0  0
   27.6060   22.1130   17.0300 N   0  0  0  0  0  0
   28.6660   21.0480   19.0520 C   0  0  0  0  0  0
   28.4030   20.3980   19.8900 H   0  0  0  0  0  0
   29.1880   22.2090   19.5540 F   0  0  0  0  0  0
   29.6890   20.4620   18.3570 F   0  0  0  0  0  0
   24.0490   21.3750   17.1210 C   0  0  0  0  0  0
   23.3440   22.2590   16.2910 C   0  0  0  0  0  0
   23.8380   23.0610   15.7470 H   0  0  0  0  0  0
   21.9520   22.1720   16.1770 C   0  0  0  0  0  0
   21.4260   22.8690   15.5280 H   0  0  0  0  0  0
   21.2550   21.2090   16.9080 C   0  0  0  0  0  0
   21.9400   20.3260   17.7440 C   0  0  0  0  0  0
   21.4070   19.5660   18.3120 H   0  0  0  0  0  0
   23.3320   20.4160   17.8570 C   0  0  0  0  0  0
   23.8310   19.6980   18.5040 H   0  0  0  0  0  0
   19.4890   21.0850   16.7470 S   0  0  0  0  0  0
   18.9610   22.4300   16.5390 O   0  0  0  0  0  0
   18.9890   20.3110   17.8790 O   0  0  0  0  0  0
   19.2670   20.1430   15.2610 C   0  0  0  0  0  0
   18.1940   20.0240   15.0930 H   0  0  0  0  0  0
   19.7330   19.1650   15.3870 H   0  0  0  0  0  0
   19.7160   20.6840   14.4270 H   0  0  0  0  0  0
   26.1810   22.7070   15.1300 C   0  0  0  0  0  0
   26.4420   24.0670   14.9090 C   0  0  0  0  0  0
   26.7920   24.6980   15.7240 H   0  0  0  0  0  0
   26.2500   24.6310   13.6430 C   0  0  0  0  0  0
   26.4490   25.6890   13.4920 H   0  0  0  0  0  0
   25.8100   23.8330   12.5890 C   0  0  0  0  0  0
   25.5670   22.4760   12.7880 C   0  0  0  0  0  0
   25.2320   21.8460   11.9670 H   0  0  0  0  0  0
   25.7580   21.9120   14.0540 C   0  0  0  0  0  0
   25.5760   20.8470   14.1890 H   0  0  0  0  0  0
   25.5750   24.5260   11.0320 Cl  0  0  0  0  0  0
  1  2  1  0  0  0
  1  6  2  0  0  0
  1 28  1  0  0  0
  2  3  1  0  0  0
  2 11  1  0  0  0
  3  4  1  0  0  0
  3  5  2  0  0  0
  5  6  1  0  0  0
  5  7  1  0  0  0
  7  8  1  0  0  0
  7  9  1  0  0  0
  7 10  1  0  0  0
 11 12  1  0  0  0
 11 19  2  0  0  0
 12 13  1  0  0  0
 12 14  2  0  0  0
 14 15  1  0  0  0
 14 16  1  0  0  0
 16 17  2  0  0  0
 16 21  1  0  0  0
 17 18  1  0  0  0
 17 19  1  0  0  0
 19 20  1  0  0  0
 21 22  2  0  0  0
 21 23  2  0  0  0
 21 24  1  0  0  0
 24 25  1  0  0  0
 24 26  1  0  0  0
 24 27  1  0  0  0
 28 29  1  0  0  0
 28 36  2  0  0  0
 29 30  1  0  0  0
 29 31  2  0  0  0
 31 32  1  0  0  0
 31 33  1  0  0  0
 33 34  2  0  0  0
 33 38  1  0  0  0
 34 35  1  0  0  0
 34 36  1  0  0  0
 36 37  1  0  0  0
M  END
>  <ACTIVITY>
6.21

>  <SET>
1

>  <Min_dist>
999.9

>  <Avg_dist>
999.9

$$$$
3-88
  Cerius2 12110214053D 1   1.00000                          
Structure written by Cerius2 SD Exporter
 38 40  0  0  0  0  0  0  0  0999 V2000
   26.4090   22.1300   16.4600 C   0  0  0  0  0  0
   25.4690   21.4610   17.2560 N   0  0  0  0  0  0
   26.1990   20.8880   18.2820 C   0  0  0  0  0  0
   25.7410   20.2850   19.0540 H   0  0  0  0  0  0
   27.4960   21.3280   18.1520 C   0  0  0  0  0  0
   27.6070   22.1110   17.0300 N   0  0  0  0  0  0
   28.6600   21.0560   19.0380 C   0  0  0  0  0  0
   28.3760   20.4140   19.8770 H   0  0  0  0  0  0
   29.0750   21.9880   19.4340 H   0  0  0  0  0  0
   29.6510   20.4170   18.3440 F   0  0  0  0  0  0
   24.0480   21.3760   17.1210 C   0  0  0  0  0  0
   23.3430   22.2590   16.2910 C   0  0  0  0  0  0
   23.8360   23.0610   15.7470 H   0  0  0  0  0  0
   21.9500   22.1710   16.1780 C   0  0  0  0  0  0
   21.4230   22.8680   15.5290 H   0  0  0  0  0  0
   21.2540   21.2080   16.9090 C   0  0  0  0  0  0
   21.9400   20.3260   17.7450 C   0  0  0  0  0  0
   21.4080   19.5650   18.3130 H   0  0  0  0  0  0
   23.3320   20.4160   17.8570 C   0  0  0  0  0  0
   23.8320   19.6980   18.5040 H   0  0  0  0  0  0
   19.4880   21.0840   16.7480 S   0  0  0  0  0  0
   18.9600   22.4280   16.5370 O   0  0  0  0  0  0
   18.9880   20.3120   17.8820 O   0  0  0  0  0  0
   19.2650   20.1400   15.2640 C   0  0  0  0  0  0
   18.1930   20.0230   15.0940 H   0  0  0  0  0  0
   19.7300   19.1600   15.3920 H   0  0  0  0  0  0
   19.7170   20.6790   14.4290 H   0  0  0  0  0  0
   26.1820   22.7070   15.1300 C   0  0  0  0  0  0
   26.4430   24.0680   14.9090 C   0  0  0  0  0  0
   26.7930   24.6980   15.7250 H   0  0  0  0  0  0
   26.2520   24.6310   13.6430 C   0  0  0  0  0  0
   26.4510   25.6900   13.4920 H   0  0  0  0  0  0
   25.8130   23.8330   12.5890 C   0  0  0  0  0  0
   25.5690   22.4760   12.7880 C   0  0  0  0  0  0
   25.2350   21.8470   11.9660 H   0  0  0  0  0  0
   25.7600   21.9130   14.0530 C   0  0  0  0  0  0
   25.5780   20.8480   14.1880 H   0  0  0  0  0  0
   25.5780   24.5260   11.0310 Cl  0  0  0  0  0  0
  1  2  1  0  0  0
  1  6  2  0  0  0
  1 28  1  0  0  0
  2  3  1  0  0  0
  2 11  1  0  0  0
  3  4  1  0  0  0
  3  5  2  0  0  0
  5  6  1  0  0  0
  5  7  1  0  0  0
  7  8  1  0  0  0
  7  9  1  0  0  0
  7 10  1  0  0  0
 11 12  1  0  0  0
 11 19  2  0  0  0
 12 13  1  0  0  0
 12 14  2  0  0  0
 14 15  1  0  0  0
 14 16  1  0  0  0
 16 17  2  0  0  0
 16 21  1  0  0  0
 17 18  1  0  0  0
 17 19  1  0  0  0
 19 20  1  0  0  0
 21 22  2  0  0  0
 21 23  2  0  0  0
 21 24  1  0  0  0
 24 25  1  0  0  0
 24 26  1  0  0  0
 24 27  1  0  0  0
 28 29  1  0  0  0
 28 36  2  0  0  0
 29 30  1  0  0  0
 29 31  2  0  0  0
 31 32  1  0  0  0
 31 33  1  0  0  0
 33 34  2  0  0  0
 33 38  1  0  0  0
 34 35  1  0  0  0
 34 36  1  0  0  0
 36 37  1  0  0  0
M  END
>  <ACTIVITY>
6.39

>  <SET>
1

>  <Min_dist>
999.9

>  <Avg_dist>
999.9

$$$$
3-89
  Cerius2 12110214053D 1   1.00000                          
Structure written by Cerius2 SD Exporter
 37 39  0  0  0  0  0  0  0  0999 V2000
   26.4080   22.1300   16.4600 C   0  0  0  0  0  0
   25.4700   21.4600   17.2570 N   0  0  0  0  0  0
   26.1990   20.8860   18.2830 C   0  0  0  0  0  0
   25.7390   20.2790   19.0510 H   0  0  0  0  0  0
   27.4950   21.3280   18.1540 C   0  0  0  0  0  0
   27.6070   22.1140   17.0300 N   0  0  0  0  0  0
   28.6000   21.0290   19.0520 C   0  0  0  0  0  0
   29.5670   21.4800   18.7750 H   0  0  0  0  0  0
   28.4980   20.3250   20.0600 O   0  0  0  0  0  0
   24.0490   21.3750   17.1210 C   0  0  0  0  0  0
   23.3440   22.2590   16.2910 C   0  0  0  0  0  0
   23.8370   23.0600   15.7470 H   0  0  0  0  0  0
   21.9520   22.1710   16.1780 C   0  0  0  0  0  0
   21.4250   22.8680   15.5290 H   0  0  0  0  0  0
   21.2550   21.2080   16.9090 C   0  0  0  0  0  0
   21.9400   20.3250   17.7440 C   0  0  0  0  0  0
   21.4080   19.5650   18.3130 H   0  0  0  0  0  0
   23.3320   20.4160   17.8570 C   0  0  0  0  0  0
   23.8320   19.6970   18.5040 H   0  0  0  0  0  0
   19.4890   21.0860   16.7470 S   0  0  0  0  0  0
   18.9620   22.4310   16.5310 O   0  0  0  0  0  0
   18.9880   20.3190   17.8830 O   0  0  0  0  0  0
   19.2660   20.1380   15.2650 C   0  0  0  0  0  0
   18.1930   20.0220   15.0950 H   0  0  0  0  0  0
   19.7290   19.1580   15.3960 H   0  0  0  0  0  0
   19.7190   20.6740   14.4290 H   0  0  0  0  0  0
   26.1810   22.7070   15.1300 C   0  0  0  0  0  0
   26.4410   24.0670   14.9090 C   0  0  0  0  0  0
   26.7900   24.6990   15.7250 H   0  0  0  0  0  0
   26.2510   24.6310   13.6430 C   0  0  0  0  0  0
   26.4500   25.6890   13.4920 H   0  0  0  0  0  0
   25.8130   23.8320   12.5890 C   0  0  0  0  0  0
   25.5690   22.4750   12.7880 C   0  0  0  0  0  0
   25.2350   21.8460   11.9660 H   0  0  0  0  0  0
   25.7590   21.9120   14.0540 C   0  0  0  0  0  0
   25.5770   20.8470   14.1890 H   0  0  0  0  0  0
   25.5800   24.5240   11.0300 Cl  0  0  0  0  0  0
  1  2  1  0  0  0
  1  6  2  0  0  0
  1 27  1  0  0  0
  2  3  1  0  0  0
  2 10  1  0  0  0
  3  4  1  0  0  0
  3  5  2  0  0  0
  5  6  1  0  0  0
  5  7  1  0  0  0
  7  8  1  0  0  0
  7  9  2  0  0  0
 10 11  1  0  0  0
 10 18  2  0  0  0
 11 12  1  0  0  0
 11 13  2  0  0  0
 13 14  1  0  0  0
 13 15  1  0  0  0
 15 16  2  0  0  0
 15 20  1  0  0  0
 16 17  1  0  0  0
 16 18  1  0  0  0
 18 19  1  0  0  0
 20 21  2  0  0  0
 20 22  2  0  0  0
 20 23  1  0  0  0
 23 24  1  0  0  0
 23 25  1  0  0  0
 23 26  1  0  0  0
 27 28  1  0  0  0
 27 35  2  0  0  0
 28 29  1  0  0  0
 28 30  2  0  0  0
 30 31  1  0  0  0
 30 32  1  0  0  0
 32 33  2  0  0  0
 32 37  1  0  0  0
 33 34  1  0  0  0
 33 35  1  0  0  0
 35 36  1  0  0  0
M  END
>  <ACTIVITY>
5.8

>  <SET>
1

>  <Min_dist>
999.9

>  <Avg_dist>
999.9

$$$$
3-90
  Cerius2 12110214053D 1   1.00000                          
Structure written by Cerius2 SD Exporter
 36 38  0  0  0  0  0  0  0  0999 V2000
   26.4090   22.1310   16.4600 C   0  0  0  0  0  0
   25.4690   21.4580   17.2570 N   0  0  0  0  0  0
   26.1970   20.8840   18.2840 C   0  0  0  0  0  0
   25.7420   20.2770   19.0540 H   0  0  0  0  0  0
   27.4830   21.3350   18.1440 C   0  0  0  0  0  0
   27.6080   22.1180   17.0290 N   0  0  0  0  0  0
   28.5960   21.0680   19.0060 C   0  0  0  0  0  0
   29.5000   20.8510   19.7080 N   0  0  0  0  0  0
   24.0480   21.3730   17.1200 C   0  0  0  0  0  0
   23.3440   22.2580   16.2910 C   0  0  0  0  0  0
   23.8370   23.0590   15.7470 H   0  0  0  0  0  0
   21.9510   22.1700   16.1780 C   0  0  0  0  0  0
   21.4240   22.8680   15.5300 H   0  0  0  0  0  0
   21.2550   21.2070   16.9100 C   0  0  0  0  0  0
   21.9390   20.3240   17.7450 C   0  0  0  0  0  0
   21.4070   19.5640   18.3130 H   0  0  0  0  0  0
   23.3310   20.4140   17.8570 C   0  0  0  0  0  0
   23.8310   19.6950   18.5030 H   0  0  0  0  0  0
   19.4880   21.0880   16.7480 S   0  0  0  0  0  0
   18.9630   22.4320   16.5270 O   0  0  0  0  0  0
   18.9870   20.3260   17.8870 O   0  0  0  0  0  0
   19.2640   20.1350   15.2690 C   0  0  0  0  0  0
   18.1910   20.0190   15.1000 H   0  0  0  0  0  0
   19.7260   19.1560   15.4030 H   0  0  0  0  0  0
   19.7160   20.6680   14.4310 H   0  0  0  0  0  0
   26.1810   22.7070   15.1300 C   0  0  0  0  0  0
   26.4410   24.0680   14.9080 C   0  0  0  0  0  0
   26.7910   24.6990   15.7240 H   0  0  0  0  0  0
   26.2520   24.6310   13.6430 C   0  0  0  0  0  0
   26.4510   25.6890   13.4910 H   0  0  0  0  0  0
   25.8140   23.8320   12.5880 C   0  0  0  0  0  0
   25.5700   22.4750   12.7870 C   0  0  0  0  0  0
   25.2380   21.8460   11.9650 H   0  0  0  0  0  0
   25.7600   21.9120   14.0530 C   0  0  0  0  0  0
   25.5790   20.8470   14.1880 H   0  0  0  0  0  0
   25.5810   24.5250   11.0300 Cl  0  0  0  0  0  0
  1  2  1  0  0  0
  1  6  2  0  0  0
  1 26  1  0  0  0
  2  3  1  0  0  0
  2  9  1  0  0  0
  3  4  1  0  0  0
  3  5  2  0  0  0
  5  6  1  0  0  0
  5  7  1  0  0  0
  7  8  3  0  0  0
  9 10  1  0  0  0
  9 17  2  0  0  0
 10 11  1  0  0  0
 10 12  2  0  0  0
 12 13  1  0  0  0
 12 14  1  0  0  0
 14 15  2  0  0  0
 14 19  1  0  0  0
 15 16  1  0  0  0
 15 17  1  0  0  0
 17 18  1  0  0  0
 19 20  2  0  0  0
 19 21  2  0  0  0
 19 22  1  0  0  0
 22 23  1  0  0  0
 22 24  1  0  0  0
 22 25  1  0  0  0
 26 27  1  0  0  0
 26 34  2  0  0  0
 27 28  1  0  0  0
 27 29  2  0  0  0
 29 30  1  0  0  0
 29 31  1  0  0  0
 31 32  2  0  0  0
 31 36  1  0  0  0
 32 33  1  0  0  0
 32 34  1  0  0  0
 34 35  1  0  0  0
M  END
>  <ACTIVITY>
6.64

>  <SET>
1

>  <Min_dist>
999.9

>  <Avg_dist>
999.9

$$$$
3-91
  Cerius2 12110214053D 1   1.00000                          
Structure written by Cerius2 SD Exporter
 44 46  0  0  0  0  0  0  0  0999 V2000
   26.4080   22.1300   16.4600 C   0  0  0  0  0  0
   25.4700   21.4600   17.2570 N   0  0  0  0  0  0
   26.1990   20.8850   18.2810 C   0  0  0  0  0  0
   25.7420   20.2780   19.0510 H   0  0  0  0  0  0
   27.4980   21.3250   18.1550 C   0  0  0  0  0  0
   27.6060   22.1130   17.0290 N   0  0  0  0  0  0
   28.6060   21.0200   19.0620 C   0  0  0  0  0  0
   28.4930   20.3140   20.0620 O   0  0  0  0  0  0
   29.7750   21.6080   18.6670 O   0  0  0  0  0  0
   30.8980   21.3440   19.5190 C   0  0  0  0  0  0
   31.0900   20.2660   19.5510 H   0  0  0  0  0  0
   30.6880   21.7120   20.5290 H   0  0  0  0  0  0
   32.1050   22.0640   18.9500 C   0  0  0  0  0  0
   32.9900   21.8920   19.5690 H   0  0  0  0  0  0
   31.9180   23.1420   18.8910 H   0  0  0  0  0  0
   32.3140   21.7210   17.9310 H   0  0  0  0  0  0
   24.0490   21.3760   17.1230 C   0  0  0  0  0  0
   23.3440   22.2600   16.2930 C   0  0  0  0  0  0
   23.8370   23.0620   15.7490 H   0  0  0  0  0  0
   21.9520   22.1720   16.1790 C   0  0  0  0  0  0
   21.4250   22.8680   15.5290 H   0  0  0  0  0  0
   21.2560   21.2080   16.9090 C   0  0  0  0  0  0
   21.9400   20.3270   17.7460 C   0  0  0  0  0  0
   21.4080   19.5660   18.3140 H   0  0  0  0  0  0
   23.3320   20.4170   17.8590 C   0  0  0  0  0  0
   23.8320   19.6990   18.5070 H   0  0  0  0  0  0
   19.4890   21.0850   16.7440 S   0  0  0  0  0  0
   18.9620   22.4280   16.5260 O   0  0  0  0  0  0
   18.9870   20.3180   17.8800 O   0  0  0  0  0  0
   19.2700   20.1350   15.2630 C   0  0  0  0  0  0
   18.1980   20.0170   15.0920 H   0  0  0  0  0  0
   19.7340   19.1560   15.3960 H   0  0  0  0  0  0
   19.7240   20.6700   14.4270 H   0  0  0  0  0  0
   26.1800   22.7070   15.1300 C   0  0  0  0  0  0
   26.4410   24.0670   14.9090 C   0  0  0  0  0  0
   26.7910   24.6980   15.7250 H   0  0  0  0  0  0
   26.2510   24.6310   13.6440 C   0  0  0  0  0  0
   26.4510   25.6890   13.4920 H   0  0  0  0  0  0
   25.8130   23.8330   12.5890 C   0  0  0  0  0  0
   25.5690   22.4760   12.7870 C   0  0  0  0  0  0
   25.2360   21.8470   11.9650 H   0  0  0  0  0  0
   25.7590   21.9120   14.0530 C   0  0  0  0  0  0
   25.5780   20.8470   14.1870 H   0  0  0  0  0  0
   25.5790   24.5260   11.0310 Cl  0  0  0  0  0  0
  1  2  1  0  0  0
  1  6  2  0  0  0
  1 34  1  0  0  0
  2  3  1  0  0  0
  2 17  1  0  0  0
  3  4  1  0  0  0
  3  5  2  0  0  0
  5  6  1  0  0  0
  5  7  1  0  0  0
  7  8  2  0  0  0
  7  9  1  0  0  0
  9 10  1  0  0  0
 10 11  1  0  0  0
 10 12  1  0  0  0
 10 13  1  0  0  0
 13 14  1  0  0  0
 13 15  1  0  0  0
 13 16  1  0  0  0
 17 18  1  0  0  0
 17 25  2  0  0  0
 18 19  1  0  0  0
 18 20  2  0  0  0
 20 21  1  0  0  0
 20 22  1  0  0  0
 22 23  2  0  0  0
 22 27  1  0  0  0
 23 24  1  0  0  0
 23 25  1  0  0  0
 25 26  1  0  0  0
 27 28  2  0  0  0
 27 29  2  0  0  0
 27 30  1  0  0  0
 30 31  1  0  0  0
 30 32  1  0  0  0
 30 33  1  0  0  0
 34 35  1  0  0  0
 34 42  2  0  0  0
 35 36  1  0  0  0
 35 37  2  0  0  0
 37 38  1  0  0  0
 37 39  1  0  0  0
 39 40  2  0  0  0
 39 44  1  0  0  0
 40 41  1  0  0  0
 40 42  1  0  0  0
 42 43  1  0  0  0
M  END
>  <ACTIVITY>
5.24

>  <SET>
2

>  <Min_dist>
0.14

>  <Avg_dist>
0.56

$$$$
3-92
  Cerius2 12110214053D 1   1.00000                          
Structure written by Cerius2 SD Exporter
 37 39  0  0  0  0  0  0  0  0999 V2000
   26.4090   22.1300   16.4600 C   0  0  0  0  0  0
   25.4710   21.4600   17.2570 N   0  0  0  0  0  0
   26.1990   20.8850   18.2810 C   0  0  0  0  0  0
   25.7430   20.2770   19.0500 H   0  0  0  0  0  0
   27.4980   21.3260   18.1570 C   0  0  0  0  0  0
   27.6060   22.1150   17.0300 N   0  0  0  0  0  0
   28.6020   21.0200   19.0630 C   0  0  0  0  0  0
   28.5190   20.3200   20.0670 O   0  0  0  0  0  0
   29.7820   21.5870   18.7090 O   0  5  0  0  0  0
   24.0490   21.3750   17.1220 C   0  0  0  0  0  0
   23.3450   22.2590   16.2920 C   0  0  0  0  0  0
   23.8370   23.0610   15.7490 H   0  0  0  0  0  0
   21.9520   22.1710   16.1780 C   0  0  0  0  0  0
   21.4260   22.8680   15.5290 H   0  0  0  0  0  0
   21.2560   21.2080   16.9090 C   0  0  0  0  0  0
   21.9400   20.3260   17.7450 C   0  0  0  0  0  0
   21.4080   19.5660   18.3130 H   0  0  0  0  0  0
   23.3320   20.4160   17.8580 C   0  0  0  0  0  0
   23.8310   19.6980   18.5050 H   0  0  0  0  0  0
   19.4890   21.0870   16.7450 S   0  0  0  0  0  0
   18.9630   22.4310   16.5260 O   0  0  0  0  0  0
   18.9870   20.3220   17.8830 O   0  0  0  0  0  0
   19.2670   20.1350   15.2660 C   0  0  0  0  0  0
   18.1950   20.0190   15.0950 H   0  0  0  0  0  0
   19.7300   19.1560   15.3990 H   0  0  0  0  0  0
   19.7210   20.6690   14.4280 H   0  0  0  0  0  0
   26.1810   22.7070   15.1310 C   0  0  0  0  0  0
   26.4410   24.0670   14.9090 C   0  0  0  0  0  0
   26.7920   24.6980   15.7240 H   0  0  0  0  0  0
   26.2490   24.6300   13.6430 C   0  0  0  0  0  0
   26.4490   25.6890   13.4910 H   0  0  0  0  0  0
   25.8090   23.8320   12.5900 C   0  0  0  0  0  0
   25.5660   22.4750   12.7890 C   0  0  0  0  0  0
   25.2310   21.8450   11.9680 H   0  0  0  0  0  0
   25.7580   21.9120   14.0550 C   0  0  0  0  0  0
   25.5760   20.8470   14.1900 H   0  0  0  0  0  0
   25.5730   24.5240   11.0310 Cl  0  0  0  0  0  0
  1  2  1  0  0  0
  1  6  2  0  0  0
  1 27  1  0  0  0
  2  3  1  0  0  0
  2 10  1  0  0  0
  3  4  1  0  0  0
  3  5  2  0  0  0
  5  6  1  0  0  0
  5  7  1  0  0  0
  7  8  2  0  0  0
  7  9  1  0  0  0
 10 11  1  0  0  0
 10 18  2  0  0  0
 11 12  1  0  0  0
 11 13  2  0  0  0
 13 14  1  0  0  0
 13 15  1  0  0  0
 15 16  2  0  0  0
 15 20  1  0  0  0
 16 17  1  0  0  0
 16 18  1  0  0  0
 18 19  1  0  0  0
 20 21  2  0  0  0
 20 22  2  0  0  0
 20 23  1  0  0  0
 23 24  1  0  0  0
 23 25  1  0  0  0
 23 26  1  0  0  0
 27 28  1  0  0  0
 27 35  2  0  0  0
 28 29  1  0  0  0
 28 30  2  0  0  0
 30 31  1  0  0  0
 30 32  1  0  0  0
 32 33  2  0  0  0
 32 37  1  0  0  0
 33 34  1  0  0  0
 33 35  1  0  0  0
 35 36  1  0  0  0
M  CHG  1   9  -1
M  END
>  <ACTIVITY>
4

>  <SET>
3

>  <Min_dist>
0.08

>  <Avg_dist>
0.5

$$$$
3-96
  Cerius2 12110214053D 1   1.00000                          
Structure written by Cerius2 SD Exporter
 45 48  0  0  0  0  0  0  0  0999 V2000
   26.4080   22.1290   16.4600 C   0  0  0  0  0  0
   25.4700   21.4610   17.2570 N   0  0  0  0  0  0
   26.2000   20.8880   18.2850 C   0  0  0  0  0  0
   25.7290   20.2870   19.0480 H   0  0  0  0  0  0
   27.4940   21.3290   18.1500 C   0  0  0  0  0  0
   27.6050   22.1100   17.0300 N   0  0  0  0  0  0
   28.6140   21.0420   19.0370 C   0  0  0  0  0  0
   28.4810   20.2230   20.1690 C   0  0  0  0  0  0
   27.5260   19.7690   20.4270 H   0  0  0  0  0  0
   29.5760   19.9670   21.0000 C   0  0  0  0  0  0
   29.4560   19.3290   21.8750 H   0  0  0  0  0  0
   30.8200   20.5240   20.7120 C   0  0  0  0  0  0
   31.6710   20.3240   21.3600 H   0  0  0  0  0  0
   30.9700   21.3390   19.5930 C   0  0  0  0  0  0
   31.9400   21.7770   19.3630 H   0  0  0  0  0  0
   29.8750   21.5950   18.7620 C   0  0  0  0  0  0
   30.0170   22.2350   17.8920 H   0  0  0  0  0  0
   24.0490   21.3750   17.1210 C   0  0  0  0  0  0
   23.3450   22.2600   16.2910 C   0  0  0  0  0  0
   23.8390   23.0610   15.7470 H   0  0  0  0  0  0
   21.9530   22.1720   16.1770 C   0  0  0  0  0  0
   21.4260   22.8690   15.5280 H   0  0  0  0  0  0
   21.2560   21.2090   16.9080 C   0  0  0  0  0  0
   21.9410   20.3260   17.7440 C   0  0  0  0  0  0
   21.4080   19.5660   18.3110 H   0  0  0  0  0  0
   23.3320   20.4160   17.8570 C   0  0  0  0  0  0
   23.8320   19.6980   18.5040 H   0  0  0  0  0  0
   19.4890   21.0850   16.7460 S   0  0  0  0  0  0
   18.9620   22.4300   16.5360 O   0  0  0  0  0  0
   18.9890   20.3120   17.8790 O   0  0  0  0  0  0
   19.2680   20.1420   15.2610 C   0  0  0  0  0  0
   18.1960   20.0220   15.0930 H   0  0  0  0  0  0
   19.7360   19.1640   15.3880 H   0  0  0  0  0  0
   19.7170   20.6830   14.4260 H   0  0  0  0  0  0
   26.1810   22.7060   15.1300 C   0  0  0  0  0  0
   26.4410   24.0670   14.9090 C   0  0  0  0  0  0
   26.7920   24.6970   15.7260 H   0  0  0  0  0  0
   26.2500   24.6320   13.6440 C   0  0  0  0  0  0
   26.4500   25.6900   13.4940 H   0  0  0  0  0  0
   25.8100   23.8340   12.5900 C   0  0  0  0  0  0
   25.5660   22.4770   12.7880 C   0  0  0  0  0  0
   25.2310   21.8490   11.9660 H   0  0  0  0  0  0
   25.7580   21.9130   14.0530 C   0  0  0  0  0  0
   25.5760   20.8480   14.1870 H   0  0  0  0  0  0
   25.5750   24.5290   11.0330 Cl  0  0  0  0  0  0
  1  2  1  0  0  0
  1  6  2  0  0  0
  1 35  1  0  0  0
  2  3  1  0  0  0
  2 18  1  0  0  0
  3  4  1  0  0  0
  3  5  2  0  0  0
  5  6  1  0  0  0
  5  7  1  0  0  0
  7  8  1  0  0  0
  7 16  2  0  0  0
  8  9  1  0  0  0
  8 10  2  0  0  0
 10 11  1  0  0  0
 10 12  1  0  0  0
 12 13  1  0  0  0
 12 14  2  0  0  0
 14 15  1  0  0  0
 14 16  1  0  0  0
 16 17  1  0  0  0
 18 19  1  0  0  0
 18 26  2  0  0  0
 19 20  1  0  0  0
 19 21  2  0  0  0
 21 22  1  0  0  0
 21 23  1  0  0  0
 23 24  2  0  0  0
 23 28  1  0  0  0
 24 25  1  0  0  0
 24 26  1  0  0  0
 26 27  1  0  0  0
 28 29  2  0  0  0
 28 30  2  0  0  0
 28 31  1  0  0  0
 31 32  1  0  0  0
 31 33  1  0  0  0
 31 34  1  0  0  0
 35 36  1  0  0  0
 35 43  2  0  0  0
 36 37  1  0  0  0
 36 38  2  0  0  0
 38 39  1  0  0  0
 38 40  1  0  0  0
 40 41  2  0  0  0
 40 45  1  0  0  0
 41 42  1  0  0  0
 41 43  1  0  0  0
 43 44  1  0  0  0
M  END
>  <ACTIVITY>
6.62

>  <SET>
1

>  <Min_dist>
999.9

>  <Avg_dist>
999.9

$$$$
3-99
  Cerius2 12110214053D 1   1.00000                          
Structure written by Cerius2 SD Exporter
 42 44  0  0  0  0  0  0  0  0999 V2000
   26.4090   22.1300   16.4600 C   0  0  0  0  0  0
   25.4690   21.4610   17.2560 N   0  0  0  0  0  0
   26.1980   20.8870   18.2820 C   0  0  0  0  0  0
   25.7410   20.2840   19.0530 H   0  0  0  0  0  0
   27.4940   21.3310   18.1530 C   0  0  0  0  0  0
   27.6070   22.1130   17.0310 N   0  0  0  0  0  0
   28.6640   21.0650   19.0420 C   0  0  0  0  0  0
   29.5850   21.0750   18.4470 H   0  0  0  0  0  0
   28.5580   20.0760   19.5030 H   0  0  0  0  0  0
   28.7550   22.0630   20.0730 O   0  0  0  0  0  0
   29.8760   21.8150   20.9190 C   0  0  0  0  0  0
   29.9050   22.5940   21.6850 H   0  0  0  0  0  0
   30.8060   21.8540   20.3430 H   0  0  0  0  0  0
   29.7750   20.8430   21.4120 H   0  0  0  0  0  0
   24.0480   21.3750   17.1200 C   0  0  0  0  0  0
   23.3430   22.2590   16.2900 C   0  0  0  0  0  0
   23.8370   23.0610   15.7470 H   0  0  0  0  0  0
   21.9510   22.1710   16.1770 C   0  0  0  0  0  0
   21.4240   22.8690   15.5280 H   0  0  0  0  0  0
   21.2550   21.2080   16.9090 C   0  0  0  0  0  0
   21.9400   20.3260   17.7440 C   0  0  0  0  0  0
   21.4070   19.5650   18.3120 H   0  0  0  0  0  0
   23.3320   20.4160   17.8570 C   0  0  0  0  0  0
   23.8320   19.6980   18.5040 H   0  0  0  0  0  0
   19.4880   21.0840   16.7490 S   0  0  0  0  0  0
   18.9600   22.4300   16.5430 O   0  0  0  0  0  0
   18.9890   20.3080   17.8800 O   0  0  0  0  0  0
   19.2650   20.1450   15.2610 C   0  0  0  0  0  0
   18.1920   20.0270   15.0930 H   0  0  0  0  0  0
   19.7310   19.1660   15.3860 H   0  0  0  0  0  0
   19.7140   20.6870   14.4280 H   0  0  0  0  0  0
   26.1830   22.7070   15.1300 C   0  0  0  0  0  0
   26.4430   24.0670   14.9080 C   0  0  0  0  0  0
   26.7930   24.6980   15.7250 H   0  0  0  0  0  0
   26.2510   24.6310   13.6430 C   0  0  0  0  0  0
   26.4510   25.6890   13.4920 H   0  0  0  0  0  0
   25.8120   23.8340   12.5890 C   0  0  0  0  0  0
   25.5680   22.4760   12.7880 C   0  0  0  0  0  0
   25.2330   21.8470   11.9660 H   0  0  0  0  0  0
   25.7600   21.9130   14.0530 C   0  0  0  0  0  0
   25.5780   20.8480   14.1880 H   0  0  0  0  0  0
   25.5760   24.5270   11.0320 Cl  0  0  0  0  0  0
  1  2  1  0  0  0
  1  6  2  0  0  0
  1 32  1  0  0  0
  2  3  1  0  0  0
  2 15  1  0  0  0
  3  4  1  0  0  0
  3  5  2  0  0  0
  5  6  1  0  0  0
  5  7  1  0  0  0
  7  8  1  0  0  0
  7  9  1  0  0  0
  7 10  1  0  0  0
 10 11  1  0  0  0
 11 12  1  0  0  0
 11 13  1  0  0  0
 11 14  1  0  0  0
 15 16  1  0  0  0
 15 23  2  0  0  0
 16 17  1  0  0  0
 16 18  2  0  0  0
 18 19  1  0  0  0
 18 20  1  0  0  0
 20 21  2  0  0  0
 20 25  1  0  0  0
 21 22  1  0  0  0
 21 23  1  0  0  0
 23 24  1  0  0  0
 25 26  2  0  0  0
 25 27  2  0  0  0
 25 28  1  0  0  0
 28 29  1  0  0  0
 28 30  1  0  0  0
 28 31  1  0  0  0
 32 33  1  0  0  0
 32 40  2  0  0  0
 33 34  1  0  0  0
 33 35  2  0  0  0
 35 36  1  0  0  0
 35 37  1  0  0  0
 37 38  2  0  0  0
 37 42  1  0  0  0
 38 39  1  0  0  0
 38 40  1  0  0  0
 40 41  1  0  0  0
M  END
>  <ACTIVITY>
5.43

>  <SET>
1

>  <Min_dist>
999.9

>  <Avg_dist>
999.9

$$$$
4-25
  Cerius2 12110214053D 1   1.00000                          
Structure written by Cerius2 SD Exporter
 37 39  0  0  0  0  0  0  0  0999 V2000
   26.4060   22.1350   16.4660 C   0  0  0  0  0  0
   25.4700   21.4550   17.2560 N   0  0  0  0  0  0
   26.1990   20.8730   18.2770 C   0  0  0  0  0  0
   25.7410   20.2570   19.0380 H   0  0  0  0  0  0
   27.4980   21.3230   18.1660 C   0  0  0  0  0  0
   27.6010   22.1230   17.0410 N   0  0  0  0  0  0
   28.6640   21.0420   19.0690 C   0  0  0  0  0  0
   29.1310   22.1720   19.6760 F   0  0  0  0  0  0
   29.7220   20.5010   18.3970 F   0  0  0  0  0  0
   28.3600   20.1670   20.0710 F   0  0  0  0  0  0
   24.0500   21.3680   17.1170 C   0  0  0  0  0  0
   23.3470   22.2550   16.2890 C   0  0  0  0  0  0
   23.8410   23.0620   15.7520 H   0  0  0  0  0  0
   21.9550   22.1680   16.1730 C   0  0  0  0  0  0
   21.4290   22.8710   15.5300 H   0  0  0  0  0  0
   21.2590   21.1930   16.8890 C   0  0  0  0  0  0
   21.9410   20.3200   17.7370 C   0  0  0  0  0  0
   21.4070   19.5620   18.3080 H   0  0  0  0  0  0
   23.3320   20.4100   17.8530 C   0  0  0  0  0  0
   23.8310   19.6950   18.5040 H   0  0  0  0  0  0
   19.4880   21.0980   16.7590 S   0  0  0  0  0  0
   18.9780   22.4550   16.5880 O   0  0  0  0  0  0
   18.9950   20.3090   17.8840 O   0  0  0  0  0  0
   19.2250   20.1900   15.2590 C   0  0  0  0  0  0
   18.1480   20.0880   15.1090 H   0  0  0  0  0  0
   19.6810   19.2030   15.3560 H   0  0  0  0  0  0
   19.6650   20.7410   14.4270 H   0  0  0  0  0  0
   26.1810   22.7140   15.1400 C   0  0  0  0  0  0
   26.4350   24.0680   14.9020 C   0  0  0  0  0  0
   26.7800   24.7150   15.7070 H   0  0  0  0  0  0
   26.2420   24.5980   13.6280 C   0  0  0  0  0  0
   26.4270   25.6490   13.4270 H   0  0  0  0  0  0
   25.8130   23.7530   12.6180 C   0  0  0  0  0  0
   25.6520   24.1310   11.6110 H   0  0  0  0  0  0
   25.5750   22.4320   12.7980 N   0  0  0  0  0  0
   25.7710   21.9450   14.0530 C   0  0  0  0  0  0
   25.5870   20.8770   14.1580 H   0  0  0  0  0  0
  1  2  1  0  0  0
  1  6  2  0  0  0
  1 28  1  0  0  0
  2  3  1  0  0  0
  2 11  1  0  0  0
  3  4  1  0  0  0
  3  5  2  0  0  0
  5  6  1  0  0  0
  5  7  1  0  0  0
  7  8  1  0  0  0
  7  9  1  0  0  0
  7 10  1  0  0  0
 11 12  1  0  0  0
 11 19  2  0  0  0
 12 13  1  0  0  0
 12 14  2  0  0  0
 14 15  1  0  0  0
 14 16  1  0  0  0
 16 17  2  0  0  0
 16 21  1  0  0  0
 17 18  1  0  0  0
 17 19  1  0  0  0
 19 20  1  0  0  0
 21 22  2  0  0  0
 21 23  2  0  0  0
 21 24  1  0  0  0
 24 25  1  0  0  0
 24 26  1  0  0  0
 24 27  1  0  0  0
 28 29  1  0  0  0
 28 36  2  0  0  0
 29 30  1  0  0  0
 29 31  2  0  0  0
 31 32  1  0  0  0
 31 33  1  0  0  0
 33 34  1  0  0  0
 33 35  2  0  0  0
 35 36  1  0  0  0
 36 37  1  0  0  0
M  END
>  <ACTIVITY>
5.77

>  <SET>
1

>  <Min_dist>
999.9

>  <Avg_dist>
999.9

$$$$
4-36
  Cerius2 12110214053D 1   1.00000                          
Structure written by Cerius2 SD Exporter
 40 42  0  0  0  0  0  0  0  0999 V2000
   26.4130   22.1110   16.4510 C   0  0  0  0  0  0
   25.4670   21.4830   17.2720 N   0  0  0  0  0  0
   26.1920   20.9330   18.3140 C   0  0  0  0  0  0
   25.7280   20.3700   19.1110 H   0  0  0  0  0  0
   27.5070   21.3220   18.1590 C   0  0  0  0  0  0
   27.6200   22.0650   16.9980 N   0  0  0  0  0  0
   28.6780   21.0360   19.0540 C   0  0  0  0  0  0
   29.2000   22.1730   19.6010 F   0  0  0  0  0  0
   29.7010   20.4230   18.3900 F   0  0  0  0  0  0
   28.3580   20.2200   20.1010 F   0  0  0  0  0  0
   24.0440   21.3940   17.1330 C   0  0  0  0  0  0
   23.3340   22.2670   16.2960 C   0  0  0  0  0  0
   23.8140   23.0760   15.7560 H   0  0  0  0  0  0
   21.9430   22.1620   16.1730 C   0  0  0  0  0  0
   21.4130   22.8560   15.5230 H   0  0  0  0  0  0
   21.2530   21.1820   16.8880 C   0  0  0  0  0  0
   21.9400   20.3210   17.7430 C   0  0  0  0  0  0
   21.4130   19.5590   18.3120 H   0  0  0  0  0  0
   23.3310   20.4290   17.8660 C   0  0  0  0  0  0
   23.8300   19.7170   18.5200 H   0  0  0  0  0  0
   19.4850   21.0660   16.7440 S   0  0  0  0  0  0
   18.9600   22.4160   16.5670 O   0  0  0  0  0  0
   18.9930   20.2720   17.8660 O   0  0  0  0  0  0
   19.2450   20.1510   15.2440 C   0  0  0  0  0  0
   18.1710   20.0350   15.0860 H   0  0  0  0  0  0
   19.7130   19.1700   15.3470 H   0  0  0  0  0  0
   19.6860   20.7070   14.4140 H   0  0  0  0  0  0
   26.1830   22.6920   15.1260 C   0  0  0  0  0  0
   26.4570   24.0520   14.9250 C   0  0  0  0  0  0
   26.8180   24.6680   15.7460 H   0  0  0  0  0  0
   26.2600   24.6270   13.6730 C   0  0  0  0  0  0
   26.4580   25.6810   13.5040 H   0  0  0  0  0  0
   25.8070   23.8210   12.6470 C   0  0  0  0  0  0
   25.6360   24.2310   11.6540 H   0  0  0  0  0  0
   25.5540   22.4990   12.7900 N   0  0  0  0  0  0
   25.7560   21.9430   14.0190 C   0  0  0  0  0  0
   25.4990   20.4640   14.1080 C   0  0  0  0  0  0
   25.3580   20.0390   13.1080 H   0  0  0  0  0  0
   24.5930   20.2640   14.6850 H   0  0  0  0  0  0
   26.3490   19.9480   14.5660 H   0  0  0  0  0  0
  1  2  1  0  0  0
  1  6  2  0  0  0
  1 28  1  0  0  0
  2  3  1  0  0  0
  2 11  1  0  0  0
  3  4  1  0  0  0
  3  5  2  0  0  0
  5  6  1  0  0  0
  5  7  1  0  0  0
  7  8  1  0  0  0
  7  9  1  0  0  0
  7 10  1  0  0  0
 11 12  1  0  0  0
 11 19  2  0  0  0
 12 13  1  0  0  0
 12 14  2  0  0  0
 14 15  1  0  0  0
 14 16  1  0  0  0
 16 17  2  0  0  0
 16 21  1  0  0  0
 17 18  1  0  0  0
 17 19  1  0  0  0
 19 20  1  0  0  0
 21 22  2  0  0  0
 21 23  2  0  0  0
 21 24  1  0  0  0
 24 25  1  0  0  0
 24 26  1  0  0  0
 24 27  1  0  0  0
 28 29  1  0  0  0
 28 36  2  0  0  0
 29 30  1  0  0  0
 29 31  2  0  0  0
 31 32  1  0  0  0
 31 33  1  0  0  0
 33 34  1  0  0  0
 33 35  2  0  0  0
 35 36  1  0  0  0
 36 37  1  0  0  0
 37 38  1  0  0  0
 37 39  1  0  0  0
 37 40  1  0  0  0
M  END
>  <ACTIVITY>
5.02

>  <SET>
1

>  <Min_dist>
999.9

>  <Avg_dist>
999.9

$$$$
4-40
  Cerius2 12110214053D 1   1.00000                          
Structure written by Cerius2 SD Exporter
 41 43  0  0  0  0  0  0  0  0999 V2000
   26.4060   22.1340   16.4660 C   0  0  0  0  0  0
   25.4700   21.4550   17.2570 N   0  0  0  0  0  0
   26.1990   20.8730   18.2770 C   0  0  0  0  0  0
   25.7410   20.2570   19.0380 H   0  0  0  0  0  0
   27.4990   21.3220   18.1650 C   0  0  0  0  0  0
   27.6020   22.1220   17.0400 N   0  0  0  0  0  0
   28.6660   21.0410   19.0670 C   0  0  0  0  0  0
   29.1600   22.1760   19.6420 F   0  0  0  0  0  0
   29.7070   20.4620   18.4010 F   0  0  0  0  0  0
   28.3520   20.1970   20.0930 F   0  0  0  0  0  0
   24.0500   21.3690   17.1180 C   0  0  0  0  0  0
   23.3480   22.2560   16.2890 C   0  0  0  0  0  0
   23.8420   23.0630   15.7550 H   0  0  0  0  0  0
   21.9560   22.1680   16.1730 C   0  0  0  0  0  0
   21.4290   22.8710   15.5300 H   0  0  0  0  0  0
   21.2590   21.1930   16.8890 C   0  0  0  0  0  0
   21.9410   20.3200   17.7380 C   0  0  0  0  0  0
   21.4070   19.5630   18.3080 H   0  0  0  0  0  0
   23.3320   20.4110   17.8540 C   0  0  0  0  0  0
   23.8310   19.6950   18.5060 H   0  0  0  0  0  0
   19.4880   21.0980   16.7580 S   0  0  0  0  0  0
   18.9780   22.4540   16.5860 O   0  0  0  0  0  0
   18.9960   20.3080   17.8820 O   0  0  0  0  0  0
   19.2260   20.1890   15.2580 C   0  0  0  0  0  0
   18.1500   20.0860   15.1070 H   0  0  0  0  0  0
   19.6830   19.2020   15.3550 H   0  0  0  0  0  0
   19.6670   20.7410   14.4250 H   0  0  0  0  0  0
   26.1800   22.7140   15.1410 C   0  0  0  0  0  0
   26.4340   24.0670   14.9030 C   0  0  0  0  0  0
   26.7790   24.7150   15.7070 H   0  0  0  0  0  0
   26.2410   24.5970   13.6280 C   0  0  0  0  0  0
   26.4280   25.6480   13.4310 H   0  0  0  0  0  0
   25.8120   23.7500   12.6190 C   0  0  0  0  0  0
   25.5750   22.4340   12.7980 N   0  0  0  0  0  0
   25.7710   21.9460   14.0520 C   0  0  0  0  0  0
   25.5880   20.8780   14.1560 H   0  0  0  0  0  0
   25.6360   24.3170   11.3740 O   0  0  0  0  0  0
   25.9250   25.7140   11.3410 C   0  0  0  0  0  0
   25.7590   26.0640   10.3170 H   0  0  0  0  0  0
   26.9740   25.9070   11.5940 H   0  0  0  0  0  0
   25.2510   26.2730   11.9980 H   0  0  0  0  0  0
  1  2  1  0  0  0
  1  6  2  0  0  0
  1 28  1  0  0  0
  2  3  1  0  0  0
  2 11  1  0  0  0
  3  4  1  0  0  0
  3  5  2  0  0  0
  5  6  1  0  0  0
  5  7  1  0  0  0
  7  8  1  0  0  0
  7  9  1  0  0  0
  7 10  1  0  0  0
 11 12  1  0  0  0
 11 19  2  0  0  0
 12 13  1  0  0  0
 12 14  2  0  0  0
 14 15  1  0  0  0
 14 16  1  0  0  0
 16 17  2  0  0  0
 16 21  1  0  0  0
 17 18  1  0  0  0
 17 19  1  0  0  0
 19 20  1  0  0  0
 21 22  2  0  0  0
 21 23  2  0  0  0
 21 24  1  0  0  0
 24 25  1  0  0  0
 24 26  1  0  0  0
 24 27  1  0  0  0
 28 29  1  0  0  0
 28 35  2  0  0  0
 29 30  1  0  0  0
 29 31  2  0  0  0
 31 32  1  0  0  0
 31 33  1  0  0  0
 33 34  2  0  0  0
 33 37  1  0  0  0
 34 35  1  0  0  0
 35 36  1  0  0  0
 37 38  1  0  0  0
 38 39  1  0  0  0
 38 40  1  0  0  0
 38 41  1  0  0  0
M  END
>  <ACTIVITY>
5.92

>  <SET>
1

>  <Min_dist>
999.9

>  <Avg_dist>
999.9

$$$$
4-41
  Cerius2 12110214053D 1   1.00000                          
Structure written by Cerius2 SD Exporter
 41 43  0  0  0  0  0  0  0  0999 V2000
   26.4040   22.1330   16.4640 C   0  0  0  0  0  0
   25.4690   21.4550   17.2560 N   0  0  0  0  0  0
   26.1980   20.8760   18.2780 C   0  0  0  0  0  0
   25.7410   20.2610   19.0410 H   0  0  0  0  0  0
   27.4980   21.3250   18.1660 C   0  0  0  0  0  0
   27.6000   22.1230   17.0390 N   0  0  0  0  0  0
   28.6640   21.0480   19.0690 C   0  0  0  0  0  0
   29.1240   22.1780   19.6810 F   0  0  0  0  0  0
   29.7250   20.5140   18.3960 F   0  0  0  0  0  0
   28.3630   20.1670   20.0680 F   0  0  0  0  0  0
   24.0490   21.3680   17.1180 C   0  0  0  0  0  0
   23.3460   22.2550   16.2900 C   0  0  0  0  0  0
   23.8390   23.0620   15.7540 H   0  0  0  0  0  0
   21.9540   22.1670   16.1740 C   0  0  0  0  0  0
   21.4270   22.8700   15.5310 H   0  0  0  0  0  0
   21.2580   21.1920   16.8900 C   0  0  0  0  0  0
   21.9400   20.3190   17.7390 C   0  0  0  0  0  0
   21.4060   19.5620   18.3100 H   0  0  0  0  0  0
   23.3320   20.4100   17.8540 C   0  0  0  0  0  0
   23.8310   19.6950   18.5060 H   0  0  0  0  0  0
   19.4870   21.0960   16.7610 S   0  0  0  0  0  0
   18.9760   22.4530   16.5900 O   0  0  0  0  0  0
   18.9960   20.3060   17.8860 O   0  0  0  0  0  0
   19.2240   20.1880   15.2610 C   0  0  0  0  0  0
   18.1470   20.0850   15.1120 H   0  0  0  0  0  0
   19.6810   19.2010   15.3580 H   0  0  0  0  0  0
   19.6630   20.7400   14.4290 H   0  0  0  0  0  0
   26.1800   22.7100   15.1370 C   0  0  0  0  0  0
   26.4340   24.0660   14.8990 C   0  0  0  0  0  0
   26.7770   24.7030   15.7130 H   0  0  0  0  0  0
   26.2500   24.6090   13.6280 C   0  0  0  0  0  0
   25.8210   23.7530   12.6200 C   0  0  0  0  0  0
   25.6510   24.0970   11.6030 H   0  0  0  0  0  0
   25.5810   22.4280   12.7990 N   0  0  0  0  0  0
   25.7730   21.9390   14.0520 C   0  0  0  0  0  0
   25.5900   20.8710   14.1560 H   0  0  0  0  0  0
   26.5170   25.9440   13.5160 O   0  0  0  0  0  0
   26.9470   26.6080   14.7040 C   0  0  0  0  0  0
   27.1200   27.6590   14.4540 H   0  0  0  0  0  0
   27.8910   26.1900   15.0680 H   0  0  0  0  0  0
   26.1720   26.5700   15.4770 H   0  0  0  0  0  0
  1  2  1  0  0  0
  1  6  2  0  0  0
  1 28  1  0  0  0
  2  3  1  0  0  0
  2 11  1  0  0  0
  3  4  1  0  0  0
  3  5  2  0  0  0
  5  6  1  0  0  0
  5  7  1  0  0  0
  7  8  1  0  0  0
  7  9  1  0  0  0
  7 10  1  0  0  0
 11 12  1  0  0  0
 11 19  2  0  0  0
 12 13  1  0  0  0
 12 14  2  0  0  0
 14 15  1  0  0  0
 14 16  1  0  0  0
 16 17  2  0  0  0
 16 21  1  0  0  0
 17 18  1  0  0  0
 17 19  1  0  0  0
 19 20  1  0  0  0
 21 22  2  0  0  0
 21 23  2  0  0  0
 21 24  1  0  0  0
 24 25  1  0  0  0
 24 26  1  0  0  0
 24 27  1  0  0  0
 28 29  1  0  0  0
 28 35  2  0  0  0
 29 30  1  0  0  0
 29 31  2  0  0  0
 31 32  1  0  0  0
 31 37  1  0  0  0
 32 33  1  0  0  0
 32 34  2  0  0  0
 34 35  1  0  0  0
 35 36  1  0  0  0
 37 38  1  0  0  0
 38 39  1  0  0  0
 38 40  1  0  0  0
 38 41  1  0  0  0
M  END
>  <ACTIVITY>
4.42

>  <SET>
1

>  <Min_dist>
999.9

>  <Avg_dist>
999.9

$$$$
4-42
  Cerius2 12110214053D 1   1.00000                          
Structure written by Cerius2 SD Exporter
 37 39  0  0  0  0  0  0  0  0999 V2000
   26.4050   22.1350   16.4650 C   0  0  0  0  0  0
   25.4690   21.4550   17.2550 N   0  0  0  0  0  0
   26.1990   20.8740   18.2760 C   0  0  0  0  0  0
   25.7420   20.2570   19.0370 H   0  0  0  0  0  0
   27.4980   21.3250   18.1640 C   0  0  0  0  0  0
   27.6000   22.1250   17.0400 N   0  0  0  0  0  0
   28.6650   21.0450   19.0670 C   0  0  0  0  0  0
   29.1470   22.1790   19.6550 F   0  0  0  0  0  0
   29.7140   20.4830   18.3980 F   0  0  0  0  0  0
   28.3550   20.1880   20.0830 F   0  0  0  0  0  0
   24.0490   21.3680   17.1170 C   0  0  0  0  0  0
   23.3470   22.2560   16.2890 C   0  0  0  0  0  0
   23.8400   23.0630   15.7530 H   0  0  0  0  0  0
   21.9540   22.1680   16.1740 C   0  0  0  0  0  0
   21.4280   22.8710   15.5310 H   0  0  0  0  0  0
   21.2590   21.1920   16.8900 C   0  0  0  0  0  0
   21.9410   20.3200   17.7380 C   0  0  0  0  0  0
   21.4070   19.5620   18.3090 H   0  0  0  0  0  0
   23.3320   20.4100   17.8530 C   0  0  0  0  0  0
   23.8310   19.6950   18.5040 H   0  0  0  0  0  0
   19.4870   21.0980   16.7600 S   0  0  0  0  0  0
   18.9770   22.4550   16.5900 O   0  0  0  0  0  0
   18.9960   20.3080   17.8850 O   0  0  0  0  0  0
   19.2240   20.1890   15.2610 C   0  0  0  0  0  0
   18.1470   20.0880   15.1110 H   0  0  0  0  0  0
   19.6800   19.2020   15.3580 H   0  0  0  0  0  0
   19.6640   20.7410   14.4280 H   0  0  0  0  0  0
   26.1800   22.7150   15.1390 C   0  0  0  0  0  0
   26.4350   24.0710   14.9060 C   0  0  0  0  0  0
   26.7780   24.7070   15.7200 H   0  0  0  0  0  0
   26.2450   24.5980   13.6320 C   0  0  0  0  0  0
   25.8180   23.7520   12.6190 C   0  0  0  0  0  0
   25.6560   24.1200   11.6090 H   0  0  0  0  0  0
   25.5780   22.4270   12.7960 N   0  0  0  0  0  0
   25.7730   21.9420   14.0510 C   0  0  0  0  0  0
   25.5900   20.8740   14.1580 H   0  0  0  0  0  0
   26.5670   26.4260   13.2930 Br  0  0  0  0  0  0
  1  2  1  0  0  0
  1  6  2  0  0  0
  1 28  1  0  0  0
  2  3  1  0  0  0
  2 11  1  0  0  0
  3  4  1  0  0  0
  3  5  2  0  0  0
  5  6  1  0  0  0
  5  7  1  0  0  0
  7  8  1  0  0  0
  7  9  1  0  0  0
  7 10  1  0  0  0
 11 12  1  0  0  0
 11 19  2  0  0  0
 12 13  1  0  0  0
 12 14  2  0  0  0
 14 15  1  0  0  0
 14 16  1  0  0  0
 16 17  2  0  0  0
 16 21  1  0  0  0
 17 18  1  0  0  0
 17 19  1  0  0  0
 19 20  1  0  0  0
 21 22  2  0  0  0
 21 23  2  0  0  0
 21 24  1  0  0  0
 24 25  1  0  0  0
 24 26  1  0  0  0
 24 27  1  0  0  0
 28 29  1  0  0  0
 28 35  2  0  0  0
 29 30  1  0  0  0
 29 31  2  0  0  0
 31 32  1  0  0  0
 31 37  1  0  0  0
 32 33  1  0  0  0
 32 34  2  0  0  0
 34 35  1  0  0  0
 35 36  1  0  0  0
M  END
>  <ACTIVITY>
6.02

>  <SET>
1

>  <Min_dist>
999.9

>  <Avg_dist>
999.9

$$$$
4-43
  Cerius2 12110214053D 1   1.00000                          
Structure written by Cerius2 SD Exporter
 36 38  0  0  0  0  0  0  0  0999 V2000
   26.4050   22.1350   16.4660 C   0  0  0  0  0  0
   25.4690   21.4550   17.2550 N   0  0  0  0  0  0
   26.1970   20.8750   18.2770 C   0  0  0  0  0  0
   25.7390   20.2590   19.0390 H   0  0  0  0  0  0
   27.4970   21.3250   18.1670 C   0  0  0  0  0  0
   27.6000   22.1240   17.0430 N   0  0  0  0  0  0
   28.6620   21.0470   19.0730 C   0  0  0  0  0  0
   29.1100   22.1740   19.6990 F   0  0  0  0  0  0
   29.7300   20.5290   18.3990 F   0  0  0  0  0  0
   28.3630   20.1530   20.0610 F   0  0  0  0  0  0
   24.0490   21.3670   17.1160 C   0  0  0  0  0  0
   23.3460   22.2540   16.2870 C   0  0  0  0  0  0
   23.8400   23.0610   15.7510 H   0  0  0  0  0  0
   21.9540   22.1660   16.1710 C   0  0  0  0  0  0
   21.4270   22.8660   15.5260 H   0  0  0  0  0  0
   21.2570   21.1910   16.8860 C   0  0  0  0  0  0
   21.9400   20.3180   17.7340 C   0  0  0  0  0  0
   21.4040   19.5590   18.3010 H   0  0  0  0  0  0
   23.3320   20.4080   17.8510 C   0  0  0  0  0  0
   23.8300   19.6920   18.5010 H   0  0  0  0  0  0
   19.4910   21.1000   16.7670 S   0  0  0  0  0  0
   18.9560   22.4320   16.5430 O   0  0  0  0  0  0
   18.9800   20.2730   17.8460 O   0  0  0  0  0  0
   19.2800   20.2410   15.3450 N   0  0  0  0  0  0
   18.7870   20.8010   14.6450 H   0  0  0  0  0  0
   18.8010   19.3530   15.5170 H   0  0  0  0  0  0
   26.1810   22.7140   15.1400 C   0  0  0  0  0  0
   26.4350   24.0680   14.9020 C   0  0  0  0  0  0
   26.7790   24.7140   15.7070 H   0  0  0  0  0  0
   26.2440   24.5990   13.6280 C   0  0  0  0  0  0
   26.4290   25.6490   13.4270 H   0  0  0  0  0  0
   25.8170   23.7530   12.6180 C   0  0  0  0  0  0
   25.6570   24.1320   11.6100 H   0  0  0  0  0  0
   25.5790   22.4330   12.7970 N   0  0  0  0  0  0
   25.7730   21.9450   14.0520 C   0  0  0  0  0  0
   25.5890   20.8770   14.1570 H   0  0  0  0  0  0
  1  2  1  0  0  0
  1  6  2  0  0  0
  1 27  1  0  0  0
  2  3  1  0  0  0
  2 11  1  0  0  0
  3  4  1  0  0  0
  3  5  2  0  0  0
  5  6  1  0  0  0
  5  7  1  0  0  0
  7  8  1  0  0  0
  7  9  1  0  0  0
  7 10  1  0  0  0
 11 12  1  0  0  0
 11 19  2  0  0  0
 12 13  1  0  0  0
 12 14  2  0  0  0
 14 15  1  0  0  0
 14 16  1  0  0  0
 16 17  2  0  0  0
 16 21  1  0  0  0
 17 18  1  0  0  0
 17 19  1  0  0  0
 19 20  1  0  0  0
 21 22  2  0  0  0
 21 23  2  0  0  0
 21 24  1  0  0  0
 24 25  1  0  0  0
 24 26  1  0  0  0
 27 28  1  0  0  0
 27 35  2  0  0  0
 28 29  1  0  0  0
 28 30  2  0  0  0
 30 31  1  0  0  0
 30 32  1  0  0  0
 32 33  1  0  0  0
 32 34  2  0  0  0
 34 35  1  0  0  0
 35 36  1  0  0  0
M  END
>  <ACTIVITY>
6.36

>  <SET>
1

>  <Min_dist>
999.9

>  <Avg_dist>
999.9

$$$$
4-44
  Cerius2 12110214053D 1   1.00000                          
Structure written by Cerius2 SD Exporter
 39 41  0  0  0  0  0  0  0  0999 V2000
   26.4120   22.1130   16.4510 C   0  0  0  0  0  0
   25.4650   21.4830   17.2710 N   0  0  0  0  0  0
   26.1900   20.9340   18.3130 C   0  0  0  0  0  0
   25.7260   20.3700   19.1100 H   0  0  0  0  0  0
   27.5050   21.3230   18.1600 C   0  0  0  0  0  0
   27.6180   22.0670   17.0000 N   0  0  0  0  0  0
   28.6750   21.0380   19.0560 C   0  0  0  0  0  0
   29.1800   22.1720   19.6230 F   0  0  0  0  0  0
   29.7080   20.4480   18.3880 F   0  0  0  0  0  0
   28.3600   20.2010   20.0880 F   0  0  0  0  0  0
   24.0430   21.3920   17.1310 C   0  0  0  0  0  0
   23.3320   22.2640   16.2940 C   0  0  0  0  0  0
   23.8120   23.0740   15.7530 H   0  0  0  0  0  0
   21.9410   22.1590   16.1710 C   0  0  0  0  0  0
   21.4090   22.8500   15.5200 H   0  0  0  0  0  0
   21.2500   21.1790   16.8850 C   0  0  0  0  0  0
   21.9390   20.3180   17.7390 C   0  0  0  0  0  0
   21.4100   19.5540   18.3050 H   0  0  0  0  0  0
   23.3300   20.4260   17.8620 C   0  0  0  0  0  0
   23.8290   19.7140   18.5160 H   0  0  0  0  0  0
   19.4870   21.0700   16.7540 S   0  0  0  0  0  0
   18.9410   22.3950   16.5170 O   0  0  0  0  0  0
   18.9750   20.2460   17.8350 O   0  0  0  0  0  0
   19.2950   20.1970   15.3380 N   0  0  0  0  0  0
   18.8010   20.7450   14.6300 H   0  0  0  0  0  0
   18.8250   19.3050   15.5150 H   0  0  0  0  0  0
   26.1840   22.6930   15.1260 C   0  0  0  0  0  0
   26.4580   24.0520   14.9240 C   0  0  0  0  0  0
   26.8170   24.6700   15.7460 H   0  0  0  0  0  0
   26.2640   24.6270   13.6720 C   0  0  0  0  0  0
   26.4610   25.6810   13.5030 H   0  0  0  0  0  0
   25.8130   23.8200   12.6460 C   0  0  0  0  0  0
   25.6450   24.2300   11.6520 H   0  0  0  0  0  0
   25.5610   22.4980   12.7880 N   0  0  0  0  0  0
   25.7600   21.9430   14.0190 C   0  0  0  0  0  0
   25.5050   20.4640   14.1080 C   0  0  0  0  0  0
   24.6000   20.2620   14.6870 H   0  0  0  0  0  0
   26.3560   19.9490   14.5640 H   0  0  0  0  0  0
   25.3620   20.0380   13.1090 H   0  0  0  0  0  0
  1  2  1  0  0  0
  1  6  2  0  0  0
  1 27  1  0  0  0
  2  3  1  0  0  0
  2 11  1  0  0  0
  3  4  1  0  0  0
  3  5  2  0  0  0
  5  6  1  0  0  0
  5  7  1  0  0  0
  7  8  1  0  0  0
  7  9  1  0  0  0
  7 10  1  0  0  0
 11 12  1  0  0  0
 11 19  2  0  0  0
 12 13  1  0  0  0
 12 14  2  0  0  0
 14 15  1  0  0  0
 14 16  1  0  0  0
 16 17  2  0  0  0
 16 21  1  0  0  0
 17 18  1  0  0  0
 17 19  1  0  0  0
 19 20  1  0  0  0
 21 22  2  0  0  0
 21 23  2  0  0  0
 21 24  1  0  0  0
 24 25  1  0  0  0
 24 26  1  0  0  0
 27 28  1  0  0  0
 27 35  2  0  0  0
 28 29  1  0  0  0
 28 30  2  0  0  0
 30 31  1  0  0  0
 30 32  1  0  0  0
 32 33  1  0  0  0
 32 34  2  0  0  0
 34 35  1  0  0  0
 35 36  1  0  0  0
 36 37  1  0  0  0
 36 38  1  0  0  0
 36 39  1  0  0  0
M  END
>  <ACTIVITY>
5.55

>  <SET>
1

>  <Min_dist>
999.9

>  <Avg_dist>
999.9

$$$$
4-48
  Cerius2 12110214053D 1   1.00000                          
Structure written by Cerius2 SD Exporter
 40 42  0  0  0  0  0  0  0  0999 V2000
   26.4030   22.1340   16.4650 C   0  0  0  0  0  0
   25.4680   21.4550   17.2560 N   0  0  0  0  0  0
   26.1970   20.8750   18.2770 C   0  0  0  0  0  0
   25.7390   20.2590   19.0390 H   0  0  0  0  0  0
   27.4960   21.3260   18.1660 C   0  0  0  0  0  0
   27.5980   22.1250   17.0410 N   0  0  0  0  0  0
   28.6620   21.0480   19.0700 C   0  0  0  0  0  0
   29.1080   22.1750   19.6980 F   0  0  0  0  0  0
   29.7310   20.5340   18.3950 F   0  0  0  0  0  0
   28.3660   20.1530   20.0570 F   0  0  0  0  0  0
   24.0480   21.3680   17.1170 C   0  0  0  0  0  0
   23.3450   22.2550   16.2880 C   0  0  0  0  0  0
   23.8380   23.0610   15.7520 H   0  0  0  0  0  0
   21.9530   22.1650   16.1720 C   0  0  0  0  0  0
   21.4250   22.8660   15.5280 H   0  0  0  0  0  0
   21.2560   21.1900   16.8870 C   0  0  0  0  0  0
   21.9390   20.3170   17.7360 C   0  0  0  0  0  0
   21.4030   19.5590   18.3030 H   0  0  0  0  0  0
   23.3310   20.4090   17.8530 C   0  0  0  0  0  0
   23.8300   19.6930   18.5030 H   0  0  0  0  0  0
   19.4900   21.0980   16.7680 S   0  0  0  0  0  0
   18.9540   22.4290   16.5430 O   0  0  0  0  0  0
   18.9800   20.2720   17.8480 O   0  0  0  0  0  0
   19.2800   20.2370   15.3460 N   0  0  0  0  0  0
   18.7860   20.7960   14.6460 H   0  0  0  0  0  0
   18.8030   19.3490   15.5200 H   0  0  0  0  0  0
   26.1800   22.7110   15.1370 C   0  0  0  0  0  0
   26.4340   24.0660   14.8990 C   0  0  0  0  0  0
   26.7750   24.7040   15.7130 H   0  0  0  0  0  0
   26.2520   24.6090   13.6270 C   0  0  0  0  0  0
   25.8260   23.7530   12.6180 C   0  0  0  0  0  0
   25.6590   24.0960   11.6010 H   0  0  0  0  0  0
   25.5860   22.4270   12.7970 N   0  0  0  0  0  0
   25.7760   21.9390   14.0510 C   0  0  0  0  0  0
   25.5930   20.8710   14.1560 H   0  0  0  0  0  0
   26.5200   25.9440   13.5150 O   0  0  0  0  0  0
   26.9450   26.6090   14.7040 C   0  0  0  0  0  0
   27.1170   27.6600   14.4550 H   0  0  0  0  0  0
   27.8900   26.1920   15.0700 H   0  0  0  0  0  0
   26.1690   26.5690   15.4750 H   0  0  0  0  0  0
  1  2  1  0  0  0
  1  6  2  0  0  0
  1 27  1  0  0  0
  2  3  1  0  0  0
  2 11  1  0  0  0
  3  4  1  0  0  0
  3  5  2  0  0  0
  5  6  1  0  0  0
  5  7  1  0  0  0
  7  8  1  0  0  0
  7  9  1  0  0  0
  7 10  1  0  0  0
 11 12  1  0  0  0
 11 19  2  0  0  0
 12 13  1  0  0  0
 12 14  2  0  0  0
 14 15  1  0  0  0
 14 16  1  0  0  0
 16 17  2  0  0  0
 16 21  1  0  0  0
 17 18  1  0  0  0
 17 19  1  0  0  0
 19 20  1  0  0  0
 21 22  2  0  0  0
 21 23  2  0  0  0
 21 24  1  0  0  0
 24 25  1  0  0  0
 24 26  1  0  0  0
 27 28  1  0  0  0
 27 34  2  0  0  0
 28 29  1  0  0  0
 28 30  2  0  0  0
 30 31  1  0  0  0
 30 36  1  0  0  0
 31 32  1  0  0  0
 31 33  2  0  0  0
 33 34  1  0  0  0
 34 35  1  0  0  0
 36 37  1  0  0  0
 37 38  1  0  0  0
 37 39  1  0  0  0
 37 40  1  0  0  0
M  END
>  <ACTIVITY>
4

>  <SET>
3

>  <Min_dist>
0.08

>  <Avg_dist>
0.49

$$$$
4-49
  Cerius2 12110214053D 1   1.00000                          
Structure written by Cerius2 SD Exporter
 36 38  0  0  0  0  0  0  0  0999 V2000
   26.4040   22.1350   16.4650 C   0  0  0  0  0  0
   25.4680   21.4550   17.2550 N   0  0  0  0  0  0
   26.1970   20.8750   18.2760 C   0  0  0  0  0  0
   25.7400   20.2580   19.0370 H   0  0  0  0  0  0
   27.4960   21.3260   18.1660 C   0  0  0  0  0  0
   27.5990   22.1270   17.0410 N   0  0  0  0  0  0
   28.6620   21.0490   19.0700 C   0  0  0  0  0  0
   29.1260   22.1800   19.6780 F   0  0  0  0  0  0
   29.7210   20.5090   18.4000 F   0  0  0  0  0  0
   28.3580   20.1730   20.0730 F   0  0  0  0  0  0
   24.0480   21.3670   17.1160 C   0  0  0  0  0  0
   23.3460   22.2540   16.2870 C   0  0  0  0  0  0
   23.8380   23.0610   15.7510 H   0  0  0  0  0  0
   21.9530   22.1650   16.1710 C   0  0  0  0  0  0
   21.4250   22.8660   15.5270 H   0  0  0  0  0  0
   21.2560   21.1900   16.8860 C   0  0  0  0  0  0
   21.9400   20.3170   17.7340 C   0  0  0  0  0  0
   21.4040   19.5590   18.3020 H   0  0  0  0  0  0
   23.3320   20.4080   17.8510 C   0  0  0  0  0  0
   23.8310   19.6920   18.5010 H   0  0  0  0  0  0
   19.4900   21.1000   16.7680 S   0  0  0  0  0  0
   18.9550   22.4310   16.5450 O   0  0  0  0  0  0
   18.9800   20.2740   17.8490 O   0  0  0  0  0  0
   19.2780   20.2400   15.3470 N   0  0  0  0  0  0
   18.7840   20.8000   14.6470 H   0  0  0  0  0  0
   18.7990   19.3520   15.5210 H   0  0  0  0  0  0
   26.1810   22.7150   15.1390 C   0  0  0  0  0  0
   26.4360   24.0710   14.9070 C   0  0  0  0  0  0
   26.7780   24.7070   15.7200 H   0  0  0  0  0  0
   26.2480   24.5980   13.6320 C   0  0  0  0  0  0
   25.8230   23.7520   12.6180 C   0  0  0  0  0  0
   25.6620   24.1210   11.6080 H   0  0  0  0  0  0
   25.5830   22.4270   12.7940 N   0  0  0  0  0  0
   25.7750   21.9420   14.0500 C   0  0  0  0  0  0
   25.5920   20.8740   14.1570 H   0  0  0  0  0  0
   26.5700   26.4260   13.2940 Br  0  0  0  0  0  0
  1  2  1  0  0  0
  1  6  2  0  0  0
  1 27  1  0  0  0
  2  3  1  0  0  0
  2 11  1  0  0  0
  3  4  1  0  0  0
  3  5  2  0  0  0
  5  6  1  0  0  0
  5  7  1  0  0  0
  7  8  1  0  0  0
  7  9  1  0  0  0
  7 10  1  0  0  0
 11 12  1  0  0  0
 11 19  2  0  0  0
 12 13  1  0  0  0
 12 14  2  0  0  0
 14 15  1  0  0  0
 14 16  1  0  0  0
 16 17  2  0  0  0
 16 21  1  0  0  0
 17 18  1  0  0  0
 17 19  1  0  0  0
 19 20  1  0  0  0
 21 22  2  0  0  0
 21 23  2  0  0  0
 21 24  1  0  0  0
 24 25  1  0  0  0
 24 26  1  0  0  0
 27 28  1  0  0  0
 27 34  2  0  0  0
 28 29  1  0  0  0
 28 30  2  0  0  0
 30 31  1  0  0  0
 30 36  1  0  0  0
 31 32  1  0  0  0
 31 33  2  0  0  0
 33 34  1  0  0  0
 34 35  1  0  0  0
M  END
>  <ACTIVITY>
6.47

>  <SET>
1

>  <Min_dist>
999.9

>  <Avg_dist>
999.9

$$$$
4-50
  Cerius2 12110214053D 1   1.00000                          
Structure written by Cerius2 SD Exporter
 40 42  0  0  0  0  0  0  0  0999 V2000
   26.4130   22.1490   16.4570 C   0  0  0  0  0  0
   25.4760   21.4480   17.2260 N   0  0  0  0  0  0
   26.2030   20.8510   18.2410 C   0  0  0  0  0  0
   25.7440   20.2150   18.9860 H   0  0  0  0  0  0
   27.4990   21.3130   18.1520 C   0  0  0  0  0  0
   27.6040   22.1400   17.0470 N   0  0  0  0  0  0
   28.6600   21.0230   19.0590 C   0  0  0  0  0  0
   29.1280   22.1470   19.6750 F   0  0  0  0  0  0
   29.7180   20.4810   18.3890 F   0  0  0  0  0  0
   28.3470   20.1430   20.0550 F   0  0  0  0  0  0
   24.0540   21.3650   17.0940 C   0  0  0  0  0  0
   23.3480   22.2560   16.2710 C   0  0  0  0  0  0
   23.8430   23.0530   15.7240 H   0  0  0  0  0  0
   21.9540   22.1750   16.1660 C   0  0  0  0  0  0
   21.4270   22.8780   15.5240 H   0  0  0  0  0  0
   21.2600   21.2020   16.8850 C   0  0  0  0  0  0
   21.9430   20.3250   17.7280 C   0  0  0  0  0  0
   21.4100   19.5690   18.3010 H   0  0  0  0  0  0
   23.3360   20.4090   17.8340 C   0  0  0  0  0  0
   23.8360   19.6900   18.4800 H   0  0  0  0  0  0
   19.4880   21.1120   16.7620 S   0  0  0  0  0  0
   18.9840   22.4680   16.5640 O   0  0  0  0  0  0
   18.9950   20.3480   17.9040 O   0  0  0  0  0  0
   19.2170   20.1730   15.2820 C   0  0  0  0  0  0
   18.1400   20.0730   15.1370 H   0  0  0  0  0  0
   19.6700   19.1870   15.3990 H   0  0  0  0  0  0
   19.6570   20.7060   14.4370 H   0  0  0  0  0  0
   26.1780   22.7450   15.1370 C   0  0  0  0  0  0
   26.4280   24.0920   14.9060 C   0  0  0  0  0  0
   26.7770   24.7410   15.7040 H   0  0  0  0  0  0
   26.2170   24.5960   13.6270 C   0  0  0  0  0  0
   26.3960   25.6480   13.4150 H   0  0  0  0  0  0
   25.7770   23.7420   12.6200 C   0  0  0  0  0  0
   25.6050   24.1220   11.6170 H   0  0  0  0  0  0
   25.5670   22.4010   12.9220 C   0  0  0  0  0  0
   25.7720   21.8920   14.1620 N   0  0  0  0  0  0
   25.0910   21.4570   11.8580 C   0  0  0  0  0  0
   24.9750   20.4460   12.2590 H   0  0  0  0  0  0
   25.8140   21.4180   11.0370 H   0  0  0  0  0  0
   24.1220   21.7830   11.4690 H   0  0  0  0  0  0
  1  2  1  0  0  0
  1  6  2  0  0  0
  1 28  1  0  0  0
  2  3  1  0  0  0
  2 11  1  0  0  0
  3  4  1  0  0  0
  3  5  2  0  0  0
  5  6  1  0  0  0
  5  7  1  0  0  0
  7  8  1  0  0  0
  7  9  1  0  0  0
  7 10  1  0  0  0
 11 12  1  0  0  0
 11 19  2  0  0  0
 12 13  1  0  0  0
 12 14  2  0  0  0
 14 15  1  0  0  0
 14 16  1  0  0  0
 16 17  2  0  0  0
 16 21  1  0  0  0
 17 18  1  0  0  0
 17 19  1  0  0  0
 19 20  1  0  0  0
 21 22  2  0  0  0
 21 23  2  0  0  0
 21 24  1  0  0  0
 24 25  1  0  0  0
 24 26  1  0  0  0
 24 27  1  0  0  0
 28 29  1  0  0  0
 28 36  2  0  0  0
 29 30  1  0  0  0
 29 31  2  0  0  0
 31 32  1  0  0  0
 31 33  1  0  0  0
 33 34  1  0  0  0
 33 35  2  0  0  0
 35 36  1  0  0  0
 35 37  1  0  0  0
 37 38  1  0  0  0
 37 39  1  0  0  0
 37 40  1  0  0  0
M  END
>  <ACTIVITY>
5.54

>  <SET>
1

>  <Min_dist>
999.9

>  <Avg_dist>
999.9

$$$$
4-51
  Cerius2 12110214053D 1   1.00000                          
Structure written by Cerius2 SD Exporter
 40 42  0  0  0  0  0  0  0  0999 V2000
   26.4130   22.1410   16.4570 C   0  0  0  0  0  0
   25.4870   21.4490   17.2460 N   0  0  0  0  0  0
   26.2300   20.8490   18.2490 C   0  0  0  0  0  0
   25.7820   20.2200   19.0050 H   0  0  0  0  0  0
   27.5280   21.3000   18.1310 C   0  0  0  0  0  0
   27.6170   22.1230   17.0220 N   0  0  0  0  0  0
   28.7050   21.0030   19.0150 C   0  0  0  0  0  0
   29.1720   22.1200   19.6450 F   0  0  0  0  0  0
   29.7580   20.4840   18.3200 F   0  0  0  0  0  0
   28.4140   20.1020   19.9990 F   0  0  0  0  0  0
   24.0610   21.3770   17.1440 C   0  0  0  0  0  0
   23.3300   20.4140   17.8550 C   0  0  0  0  0  0
   23.8100   19.6760   18.4910 H   0  0  0  0  0  0
   21.9380   20.3400   17.7260 C   0  0  0  0  0  0
   21.3920   19.5810   18.2840 H   0  0  0  0  0  0
   21.2700   21.2290   16.8830 C   0  0  0  0  0  0
   21.9850   22.1760   16.1500 C   0  0  0  0  0  0
   21.4750   22.8680   15.4820 H   0  0  0  0  0  0
   23.3760   22.2480   16.2780 C   0  0  0  0  0  0
   23.8940   23.0180   15.7110 H   0  0  0  0  0  0
   19.5040   21.1190   16.7050 S   0  0  0  0  0  0
   18.9930   22.4650   16.4650 O   0  0  0  0  0  0
   18.9830   20.3720   17.8460 O   0  0  0  0  0  0
   19.2890   20.1490   15.2360 C   0  0  0  0  0  0
   18.2170   20.0360   15.0590 H   0  0  0  0  0  0
   19.7460   19.1690   15.3870 H   0  0  0  0  0  0
   19.7510   20.6690   14.3950 H   0  0  0  0  0  0
   26.1570   22.7390   15.1420 C   0  0  0  0  0  0
   26.4010   24.0870   14.9110 C   0  0  0  0  0  0
   26.7560   24.7340   15.7070 H   0  0  0  0  0  0
   26.1750   24.5980   13.6340 C   0  0  0  0  0  0
   26.3470   25.6550   13.4410 H   0  0  0  0  0  0
   25.7360   23.7490   12.6170 C   0  0  0  0  0  0
   25.5250   22.4140   12.9410 C   0  0  0  0  0  0
   25.1680   21.7070   12.1940 H   0  0  0  0  0  0
   25.7360   21.8880   14.1720 N   0  0  0  0  0  0
   25.4480   24.2680   11.2430 C   0  0  0  0  0  0
   25.6310   23.4960   10.4880 H   0  0  0  0  0  0
   26.0950   25.1180   11.0030 H   0  0  0  0  0  0
   24.4040   24.5880   11.1750 H   0  0  0  0  0  0
  1  2  1  0  0  0
  1  6  2  0  0  0
  1 28  1  0  0  0
  2  3  1  0  0  0
  2 11  1  0  0  0
  3  4  1  0  0  0
  3  5  2  0  0  0
  5  6  1  0  0  0
  5  7  1  0  0  0
  7  8  1  0  0  0
  7  9  1  0  0  0
  7 10  1  0  0  0
 11 12  1  0  0  0
 11 19  2  0  0  0
 12 13  1  0  0  0
 12 14  2  0  0  0
 14 15  1  0  0  0
 14 16  1  0  0  0
 16 17  2  0  0  0
 16 21  1  0  0  0
 17 18  1  0  0  0
 17 19  1  0  0  0
 19 20  1  0  0  0
 21 22  2  0  0  0
 21 23  2  0  0  0
 21 24  1  0  0  0
 24 25  1  0  0  0
 24 26  1  0  0  0
 24 27  1  0  0  0
 28 29  1  0  0  0
 28 36  2  0  0  0
 29 30  1  0  0  0
 29 31  2  0  0  0
 31 32  1  0  0  0
 31 33  1  0  0  0
 33 34  2  0  0  0
 33 37  1  0  0  0
 34 35  1  0  0  0
 34 36  1  0  0  0
 37 38  1  0  0  0
 37 39  1  0  0  0
 37 40  1  0  0  0
M  END
>  <ACTIVITY>
5.89

>  <SET>
1

>  <Min_dist>
999.9

>  <Avg_dist>
999.9

$$$$
4-52
  Cerius2 12110214053D 1   1.00000                          
Structure written by Cerius2 SD Exporter
 40 42  0  0  0  0  0  0  0  0999 V2000
   26.4110   22.1470   16.4550 C   0  0  0  0  0  0
   25.4740   21.4480   17.2250 N   0  0  0  0  0  0
   26.2010   20.8550   18.2440 C   0  0  0  0  0  0
   25.7420   20.2220   18.9910 H   0  0  0  0  0  0
   27.4970   21.3180   18.1540 C   0  0  0  0  0  0
   27.6020   22.1410   17.0470 N   0  0  0  0  0  0
   28.6570   21.0320   19.0630 C   0  0  0  0  0  0
   29.1230   22.1590   19.6760 F   0  0  0  0  0  0
   29.7170   20.4890   18.3950 F   0  0  0  0  0  0
   28.3440   20.1540   20.0610 F   0  0  0  0  0  0
   24.0520   21.3620   17.0910 C   0  0  0  0  0  0
   23.3440   22.2520   16.2700 C   0  0  0  0  0  0
   23.8370   23.0510   15.7220 H   0  0  0  0  0  0
   21.9500   22.1710   16.1670 C   0  0  0  0  0  0
   21.4220   22.8760   15.5270 H   0  0  0  0  0  0
   21.2560   21.1990   16.8880 C   0  0  0  0  0  0
   21.9420   20.3220   17.7280 C   0  0  0  0  0  0
   21.4090   19.5660   18.3020 H   0  0  0  0  0  0
   23.3350   20.4050   17.8310 C   0  0  0  0  0  0
   23.8350   19.6860   18.4760 H   0  0  0  0  0  0
   19.4840   21.1110   16.7720 S   0  0  0  0  0  0
   18.9780   22.4700   16.6070 O   0  0  0  0  0  0
   18.9980   20.3220   17.8990 O   0  0  0  0  0  0
   19.2050   20.2060   15.2730 C   0  0  0  0  0  0
   18.1260   20.1080   15.1320 H   0  0  0  0  0  0
   19.6590   19.2170   15.3650 H   0  0  0  0  0  0
   19.6400   20.7570   14.4380 H   0  0  0  0  0  0
   26.1780   22.7420   15.1350 C   0  0  0  0  0  0
   26.4240   24.0930   14.9070 C   0  0  0  0  0  0
   26.7600   24.7320   15.7200 H   0  0  0  0  0  0
   26.2310   24.6100   13.6230 C   0  0  0  0  0  0
   25.7860   23.7490   12.6190 C   0  0  0  0  0  0
   25.6030   24.1030   11.6080 H   0  0  0  0  0  0
   25.5840   22.4130   12.9280 C   0  0  0  0  0  0
   25.2480   21.7140   12.1640 H   0  0  0  0  0  0
   25.7800   21.8870   14.1590 N   0  0  0  0  0  0
   26.4410   26.0680   13.3450 C   0  0  0  0  0  0
   25.5160   26.6220   13.5340 H   0  0  0  0  0  0
   26.7430   26.2280   12.3050 H   0  0  0  0  0  0
   27.2340   26.4750   13.9800 H   0  0  0  0  0  0
  1  2  1  0  0  0
  1  6  2  0  0  0
  1 28  1  0  0  0
  2  3  1  0  0  0
  2 11  1  0  0  0
  3  4  1  0  0  0
  3  5  2  0  0  0
  5  6  1  0  0  0
  5  7  1  0  0  0
  7  8  1  0  0  0
  7  9  1  0  0  0
  7 10  1  0  0  0
 11 12  1  0  0  0
 11 19  2  0  0  0
 12 13  1  0  0  0
 12 14  2  0  0  0
 14 15  1  0  0  0
 14 16  1  0  0  0
 16 17  2  0  0  0
 16 21  1  0  0  0
 17 18  1  0  0  0
 17 19  1  0  0  0
 19 20  1  0  0  0
 21 22  2  0  0  0
 21 23  2  0  0  0
 21 24  1  0  0  0
 24 25  1  0  0  0
 24 26  1  0  0  0
 24 27  1  0  0  0
 28 29  1  0  0  0
 28 36  2  0  0  0
 29 30  1  0  0  0
 29 31  2  0  0  0
 31 32  1  0  0  0
 31 37  1  0  0  0
 32 33  1  0  0  0
 32 34  2  0  0  0
 34 35  1  0  0  0
 34 36  1  0  0  0
 37 38  1  0  0  0
 37 39  1  0  0  0
 37 40  1  0  0  0
M  END
>  <ACTIVITY>
6.28

>  <SET>
1

>  <Min_dist>
999.9

>  <Avg_dist>
999.9

$$$$
4-53
  Cerius2 12110214053D 1   1.00000                          
Structure written by Cerius2 SD Exporter
 40 42  0  0  0  0  0  0  0  0999 V2000
   26.4220   22.1490   16.4640 C   0  0  0  0  0  0
   25.4810   21.4540   17.2330 N   0  0  0  0  0  0
   26.2040   20.8520   18.2480 C   0  0  0  0  0  0
   25.7410   20.2280   18.9990 H   0  0  0  0  0  0
   27.5100   21.2830   18.1420 C   0  0  0  0  0  0
   27.6220   22.1020   17.0340 N   0  0  0  0  0  0
   28.6750   20.9650   19.0340 C   0  0  0  0  0  0
   29.1640   22.0740   19.6610 F   0  0  0  0  0  0
   29.7190   20.4190   18.3450 F   0  0  0  0  0  0
   28.3600   20.0760   20.0200 F   0  0  0  0  0  0
   24.0580   21.3720   17.0930 C   0  0  0  0  0  0
   23.3530   22.2600   16.2670 C   0  0  0  0  0  0
   23.8440   23.0610   15.7220 H   0  0  0  0  0  0
   21.9590   22.1770   16.1560 C   0  0  0  0  0  0
   21.4340   22.8810   15.5140 H   0  0  0  0  0  0
   21.2620   21.2040   16.8730 C   0  0  0  0  0  0
   21.9440   20.3280   17.7180 C   0  0  0  0  0  0
   21.4100   19.5720   18.2890 H   0  0  0  0  0  0
   23.3370   20.4140   17.8280 C   0  0  0  0  0  0
   23.8330   19.6940   18.4760 H   0  0  0  0  0  0
   19.4910   21.1130   16.7470 S   0  0  0  0  0  0
   18.9830   22.4710   16.5790 O   0  0  0  0  0  0
   19.0000   20.3230   17.8720 O   0  0  0  0  0  0
   19.2220   20.2070   15.2470 C   0  0  0  0  0  0
   18.1450   20.1080   15.0990 H   0  0  0  0  0  0
   19.6770   19.2190   15.3420 H   0  0  0  0  0  0
   19.6620   20.7590   14.4140 H   0  0  0  0  0  0
   26.1770   22.7670   15.1540 C   0  0  0  0  0  0
   26.4020   24.1260   14.9070 C   0  0  0  0  0  0
   26.1800   24.5900   13.6050 C   0  0  0  0  0  0
   26.3430   25.6370   13.3530 H   0  0  0  0  0  0
   25.7460   23.7130   12.6170 C   0  0  0  0  0  0
   25.5650   24.0570   11.6030 H   0  0  0  0  0  0
   25.5540   22.3860   12.9550 C   0  0  0  0  0  0
   25.2190   21.6680   12.2100 H   0  0  0  0  0  0
   25.7650   21.8920   14.1950 N   0  0  0  0  0  0
   26.8840   25.0730   15.9670 C   0  0  0  0  0  0
   27.9370   24.8800   16.1980 H   0  0  0  0  0  0
   26.2860   24.9730   16.8790 H   0  0  0  0  0  0
   26.7960   26.1140   15.6400 H   0  0  0  0  0  0
  1  2  1  0  0  0
  1  6  2  0  0  0
  1 28  1  0  0  0
  2  3  1  0  0  0
  2 11  1  0  0  0
  3  4  1  0  0  0
  3  5  2  0  0  0
  5  6  1  0  0  0
  5  7  1  0  0  0
  7  8  1  0  0  0
  7  9  1  0  0  0
  7 10  1  0  0  0
 11 12  1  0  0  0
 11 19  2  0  0  0
 12 13  1  0  0  0
 12 14  2  0  0  0
 14 15  1  0  0  0
 14 16  1  0  0  0
 16 17  2  0  0  0
 16 21  1  0  0  0
 17 18  1  0  0  0
 17 19  1  0  0  0
 19 20  1  0  0  0
 21 22  2  0  0  0
 21 23  2  0  0  0
 21 24  1  0  0  0
 24 25  1  0  0  0
 24 26  1  0  0  0
 24 27  1  0  0  0
 28 29  1  0  0  0
 28 36  2  0  0  0
 29 30  2  0  0  0
 29 37  1  0  0  0
 30 31  1  0  0  0
 30 32  1  0  0  0
 32 33  1  0  0  0
 32 34  2  0  0  0
 34 35  1  0  0  0
 34 36  1  0  0  0
 37 38  1  0  0  0
 37 39  1  0  0  0
 37 40  1  0  0  0
M  END
>  <ACTIVITY>
5.24

>  <SET>
1

>  <Min_dist>
999.9

>  <Avg_dist>
999.9

$$$$
4-54
  Cerius2 12110214053D 1   1.00000                          
Structure written by Cerius2 SD Exporter
 39 41  0  0  0  0  0  0  0  0999 V2000
   26.4120   22.1500   16.4570 C   0  0  0  0  0  0
   25.4750   21.4490   17.2250 N   0  0  0  0  0  0
   26.2000   20.8530   18.2420 C   0  0  0  0  0  0
   25.7410   20.2170   18.9870 H   0  0  0  0  0  0
   27.4970   21.3160   18.1540 C   0  0  0  0  0  0
   27.6030   22.1420   17.0490 N   0  0  0  0  0  0
   28.6560   21.0260   19.0630 C   0  0  0  0  0  0
   29.1230   22.1500   19.6800 F   0  0  0  0  0  0
   29.7160   20.4850   18.3940 F   0  0  0  0  0  0
   28.3420   20.1450   20.0580 F   0  0  0  0  0  0
   24.0520   21.3630   17.0900 C   0  0  0  0  0  0
   23.3460   22.2530   16.2680 C   0  0  0  0  0  0
   23.8400   23.0520   15.7210 H   0  0  0  0  0  0
   21.9520   22.1710   16.1620 C   0  0  0  0  0  0
   21.4230   22.8730   15.5210 H   0  0  0  0  0  0
   21.2560   21.1980   16.8820 C   0  0  0  0  0  0
   21.9420   20.3220   17.7230 C   0  0  0  0  0  0
   21.4080   19.5650   18.2930 H   0  0  0  0  0  0
   23.3350   20.4060   17.8290 C   0  0  0  0  0  0
   23.8350   19.6860   18.4740 H   0  0  0  0  0  0
   19.4890   21.1150   16.7740 S   0  0  0  0  0  0
   18.9580   22.4480   16.5550 O   0  0  0  0  0  0
   18.9820   20.2890   17.8550 O   0  0  0  0  0  0
   19.2660   20.2570   15.3530 N   0  0  0  0  0  0
   18.7700   20.8190   14.6560 H   0  0  0  0  0  0
   18.7860   19.3700   15.5280 H   0  0  0  0  0  0
   26.1800   22.7460   15.1370 C   0  0  0  0  0  0
   26.4300   24.0930   14.9060 C   0  0  0  0  0  0
   26.7770   24.7420   15.7040 H   0  0  0  0  0  0
   26.2210   24.5960   13.6260 C   0  0  0  0  0  0
   26.4010   25.6480   13.4150 H   0  0  0  0  0  0
   25.7840   23.7420   12.6190 C   0  0  0  0  0  0
   25.6140   24.1210   11.6150 H   0  0  0  0  0  0
   25.5730   22.4010   12.9210 C   0  0  0  0  0  0
   25.7760   21.8920   14.1610 N   0  0  0  0  0  0
   25.1010   21.4570   11.8550 C   0  0  0  0  0  0
   24.9800   20.4460   12.2580 H   0  0  0  0  0  0
   25.8270   21.4150   11.0380 H   0  0  0  0  0  0
   24.1330   21.7840   11.4620 H   0  0  0  0  0  0
  1  2  1  0  0  0
  1  6  2  0  0  0
  1 27  1  0  0  0
  2  3  1  0  0  0
  2 11  1  0  0  0
  3  4  1  0  0  0
  3  5  2  0  0  0
  5  6  1  0  0  0
  5  7  1  0  0  0
  7  8  1  0  0  0
  7  9  1  0  0  0
  7 10  1  0  0  0
 11 12  1  0  0  0
 11 19  2  0  0  0
 12 13  1  0  0  0
 12 14  2  0  0  0
 14 15  1  0  0  0
 14 16  1  0  0  0
 16 17  2  0  0  0
 16 21  1  0  0  0
 17 18  1  0  0  0
 17 19  1  0  0  0
 19 20  1  0  0  0
 21 22  2  0  0  0
 21 23  2  0  0  0
 21 24  1  0  0  0
 24 25  1  0  0  0
 24 26  1  0  0  0
 27 28  1  0  0  0
 27 35  2  0  0  0
 28 29  1  0  0  0
 28 30  2  0  0  0
 30 31  1  0  0  0
 30 32  1  0  0  0
 32 33  1  0  0  0
 32 34  2  0  0  0
 34 35  1  0  0  0
 34 36  1  0  0  0
 36 37  1  0  0  0
 36 38  1  0  0  0
 36 39  1  0  0  0
M  END
>  <ACTIVITY>
6.38

>  <SET>
1

>  <Min_dist>
999.9

>  <Avg_dist>
999.9

$$$$
4-55
  Cerius2 12110214053D 1   1.00000                          
Structure written by Cerius2 SD Exporter
 39 41  0  0  0  0  0  0  0  0999 V2000
   26.4110   22.1490   16.4560 C   0  0  0  0  0  0
   25.4740   21.4480   17.2240 N   0  0  0  0  0  0
   26.1990   20.8560   18.2440 C   0  0  0  0  0  0
   25.7400   20.2220   18.9900 H   0  0  0  0  0  0
   27.4950   21.3200   18.1560 C   0  0  0  0  0  0
   27.6010   22.1440   17.0500 N   0  0  0  0  0  0
   28.6530   21.0350   19.0680 C   0  0  0  0  0  0
   29.1160   22.1630   19.6820 F   0  0  0  0  0  0
   29.7150   20.4940   18.4030 F   0  0  0  0  0  0
   28.3390   20.1570   20.0650 F   0  0  0  0  0  0
   24.0520   21.3610   17.0880 C   0  0  0  0  0  0
   23.3440   22.2510   16.2660 C   0  0  0  0  0  0
   23.8370   23.0500   15.7190 H   0  0  0  0  0  0
   21.9500   22.1700   16.1630 C   0  0  0  0  0  0
   21.4210   22.8720   15.5220 H   0  0  0  0  0  0
   21.2540   21.1980   16.8830 C   0  0  0  0  0  0
   21.9410   20.3200   17.7220 C   0  0  0  0  0  0
   21.4070   19.5630   18.2930 H   0  0  0  0  0  0
   23.3350   20.4030   17.8260 C   0  0  0  0  0  0
   23.8340   19.6820   18.4700 H   0  0  0  0  0  0
   19.4870   21.1150   16.7800 S   0  0  0  0  0  0
   18.9550   22.4490   16.5630 O   0  0  0  0  0  0
   18.9840   20.2900   17.8650 O   0  0  0  0  0  0
   19.2580   20.2570   15.3600 N   0  0  0  0  0  0
   18.7610   20.8200   14.6650 H   0  0  0  0  0  0
   18.7770   19.3720   15.5370 H   0  0  0  0  0  0
   26.1800   22.7440   15.1360 C   0  0  0  0  0  0
   26.4280   24.0920   14.9070 C   0  0  0  0  0  0
   26.7670   24.7410   15.7090 H   0  0  0  0  0  0
   26.2280   24.6010   13.6260 C   0  0  0  0  0  0
   26.4030   25.6580   13.4340 H   0  0  0  0  0  0
   25.8110   23.7500   12.6010 C   0  0  0  0  0  0
   25.5930   22.4160   12.9230 C   0  0  0  0  0  0
   25.2520   21.7070   12.1700 H   0  0  0  0  0  0
   25.7800   21.8920   14.1590 N   0  0  0  0  0  0
   25.5490   24.2660   11.2210 C   0  0  0  0  0  0
   25.7500   23.4930   10.4710 H   0  0  0  0  0  0
   26.2000   25.1170   10.9920 H   0  0  0  0  0  0
   24.5060   24.5850   11.1310 H   0  0  0  0  0  0
  1  2  1  0  0  0
  1  6  2  0  0  0
  1 27  1  0  0  0
  2  3  1  0  0  0
  2 11  1  0  0  0
  3  4  1  0  0  0
  3  5  2  0  0  0
  5  6  1  0  0  0
  5  7  1  0  0  0
  7  8  1  0  0  0
  7  9  1  0  0  0
  7 10  1  0  0  0
 11 12  1  0  0  0
 11 19  2  0  0  0
 12 13  1  0  0  0
 12 14  2  0  0  0
 14 15  1  0  0  0
 14 16  1  0  0  0
 16 17  2  0  0  0
 16 21  1  0  0  0
 17 18  1  0  0  0
 17 19  1  0  0  0
 19 20  1  0  0  0
 21 22  2  0  0  0
 21 23  2  0  0  0
 21 24  1  0  0  0
 24 25  1  0  0  0
 24 26  1  0  0  0
 27 28  1  0  0  0
 27 35  2  0  0  0
 28 29  1  0  0  0
 28 30  2  0  0  0
 30 31  1  0  0  0
 30 32  1  0  0  0
 32 33  2  0  0  0
 32 36  1  0  0  0
 33 34  1  0  0  0
 33 35  1  0  0  0
 36 37  1  0  0  0
 36 38  1  0  0  0
 36 39  1  0  0  0
M  END
>  <ACTIVITY>
6.14

>  <SET>
1

>  <Min_dist>
999.9

>  <Avg_dist>
999.9

$$$$
4-56
  Cerius2 12110214053D 1   1.00000                          
Structure written by Cerius2 SD Exporter
 39 41  0  0  0  0  0  0  0  0999 V2000
   26.4100   22.1480   16.4550 C   0  0  0  0  0  0
   25.4730   21.4480   17.2240 N   0  0  0  0  0  0
   26.1980   20.8570   18.2450 C   0  0  0  0  0  0
   25.7400   20.2240   18.9920 H   0  0  0  0  0  0
   27.4940   21.3200   18.1560 C   0  0  0  0  0  0
   27.6010   22.1430   17.0480 N   0  0  0  0  0  0
   28.6530   21.0360   19.0670 C   0  0  0  0  0  0
   29.1150   22.1630   19.6820 F   0  0  0  0  0  0
   29.7160   20.4960   18.4020 F   0  0  0  0  0  0
   28.3400   20.1570   20.0640 F   0  0  0  0  0  0
   24.0500   21.3610   17.0890 C   0  0  0  0  0  0
   23.3430   22.2510   16.2670 C   0  0  0  0  0  0
   23.8350   23.0500   15.7200 H   0  0  0  0  0  0
   21.9490   22.1690   16.1640 C   0  0  0  0  0  0
   21.4190   22.8710   15.5230 H   0  0  0  0  0  0
   21.2530   21.1970   16.8840 C   0  0  0  0  0  0
   21.9410   20.3190   17.7240 C   0  0  0  0  0  0
   21.4060   19.5620   18.2950 H   0  0  0  0  0  0
   23.3340   20.4030   17.8270 C   0  0  0  0  0  0
   23.8340   19.6830   18.4720 H   0  0  0  0  0  0
   19.4860   21.1130   16.7810 S   0  0  0  0  0  0
   18.9540   22.4470   16.5640 O   0  0  0  0  0  0
   18.9830   20.2880   17.8660 O   0  0  0  0  0  0
   19.2580   20.2560   15.3610 N   0  0  0  0  0  0
   18.7590   20.8180   14.6670 H   0  0  0  0  0  0
   18.7780   19.3690   15.5380 H   0  0  0  0  0  0
   26.1790   22.7430   15.1350 C   0  0  0  0  0  0
   26.4260   24.0930   14.9070 C   0  0  0  0  0  0
   26.7610   24.7320   15.7200 H   0  0  0  0  0  0
   26.2330   24.6100   13.6230 C   0  0  0  0  0  0
   25.7890   23.7490   12.6180 C   0  0  0  0  0  0
   25.6060   24.1040   11.6080 H   0  0  0  0  0  0
   25.5870   22.4140   12.9270 C   0  0  0  0  0  0
   25.2520   21.7150   12.1630 H   0  0  0  0  0  0
   25.7820   21.8880   14.1590 N   0  0  0  0  0  0
   26.4440   26.0680   13.3450 C   0  0  0  0  0  0
   25.5180   26.6220   13.5300 H   0  0  0  0  0  0
   26.7510   26.2280   12.3060 H   0  0  0  0  0  0
   27.2350   26.4760   13.9840 H   0  0  0  0  0  0
  1  2  1  0  0  0
  1  6  2  0  0  0
  1 27  1  0  0  0
  2  3  1  0  0  0
  2 11  1  0  0  0
  3  4  1  0  0  0
  3  5  2  0  0  0
  5  6  1  0  0  0
  5  7  1  0  0  0
  7  8  1  0  0  0
  7  9  1  0  0  0
  7 10  1  0  0  0
 11 12  1  0  0  0
 11 19  2  0  0  0
 12 13  1  0  0  0
 12 14  2  0  0  0
 14 15  1  0  0  0
 14 16  1  0  0  0
 16 17  2  0  0  0
 16 21  1  0  0  0
 17 18  1  0  0  0
 17 19  1  0  0  0
 19 20  1  0  0  0
 21 22  2  0  0  0
 21 23  2  0  0  0
 21 24  1  0  0  0
 24 25  1  0  0  0
 24 26  1  0  0  0
 27 28  1  0  0  0
 27 35  2  0  0  0
 28 29  1  0  0  0
 28 30  2  0  0  0
 30 31  1  0  0  0
 30 36  1  0  0  0
 31 32  1  0  0  0
 31 33  2  0  0  0
 33 34  1  0  0  0
 33 35  1  0  0  0
 36 37  1  0  0  0
 36 38  1  0  0  0
 36 39  1  0  0  0
M  END
>  <ACTIVITY>
6.36

>  <SET>
1

>  <Min_dist>
999.9

>  <Avg_dist>
999.9

$$$$
4-57
  Cerius2 12110214053D 1   1.00000                          
Structure written by Cerius2 SD Exporter
 39 41  0  0  0  0  0  0  0  0999 V2000
   26.4210   22.1490   16.4640 C   0  0  0  0  0  0
   25.4790   21.4540   17.2310 N   0  0  0  0  0  0
   26.2020   20.8530   18.2480 C   0  0  0  0  0  0
   25.7380   20.2290   18.9990 H   0  0  0  0  0  0
   27.5070   21.2860   18.1440 C   0  0  0  0  0  0
   27.6200   22.1050   17.0360 N   0  0  0  0  0  0
   28.6700   20.9710   19.0400 C   0  0  0  0  0  0
   29.1550   22.0820   19.6670 F   0  0  0  0  0  0
   29.7180   20.4270   18.3550 F   0  0  0  0  0  0
   28.3540   20.0820   20.0260 F   0  0  0  0  0  0
   24.0570   21.3700   17.0900 C   0  0  0  0  0  0
   23.3520   22.2580   16.2640 C   0  0  0  0  0  0
   23.8420   23.0590   15.7190 H   0  0  0  0  0  0
   21.9580   22.1750   16.1530 C   0  0  0  0  0  0
   21.4310   22.8770   15.5100 H   0  0  0  0  0  0
   21.2590   21.2020   16.8690 C   0  0  0  0  0  0
   21.9430   20.3250   17.7120 C   0  0  0  0  0  0
   21.4070   19.5670   18.2800 H   0  0  0  0  0  0
   23.3360   20.4110   17.8230 C   0  0  0  0  0  0
   23.8320   19.6900   18.4700 H   0  0  0  0  0  0
   19.4930   21.1160   16.7580 S   0  0  0  0  0  0
   18.9600   22.4490   16.5400 O   0  0  0  0  0  0
   18.9860   20.2890   17.8400 O   0  0  0  0  0  0
   19.2730   20.2600   15.3360 N   0  0  0  0  0  0
   18.7770   20.8230   14.6390 H   0  0  0  0  0  0
   18.7920   19.3730   15.5100 H   0  0  0  0  0  0
   26.1780   22.7670   15.1540 C   0  0  0  0  0  0
   26.4040   24.1270   14.9070 C   0  0  0  0  0  0
   26.1830   24.5900   13.6050 C   0  0  0  0  0  0
   26.3470   25.6370   13.3520 H   0  0  0  0  0  0
   25.7510   23.7130   12.6160 C   0  0  0  0  0  0
   25.5720   24.0570   11.6020 H   0  0  0  0  0  0
   25.5590   22.3870   12.9540 C   0  0  0  0  0  0
   25.2240   21.6680   12.2090 H   0  0  0  0  0  0
   25.7680   21.8930   14.1950 N   0  0  0  0  0  0
   26.8840   25.0730   15.9680 C   0  0  0  0  0  0
   27.9360   24.8810   16.2000 H   0  0  0  0  0  0
   26.2840   24.9730   16.8780 H   0  0  0  0  0  0
   26.7960   26.1150   15.6400 H   0  0  0  0  0  0
  1  2  1  0  0  0
  1  6  2  0  0  0
  1 27  1  0  0  0
  2  3  1  0  0  0
  2 11  1  0  0  0
  3  4  1  0  0  0
  3  5  2  0  0  0
  5  6  1  0  0  0
  5  7  1  0  0  0
  7  8  1  0  0  0
  7  9  1  0  0  0
  7 10  1  0  0  0
 11 12  1  0  0  0
 11 19  2  0  0  0
 12 13  1  0  0  0
 12 14  2  0  0  0
 14 15  1  0  0  0
 14 16  1  0  0  0
 16 17  2  0  0  0
 16 21  1  0  0  0
 17 18  1  0  0  0
 17 19  1  0  0  0
 19 20  1  0  0  0
 21 22  2  0  0  0
 21 23  2  0  0  0
 21 24  1  0  0  0
 24 25  1  0  0  0
 24 26  1  0  0  0
 27 28  1  0  0  0
 27 35  2  0  0  0
 28 29  2  0  0  0
 28 36  1  0  0  0
 29 30  1  0  0  0
 29 31  1  0  0  0
 31 32  1  0  0  0
 31 33  2  0  0  0
 33 34  1  0  0  0
 33 35  1  0  0  0
 36 37  1  0  0  0
 36 38  1  0  0  0
 36 39  1  0  0  0
M  END
>  <ACTIVITY>
5.81

>  <SET>
1

>  <Min_dist>
999.9

>  <Avg_dist>
999.9

$$$$
4-58
  Cerius2 12110214053D 1   1.00000                          
Structure written by Cerius2 SD Exporter
 37 39  0  0  0  0  0  0  0  0999 V2000
   26.4070   22.1340   16.4660 C   0  0  0  0  0  0
   25.4700   21.4560   17.2560 N   0  0  0  0  0  0
   26.1990   20.8740   18.2770 C   0  0  0  0  0  0
   25.7400   20.2570   19.0380 H   0  0  0  0  0  0
   27.4960   21.3240   18.1620 C   0  0  0  0  0  0
   27.6020   22.1220   17.0410 N   0  0  0  0  0  0
   28.6620   21.0460   19.0580 C   0  0  0  0  0  0
   28.4010   20.3850   19.8880 H   0  0  0  0  0  0
   29.1720   22.2060   19.5740 F   0  0  0  0  0  0
   29.6920   20.4770   18.3600 F   0  0  0  0  0  0
   24.0500   21.3690   17.1170 C   0  0  0  0  0  0
   23.3470   22.2560   16.2880 C   0  0  0  0  0  0
   23.8410   23.0620   15.7520 H   0  0  0  0  0  0
   21.9550   22.1680   16.1730 C   0  0  0  0  0  0
   21.4290   22.8710   15.5300 H   0  0  0  0  0  0
   21.2590   21.1930   16.8890 C   0  0  0  0  0  0
   21.9410   20.3200   17.7370 C   0  0  0  0  0  0
   21.4070   19.5630   18.3080 H   0  0  0  0  0  0
   23.3320   20.4100   17.8530 C   0  0  0  0  0  0
   23.8310   19.6950   18.5040 H   0  0  0  0  0  0
   19.4880   21.0980   16.7580 S   0  0  0  0  0  0
   18.9780   22.4550   16.5870 O   0  0  0  0  0  0
   18.9950   20.3080   17.8830 O   0  0  0  0  0  0
   19.2250   20.1890   15.2590 C   0  0  0  0  0  0
   18.1480   20.0870   15.1080 H   0  0  0  0  0  0
   19.6820   19.2020   15.3560 H   0  0  0  0  0  0
   19.6660   20.7410   14.4260 H   0  0  0  0  0  0
   26.1810   22.7140   15.1400 C   0  0  0  0  0  0
   26.4350   24.0680   14.9020 C   0  0  0  0  0  0
   26.7810   24.7140   15.7060 H   0  0  0  0  0  0
   26.2410   24.5980   13.6270 C   0  0  0  0  0  0
   26.4250   25.6490   13.4260 H   0  0  0  0  0  0
   25.8110   23.7530   12.6190 C   0  0  0  0  0  0
   25.6490   24.1310   11.6110 H   0  0  0  0  0  0
   25.5730   22.4320   12.7990 N   0  0  0  0  0  0
   25.7700   21.9450   14.0530 C   0  0  0  0  0  0
   25.5860   20.8770   14.1590 H   0  0  0  0  0  0
  1  2  1  0  0  0
  1  6  2  0  0  0
  1 28  1  0  0  0
  2  3  1  0  0  0
  2 11  1  0  0  0
  3  4  1  0  0  0
  3  5  2  0  0  0
  5  6  1  0  0  0
  5  7  1  0  0  0
  7  8  1  0  0  0
  7  9  1  0  0  0
  7 10  1  0  0  0
 11 12  1  0  0  0
 11 19  2  0  0  0
 12 13  1  0  0  0
 12 14  2  0  0  0
 14 15  1  0  0  0
 14 16  1  0  0  0
 16 17  2  0  0  0
 16 21  1  0  0  0
 17 18  1  0  0  0
 17 19  1  0  0  0
 19 20  1  0  0  0
 21 22  2  0  0  0
 21 23  2  0  0  0
 21 24  1  0  0  0
 24 25  1  0  0  0
 24 26  1  0  0  0
 24 27  1  0  0  0
 28 29  1  0  0  0
 28 36  2  0  0  0
 29 30  1  0  0  0
 29 31  2  0  0  0
 31 32  1  0  0  0
 31 33  1  0  0  0
 33 34  1  0  0  0
 33 35  2  0  0  0
 35 36  1  0  0  0
 36 37  1  0  0  0
M  END
>  <ACTIVITY>
4.68

>  <SET>
1

>  <Min_dist>
999.9

>  <Avg_dist>
999.9

$$$$
4-59
  Cerius2 12110214053D 1   1.00000                          
Structure written by Cerius2 SD Exporter
 35 37  0  0  0  0  0  0  0  0999 V2000
   26.4080   22.1350   16.4650 C   0  0  0  0  0  0
   25.4700   21.4540   17.2570 N   0  0  0  0  0  0
   26.1970   20.8720   18.2790 C   0  0  0  0  0  0
   25.7430   20.2550   19.0420 H   0  0  0  0  0  0
   27.4820   21.3310   18.1480 C   0  0  0  0  0  0
   27.6050   22.1250   17.0390 N   0  0  0  0  0  0
   28.5940   21.0620   19.0090 C   0  0  0  0  0  0
   29.4970   20.8420   19.7110 N   0  0  0  0  0  0
   24.0500   21.3680   17.1180 C   0  0  0  0  0  0
   23.3480   22.2550   16.2890 C   0  0  0  0  0  0
   23.8420   23.0620   15.7540 H   0  0  0  0  0  0
   21.9560   22.1680   16.1730 C   0  0  0  0  0  0
   21.4300   22.8710   15.5300 H   0  0  0  0  0  0
   21.2590   21.1930   16.8890 C   0  0  0  0  0  0
   21.9400   20.3200   17.7370 C   0  0  0  0  0  0
   21.4060   19.5630   18.3080 H   0  0  0  0  0  0
   23.3320   20.4100   17.8540 C   0  0  0  0  0  0
   23.8300   19.6940   18.5050 H   0  0  0  0  0  0
   19.4880   21.0990   16.7560 S   0  0  0  0  0  0
   18.9800   22.4570   16.5850 O   0  0  0  0  0  0
   18.9940   20.3100   17.8800 O   0  0  0  0  0  0
   19.2260   20.1900   15.2570 C   0  0  0  0  0  0
   18.1490   20.0880   15.1060 H   0  0  0  0  0  0
   19.6830   19.2040   15.3540 H   0  0  0  0  0  0
   19.6670   20.7420   14.4240 H   0  0  0  0  0  0
   26.1810   22.7140   15.1400 C   0  0  0  0  0  0
   26.4340   24.0680   14.9020 C   0  0  0  0  0  0
   26.7800   24.7150   15.7050 H   0  0  0  0  0  0
   26.2400   24.5980   13.6270 C   0  0  0  0  0  0
   26.4240   25.6490   13.4260 H   0  0  0  0  0  0
   25.8090   23.7530   12.6180 C   0  0  0  0  0  0
   25.6470   24.1310   11.6110 H   0  0  0  0  0  0
   25.5710   22.4330   12.7990 N   0  0  0  0  0  0
   25.7690   21.9450   14.0530 C   0  0  0  0  0  0
   25.5850   20.8770   14.1580 H   0  0  0  0  0  0
  1  2  1  0  0  0
  1  6  2  0  0  0
  1 26  1  0  0  0
  2  3  1  0  0  0
  2  9  1  0  0  0
  3  4  1  0  0  0
  3  5  2  0  0  0
  5  6  1  0  0  0
  5  7  1  0  0  0
  7  8  3  0  0  0
  9 10  1  0  0  0
  9 17  2  0  0  0
 10 11  1  0  0  0
 10 12  2  0  0  0
 12 13  1  0  0  0
 12 14  1  0  0  0
 14 15  2  0  0  0
 14 19  1  0  0  0
 15 16  1  0  0  0
 15 17  1  0  0  0
 17 18  1  0  0  0
 19 20  2  0  0  0
 19 21  2  0  0  0
 19 22  1  0  0  0
 22 23  1  0  0  0
 22 24  1  0  0  0
 22 25  1  0  0  0
 26 27  1  0  0  0
 26 34  2  0  0  0
 27 28  1  0  0  0
 27 29  2  0  0  0
 29 30  1  0  0  0
 29 31  1  0  0  0
 31 32  1  0  0  0
 31 33  2  0  0  0
 33 34  1  0  0  0
 34 35  1  0  0  0
M  END
>  <ACTIVITY>
4.61

>  <SET>
2

>  <Min_dist>
0.11

>  <Avg_dist>
0.52

$$$$
4-60
  Cerius2 12110214053D 1   1.00000                          
Structure written by Cerius2 SD Exporter
 37 39  0  0  0  0  0  0  0  0999 V2000
   26.4070   22.1340   16.4660 C   0  0  0  0  0  0
   25.4690   21.4570   17.2560 N   0  0  0  0  0  0
   26.1990   20.8760   18.2760 C   0  0  0  0  0  0
   25.7430   20.2620   19.0400 H   0  0  0  0  0  0
   27.4910   21.3260   18.1500 C   0  0  0  0  0  0
   27.6040   22.1180   17.0410 N   0  0  0  0  0  0
   28.6590   21.0640   19.0210 C   0  0  0  0  0  0
   29.5070   20.7140   18.4250 H   0  0  0  0  0  0
   28.4320   20.3000   19.7720 H   0  0  0  0  0  0
   28.9550   21.9790   19.5420 H   0  0  0  0  0  0
   24.0490   21.3700   17.1170 C   0  0  0  0  0  0
   23.3460   22.2560   16.2880 C   0  0  0  0  0  0
   23.8390   23.0630   15.7520 H   0  0  0  0  0  0
   21.9530   22.1680   16.1730 C   0  0  0  0  0  0
   21.4270   22.8700   15.5300 H   0  0  0  0  0  0
   21.2580   21.1920   16.8890 C   0  0  0  0  0  0
   21.9400   20.3200   17.7380 C   0  0  0  0  0  0
   21.4070   19.5630   18.3080 H   0  0  0  0  0  0
   23.3320   20.4110   17.8530 C   0  0  0  0  0  0
   23.8310   19.6970   18.5050 H   0  0  0  0  0  0
   19.4870   21.0960   16.7590 S   0  0  0  0  0  0
   18.9760   22.4530   16.5880 O   0  0  0  0  0  0
   18.9950   20.3060   17.8840 O   0  0  0  0  0  0
   19.2240   20.1870   15.2590 C   0  0  0  0  0  0
   18.1470   20.0850   15.1090 H   0  0  0  0  0  0
   19.6810   19.2010   15.3570 H   0  0  0  0  0  0
   19.6640   20.7390   14.4270 H   0  0  0  0  0  0
   26.1830   22.7150   15.1400 C   0  0  0  0  0  0
   26.4360   24.0680   14.9020 C   0  0  0  0  0  0
   26.7830   24.7140   15.7060 H   0  0  0  0  0  0
   26.2410   24.5990   13.6280 C   0  0  0  0  0  0
   26.4260   25.6500   13.4260 H   0  0  0  0  0  0
   25.8110   23.7530   12.6190 C   0  0  0  0  0  0
   25.6480   24.1320   11.6120 H   0  0  0  0  0  0
   25.5720   22.4330   12.7990 N   0  0  0  0  0  0
   25.7700   21.9450   14.0530 C   0  0  0  0  0  0
   25.5860   20.8780   14.1590 H   0  0  0  0  0  0
  1  2  1  0  0  0
  1  6  2  0  0  0
  1 28  1  0  0  0
  2  3  1  0  0  0
  2 11  1  0  0  0
  3  4  1  0  0  0
  3  5  2  0  0  0
  5  6  1  0  0  0
  5  7  1  0  0  0
  7  8  1  0  0  0
  7  9  1  0  0  0
  7 10  1  0  0  0
 11 12  1  0  0  0
 11 19  2  0  0  0
 12 13  1  0  0  0
 12 14  2  0  0  0
 14 15  1  0  0  0
 14 16  1  0  0  0
 16 17  2  0  0  0
 16 21  1  0  0  0
 17 18  1  0  0  0
 17 19  1  0  0  0
 19 20  1  0  0  0
 21 22  2  0  0  0
 21 23  2  0  0  0
 21 24  1  0  0  0
 24 25  1  0  0  0
 24 26  1  0  0  0
 24 27  1  0  0  0
 28 29  1  0  0  0
 28 36  2  0  0  0
 29 30  1  0  0  0
 29 31  2  0  0  0
 31 32  1  0  0  0
 31 33  1  0  0  0
 33 34  1  0  0  0
 33 35  2  0  0  0
 35 36  1  0  0  0
 36 37  1  0  0  0
M  END
>  <ACTIVITY>
4.1

>  <SET>
2

>  <Min_dist>
0.11

>  <Avg_dist>
0.48

$$$$
4-62
  Cerius2 12110214053D 1   1.00000                          
Structure written by Cerius2 SD Exporter
 38 40  0  0  0  0  0  0  0  0999 V2000
   26.4080   22.1350   16.4660 C   0  0  0  0  0  0
   25.4700   21.4560   17.2560 N   0  0  0  0  0  0
   26.2000   20.8740   18.2760 C   0  0  0  0  0  0
   25.7440   20.2600   19.0400 H   0  0  0  0  0  0
   27.4930   21.3270   18.1550 C   0  0  0  0  0  0
   27.6040   22.1200   17.0410 N   0  0  0  0  0  0
   28.6600   21.0580   19.0440 C   0  0  0  0  0  0
   29.5890   21.0830   18.4650 H   0  0  0  0  0  0
   28.5650   20.0700   19.5060 H   0  0  0  0  0  0
   28.7540   22.0360   20.0840 O   0  0  0  0  0  0
   29.5490   21.7770   20.5950 H   0  0  0  0  0  0
   24.0500   21.3700   17.1180 C   0  0  0  0  0  0
   23.3470   22.2560   16.2890 C   0  0  0  0  0  0
   23.8410   23.0630   15.7530 H   0  0  0  0  0  0
   21.9550   22.1680   16.1730 C   0  0  0  0  0  0
   21.4280   22.8700   15.5300 H   0  0  0  0  0  0
   21.2590   21.1920   16.8890 C   0  0  0  0  0  0
   21.9410   20.3200   17.7380 C   0  0  0  0  0  0
   21.4070   19.5630   18.3080 H   0  0  0  0  0  0
   23.3320   20.4110   17.8540 C   0  0  0  0  0  0
   23.8310   19.6970   18.5050 H   0  0  0  0  0  0
   19.4880   21.0980   16.7560 S   0  0  0  0  0  0
   18.9790   22.4550   16.5850 O   0  0  0  0  0  0
   18.9940   20.3080   17.8810 O   0  0  0  0  0  0
   19.2260   20.1880   15.2570 C   0  0  0  0  0  0
   18.1500   20.0860   15.1060 H   0  0  0  0  0  0
   19.6830   19.2020   15.3550 H   0  0  0  0  0  0
   19.6680   20.7400   14.4250 H   0  0  0  0  0  0
   26.1820   22.7140   15.1410 C   0  0  0  0  0  0
   26.4350   24.0680   14.9020 C   0  0  0  0  0  0
   26.7820   24.7150   15.7050 H   0  0  0  0  0  0
   26.2390   24.5980   13.6270 C   0  0  0  0  0  0
   26.4230   25.6490   13.4250 H   0  0  0  0  0  0
   25.8080   23.7520   12.6190 C   0  0  0  0  0  0
   25.6440   24.1300   11.6120 H   0  0  0  0  0  0
   25.5700   22.4320   12.8000 N   0  0  0  0  0  0
   25.7690   21.9450   14.0540 C   0  0  0  0  0  0
   25.5850   20.8770   14.1610 H   0  0  0  0  0  0
  1  2  1  0  0  0
  1  6  2  0  0  0
  1 29  1  0  0  0
  2  3  1  0  0  0
  2 12  1  0  0  0
  3  4  1  0  0  0
  3  5  2  0  0  0
  5  6  1  0  0  0
  5  7  1  0  0  0
  7  8  1  0  0  0
  7  9  1  0  0  0
  7 10  1  0  0  0
 10 11  1  0  0  0
 12 13  1  0  0  0
 12 20  2  0  0  0
 13 14  1  0  0  0
 13 15  2  0  0  0
 15 16  1  0  0  0
 15 17  1  0  0  0
 17 18  2  0  0  0
 17 22  1  0  0  0
 18 19  1  0  0  0
 18 20  1  0  0  0
 20 21  1  0  0  0
 22 23  2  0  0  0
 22 24  2  0  0  0
 22 25  1  0  0  0
 25 26  1  0  0  0
 25 27  1  0  0  0
 25 28  1  0  0  0
 29 30  1  0  0  0
 29 37  2  0  0  0
 30 31  1  0  0  0
 30 32  2  0  0  0
 32 33  1  0  0  0
 32 34  1  0  0  0
 34 35  1  0  0  0
 34 36  2  0  0  0
 36 37  1  0  0  0
 37 38  1  0  0  0
M  END
>  <ACTIVITY>
4.03

>  <SET>
1

>  <Min_dist>
999.9

>  <Avg_dist>
999.9

$$$$
4-63
  Cerius2 12110214053D 1   1.00000                          
Structure written by Cerius2 SD Exporter
 36 38  0  0  0  0  0  0  0  0999 V2000
   26.4060   22.1350   16.4660 C   0  0  0  0  0  0
   25.4690   21.4560   17.2560 N   0  0  0  0  0  0
   26.1980   20.8740   18.2770 C   0  0  0  0  0  0
   25.7390   20.2580   19.0380 H   0  0  0  0  0  0
   27.4950   21.3250   18.1630 C   0  0  0  0  0  0
   27.6010   22.1220   17.0420 N   0  0  0  0  0  0
   28.6600   21.0480   19.0600 C   0  0  0  0  0  0
   28.4020   20.3750   19.8820 H   0  0  0  0  0  0
   29.1570   22.2070   19.5890 F   0  0  0  0  0  0
   29.6980   20.4950   18.3600 F   0  0  0  0  0  0
   24.0490   21.3690   17.1160 C   0  0  0  0  0  0
   23.3470   22.2550   16.2870 C   0  0  0  0  0  0
   23.8400   23.0620   15.7510 H   0  0  0  0  0  0
   21.9540   22.1660   16.1700 C   0  0  0  0  0  0
   21.4270   22.8670   15.5250 H   0  0  0  0  0  0
   21.2570   21.1910   16.8850 C   0  0  0  0  0  0
   21.9400   20.3180   17.7330 C   0  0  0  0  0  0
   21.4040   19.5600   18.3000 H   0  0  0  0  0  0
   23.3310   20.4090   17.8510 C   0  0  0  0  0  0
   23.8300   19.6930   18.5020 H   0  0  0  0  0  0
   19.4910   21.1000   16.7650 S   0  0  0  0  0  0
   18.9550   22.4310   16.5410 O   0  0  0  0  0  0
   18.9800   20.2730   17.8440 O   0  0  0  0  0  0
   19.2820   20.2400   15.3430 N   0  0  0  0  0  0
   18.7880   20.8000   14.6430 H   0  0  0  0  0  0
   18.8040   19.3520   15.5150 H   0  0  0  0  0  0
   26.1820   22.7140   15.1400 C   0  0  0  0  0  0
   26.4350   24.0680   14.9020 C   0  0  0  0  0  0
   26.7800   24.7140   15.7070 H   0  0  0  0  0  0
   26.2420   24.5980   13.6280 C   0  0  0  0  0  0
   26.4270   25.6490   13.4260 H   0  0  0  0  0  0
   25.8130   23.7530   12.6180 C   0  0  0  0  0  0
   25.6520   24.1310   11.6110 H   0  0  0  0  0  0
   25.5750   22.4320   12.7980 N   0  0  0  0  0  0
   25.7710   21.9450   14.0530 C   0  0  0  0  0  0
   25.5870   20.8770   14.1590 H   0  0  0  0  0  0
  1  2  1  0  0  0
  1  6  2  0  0  0
  1 27  1  0  0  0
  2  3  1  0  0  0
  2 11  1  0  0  0
  3  4  1  0  0  0
  3  5  2  0  0  0
  5  6  1  0  0  0
  5  7  1  0  0  0
  7  8  1  0  0  0
  7  9  1  0  0  0
  7 10  1  0  0  0
 11 12  1  0  0  0
 11 19  2  0  0  0
 12 13  1  0  0  0
 12 14  2  0  0  0
 14 15  1  0  0  0
 14 16  1  0  0  0
 16 17  2  0  0  0
 16 21  1  0  0  0
 17 18  1  0  0  0
 17 19  1  0  0  0
 19 20  1  0  0  0
 21 22  2  0  0  0
 21 23  2  0  0  0
 21 24  1  0  0  0
 24 25  1  0  0  0
 24 26  1  0  0  0
 27 28  1  0  0  0
 27 35  2  0  0  0
 28 29  1  0  0  0
 28 30  2  0  0  0
 30 31  1  0  0  0
 30 32  1  0  0  0
 32 33  1  0  0  0
 32 34  2  0  0  0
 34 35  1  0  0  0
 35 36  1  0  0  0
M  END
>  <ACTIVITY>
5.74

>  <SET>
2

>  <Min_dist>
0.04

>  <Avg_dist>
0.48

$$$$
4-64
  Cerius2 12110214053D 1   1.00000                          
Structure written by Cerius2 SD Exporter
 43 46  0  0  0  0  0  0  0  0999 V2000
   26.4120   22.1450   16.4540 C   0  0  0  0  0  0
   25.4750   21.4480   17.2260 N   0  0  0  0  0  0
   26.2010   20.8550   18.2440 C   0  0  0  0  0  0
   25.7420   20.2240   18.9930 H   0  0  0  0  0  0
   27.4980   21.3150   18.1510 C   0  0  0  0  0  0
   27.6040   22.1360   17.0430 N   0  0  0  0  0  0
   28.6590   21.0260   19.0590 C   0  0  0  0  0  0
   28.3460   20.1470   20.0560 F   0  0  0  0  0  0
   29.1260   22.1510   19.6740 F   0  0  0  0  0  0
   29.7180   20.4840   18.3900 F   0  0  0  0  0  0
   24.0520   21.3650   17.0940 C   0  0  0  0  0  0
   23.3450   22.2550   16.2710 C   0  0  0  0  0  0
   23.8380   23.0500   15.7190 H   0  0  0  0  0  0
   21.9510   22.1760   16.1710 C   0  0  0  0  0  0
   21.4230   22.8760   15.5270 H   0  0  0  0  0  0
   21.2550   21.2160   16.9070 C   0  0  0  0  0  0
   21.9420   20.3280   17.7340 C   0  0  0  0  0  0
   21.4100   19.5700   18.3060 H   0  0  0  0  0  0
   23.3350   20.4090   17.8340 C   0  0  0  0  0  0
   23.8360   19.6860   18.4750 H   0  0  0  0  0  0
   19.4860   21.1040   16.7600 S   0  0  0  0  0  0
   18.9620   22.4550   16.5840 O   0  0  0  0  0  0
   18.9940   20.3100   17.8810 O   0  0  0  0  0  0
   19.2450   20.1930   15.2580 C   0  0  0  0  0  0
   18.1710   20.0840   15.0970 H   0  0  0  0  0  0
   19.7070   19.2100   15.3600 H   0  0  0  0  0  0
   19.6910   20.7480   14.4300 H   0  0  0  0  0  0
   26.1780   22.7410   15.1340 C   0  0  0  0  0  0
   26.4300   24.0890   14.9070 C   0  0  0  0  0  0
   26.7750   24.7230   15.7200 H   0  0  0  0  0  0
   26.2270   24.6130   13.6230 C   0  0  0  0  0  0
   25.7880   23.7530   12.5970 C   0  0  0  0  0  0
   25.5850   22.4120   12.9260 C   0  0  0  0  0  0
   25.2510   21.6980   12.1740 H   0  0  0  0  0  0
   25.7760   21.8860   14.1620 N   0  0  0  0  0  0
   25.5780   24.2630   11.3030 C   0  0  0  0  0  0
   25.2390   23.6090   10.5000 H   0  0  0  0  0  0
   25.8020   25.6130   11.0310 C   0  0  0  0  0  0
   25.6370   26.0000   10.0270 H   0  0  0  0  0  0
   26.2370   26.4640   12.0440 C   0  0  0  0  0  0
   26.4120   27.5170   11.8310 H   0  0  0  0  0  0
   26.4490   25.9690   13.3320 C   0  0  0  0  0  0
   26.7900   26.6530   14.1090 H   0  0  0  0  0  0
  1  2  1  0  0  0
  1  6  2  0  0  0
  1 28  1  0  0  0
  2  3  1  0  0  0
  2 11  1  0  0  0
  3  4  1  0  0  0
  3  5  2  0  0  0
  5  6  1  0  0  0
  5  7  1  0  0  0
  7  8  1  0  0  0
  7  9  1  0  0  0
  7 10  1  0  0  0
 11 12  1  0  0  0
 11 19  2  0  0  0
 12 13  1  0  0  0
 12 14  2  0  0  0
 14 15  1  0  0  0
 14 16  1  0  0  0
 16 17  2  0  0  0
 16 21  1  0  0  0
 17 18  1  0  0  0
 17 19  1  0  0  0
 19 20  1  0  0  0
 21 22  2  0  0  0
 21 23  2  0  0  0
 21 24  1  0  0  0
 24 25  1  0  0  0
 24 26  1  0  0  0
 24 27  1  0  0  0
 28 29  2  0  0  0
 28 35  1  0  0  0
 29 30  1  0  0  0
 29 31  1  0  0  0
 31 32  2  0  0  0
 31 42  1  0  0  0
 32 33  1  0  0  0
 32 36  1  0  0  0
 33 34  1  0  0  0
 33 35  2  0  0  0
 36 37  1  0  0  0
 36 38  2  0  0  0
 38 39  1  0  0  0
 38 40  1  0  0  0
 40 41  1  0  0  0
 40 42  2  0  0  0
 42 43  1  0  0  0
M  END
>  <ACTIVITY>
5.92

>  <SET>
1

>  <Min_dist>
999.9

>  <Avg_dist>
999.9

$$$$
4-66
  Cerius2 12110214053D 1   1.00000                          
Structure written by Cerius2 SD Exporter
 43 46  0  0  0  0  0  0  0  0999 V2000
   26.4070   22.1310   16.4650 C   0  0  0  0  0  0
   25.4700   21.4550   17.2580 N   0  0  0  0  0  0
   26.1990   20.8730   18.2780 C   0  0  0  0  0  0
   25.7410   20.2590   19.0410 H   0  0  0  0  0  0
   27.5000   21.3190   18.1640 C   0  0  0  0  0  0
   27.6030   22.1170   17.0380 N   0  0  0  0  0  0
   28.6670   21.0370   19.0650 C   0  0  0  0  0  0
   28.3580   20.1800   20.0820 F   0  0  0  0  0  0
   29.1510   22.1700   19.6530 F   0  0  0  0  0  0
   29.7150   20.4740   18.3960 F   0  0  0  0  0  0
   24.0500   21.3710   17.1210 C   0  0  0  0  0  0
   23.3480   22.2580   16.2920 C   0  0  0  0  0  0
   23.8420   23.0610   15.7520 H   0  0  0  0  0  0
   21.9550   22.1720   16.1780 C   0  0  0  0  0  0
   21.4300   22.8710   15.5300 H   0  0  0  0  0  0
   21.2570   21.2090   16.9090 C   0  0  0  0  0  0
   21.9400   20.3260   17.7440 C   0  0  0  0  0  0
   21.4060   19.5670   18.3120 H   0  0  0  0  0  0
   23.3320   20.4130   17.8580 C   0  0  0  0  0  0
   23.8310   19.6950   18.5050 H   0  0  0  0  0  0
   19.4900   21.0910   16.7470 S   0  0  0  0  0  0
   18.9650   22.4380   16.5490 O   0  0  0  0  0  0
   18.9890   20.3090   17.8730 O   0  0  0  0  0  0
   19.2660   20.1620   15.2530 C   0  0  0  0  0  0
   18.1930   20.0460   15.0840 H   0  0  0  0  0  0
   19.7310   19.1810   15.3710 H   0  0  0  0  0  0
   19.7160   20.7090   14.4230 H   0  0  0  0  0  0
   26.1800   22.7110   15.1400 C   0  0  0  0  0  0
   26.4340   24.0620   14.9010 C   0  0  0  0  0  0
   26.7810   24.6960   15.7160 H   0  0  0  0  0  0
   26.2400   24.6050   13.6220 C   0  0  0  0  0  0
   25.8000   23.7450   12.5920 C   0  0  0  0  0  0
   25.5700   22.4350   12.8010 N   0  0  0  0  0  0
   25.7690   21.9470   14.0550 C   0  0  0  0  0  0
   25.5840   20.8790   14.1590 H   0  0  0  0  0  0
   25.6050   24.2850   11.3270 C   0  0  0  0  0  0
   25.2660   23.6390   10.5190 H   0  0  0  0  0  0
   25.8350   25.6400   11.0620 C   0  0  0  0  0  0
   25.6740   26.0320   10.0600 H   0  0  0  0  0  0
   26.2700   26.4810   12.0790 C   0  0  0  0  0  0
   26.4510   27.5350   11.8790 H   0  0  0  0  0  0
   26.4730   25.9660   13.3580 C   0  0  0  0  0  0
   26.8140   26.6330   14.1490 H   0  0  0  0  0  0
  1  2  1  0  0  0
  1  6  2  0  0  0
  1 28  1  0  0  0
  2  3  1  0  0  0
  2 11  1  0  0  0
  3  4  1  0  0  0
  3  5  2  0  0  0
  5  6  1  0  0  0
  5  7  1  0  0  0
  7  8  1  0  0  0
  7  9  1  0  0  0
  7 10  1  0  0  0
 11 12  1  0  0  0
 11 19  2  0  0  0
 12 13  1  0  0  0
 12 14  2  0  0  0
 14 15  1  0  0  0
 14 16  1  0  0  0
 16 17  2  0  0  0
 16 21  1  0  0  0
 17 18  1  0  0  0
 17 19  1  0  0  0
 19 20  1  0  0  0
 21 22  2  0  0  0
 21 23  2  0  0  0
 21 24  1  0  0  0
 24 25  1  0  0  0
 24 26  1  0  0  0
 24 27  1  0  0  0
 28 29  2  0  0  0
 28 34  1  0  0  0
 29 30  1  0  0  0
 29 31  1  0  0  0
 31 32  2  0  0  0
 31 42  1  0  0  0
 32 33  1  0  0  0
 32 36  1  0  0  0
 33 34  2  0  0  0
 34 35  1  0  0  0
 36 37  1  0  0  0
 36 38  2  0  0  0
 38 39  1  0  0  0
 38 40  1  0  0  0
 40 41  1  0  0  0
 40 42  2  0  0  0
 42 43  1  0  0  0
M  END
>  <ACTIVITY>
6.2

>  <SET>
1

>  <Min_dist>
999.9

>  <Avg_dist>
999.9

$$$$
4-67
  Cerius2 12110214053D 1   1.00000                          
Structure written by Cerius2 SD Exporter
 45 48  0  0  0  0  0  0  0  0999 V2000
   26.4050   22.1520   16.5140 C   0  0  0  0  0  0
   25.4720   21.4320   17.2610 N   0  0  0  0  0  0
   26.2040   20.7960   18.2470 C   0  0  0  0  0  0
   25.7490   20.1410   18.9770 H   0  0  0  0  0  0
   27.5070   21.2440   18.1480 C   0  0  0  0  0  0
   27.6070   22.1030   17.0670 N   0  0  0  0  0  0
   28.6790   20.9070   19.0220 C   0  0  0  0  0  0
   28.3640   20.0220   20.0130 F   0  0  0  0  0  0
   29.1940   22.0080   19.6430 F   0  0  0  0  0  0
   29.7060   20.3450   18.3200 F   0  0  0  0  0  0
   24.0520   21.3570   17.1210 C   0  0  0  0  0  0
   23.3570   22.2500   16.2930 C   0  0  0  0  0  0
   23.8610   23.0460   15.7500 H   0  0  0  0  0  0
   21.9640   22.1760   16.1770 C   0  0  0  0  0  0
   21.4450   22.8800   15.5290 H   0  0  0  0  0  0
   21.2580   21.2180   16.9060 C   0  0  0  0  0  0
   21.9330   20.3270   17.7410 C   0  0  0  0  0  0
   21.3920   19.5710   18.3060 H   0  0  0  0  0  0
   23.3250   20.4040   17.8550 C   0  0  0  0  0  0
   23.8170   19.6800   18.5020 H   0  0  0  0  0  0
   19.4900   21.1120   16.7410 S   0  0  0  0  0  0
   18.9720   22.4650   16.5640 O   0  0  0  0  0  0
   18.9840   20.3150   17.8550 O   0  0  0  0  0  0
   19.2610   20.2070   15.2340 C   0  0  0  0  0  0
   18.1870   20.1010   15.0620 H   0  0  0  0  0  0
   19.7200   19.2220   15.3370 H   0  0  0  0  0  0
   19.7150   20.7640   14.4120 H   0  0  0  0  0  0
   26.2090   22.8170   15.2020 C   0  0  0  0  0  0
   26.4340   24.1890   14.8900 C   0  0  0  0  0  0
   26.1410   24.3510   13.5300 C   0  0  0  0  0  0
   25.7710   23.1110   13.0460 N   0  0  0  0  0  0
   25.8260   22.1750   14.0450 C   0  0  0  0  0  0
   25.5850   21.1360   13.8500 H   0  0  0  0  0  0
   25.3870   22.8340   11.6770 C   0  0  0  0  0  0
   25.1400   21.7750   11.5740 H   0  0  0  0  0  0
   26.2280   23.0840   11.0260 H   0  0  0  0  0  0
   24.5120   23.4430   11.4350 H   0  0  0  0  0  0
   26.2450   25.5950   12.8880 C   0  0  0  0  0  0
   26.0150   25.7100   11.8310 H   0  0  0  0  0  0
   26.6570   26.6950   13.6470 C   0  0  0  0  0  0
   26.7450   27.6710   13.1700 H   0  0  0  0  0  0
   26.9550   26.5600   14.9990 C   0  0  0  0  0  0
   27.2750   27.4290   15.5720 H   0  0  0  0  0  0
   26.8480   25.3170   15.6310 C   0  0  0  0  0  0
   27.0830   25.2230   16.6890 H   0  0  0  0  0  0
  1  2  1  0  0  0
  1  6  2  0  0  0
  1 28  1  0  0  0
  2  3  1  0  0  0
  2 11  1  0  0  0
  3  4  1  0  0  0
  3  5  2  0  0  0
  5  6  1  0  0  0
  5  7  1  0  0  0
  7  8  1  0  0  0
  7  9  1  0  0  0
  7 10  1  0  0  0
 11 12  1  0  0  0
 11 19  2  0  0  0
 12 13  1  0  0  0
 12 14  2  0  0  0
 14 15  1  0  0  0
 14 16  1  0  0  0
 16 17  2  0  0  0
 16 21  1  0  0  0
 17 18  1  0  0  0
 17 19  1  0  0  0
 19 20  1  0  0  0
 21 22  2  0  0  0
 21 23  2  0  0  0
 21 24  1  0  0  0
 24 25  1  0  0  0
 24 26  1  0  0  0
 24 27  1  0  0  0
 28 29  1  0  0  0
 28 32  2  0  0  0
 29 30  1  0  0  0
 29 44  2  0  0  0
 30 31  1  0  0  0
 30 38  2  0  0  0
 31 32  1  0  0  0
 31 34  1  0  0  0
 32 33  1  0  0  0
 34 35  1  0  0  0
 34 36  1  0  0  0
 34 37  1  0  0  0
 38 39  1  0  0  0
 38 40  1  0  0  0
 40 41  1  0  0  0
 40 42  2  0  0  0
 42 43  1  0  0  0
 42 44  1  0  0  0
 44 45  1  0  0  0
M  END
>  <ACTIVITY>
5.96

>  <SET>
2

>  <Min_dist>
0.07

>  <Avg_dist>
0.49

$$$$
4-69
  Cerius2 12110214053D 1   1.00000                          
Structure written by Cerius2 SD Exporter
 41 44  0  0  0  0  0  0  0  0999 V2000
   26.4160   22.1330   16.4660 C   0  0  0  0  0  0
   25.4740   21.4710   17.2640 N   0  0  0  0  0  0
   26.2000   20.8910   18.2890 C   0  0  0  0  0  0
   25.7360   20.2980   19.0650 H   0  0  0  0  0  0
   27.5110   21.2950   18.1510 C   0  0  0  0  0  0
   27.6220   22.0760   17.0140 N   0  0  0  0  0  0
   28.6830   20.9870   19.0370 C   0  0  0  0  0  0
   28.3610   20.1530   20.0690 F   0  0  0  0  0  0
   29.2120   22.1100   19.6040 F   0  0  0  0  0  0
   29.7010   20.3810   18.3590 F   0  0  0  0  0  0
   24.0520   21.3860   17.1230 C   0  0  0  0  0  0
   23.3480   22.2670   16.2900 C   0  0  0  0  0  0
   23.8370   23.0700   15.7480 H   0  0  0  0  0  0
   21.9560   22.1740   16.1700 C   0  0  0  0  0  0
   21.4300   22.8700   15.5180 H   0  0  0  0  0  0
   21.2590   21.2100   16.8990 C   0  0  0  0  0  0
   21.9430   20.3310   17.7380 C   0  0  0  0  0  0
   21.4100   19.5690   18.3040 H   0  0  0  0  0  0
   23.3340   20.4250   17.8570 C   0  0  0  0  0  0
   23.8320   19.7080   18.5060 H   0  0  0  0  0  0
   19.4930   21.0800   16.7300 S   0  0  0  0  0  0
   18.9630   22.4220   16.5120 O   0  0  0  0  0  0
   18.9900   20.3110   17.8640 O   0  0  0  0  0  0
   19.2810   20.1290   15.2490 C   0  0  0  0  0  0
   18.2100   20.0060   15.0760 H   0  0  0  0  0  0
   19.7510   19.1530   15.3820 H   0  0  0  0  0  0
   19.7320   20.6670   14.4130 H   0  0  0  0  0  0
   26.1800   22.7190   15.1460 C   0  0  0  0  0  0
   25.7470   21.9290   14.0660 C   0  0  0  0  0  0
   25.5640   20.8640   14.2020 H   0  0  0  0  0  0
   25.5460   22.4930   12.7930 C   0  0  0  0  0  0
   25.2050   21.8620   11.9730 H   0  0  0  0  0  0
   25.7830   23.8500   12.5730 C   0  0  0  0  0  0
   25.6310   24.2930   11.5930 H   0  0  0  0  0  0
   26.2210   24.6060   13.6400 C   0  0  0  0  0  0
   26.4190   24.0620   14.8910 C   0  0  0  0  0  0
   26.8410   24.9980   15.7890 O   0  0  0  0  0  0
   26.9020   26.1820   14.9630 C   0  0  0  0  0  0
   26.2430   26.9450   15.3920 H   0  0  0  0  0  0
   27.9310   26.5590   14.9640 H   0  0  0  0  0  0
   26.4990   25.9370   13.5970 O   0  0  0  0  0  0
  1  2  1  0  0  0
  1  6  2  0  0  0
  1 28  1  0  0  0
  2  3  1  0  0  0
  2 11  1  0  0  0
  3  4  1  0  0  0
  3  5  2  0  0  0
  5  6  1  0  0  0
  5  7  1  0  0  0
  7  8  1  0  0  0
  7  9  1  0  0  0
  7 10  1  0  0  0
 11 12  1  0  0  0
 11 19  2  0  0  0
 12 13  1  0  0  0
 12 14  2  0  0  0
 14 15  1  0  0  0
 14 16  1  0  0  0
 16 17  2  0  0  0
 16 21  1  0  0  0
 17 18  1  0  0  0
 17 19  1  0  0  0
 19 20  1  0  0  0
 21 22  2  0  0  0
 21 23  2  0  0  0
 21 24  1  0  0  0
 24 25  1  0  0  0
 24 26  1  0  0  0
 24 27  1  0  0  0
 28 29  1  0  0  0
 28 36  2  0  0  0
 29 30  1  0  0  0
 29 31  2  0  0  0
 31 32  1  0  0  0
 31 33  1  0  0  0
 33 34  1  0  0  0
 33 35  2  0  0  0
 35 36  1  0  0  0
 35 41  1  0  0  0
 36 37  1  0  0  0
 37 38  1  0  0  0
 38 39  1  0  0  0
 38 40  1  0  0  0
 38 41  1  0  0  0
M  END
>  <ACTIVITY>
6.33

>  <SET>
2

>  <Min_dist>
0.05

>  <Avg_dist>
0.52

$$$$
4-70
  Cerius2 12110214053D 1   1.00000                          
Structure written by Cerius2 SD Exporter
 35 37  0  0  0  0  0  0  0  0999 V2000
   26.3930   22.1430   16.4950 C   0  0  0  0  0  0
   25.4640   21.4370   17.2600 N   0  0  0  0  0  0
   26.2010   20.8240   18.2570 C   0  0  0  0  0  0
   25.7500   20.1800   19.0000 H   0  0  0  0  0  0
   27.4990   21.2830   18.1510 C   0  0  0  0  0  0
   27.5930   22.1220   17.0530 N   0  0  0  0  0  0
   28.6730   20.9770   19.0350 C   0  0  0  0  0  0
   28.3710   20.0900   20.0290 F   0  0  0  0  0  0
   29.1600   22.0920   19.6540 F   0  0  0  0  0  0
   29.7160   20.4330   18.3430 F   0  0  0  0  0  0
   24.0440   21.3570   17.1260 C   0  0  0  0  0  0
   23.3460   22.2480   16.2980 C   0  0  0  0  0  0
   23.8470   23.0470   15.7560 H   0  0  0  0  0  0
   21.9530   22.1700   16.1860 C   0  0  0  0  0  0
   21.4300   22.8710   15.5390 H   0  0  0  0  0  0
   21.2510   21.2100   16.9170 C   0  0  0  0  0  0
   21.9310   20.3220   17.7520 C   0  0  0  0  0  0
   21.3940   19.5650   18.3200 H   0  0  0  0  0  0
   23.3240   20.4030   17.8630 C   0  0  0  0  0  0
   23.8200   19.6820   18.5100 H   0  0  0  0  0  0
   19.4830   21.0980   16.7580 S   0  0  0  0  0  0
   18.9650   22.4460   16.5480 O   0  0  0  0  0  0
   18.9800   20.3290   17.8920 O   0  0  0  0  0  0
   19.2530   20.1550   15.2740 C   0  0  0  0  0  0
   18.1800   20.0430   15.1070 H   0  0  0  0  0  0
   19.7140   19.1730   15.4010 H   0  0  0  0  0  0
   19.7060   20.6910   14.4380 H   0  0  0  0  0  0
   26.2000   22.7770   15.1630 C   0  0  0  0  0  0
   26.4560   24.1520   14.8840 C   0  0  0  0  0  0
   26.7910   24.8790   15.6160 H   0  0  0  0  0  0
   26.2170   24.4660   13.5630 C   0  0  0  0  0  0
   26.3190   25.4320   13.0850 H   0  0  0  0  0  0
   25.7150   23.1020   12.6600 S   0  0  0  0  0  0
   25.8230   22.0820   14.0330 C   0  0  0  0  0  0
   25.5990   21.0270   13.9370 H   0  0  0  0  0  0
  1  2  1  0  0  0
  1  6  2  0  0  0
  1 28  1  0  0  0
  2  3  1  0  0  0
  2 11  1  0  0  0
  3  4  1  0  0  0
  3  5  2  0  0  0
  5  6  1  0  0  0
  5  7  1  0  0  0
  7  8  1  0  0  0
  7  9  1  0  0  0
  7 10  1  0  0  0
 11 12  1  0  0  0
 11 19  2  0  0  0
 12 13  1  0  0  0
 12 14  2  0  0  0
 14 15  1  0  0  0
 14 16  1  0  0  0
 16 17  2  0  0  0
 16 21  1  0  0  0
 17 18  1  0  0  0
 17 19  1  0  0  0
 19 20  1  0  0  0
 21 22  2  0  0  0
 21 23  2  0  0  0
 21 24  1  0  0  0
 24 25  1  0  0  0
 24 26  1  0  0  0
 24 27  1  0  0  0
 28 29  1  0  0  0
 28 34  2  0  0  0
 29 30  1  0  0  0
 29 31  2  0  0  0
 31 32  1  0  0  0
 31 33  1  0  0  0
 33 34  1  0  0  0
 34 35  1  0  0  0
M  END
>  <ACTIVITY>
4.29

>  <SET>
2

>  <Min_dist>
0.09

>  <Avg_dist>
0.46

$$$$
4-71
  Cerius2 12110214053D 1   1.00000                          
Structure written by Cerius2 SD Exporter
 35 37  0  0  0  0  0  0  0  0999 V2000
   26.4110   22.1730   16.5270 C   0  0  0  0  0  0
   25.4760   21.4480   17.2670 N   0  0  0  0  0  0
   26.2080   20.8100   18.2530 C   0  0  0  0  0  0
   25.7530   20.1490   18.9780 H   0  0  0  0  0  0
   27.5090   21.2650   18.1630 C   0  0  0  0  0  0
   27.6100   22.1310   17.0870 N   0  0  0  0  0  0
   28.6790   20.9300   19.0430 C   0  0  0  0  0  0
   28.3690   20.0180   20.0110 F   0  0  0  0  0  0
   29.1680   22.0260   19.6920 F   0  0  0  0  0  0
   29.7220   20.4010   18.3390 F   0  0  0  0  0  0
   24.0560   21.3690   17.1260 C   0  0  0  0  0  0
   23.3600   22.2590   16.2950 C   0  0  0  0  0  0
   23.8600   23.0580   15.7540 H   0  0  0  0  0  0
   21.9670   22.1800   16.1780 C   0  0  0  0  0  0
   21.4460   22.8820   15.5290 H   0  0  0  0  0  0
   21.2630   21.2200   16.9050 C   0  0  0  0  0  0
   21.9390   20.3310   17.7410 C   0  0  0  0  0  0
   21.4010   19.5740   18.3060 H   0  0  0  0  0  0
   23.3320   20.4130   17.8580 C   0  0  0  0  0  0
   23.8250   19.6910   18.5060 H   0  0  0  0  0  0
   19.4950   21.1080   16.7400 S   0  0  0  0  0  0
   18.9810   22.4510   16.4950 O   0  0  0  0  0  0
   18.9840   20.3670   17.8890 O   0  0  0  0  0  0
   19.2710   20.1300   15.2770 C   0  0  0  0  0  0
   18.1990   20.0160   15.1070 H   0  0  0  0  0  0
   19.7290   19.1510   15.4300 H   0  0  0  0  0  0
   19.7290   20.6460   14.4310 H   0  0  0  0  0  0
   26.2140   22.8230   15.2610 C   0  0  0  0  0  0
   26.4490   24.1540   14.9730 C   0  0  0  0  0  0
   26.7880   24.8730   15.7110 H   0  0  0  0  0  0
   26.1830   24.4710   13.6080 C   0  0  0  0  0  0
   26.2880   25.4590   13.1730 H   0  0  0  0  0  0
   25.7830   23.3650   12.8910 C   0  0  0  0  0  0
   25.5240   23.3160   11.8410 H   0  0  0  0  0  0
   25.7430   21.9550   13.8580 S   0  0  0  0  0  0
  1  2  1  0  0  0
  1  6  2  0  0  0
  1 28  1  0  0  0
  2  3  1  0  0  0
  2 11  1  0  0  0
  3  4  1  0  0  0
  3  5  2  0  0  0
  5  6  1  0  0  0
  5  7  1  0  0  0
  7  8  1  0  0  0
  7  9  1  0  0  0
  7 10  1  0  0  0
 11 12  1  0  0  0
 11 19  2  0  0  0
 12 13  1  0  0  0
 12 14  2  0  0  0
 14 15  1  0  0  0
 14 16  1  0  0  0
 16 17  2  0  0  0
 16 21  1  0  0  0
 17 18  1  0  0  0
 17 19  1  0  0  0
 19 20  1  0  0  0
 21 22  2  0  0  0
 21 23  2  0  0  0
 21 24  1  0  0  0
 24 25  1  0  0  0
 24 26  1  0  0  0
 24 27  1  0  0  0
 28 29  2  0  0  0
 28 35  1  0  0  0
 29 30  1  0  0  0
 29 31  1  0  0  0
 31 32  1  0  0  0
 31 33  2  0  0  0
 33 34  1  0  0  0
 33 35  1  0  0  0
M  END
>  <ACTIVITY>
6.33

>  <SET>
1

>  <Min_dist>
999.9

>  <Avg_dist>
999.9

$$$$
4-72
  Cerius2 12110214053D 1   1.00000                          
Structure written by Cerius2 SD Exporter
 34 36  0  0  0  0  0  0  0  0999 V2000
   26.4110   22.1720   16.5270 C   0  0  0  0  0  0
   25.4760   21.4480   17.2690 N   0  0  0  0  0  0
   26.2100   20.8080   18.2520 C   0  0  0  0  0  0
   25.7550   20.1470   18.9780 H   0  0  0  0  0  0
   27.5110   21.2620   18.1600 C   0  0  0  0  0  0
   27.6110   22.1280   17.0840 N   0  0  0  0  0  0
   28.6820   20.9250   19.0370 C   0  0  0  0  0  0
   28.3670   20.0330   20.0210 F   0  0  0  0  0  0
   29.1900   22.0250   19.6650 F   0  0  0  0  0  0
   29.7130   20.3710   18.3350 F   0  0  0  0  0  0
   24.0560   21.3710   17.1290 C   0  0  0  0  0  0
   23.3600   22.2610   16.2990 C   0  0  0  0  0  0
   23.8600   23.0600   15.7580 H   0  0  0  0  0  0
   21.9670   22.1810   16.1820 C   0  0  0  0  0  0
   21.4430   22.8820   15.5350 H   0  0  0  0  0  0
   21.2620   21.2200   16.9080 C   0  0  0  0  0  0
   21.9390   20.3340   17.7470 C   0  0  0  0  0  0
   21.4000   19.5780   18.3130 H   0  0  0  0  0  0
   23.3320   20.4160   17.8640 C   0  0  0  0  0  0
   23.8260   19.6950   18.5120 H   0  0  0  0  0  0
   19.5030   21.1080   16.7280 S   0  0  0  0  0  0
   18.9550   22.4320   16.4930 O   0  0  0  0  0  0
   18.9710   20.2680   17.7860 O   0  0  0  0  0  0
   19.3510   20.2570   15.2930 N   0  0  0  0  0  0
   18.8750   20.8180   14.5810 H   0  0  0  0  0  0
   18.8760   19.3630   15.4420 H   0  0  0  0  0  0
   26.2110   22.8230   15.2610 C   0  0  0  0  0  0
   26.4460   24.1540   14.9730 C   0  0  0  0  0  0
   26.7850   24.8730   15.7110 H   0  0  0  0  0  0
   26.1790   24.4700   13.6080 C   0  0  0  0  0  0
   26.2820   25.4580   13.1730 H   0  0  0  0  0  0
   25.7790   23.3650   12.8920 C   0  0  0  0  0  0
   25.5180   23.3160   11.8420 H   0  0  0  0  0  0
   25.7400   21.9540   13.8590 S   0  0  0  0  0  0
  1  2  1  0  0  0
  1  6  2  0  0  0
  1 27  1  0  0  0
  2  3  1  0  0  0
  2 11  1  0  0  0
  3  4  1  0  0  0
  3  5  2  0  0  0
  5  6  1  0  0  0
  5  7  1  0  0  0
  7  8  1  0  0  0
  7  9  1  0  0  0
  7 10  1  0  0  0
 11 12  1  0  0  0
 11 19  2  0  0  0
 12 13  1  0  0  0
 12 14  2  0  0  0
 14 15  1  0  0  0
 14 16  1  0  0  0
 16 17  2  0  0  0
 16 21  1  0  0  0
 17 18  1  0  0  0
 17 19  1  0  0  0
 19 20  1  0  0  0
 21 22  2  0  0  0
 21 23  2  0  0  0
 21 24  1  0  0  0
 24 25  1  0  0  0
 24 26  1  0  0  0
 27 28  2  0  0  0
 27 34  1  0  0  0
 28 29  1  0  0  0
 28 30  1  0  0  0
 30 31  1  0  0  0
 30 32  2  0  0  0
 32 33  1  0  0  0
 32 34  1  0  0  0
M  END
>  <ACTIVITY>
7.15

>  <SET>
1

>  <Min_dist>
999.9

>  <Avg_dist>
999.9

$$$$
4-73
  Cerius2 12110214053D 1   1.00000                          
Structure written by Cerius2 SD Exporter
 35 37  0  0  0  0  0  0  0  0999 V2000
   26.4100   22.1760   16.5270 C   0  0  0  0  0  0
   25.4760   21.4480   17.2650 N   0  0  0  0  0  0
   26.2090   20.8080   18.2490 C   0  0  0  0  0  0
   25.7550   20.1450   18.9720 H   0  0  0  0  0  0
   27.5090   21.2670   18.1610 C   0  0  0  0  0  0
   27.6090   22.1360   17.0870 N   0  0  0  0  0  0
   28.6780   20.9320   19.0410 C   0  0  0  0  0  0
   28.3700   20.0190   20.0080 F   0  0  0  0  0  0
   29.1660   22.0290   19.6910 F   0  0  0  0  0  0
   29.7230   20.4060   18.3370 F   0  0  0  0  0  0
   24.0560   21.3690   17.1240 C   0  0  0  0  0  0
   23.3600   22.2590   16.2940 C   0  0  0  0  0  0
   23.8600   23.0590   15.7540 H   0  0  0  0  0  0
   21.9670   22.1800   16.1770 C   0  0  0  0  0  0
   21.4460   22.8820   15.5290 H   0  0  0  0  0  0
   21.2630   21.2200   16.9050 C   0  0  0  0  0  0
   21.9400   20.3310   17.7410 C   0  0  0  0  0  0
   21.4010   19.5740   18.3060 H   0  0  0  0  0  0
   23.3320   20.4130   17.8570 C   0  0  0  0  0  0
   23.8270   19.6910   18.5050 H   0  0  0  0  0  0
   19.4960   21.1080   16.7420 S   0  0  0  0  0  0
   18.9810   22.4520   16.4980 O   0  0  0  0  0  0
   18.9850   20.3680   17.8910 O   0  0  0  0  0  0
   19.2700   20.1320   15.2790 C   0  0  0  0  0  0
   18.1970   20.0190   15.1100 H   0  0  0  0  0  0
   19.7270   19.1520   15.4310 H   0  0  0  0  0  0
   19.7270   20.6470   14.4330 H   0  0  0  0  0  0
   26.2130   22.8270   15.2610 C   0  0  0  0  0  0
   26.4490   24.1590   14.9760 C   0  0  0  0  0  0
   26.7870   24.8730   15.7190 H   0  0  0  0  0  0
   26.1840   24.4580   13.6170 C   0  0  0  0  0  0
   25.7840   23.3670   12.8870 C   0  0  0  0  0  0
   25.5260   23.3190   11.8380 H   0  0  0  0  0  0
   25.7440   21.9560   13.8560 S   0  0  0  0  0  0
   26.3830   26.2000   12.9210 Br  0  0  0  0  0  0
  1  2  1  0  0  0
  1  6  2  0  0  0
  1 28  1  0  0  0
  2  3  1  0  0  0
  2 11  1  0  0  0
  3  4  1  0  0  0
  3  5  2  0  0  0
  5  6  1  0  0  0
  5  7  1  0  0  0
  7  8  1  0  0  0
  7  9  1  0  0  0
  7 10  1  0  0  0
 11 12  1  0  0  0
 11 19  2  0  0  0
 12 13  1  0  0  0
 12 14  2  0  0  0
 14 15  1  0  0  0
 14 16  1  0  0  0
 16 17  2  0  0  0
 16 21  1  0  0  0
 17 18  1  0  0  0
 17 19  1  0  0  0
 19 20  1  0  0  0
 21 22  2  0  0  0
 21 23  2  0  0  0
 21 24  1  0  0  0
 24 25  1  0  0  0
 24 26  1  0  0  0
 24 27  1  0  0  0
 28 29  2  0  0  0
 28 34  1  0  0  0
 29 30  1  0  0  0
 29 31  1  0  0  0
 31 32  2  0  0  0
 31 35  1  0  0  0
 32 33  1  0  0  0
 32 34  1  0  0  0
M  END
>  <ACTIVITY>
7.59

>  <SET>
1

>  <Min_dist>
999.9

>  <Avg_dist>
999.9

$$$$
4-74
  Cerius2 12110214053D 1   1.00000                          
Structure written by Cerius2 SD Exporter
 38 40  0  0  0  0  0  0  0  0999 V2000
   26.4180   22.1730   16.5300 C   0  0  0  0  0  0
   25.4800   21.4520   17.2700 N   0  0  0  0  0  0
   26.2100   20.8080   18.2540 C   0  0  0  0  0  0
   25.7530   20.1530   18.9820 H   0  0  0  0  0  0
   27.5170   21.2450   18.1530 C   0  0  0  0  0  0
   27.6220   22.1100   17.0780 N   0  0  0  0  0  0
   28.6880   20.8920   19.0230 C   0  0  0  0  0  0
   28.3670   20.0060   20.0100 F   0  0  0  0  0  0
   29.2180   21.9840   19.6460 F   0  0  0  0  0  0
   29.7060   20.3220   18.3140 F   0  0  0  0  0  0
   24.0590   21.3750   17.1260 C   0  0  0  0  0  0
   23.3640   22.2640   16.2930 C   0  0  0  0  0  0
   23.8630   23.0630   15.7520 H   0  0  0  0  0  0
   21.9710   22.1830   16.1720 C   0  0  0  0  0  0
   21.4520   22.8840   15.5210 H   0  0  0  0  0  0
   21.2660   21.2230   16.8980 C   0  0  0  0  0  0
   21.9410   20.3360   17.7360 C   0  0  0  0  0  0
   21.4010   19.5780   18.3000 H   0  0  0  0  0  0
   23.3330   20.4190   17.8570 C   0  0  0  0  0  0
   23.8240   19.6960   18.5060 H   0  0  0  0  0  0
   19.4990   21.1100   16.7260 S   0  0  0  0  0  0
   18.9860   22.4510   16.4630 O   0  0  0  0  0  0
   18.9830   20.3830   17.8820 O   0  0  0  0  0  0
   19.2810   20.1160   15.2740 C   0  0  0  0  0  0
   18.2090   20.0010   15.1000 H   0  0  0  0  0  0
   19.7370   19.1380   15.4400 H   0  0  0  0  0  0
   19.7430   20.6210   14.4240 H   0  0  0  0  0  0
   26.2150   22.8380   15.2700 C   0  0  0  0  0  0
   26.4340   24.1790   14.9820 C   0  0  0  0  0  0
   26.1520   24.4620   13.6030 C   0  0  0  0  0  0
   26.2410   25.4420   13.1470 H   0  0  0  0  0  0
   25.7590   23.3460   12.9000 C   0  0  0  0  0  0
   25.4940   23.2850   11.8520 H   0  0  0  0  0  0
   25.7360   21.9510   13.8810 S   0  0  0  0  0  0
   26.8930   25.2090   15.9640 C   0  0  0  0  0  0
   27.9230   25.0070   16.2760 H   0  0  0  0  0  0
   26.2510   25.2100   16.8510 H   0  0  0  0  0  0
   26.8630   26.2130   15.5270 H   0  0  0  0  0  0
  1  2  1  0  0  0
  1  6  2  0  0  0
  1 28  1  0  0  0
  2  3  1  0  0  0
  2 11  1  0  0  0
  3  4  1  0  0  0
  3  5  2  0  0  0
  5  6  1  0  0  0
  5  7  1  0  0  0
  7  8  1  0  0  0
  7  9  1  0  0  0
  7 10  1  0  0  0
 11 12  1  0  0  0
 11 19  2  0  0  0
 12 13  1  0  0  0
 12 14  2  0  0  0
 14 15  1  0  0  0
 14 16  1  0  0  0
 16 17  2  0  0  0
 16 21  1  0  0  0
 17 18  1  0  0  0
 17 19  1  0  0  0
 19 20  1  0  0  0
 21 22  2  0  0  0
 21 23  2  0  0  0
 21 24  1  0  0  0
 24 25  1  0  0  0
 24 26  1  0  0  0
 24 27  1  0  0  0
 28 29  2  0  0  0
 28 34  1  0  0  0
 29 30  1  0  0  0
 29 35  1  0  0  0
 30 31  1  0  0  0
 30 32  2  0  0  0
 32 33  1  0  0  0
 32 34  1  0  0  0
 35 36  1  0  0  0
 35 37  1  0  0  0
 35 38  1  0  0  0
M  END
>  <ACTIVITY>
5.96

>  <SET>
2

>  <Min_dist>
0.06

>  <Avg_dist>
0.48

$$$$
4-75
  Cerius2 12110214053D 1   1.00000                          
Structure written by Cerius2 SD Exporter
 37 39  0  0  0  0  0  0  0  0999 V2000
   26.3980   22.1520   16.4830 C   0  0  0  0  0  0
   25.4710   21.4530   17.2540 N   0  0  0  0  0  0
   26.2080   20.8470   18.2550 C   0  0  0  0  0  0
   25.7560   20.2120   19.0050 H   0  0  0  0  0  0
   27.5080   21.2990   18.1420 C   0  0  0  0  0  0
   27.6030   22.1270   17.0350 N   0  0  0  0  0  0
   28.6830   20.9950   19.0270 C   0  0  0  0  0  0
   28.3840   20.1010   20.0140 F   0  0  0  0  0  0
   29.1620   22.1100   19.6520 F   0  0  0  0  0  0
   29.7300   20.4610   18.3320 F   0  0  0  0  0  0
   24.0520   21.3710   17.1190 C   0  0  0  0  0  0
   23.3520   22.2600   16.2900 C   0  0  0  0  0  0
   23.8490   23.0620   15.7510 H   0  0  0  0  0  0
   21.9590   22.1760   16.1760 C   0  0  0  0  0  0
   21.4350   22.8770   15.5280 H   0  0  0  0  0  0
   21.2590   21.2140   16.9060 C   0  0  0  0  0  0
   21.9410   20.3290   17.7420 C   0  0  0  0  0  0
   21.4050   19.5710   18.3090 H   0  0  0  0  0  0
   23.3330   20.4140   17.8550 C   0  0  0  0  0  0
   23.8310   19.6950   18.5030 H   0  0  0  0  0  0
   19.4920   21.0980   16.7440 S   0  0  0  0  0  0
   18.9700   22.4440   16.5350 O   0  0  0  0  0  0
   18.9900   20.3260   17.8770 O   0  0  0  0  0  0
   19.2670   20.1560   15.2580 C   0  0  0  0  0  0
   18.1940   20.0440   15.0880 H   0  0  0  0  0  0
   19.7270   19.1750   15.3850 H   0  0  0  0  0  0
   19.7220   20.6940   14.4240 H   0  0  0  0  0  0
   26.1840   22.7720   15.1450 C   0  0  0  0  0  0
   26.4410   24.1180   14.9240 N   0  0  0  0  0  0
   26.2010   24.4160   13.6630 C   0  0  0  0  0  0
   25.6850   23.1030   12.6780 S   0  0  0  0  0  0
   25.7940   22.0570   14.0310 C   0  0  0  0  0  0
   25.5690   21.0030   13.9440 H   0  0  0  0  0  0
   26.3510   25.7730   13.0690 C   0  0  0  0  0  0
   27.0960   25.7670   12.2670 H   0  0  0  0  0  0
   26.6800   26.4880   13.8300 H   0  0  0  0  0  0
   25.3980   26.1280   12.6630 H   0  0  0  0  0  0
  1  2  1  0  0  0
  1  6  2  0  0  0
  1 28  1  0  0  0
  2  3  1  0  0  0
  2 11  1  0  0  0
  3  4  1  0  0  0
  3  5  2  0  0  0
  5  6  1  0  0  0
  5  7  1  0  0  0
  7  8  1  0  0  0
  7  9  1  0  0  0
  7 10  1  0  0  0
 11 12  1  0  0  0
 11 19  2  0  0  0
 12 13  1  0  0  0
 12 14  2  0  0  0
 14 15  1  0  0  0
 14 16  1  0  0  0
 16 17  2  0  0  0
 16 21  1  0  0  0
 17 18  1  0  0  0
 17 19  1  0  0  0
 19 20  1  0  0  0
 21 22  2  0  0  0
 21 23  2  0  0  0
 21 24  1  0  0  0
 24 25  1  0  0  0
 24 26  1  0  0  0
 24 27  1  0  0  0
 28 29  1  0  0  0
 28 32  2  0  0  0
 29 30  2  0  0  0
 30 31  1  0  0  0
 30 34  1  0  0  0
 31 32  1  0  0  0
 32 33  1  0  0  0
 34 35  1  0  0  0
 34 36  1  0  0  0
 34 37  1  0  0  0
M  END
>  <ACTIVITY>
6.03

>  <SET>
1

>  <Min_dist>
999.9

>  <Avg_dist>
999.9

$$$$
4-76
  Cerius2 12110214053D 1   1.00000                          
Structure written by Cerius2 SD Exporter
 36 38  0  0  0  0  0  0  0  0999 V2000
   26.3970   22.1520   16.4830 C   0  0  0  0  0  0
   25.4710   21.4530   17.2540 N   0  0  0  0  0  0
   26.2090   20.8460   18.2550 C   0  0  0  0  0  0
   25.7580   20.2100   19.0040 H   0  0  0  0  0  0
   27.5080   21.3000   18.1420 C   0  0  0  0  0  0
   27.6020   22.1280   17.0350 N   0  0  0  0  0  0
   28.6830   20.9970   19.0260 C   0  0  0  0  0  0
   28.3850   20.1050   20.0160 F   0  0  0  0  0  0
   29.1630   22.1130   19.6490 F   0  0  0  0  0  0
   29.7300   20.4630   18.3320 F   0  0  0  0  0  0
   24.0510   21.3690   17.1190 C   0  0  0  0  0  0
   23.3510   22.2590   16.2910 C   0  0  0  0  0  0
   23.8470   23.0620   15.7520 H   0  0  0  0  0  0
   21.9580   22.1750   16.1790 C   0  0  0  0  0  0
   21.4280   22.8750   15.5360 H   0  0  0  0  0  0
   21.2570   21.2120   16.9090 C   0  0  0  0  0  0
   21.9410   20.3280   17.7450 C   0  0  0  0  0  0
   21.4050   19.5710   18.3140 H   0  0  0  0  0  0
   23.3330   20.4120   17.8560 C   0  0  0  0  0  0
   23.8320   19.6930   18.5030 H   0  0  0  0  0  0
   19.4970   21.1010   16.7390 S   0  0  0  0  0  0
   18.9530   22.4190   16.4650 O   0  0  0  0  0  0
   18.9680   20.2970   17.8260 O   0  0  0  0  0  0
   19.3360   20.2070   15.3320 N   0  0  0  0  0  0
   18.8590   20.7460   14.6060 H   0  0  0  0  0  0
   18.8600   19.3190   15.5120 H   0  0  0  0  0  0
   26.1830   22.7720   15.1450 C   0  0  0  0  0  0
   26.4390   24.1190   14.9240 N   0  0  0  0  0  0
   26.2010   24.4160   13.6620 C   0  0  0  0  0  0
   25.6870   23.1030   12.6770 S   0  0  0  0  0  0
   25.7940   22.0570   14.0300 C   0  0  0  0  0  0
   25.5700   21.0030   13.9430 H   0  0  0  0  0  0
   26.3510   25.7730   13.0680 C   0  0  0  0  0  0
   27.0930   25.7650   12.2630 H   0  0  0  0  0  0
   26.6850   26.4870   13.8280 H   0  0  0  0  0  0
   25.3980   26.1290   12.6660 H   0  0  0  0  0  0
  1  2  1  0  0  0
  1  6  2  0  0  0
  1 27  1  0  0  0
  2  3  1  0  0  0
  2 11  1  0  0  0
  3  4  1  0  0  0
  3  5  2  0  0  0
  5  6  1  0  0  0
  5  7  1  0  0  0
  7  8  1  0  0  0
  7  9  1  0  0  0
  7 10  1  0  0  0
 11 12  1  0  0  0
 11 19  2  0  0  0
 12 13  1  0  0  0
 12 14  2  0  0  0
 14 15  1  0  0  0
 14 16  1  0  0  0
 16 17  2  0  0  0
 16 21  1  0  0  0
 17 18  1  0  0  0
 17 19  1  0  0  0
 19 20  1  0  0  0
 21 22  2  0  0  0
 21 23  2  0  0  0
 21 24  1  0  0  0
 24 25  1  0  0  0
 24 26  1  0  0  0
 27 28  1  0  0  0
 27 31  2  0  0  0
 28 29  2  0  0  0
 29 30  1  0  0  0
 29 33  1  0  0  0
 30 31  1  0  0  0
 31 32  1  0  0  0
 33 34  1  0  0  0
 33 35  1  0  0  0
 33 36  1  0  0  0
M  END
>  <ACTIVITY>
6.28

>  <SET>
1

>  <Min_dist>
999.9

>  <Avg_dist>
999.9

$$$$
4-77
  Cerius2 12110214053D 1   1.00000                          
Structure written by Cerius2 SD Exporter
 36 38  0  0  0  0  0  0  0  0999 V2000
   26.4300   22.1400   16.5380 C   0  0  0  0  0  0
   25.4860   21.4130   17.2650 N   0  0  0  0  0  0
   26.2080   20.7550   18.2440 C   0  0  0  0  0  0
   25.7440   20.0870   18.9560 H   0  0  0  0  0  0
   27.5120   21.2050   18.1700 C   0  0  0  0  0  0
   27.6240   22.0860   17.1070 N   0  0  0  0  0  0
   28.6730   20.8520   19.0540 C   0  0  0  0  0  0
   28.3550   19.9200   20.0000 F   0  0  0  0  0  0
   29.1560   21.9350   19.7300 F   0  0  0  0  0  0
   29.7230   20.3380   18.3480 F   0  0  0  0  0  0
   24.0670   21.3500   17.1170 C   0  0  0  0  0  0
   23.3850   22.2520   16.2860 C   0  0  0  0  0  0
   23.8970   23.0480   15.7520 H   0  0  0  0  0  0
   21.9920   22.1880   16.1630 C   0  0  0  0  0  0
   21.4770   22.8970   15.5180 H   0  0  0  0  0  0
   21.2730   21.2320   16.8840 C   0  0  0  0  0  0
   21.9360   20.3360   17.7220 C   0  0  0  0  0  0
   21.3860   19.5840   18.2840 H   0  0  0  0  0  0
   23.3290   20.4010   17.8450 C   0  0  0  0  0  0
   23.8120   19.6730   18.4940 H   0  0  0  0  0  0
   19.5130   21.1500   16.6990 S   0  0  0  0  0  0
   18.9910   22.4770   16.4240 O   0  0  0  0  0  0
   18.9630   20.3510   17.7800 O   0  0  0  0  0  0
   19.3480   20.2640   15.2870 N   0  0  0  0  0  0
   18.8860   20.8140   14.5590 H   0  0  0  0  0  0
   18.8560   19.3830   15.4590 H   0  0  0  0  0  0
   26.2480   22.8000   15.2790 C   0  0  0  0  0  0
   25.7930   22.2460   14.0990 C   0  0  0  0  0  0
   25.5390   21.1990   13.9660 H   0  0  0  0  0  0
   25.6730   23.1170   13.0270 N   0  0  0  0  0  0
   26.0060   24.3330   13.4130 C   0  0  0  0  0  0
   26.4610   24.4890   15.0630 S   0  0  0  0  0  0
   25.9970   25.5330   12.5310 C   0  0  0  0  0  0
   25.2900   26.2820   12.9010 H   0  0  0  0  0  0
   25.6960   25.2580   11.5150 H   0  0  0  0  0  0
   26.9930   25.9840   12.4770 H   0  0  0  0  0  0
  1  2  1  0  0  0
  1  6  2  0  0  0
  1 27  1  0  0  0
  2  3  1  0  0  0
  2 11  1  0  0  0
  3  4  1  0  0  0
  3  5  2  0  0  0
  5  6  1  0  0  0
  5  7  1  0  0  0
  7  8  1  0  0  0
  7  9  1  0  0  0
  7 10  1  0  0  0
 11 12  1  0  0  0
 11 19  2  0  0  0
 12 13  1  0  0  0
 12 14  2  0  0  0
 14 15  1  0  0  0
 14 16  1  0  0  0
 16 17  2  0  0  0
 16 21  1  0  0  0
 17 18  1  0  0  0
 17 19  1  0  0  0
 19 20  1  0  0  0
 21 22  2  0  0  0
 21 23  2  0  0  0
 21 24  1  0  0  0
 24 25  1  0  0  0
 24 26  1  0  0  0
 27 28  2  0  0  0
 27 32  1  0  0  0
 28 29  1  0  0  0
 28 30  1  0  0  0
 30 31  2  0  0  0
 31 32  1  0  0  0
 31 33  1  0  0  0
 33 34  1  0  0  0
 33 35  1  0  0  0
 33 36  1  0  0  0
M  END
>  <ACTIVITY>
6.37

>  <SET>
2

>  <Min_dist>
0.12

>  <Avg_dist>
0.51

$$$$
4-78
  Cerius2 12110214053D 1   1.00000                          
Structure written by Cerius2 SD Exporter
 36 38  0  0  0  0  0  0  0  0999 V2000
   26.4240   22.1550   16.5230 C   0  0  0  0  0  0
   25.4810   21.4180   17.2420 N   0  0  0  0  0  0
   26.2030   20.7560   18.2210 C   0  0  0  0  0  0
   25.7380   20.0860   18.9310 H   0  0  0  0  0  0
   27.5070   21.2030   18.1510 C   0  0  0  0  0  0
   27.6210   22.0880   17.0930 N   0  0  0  0  0  0
   28.6680   20.8420   19.0320 C   0  0  0  0  0  0
   28.3480   19.9090   19.9750 F   0  0  0  0  0  0
   29.1550   21.9220   19.7110 F   0  0  0  0  0  0
   29.7150   20.3280   18.3240 F   0  0  0  0  0  0
   24.0590   21.3500   17.1010 C   0  0  0  0  0  0
   23.3660   22.2490   16.2770 C   0  0  0  0  0  0
   23.8710   23.0430   15.7320 H   0  0  0  0  0  0
   21.9720   22.1840   16.1680 C   0  0  0  0  0  0
   21.4510   22.8910   15.5260 H   0  0  0  0  0  0
   21.2610   21.2280   16.8960 C   0  0  0  0  0  0
   21.9350   20.3320   17.7270 C   0  0  0  0  0  0
   21.3910   19.5800   18.2940 H   0  0  0  0  0  0
   23.3290   20.4000   17.8350 C   0  0  0  0  0  0
   23.8180   19.6710   18.4790 H   0  0  0  0  0  0
   19.5000   21.1380   16.7280 S   0  0  0  0  0  0
   18.9710   22.4630   16.4560 O   0  0  0  0  0  0
   18.9620   20.3390   17.8150 O   0  0  0  0  0  0
   19.3250   20.2480   15.3200 N   0  0  0  0  0  0
   18.8550   20.7950   14.5940 H   0  0  0  0  0  0
   18.8370   19.3670   15.4990 H   0  0  0  0  0  0
   26.2130   22.8140   15.2600 C   0  0  0  0  0  0
   26.5090   24.4970   15.0670 S   0  0  0  0  0  0
   26.0620   24.3790   13.4180 C   0  0  0  0  0  0
   26.0640   25.2450   12.7700 H   0  0  0  0  0  0
   25.7330   23.0740   13.1060 C   0  0  0  0  0  0
   25.8340   22.1830   14.1650 N   0  0  0  0  0  0
   25.2950   22.5620   11.7810 C   0  0  0  0  0  0
   25.9110   21.7080   11.4830 H   0  0  0  0  0  0
   25.3800   23.3310   11.0070 H   0  0  0  0  0  0
   24.2510   22.2370   11.8300 H   0  0  0  0  0  0
  1  2  1  0  0  0
  1  6  2  0  0  0
  1 27  1  0  0  0
  2  3  1  0  0  0
  2 11  1  0  0  0
  3  4  1  0  0  0
  3  5  2  0  0  0
  5  6  1  0  0  0
  5  7  1  0  0  0
  7  8  1  0  0  0
  7  9  1  0  0  0
  7 10  1  0  0  0
 11 12  1  0  0  0
 11 19  2  0  0  0
 12 13  1  0  0  0
 12 14  2  0  0  0
 14 15  1  0  0  0
 14 16  1  0  0  0
 16 17  2  0  0  0
 16 21  1  0  0  0
 17 18  1  0  0  0
 17 19  1  0  0  0
 19 20  1  0  0  0
 21 22  2  0  0  0
 21 23  2  0  0  0
 21 24  1  0  0  0
 24 25  1  0  0  0
 24 26  1  0  0  0
 27 28  1  0  0  0
 27 32  2  0  0  0
 28 29  1  0  0  0
 29 30  1  0  0  0
 29 31  2  0  0  0
 31 32  1  0  0  0
 31 33  1  0  0  0
 33 34  1  0  0  0
 33 35  1  0  0  0
 33 36  1  0  0  0
M  END
>  <ACTIVITY>
6.96

>  <SET>
1

>  <Min_dist>
999.9

>  <Avg_dist>
999.9

$$$$
4-79
  Cerius2 12110214053D 1   1.00000                          
Structure written by Cerius2 SD Exporter
 37 39  0  0  0  0  0  0  0  0999 V2000
   26.4200   22.1540   16.5100 C   0  0  0  0  0  0
   25.4860   21.4360   17.2550 N   0  0  0  0  0  0
   26.2130   20.7990   18.2440 C   0  0  0  0  0  0
   25.7540   20.1410   18.9690 H   0  0  0  0  0  0
   27.5120   21.2610   18.1620 C   0  0  0  0  0  0
   27.6160   22.1210   17.0810 N   0  0  0  0  0  0
   28.6760   20.9380   19.0540 C   0  0  0  0  0  0
   28.3650   20.0270   20.0220 F   0  0  0  0  0  0
   29.1510   22.0400   19.7030 F   0  0  0  0  0  0
   29.7290   20.4150   18.3610 F   0  0  0  0  0  0
   24.0680   21.3630   17.1100 C   0  0  0  0  0  0
   23.3810   22.2610   16.2800 C   0  0  0  0  0  0
   23.8890   23.0620   15.7480 H   0  0  0  0  0  0
   21.9880   22.1910   16.1600 C   0  0  0  0  0  0
   21.4730   22.8980   15.5130 H   0  0  0  0  0  0
   21.2760   21.2330   16.8840 C   0  0  0  0  0  0
   21.9450   20.3390   17.7200 C   0  0  0  0  0  0
   21.4000   19.5840   18.2840 H   0  0  0  0  0  0
   23.3380   20.4120   17.8410 C   0  0  0  0  0  0
   23.8270   19.6880   18.4900 H   0  0  0  0  0  0
   19.5090   21.1310   16.7130 S   0  0  0  0  0  0
   18.9990   22.4840   16.5080 O   0  0  0  0  0  0
   18.9940   20.3590   17.8390 O   0  0  0  0  0  0
   19.2820   20.1990   15.2220 C   0  0  0  0  0  0
   18.2090   20.0930   15.0480 H   0  0  0  0  0  0
   19.7380   19.2150   15.3440 H   0  0  0  0  0  0
   19.7410   20.7390   14.3910 H   0  0  0  0  0  0
   26.2280   22.7980   15.1890 C   0  0  0  0  0  0
   25.7580   22.1400   14.0720 N   0  0  0  0  0  0
   25.6960   23.0850   13.1530 C   0  0  0  0  0  0
   26.0720   24.3260   13.5930 O   0  0  0  0  0  0
   26.3980   24.1310   14.9030 C   0  0  0  0  0  0
   26.7090   25.0040   15.4600 H   0  0  0  0  0  0
   25.2770   22.9880   11.7400 C   0  0  0  0  0  0
   24.4140   23.6320   11.5520 H   0  0  0  0  0  0
   24.9990   21.9590   11.4900 H   0  0  0  0  0  0
   26.0920   23.2930   11.0780 H   0  0  0  0  0  0
  1  2  1  0  0  0
  1  6  2  0  0  0
  1 28  1  0  0  0
  2  3  1  0  0  0
  2 11  1  0  0  0
  3  4  1  0  0  0
  3  5  2  0  0  0
  5  6  1  0  0  0
  5  7  1  0  0  0
  7  8  1  0  0  0
  7  9  1  0  0  0
  7 10  1  0  0  0
 11 12  1  0  0  0
 11 19  2  0  0  0
 12 13  1  0  0  0
 12 14  2  0  0  0
 14 15  1  0  0  0
 14 16  1  0  0  0
 16 17  2  0  0  0
 16 21  1  0  0  0
 17 18  1  0  0  0
 17 19  1  0  0  0
 19 20  1  0  0  0
 21 22  2  0  0  0
 21 23  2  0  0  0
 21 24  1  0  0  0
 24 25  1  0  0  0
 24 26  1  0  0  0
 24 27  1  0  0  0
 28 29  1  0  0  0
 28 32  2  0  0  0
 29 30  2  0  0  0
 30 31  1  0  0  0
 30 34  1  0  0  0
 31 32  1  0  0  0
 32 33  1  0  0  0
 34 35  1  0  0  0
 34 36  1  0  0  0
 34 37  1  0  0  0
M  END
>  <ACTIVITY>
5.38

>  <SET>
2

>  <Min_dist>
0.1

>  <Avg_dist>
0.5

$$$$
4-80
  Cerius2 12110214053D 1   1.00000                          
Structure written by Cerius2 SD Exporter
 36 38  0  0  0  0  0  0  0  0999 V2000
   26.3960   22.1650   16.5000 C   0  0  0  0  0  0
   25.4680   21.4310   17.2370 N   0  0  0  0  0  0
   26.2030   20.7920   18.2210 C   0  0  0  0  0  0
   25.7510   20.1220   18.9390 H   0  0  0  0  0  0
   27.4970   21.2650   18.1430 C   0  0  0  0  0  0
   27.5930   22.1390   17.0730 N   0  0  0  0  0  0
   28.6660   20.9400   19.0280 C   0  0  0  0  0  0
   28.3600   20.0250   19.9940 F   0  0  0  0  0  0
   29.1420   22.0400   19.6800 F   0  0  0  0  0  0
   29.7160   20.4210   18.3290 F   0  0  0  0  0  0
   24.0480   21.3510   17.1050 C   0  0  0  0  0  0
   23.3470   22.2460   16.2840 C   0  0  0  0  0  0
   23.8460   23.0420   15.7380 H   0  0  0  0  0  0
   21.9530   22.1740   16.1850 C   0  0  0  0  0  0
   21.4240   22.8780   15.5450 H   0  0  0  0  0  0
   21.2510   21.2150   16.9190 C   0  0  0  0  0  0
   21.9340   20.3240   17.7470 C   0  0  0  0  0  0
   21.3980   19.5700   18.3190 H   0  0  0  0  0  0
   23.3280   20.3990   17.8470 C   0  0  0  0  0  0
   23.8270   19.6760   18.4890 H   0  0  0  0  0  0
   19.4890   21.1140   16.7620 S   0  0  0  0  0  0
   18.9470   22.4410   16.5240 O   0  0  0  0  0  0
   18.9650   20.2850   17.8330 O   0  0  0  0  0  0
   19.3130   20.2540   15.3350 N   0  0  0  0  0  0
   18.8310   20.8120   14.6260 H   0  0  0  0  0  0
   18.8340   19.3640   15.4980 H   0  0  0  0  0  0
   26.2000   22.8220   15.1800 C   0  0  0  0  0  0
   26.4400   24.1880   14.9100 C   0  0  0  0  0  0
   26.7610   24.9580   15.5970 H   0  0  0  0  0  0
   26.1730   24.3240   13.5710 C   0  0  0  0  0  0
   25.8130   23.1150   13.0620 O   0  0  0  0  0  0
   25.8470   22.1620   14.0670 N   0  0  0  0  0  0
   26.2030   25.4550   12.6260 C   0  0  0  0  0  0
   25.2160   25.6080   12.1800 H   0  0  0  0  0  0
   26.9200   25.2630   11.8220 H   0  0  0  0  0  0
   26.4960   26.3810   13.1310 H   0  0  0  0  0  0
  1  2  1  0  0  0
  1  6  2  0  0  0
  1 27  1  0  0  0
  2  3  1  0  0  0
  2 11  1  0  0  0
  3  4  1  0  0  0
  3  5  2  0  0  0
  5  6  1  0  0  0
  5  7  1  0  0  0
  7  8  1  0  0  0
  7  9  1  0  0  0
  7 10  1  0  0  0
 11 12  1  0  0  0
 11 19  2  0  0  0
 12 13  1  0  0  0
 12 14  2  0  0  0
 14 15  1  0  0  0
 14 16  1  0  0  0
 16 17  2  0  0  0
 16 21  1  0  0  0
 17 18  1  0  0  0
 17 19  1  0  0  0
 19 20  1  0  0  0
 21 22  2  0  0  0
 21 23  2  0  0  0
 21 24  1  0  0  0
 24 25  1  0  0  0
 24 26  1  0  0  0
 27 28  1  0  0  0
 27 32  2  0  0  0
 28 29  1  0  0  0
 28 30  2  0  0  0
 30 31  1  0  0  0
 30 33  1  0  0  0
 31 32  1  0  0  0
 33 34  1  0  0  0
 33 35  1  0  0  0
 33 36  1  0  0  0
M  END
>  <ACTIVITY>
6.39

>  <SET>
2

>  <Min_dist>
0.17

>  <Avg_dist>
0.52

$$$$
5-1a
  Cerius2 12110214053D 1   1.00000                          
Structure written by Cerius2 SD Exporter
 39 41  0  0  0  0  0  0  0  0999 V2000
   26.3820   22.0700   16.4150 C   0  0  0  0  0  0
   25.4950   21.4960   17.2530 C   0  0  0  0  0  0
   26.1780   20.9470   18.4750 C   0  0  0  0  0  0
   25.8680   19.9300   18.7340 H   0  0  0  0  0  0
   25.9950   21.6010   19.3350 H   0  0  0  0  0  0
   27.6510   20.9630   18.0770 C   0  0  0  0  0  0
   27.9340   19.9850   17.6660 H   0  0  0  0  0  0
   28.3080   21.1610   18.9290 H   0  0  0  0  0  0
   27.7700   22.0310   16.9960 C   0  0  0  0  0  0
   28.0350   23.0000   17.4310 H   0  0  0  0  0  0
   28.5290   21.7500   16.2590 H   0  0  0  0  0  0
   24.0380   21.3840   17.1150 C   0  0  0  0  0  0
   23.3300   22.2610   16.2790 C   0  0  0  0  0  0
   23.8550   23.0310   15.7160 H   0  0  0  0  0  0
   21.9400   22.1690   16.1570 C   0  0  0  0  0  0
   21.4150   22.8580   15.4990 H   0  0  0  0  0  0
   21.2470   21.2020   16.8870 C   0  0  0  0  0  0
   21.9340   20.3200   17.7230 C   0  0  0  0  0  0
   21.4040   19.5560   18.2880 H   0  0  0  0  0  0
   23.3240   20.4180   17.8390 C   0  0  0  0  0  0
   23.8440   19.7180   18.4910 H   0  0  0  0  0  0
   19.4820   21.0700   16.7190 S   0  0  0  0  0  0
   18.9450   22.4150   16.5350 O   0  0  0  0  0  0
   18.9840   20.2710   17.8350 O   0  0  0  0  0  0
   19.2690   20.1560   15.2150 C   0  0  0  0  0  0
   18.1980   20.0350   15.0410 H   0  0  0  0  0  0
   19.7400   19.1770   15.3240 H   0  0  0  0  0  0
   19.7190   20.7140   14.3930 H   0  0  0  0  0  0
   26.1550   22.6990   15.1080 C   0  0  0  0  0  0
   26.4190   24.0650   14.9210 C   0  0  0  0  0  0
   26.7700   24.6810   15.7470 H   0  0  0  0  0  0
   26.2220   24.6660   13.6750 C   0  0  0  0  0  0
   26.4210   25.7250   13.5370 H   0  0  0  0  0  0
   25.7680   23.9010   12.6090 C   0  0  0  0  0  0
   25.5110   22.5450   12.7640 C   0  0  0  0  0  0
   25.1630   21.9580   11.9190 H   0  0  0  0  0  0
   25.7080   21.9450   14.0110 C   0  0  0  0  0  0
   25.5170   20.8780   14.1130 H   0  0  0  0  0  0
   25.5800   24.4770   11.4140 F   0  0  0  0  0  0
  1  2  2  0  0  0
  1  9  1  0  0  0
  1 29  1  0  0  0
  2  3  1  0  0  0
  2 12  1  0  0  0
  3  4  1  0  0  0
  3  5  1  0  0  0
  3  6  1  0  0  0
  6  7  1  0  0  0
  6  8  1  0  0  0
  6  9  1  0  0  0
  9 10  1  0  0  0
  9 11  1  0  0  0
 12 13  1  0  0  0
 12 20  2  0  0  0
 13 14  1  0  0  0
 13 15  2  0  0  0
 15 16  1  0  0  0
 15 17  1  0  0  0
 17 18  2  0  0  0
 17 22  1  0  0  0
 18 19  1  0  0  0
 18 20  1  0  0  0
 20 21  1  0  0  0
 22 23  2  0  0  0
 22 24  2  0  0  0
 22 25  1  0  0  0
 25 26  1  0  0  0
 25 27  1  0  0  0
 25 28  1  0  0  0
 29 30  1  0  0  0
 29 37  2  0  0  0
 30 31  1  0  0  0
 30 32  2  0  0  0
 32 33  1  0  0  0
 32 34  1  0  0  0
 34 35  2  0  0  0
 34 39  1  0  0  0
 35 36  1  0  0  0
 35 37  1  0  0  0
 37 38  1  0  0  0
M  END
>  <ACTIVITY>
7.59

>  <SET>
1

>  <Min_dist>
999.9

>  <Avg_dist>
999.9

$$$$
5-1b
  Cerius2 12110214053D 1   1.00000                          
Structure written by Cerius2 SD Exporter
 43 45  0  0  0  0  0  0  0  0999 V2000
   26.3810   22.0710   16.4160 C   0  0  0  0  0  0
   25.4940   21.4970   17.2540 C   0  0  0  0  0  0
   26.1790   20.9440   18.4750 C   0  0  0  0  0  0
   25.8660   19.9280   18.7320 H   0  0  0  0  0  0
   25.9990   21.5970   19.3360 H   0  0  0  0  0  0
   27.6500   20.9570   18.0740 C   0  0  0  0  0  0
   27.9300   19.9800   17.6600 H   0  0  0  0  0  0
   28.3100   21.1520   18.9250 H   0  0  0  0  0  0
   27.7700   22.0260   16.9940 C   0  0  0  0  0  0
   28.0390   22.9950   17.4300 H   0  0  0  0  0  0
   28.5270   21.7440   16.2550 H   0  0  0  0  0  0
   24.0380   21.3860   17.1190 C   0  0  0  0  0  0
   23.3300   22.2630   16.2820 C   0  0  0  0  0  0
   23.8560   23.0320   15.7180 H   0  0  0  0  0  0
   21.9400   22.1690   16.1590 C   0  0  0  0  0  0
   21.4150   22.8570   15.5000 H   0  0  0  0  0  0
   21.2480   21.2010   16.8880 C   0  0  0  0  0  0
   21.9340   20.3200   17.7260 C   0  0  0  0  0  0
   21.4050   19.5570   18.2920 H   0  0  0  0  0  0
   23.3250   20.4200   17.8430 C   0  0  0  0  0  0
   23.8450   19.7200   18.4950 H   0  0  0  0  0  0
   19.4830   21.0690   16.7130 S   0  0  0  0  0  0
   18.9470   22.4110   16.5090 O   0  0  0  0  0  0
   18.9820   20.2850   17.8380 O   0  0  0  0  0  0
   19.2770   20.1370   15.2200 C   0  0  0  0  0  0
   18.2060   20.0200   15.0390 H   0  0  0  0  0  0
   19.7430   19.1570   15.3440 H   0  0  0  0  0  0
   19.7360   20.6840   14.3930 H   0  0  0  0  0  0
   26.1530   22.7010   15.1090 C   0  0  0  0  0  0
   26.4160   24.0630   14.9200 C   0  0  0  0  0  0
   26.7650   24.6820   15.7440 H   0  0  0  0  0  0
   26.2200   24.6610   13.6710 C   0  0  0  0  0  0
   26.4250   25.7230   13.5510 H   0  0  0  0  0  0
   25.7650   23.9100   12.5840 C   0  0  0  0  0  0
   25.5140   22.5510   12.7590 C   0  0  0  0  0  0
   25.1670   21.9190   11.9450 H   0  0  0  0  0  0
   25.7100   21.9530   14.0110 C   0  0  0  0  0  0
   25.5210   20.8850   14.1110 H   0  0  0  0  0  0
   25.6160   24.6140   11.4220 O   0  0  0  0  0  0
   25.9320   26.0050   11.4690 C   0  0  0  0  0  0
   25.7710   26.4160   10.4670 H   0  0  0  0  0  0
   26.9840   26.1600   11.7290 H   0  0  0  0  0  0
   25.2680   26.5350   12.1590 H   0  0  0  0  0  0
  1  2  2  0  0  0
  1  9  1  0  0  0
  1 29  1  0  0  0
  2  3  1  0  0  0
  2 12  1  0  0  0
  3  4  1  0  0  0
  3  5  1  0  0  0
  3  6  1  0  0  0
  6  7  1  0  0  0
  6  8  1  0  0  0
  6  9  1  0  0  0
  9 10  1  0  0  0
  9 11  1  0  0  0
 12 13  1  0  0  0
 12 20  2  0  0  0
 13 14  1  0  0  0
 13 15  2  0  0  0
 15 16  1  0  0  0
 15 17  1  0  0  0
 17 18  2  0  0  0
 17 22  1  0  0  0
 18 19  1  0  0  0
 18 20  1  0  0  0
 20 21  1  0  0  0
 22 23  2  0  0  0
 22 24  2  0  0  0
 22 25  1  0  0  0
 25 26  1  0  0  0
 25 27  1  0  0  0
 25 28  1  0  0  0
 29 30  1  0  0  0
 29 37  2  0  0  0
 30 31  1  0  0  0
 30 32  2  0  0  0
 32 33  1  0  0  0
 32 34  1  0  0  0
 34 35  2  0  0  0
 34 39  1  0  0  0
 35 36  1  0  0  0
 35 37  1  0  0  0
 37 38  1  0  0  0
 39 40  1  0  0  0
 40 41  1  0  0  0
 40 42  1  0  0  0
 40 43  1  0  0  0
M  END
>  <ACTIVITY>
8.3

>  <SET>
1

>  <Min_dist>
999.9

>  <Avg_dist>
999.9

$$$$
5-1d
  Cerius2 12110214053D 1   1.00000                          
Structure written by Cerius2 SD Exporter
 42 44  0  0  0  0  0  0  0  0999 V2000
   26.3810   22.0710   16.4150 C   0  0  0  0  0  0
   25.4920   21.4970   17.2520 C   0  0  0  0  0  0
   26.1760   20.9460   18.4740 C   0  0  0  0  0  0
   25.8650   19.9300   18.7320 H   0  0  0  0  0  0
   25.9930   21.6000   19.3350 H   0  0  0  0  0  0
   27.6480   20.9620   18.0760 C   0  0  0  0  0  0
   27.9310   19.9840   17.6640 H   0  0  0  0  0  0
   28.3060   21.1580   18.9290 H   0  0  0  0  0  0
   27.7680   22.0300   16.9960 C   0  0  0  0  0  0
   28.0340   22.9990   17.4320 H   0  0  0  0  0  0
   28.5270   21.7490   16.2590 H   0  0  0  0  0  0
   24.0350   21.3840   17.1150 C   0  0  0  0  0  0
   23.3260   22.2600   16.2800 C   0  0  0  0  0  0
   23.8500   23.0300   15.7150 H   0  0  0  0  0  0
   21.9350   22.1680   16.1600 C   0  0  0  0  0  0
   21.4090   22.8550   15.5020 H   0  0  0  0  0  0
   21.2440   21.2000   16.8910 C   0  0  0  0  0  0
   21.9330   20.3180   17.7260 C   0  0  0  0  0  0
   21.4040   19.5550   18.2930 H   0  0  0  0  0  0
   23.3230   20.4180   17.8400 C   0  0  0  0  0  0
   23.8440   19.7180   18.4910 H   0  0  0  0  0  0
   19.4790   21.0670   16.7250 S   0  0  0  0  0  0
   18.9390   22.4120   16.5500 O   0  0  0  0  0  0
   18.9840   20.2600   17.8370 O   0  0  0  0  0  0
   19.2650   20.1620   15.2150 C   0  0  0  0  0  0
   18.1940   20.0410   15.0410 H   0  0  0  0  0  0
   19.7370   19.1830   15.3170 H   0  0  0  0  0  0
   19.7130   20.7270   14.3960 H   0  0  0  0  0  0
   26.1570   22.7000   15.1060 C   0  0  0  0  0  0
   26.4190   24.0640   14.9190 C   0  0  0  0  0  0
   26.7590   24.6820   15.7480 H   0  0  0  0  0  0
   26.2300   24.6660   13.6710 C   0  0  0  0  0  0
   26.4280   25.7320   13.5610 H   0  0  0  0  0  0
   25.7940   23.9120   12.5780 C   0  0  0  0  0  0
   25.5290   22.5510   12.7580 C   0  0  0  0  0  0
   25.1770   21.9430   11.9260 H   0  0  0  0  0  0
   25.7180   21.9510   14.0070 C   0  0  0  0  0  0
   25.5220   20.8840   14.1080 H   0  0  0  0  0  0
   25.5580   24.5640   11.2470 C   0  0  0  0  0  0
   25.7270   23.8560   10.4290 H   0  0  0  0  0  0
   26.2460   25.4040   11.0970 H   0  0  0  0  0  0
   24.5300   24.9340   11.1890 H   0  0  0  0  0  0
  1  2  2  0  0  0
  1  9  1  0  0  0
  1 29  1  0  0  0
  2  3  1  0  0  0
  2 12  1  0  0  0
  3  4  1  0  0  0
  3  5  1  0  0  0
  3  6  1  0  0  0
  6  7  1  0  0  0
  6  8  1  0  0  0
  6  9  1  0  0  0
  9 10  1  0  0  0
  9 11  1  0  0  0
 12 13  1  0  0  0
 12 20  2  0  0  0
 13 14  1  0  0  0
 13 15  2  0  0  0
 15 16  1  0  0  0
 15 17  1  0  0  0
 17 18  2  0  0  0
 17 22  1  0  0  0
 18 19  1  0  0  0
 18 20  1  0  0  0
 20 21  1  0  0  0
 22 23  2  0  0  0
 22 24  2  0  0  0
 22 25  1  0  0  0
 25 26  1  0  0  0
 25 27  1  0  0  0
 25 28  1  0  0  0
 29 30  1  0  0  0
 29 37  2  0  0  0
 30 31  1  0  0  0
 30 32  2  0  0  0
 32 33  1  0  0  0
 32 34  1  0  0  0
 34 35  2  0  0  0
 34 39  1  0  0  0
 35 36  1  0  0  0
 35 37  1  0  0  0
 37 38  1  0  0  0
 39 40  1  0  0  0
 39 41  1  0  0  0
 39 42  1  0  0  0
M  END
>  <ACTIVITY>
8.52

>  <SET>
1

>  <Min_dist>
999.9

>  <Avg_dist>
999.9

$$$$
5-1f
  Cerius2 12110214053D 1   1.00000                          
Structure written by Cerius2 SD Exporter
 42 44  0  0  0  0  0  0  0  0999 V2000
   26.3810   22.0710   16.4160 C   0  0  0  0  0  0
   25.4930   21.4960   17.2510 C   0  0  0  0  0  0
   26.1770   20.9460   18.4740 C   0  0  0  0  0  0
   25.8670   19.9290   18.7310 H   0  0  0  0  0  0
   25.9930   21.5990   19.3350 H   0  0  0  0  0  0
   27.6490   20.9630   18.0770 C   0  0  0  0  0  0
   27.9330   19.9860   17.6640 H   0  0  0  0  0  0
   28.3070   21.1600   18.9300 H   0  0  0  0  0  0
   27.7690   22.0320   16.9970 C   0  0  0  0  0  0
   28.0330   23.0020   17.4340 H   0  0  0  0  0  0
   28.5290   21.7530   16.2610 H   0  0  0  0  0  0
   24.0360   21.3830   17.1130 C   0  0  0  0  0  0
   23.3270   22.2590   16.2780 C   0  0  0  0  0  0
   23.8520   23.0300   15.7150 H   0  0  0  0  0  0
   21.9370   22.1680   16.1580 C   0  0  0  0  0  0
   21.4110   22.8560   15.5000 H   0  0  0  0  0  0
   21.2450   21.2000   16.8890 C   0  0  0  0  0  0
   21.9330   20.3180   17.7230 C   0  0  0  0  0  0
   21.4040   19.5540   18.2890 H   0  0  0  0  0  0
   23.3230   20.4160   17.8370 C   0  0  0  0  0  0
   23.8440   19.7150   18.4880 H   0  0  0  0  0  0
   19.4790   21.0700   16.7260 S   0  0  0  0  0  0
   18.9420   22.4160   16.5470 O   0  0  0  0  0  0
   18.9840   20.2680   17.8400 O   0  0  0  0  0  0
   19.2620   20.1610   15.2190 C   0  0  0  0  0  0
   18.1900   20.0400   15.0480 H   0  0  0  0  0  0
   19.7340   19.1820   15.3230 H   0  0  0  0  0  0
   19.7080   20.7230   14.3970 H   0  0  0  0  0  0
   26.1570   22.7000   15.1070 C   0  0  0  0  0  0
   26.4190   24.0630   14.9200 C   0  0  0  0  0  0
   26.7630   24.6810   15.7480 H   0  0  0  0  0  0
   26.2270   24.6650   13.6710 C   0  0  0  0  0  0
   26.4280   25.7310   13.5610 H   0  0  0  0  0  0
   25.7820   23.9130   12.5750 C   0  0  0  0  0  0
   25.5220   22.5490   12.7600 C   0  0  0  0  0  0
   25.1710   21.9390   11.9290 H   0  0  0  0  0  0
   25.7150   21.9490   14.0100 C   0  0  0  0  0  0
   25.5210   20.8820   14.1120 H   0  0  0  0  0  0
   25.5530   24.5670   11.2360 C   0  0  0  0  0  0
   25.7210   23.7200   10.1760 F   0  0  0  0  0  0
   26.3930   25.6190   10.9900 F   0  0  0  0  0  0
   24.2890   25.0720   11.1040 F   0  0  0  0  0  0
  1  2  2  0  0  0
  1  9  1  0  0  0
  1 29  1  0  0  0
  2  3  1  0  0  0
  2 12  1  0  0  0
  3  4  1  0  0  0
  3  5  1  0  0  0
  3  6  1  0  0  0
  6  7  1  0  0  0
  6  8  1  0  0  0
  6  9  1  0  0  0
  9 10  1  0  0  0
  9 11  1  0  0  0
 12 13  1  0  0  0
 12 20  2  0  0  0
 13 14  1  0  0  0
 13 15  2  0  0  0
 15 16  1  0  0  0
 15 17  1  0  0  0
 17 18  2  0  0  0
 17 22  1  0  0  0
 18 19  1  0  0  0
 18 20  1  0  0  0
 20 21  1  0  0  0
 22 23  2  0  0  0
 22 24  2  0  0  0
 22 25  1  0  0  0
 25 26  1  0  0  0
 25 27  1  0  0  0
 25 28  1  0  0  0
 29 30  1  0  0  0
 29 37  2  0  0  0
 30 31  1  0  0  0
 30 32  2  0  0  0
 32 33  1  0  0  0
 32 34  1  0  0  0
 34 35  2  0  0  0
 34 39  1  0  0  0
 35 36  1  0  0  0
 35 37  1  0  0  0
 37 38  1  0  0  0
 39 40  1  0  0  0
 39 41  1  0  0  0
 39 42  1  0  0  0
M  END
>  <ACTIVITY>
6.06

>  <SET>
1

>  <Min_dist>
999.9

>  <Avg_dist>
999.9

$$$$
5-1g
  Cerius2 12110214053D 1   1.00000                          
Structure written by Cerius2 SD Exporter
 39 41  0  0  0  0  0  0  0  0999 V2000
   26.3980   22.0920   16.4470 C   0  0  0  0  0  0
   25.5120   21.5100   17.2760 C   0  0  0  0  0  0
   26.2070   20.9050   18.4640 C   0  0  0  0  0  0
   25.8700   19.8940   18.7060 H   0  0  0  0  0  0
   26.0690   21.5420   19.3450 H   0  0  0  0  0  0
   27.6690   20.8840   18.0240 C   0  0  0  0  0  0
   27.9070   19.9100   17.5770 H   0  0  0  0  0  0
   28.3560   21.0330   18.8640 H   0  0  0  0  0  0
   27.8000   21.9790   16.9700 C   0  0  0  0  0  0
   28.1300   22.9180   17.4270 H   0  0  0  0  0  0
   28.5190   21.6890   16.1970 H   0  0  0  0  0  0
   24.0570   21.4050   17.1200 C   0  0  0  0  0  0
   23.3610   22.2810   16.2730 C   0  0  0  0  0  0
   23.8920   23.0560   15.7230 H   0  0  0  0  0  0
   21.9730   22.1880   16.1300 C   0  0  0  0  0  0
   21.4570   22.8780   15.4660 H   0  0  0  0  0  0
   21.2690   21.2200   16.8480 C   0  0  0  0  0  0
   21.9440   20.3370   17.6930 C   0  0  0  0  0  0
   21.4060   19.5730   18.2500 H   0  0  0  0  0  0
   23.3320   20.4360   17.8300 C   0  0  0  0  0  0
   23.8420   19.7340   18.4880 H   0  0  0  0  0  0
   19.5070   21.0890   16.6540 S   0  0  0  0  0  0
   18.9820   22.4240   16.3840 O   0  0  0  0  0  0
   18.9830   20.3590   17.8050 O   0  0  0  0  0  0
   19.3160   20.0920   15.2010 C   0  0  0  0  0  0
   18.2480   19.9650   15.0150 H   0  0  0  0  0  0
   19.7810   19.1190   15.3730 H   0  0  0  0  0  0
   19.7820   20.6020   14.3560 H   0  0  0  0  0  0
   26.1430   22.7290   15.1500 C   0  0  0  0  0  0
   26.3610   24.0960   14.8990 C   0  0  0  0  0  0
   26.1060   24.6380   13.6360 C   0  0  0  0  0  0
   26.2730   25.6960   13.4510 H   0  0  0  0  0  0
   25.6290   23.8200   12.6160 C   0  0  0  0  0  0
   25.4020   22.4660   12.8440 C   0  0  0  0  0  0
   25.0270   21.8230   12.0500 H   0  0  0  0  0  0
   25.6570   21.9240   14.1060 C   0  0  0  0  0  0
   25.4770   20.8620   14.2680 H   0  0  0  0  0  0
   25.3140   24.4880   11.0600 Cl  0  0  0  0  0  0
   26.9120   25.1800   16.1310 Cl  0  0  0  0  0  0
  1  2  2  0  0  0
  1  9  1  0  0  0
  1 29  1  0  0  0
  2  3  1  0  0  0
  2 12  1  0  0  0
  3  4  1  0  0  0
  3  5  1  0  0  0
  3  6  1  0  0  0
  6  7  1  0  0  0
  6  8  1  0  0  0
  6  9  1  0  0  0
  9 10  1  0  0  0
  9 11  1  0  0  0
 12 13  1  0  0  0
 12 20  2  0  0  0
 13 14  1  0  0  0
 13 15  2  0  0  0
 15 16  1  0  0  0
 15 17  1  0  0  0
 17 18  2  0  0  0
 17 22  1  0  0  0
 18 19  1  0  0  0
 18 20  1  0  0  0
 20 21  1  0  0  0
 22 23  2  0  0  0
 22 24  2  0  0  0
 22 25  1  0  0  0
 25 26  1  0  0  0
 25 27  1  0  0  0
 25 28  1  0  0  0
 29 30  1  0  0  0
 29 36  2  0  0  0
 30 31  2  0  0  0
 30 39  1  0  0  0
 31 32  1  0  0  0
 31 33  1  0  0  0
 33 34  2  0  0  0
 33 38  1  0  0  0
 34 35  1  0  0  0
 34 36  1  0  0  0
 36 37  1  0  0  0
M  END
>  <ACTIVITY>
7.28

>  <SET>
2

>  <Min_dist>
0.06

>  <Avg_dist>
0.59

$$$$
5-1h
  Cerius2 12110214053D 1   1.00000                          
Structure written by Cerius2 SD Exporter
 40 42  0  0  0  0  0  0  0  0999 V2000
   26.3810   22.0720   16.4160 C   0  0  0  0  0  0
   25.4940   21.4960   17.2510 C   0  0  0  0  0  0
   26.1760   20.9470   18.4750 C   0  0  0  0  0  0
   25.8660   19.9300   18.7320 H   0  0  0  0  0  0
   25.9900   21.6000   19.3350 H   0  0  0  0  0  0
   27.6490   20.9650   18.0800 C   0  0  0  0  0  0
   27.9350   19.9880   17.6700 H   0  0  0  0  0  0
   28.3040   21.1650   18.9330 H   0  0  0  0  0  0
   27.7680   22.0320   16.9980 C   0  0  0  0  0  0
   28.0340   23.0020   17.4330 H   0  0  0  0  0  0
   28.5290   21.7510   16.2620 H   0  0  0  0  0  0
   24.0370   21.3820   17.1130 C   0  0  0  0  0  0
   23.3270   22.2590   16.2770 C   0  0  0  0  0  0
   23.8520   23.0290   15.7140 H   0  0  0  0  0  0
   21.9370   22.1670   16.1570 C   0  0  0  0  0  0
   21.4100   22.8560   15.5010 H   0  0  0  0  0  0
   21.2450   21.2000   16.8890 C   0  0  0  0  0  0
   21.9330   20.3170   17.7220 C   0  0  0  0  0  0
   21.4050   19.5530   18.2890 H   0  0  0  0  0  0
   23.3240   20.4150   17.8360 C   0  0  0  0  0  0
   23.8440   19.7140   18.4870 H   0  0  0  0  0  0
   19.4790   21.0710   16.7270 S   0  0  0  0  0  0
   18.9440   22.4170   16.5450 O   0  0  0  0  0  0
   18.9840   20.2740   17.8450 O   0  0  0  0  0  0
   19.2590   20.1570   15.2230 C   0  0  0  0  0  0
   18.1870   20.0380   15.0530 H   0  0  0  0  0  0
   19.7290   19.1780   15.3300 H   0  0  0  0  0  0
   19.7070   20.7160   14.3990 H   0  0  0  0  0  0
   26.1570   22.7000   15.1070 C   0  0  0  0  0  0
   26.4210   24.0640   14.9200 C   0  0  0  0  0  0
   26.7680   24.6810   15.7470 H   0  0  0  0  0  0
   26.2270   24.6670   13.6710 C   0  0  0  0  0  0
   26.4330   25.7300   13.5570 H   0  0  0  0  0  0
   25.7750   23.9100   12.5870 C   0  0  0  0  0  0
   25.5210   22.5470   12.7600 C   0  0  0  0  0  0
   25.1750   21.9380   11.9270 H   0  0  0  0  0  0
   25.7150   21.9480   14.0100 C   0  0  0  0  0  0
   25.5240   20.8810   14.1110 H   0  0  0  0  0  0
   25.5760   24.5270   11.3070 C   0  0  0  0  0  0
   25.4140   25.0270   10.2680 N   0  0  0  0  0  0
  1  2  2  0  0  0
  1  9  1  0  0  0
  1 29  1  0  0  0
  2  3  1  0  0  0
  2 12  1  0  0  0
  3  4  1  0  0  0
  3  5  1  0  0  0
  3  6  1  0  0  0
  6  7  1  0  0  0
  6  8  1  0  0  0
  6  9  1  0  0  0
  9 10  1  0  0  0
  9 11  1  0  0  0
 12 13  1  0  0  0
 12 20  2  0  0  0
 13 14  1  0  0  0
 13 15  2  0  0  0
 15 16  1  0  0  0
 15 17  1  0  0  0
 17 18  2  0  0  0
 17 22  1  0  0  0
 18 19  1  0  0  0
 18 20  1  0  0  0
 20 21  1  0  0  0
 22 23  2  0  0  0
 22 24  2  0  0  0
 22 25  1  0  0  0
 25 26  1  0  0  0
 25 27  1  0  0  0
 25 28  1  0  0  0
 29 30  1  0  0  0
 29 37  2  0  0  0
 30 31  1  0  0  0
 30 32  2  0  0  0
 32 33  1  0  0  0
 32 34  1  0  0  0
 34 35  2  0  0  0
 34 39  1  0  0  0
 35 36  1  0  0  0
 35 37  1  0  0  0
 37 38  1  0  0  0
 39 40  3  0  0  0
M  END
>  <ACTIVITY>
4.11

>  <SET>
2

>  <Min_dist>
0.13

>  <Avg_dist>
0.64

$$$$
5-1i
  Cerius2 12110214053D 1   1.00000                          
Structure written by Cerius2 SD Exporter
 43 45  0  0  0  0  0  0  0  0999 V2000
   26.3800   22.0710   16.4150 C   0  0  0  0  0  0
   25.4920   21.4970   17.2510 C   0  0  0  0  0  0
   26.1740   20.9470   18.4740 C   0  0  0  0  0  0
   25.8620   19.9310   18.7330 H   0  0  0  0  0  0
   25.9910   21.6010   19.3340 H   0  0  0  0  0  0
   27.6460   20.9610   18.0770 C   0  0  0  0  0  0
   27.9290   19.9830   17.6650 H   0  0  0  0  0  0
   28.3040   21.1580   18.9300 H   0  0  0  0  0  0
   27.7670   22.0300   16.9970 C   0  0  0  0  0  0
   28.0330   22.9990   17.4330 H   0  0  0  0  0  0
   28.5270   21.7490   16.2600 H   0  0  0  0  0  0
   24.0350   21.3830   17.1150 C   0  0  0  0  0  0
   23.3250   22.2590   16.2790 C   0  0  0  0  0  0
   23.8490   23.0280   15.7140 H   0  0  0  0  0  0
   21.9350   22.1670   16.1600 C   0  0  0  0  0  0
   21.4080   22.8550   15.5030 H   0  0  0  0  0  0
   21.2430   21.1990   16.8920 C   0  0  0  0  0  0
   21.9320   20.3170   17.7260 C   0  0  0  0  0  0
   21.4040   19.5530   18.2930 H   0  0  0  0  0  0
   23.3230   20.4170   17.8400 C   0  0  0  0  0  0
   23.8440   19.7170   18.4910 H   0  0  0  0  0  0
   19.4780   21.0660   16.7290 S   0  0  0  0  0  0
   18.9390   22.4120   16.5550 O   0  0  0  0  0  0
   18.9850   20.2590   17.8400 O   0  0  0  0  0  0
   19.2620   20.1620   15.2190 C   0  0  0  0  0  0
   18.1900   20.0400   15.0470 H   0  0  0  0  0  0
   19.7350   19.1830   15.3190 H   0  0  0  0  0  0
   19.7080   20.7270   14.3990 H   0  0  0  0  0  0
   26.1560   22.7010   15.1060 C   0  0  0  0  0  0
   26.4220   24.0640   14.9180 C   0  0  0  0  0  0
   26.7700   24.6810   15.7460 H   0  0  0  0  0  0
   26.2340   24.6670   13.6700 C   0  0  0  0  0  0
   26.4480   25.7290   13.5560 H   0  0  0  0  0  0
   25.7780   23.9190   12.5780 C   0  0  0  0  0  0
   25.5330   22.5520   12.7550 C   0  0  0  0  0  0
   25.1980   21.9410   11.9180 H   0  0  0  0  0  0
   25.7210   21.9510   14.0050 C   0  0  0  0  0  0
   25.5340   20.8830   14.1030 H   0  0  0  0  0  0
   25.5910   24.5640   11.2320 C   0  0  0  0  0  0
   25.2930   25.6120   11.3400 H   0  0  0  0  0  0
   24.8170   24.0460   10.6540 H   0  0  0  0  0  0
   26.8240   24.5000   10.5210 O   0  0  0  0  0  0
   26.6420   24.9330    9.6600 H   0  0  0  0  0  0
  1  2  2  0  0  0
  1  9  1  0  0  0
  1 29  1  0  0  0
  2  3  1  0  0  0
  2 12  1  0  0  0
  3  4  1  0  0  0
  3  5  1  0  0  0
  3  6  1  0  0  0
  6  7  1  0  0  0
  6  8  1  0  0  0
  6  9  1  0  0  0
  9 10  1  0  0  0
  9 11  1  0  0  0
 12 13  1  0  0  0
 12 20  2  0  0  0
 13 14  1  0  0  0
 13 15  2  0  0  0
 15 16  1  0  0  0
 15 17  1  0  0  0
 17 18  2  0  0  0
 17 22  1  0  0  0
 18 19  1  0  0  0
 18 20  1  0  0  0
 20 21  1  0  0  0
 22 23  2  0  0  0
 22 24  2  0  0  0
 22 25  1  0  0  0
 25 26  1  0  0  0
 25 27  1  0  0  0
 25 28  1  0  0  0
 29 30  1  0  0  0
 29 37  2  0  0  0
 30 31  1  0  0  0
 30 32  2  0  0  0
 32 33  1  0  0  0
 32 34  1  0  0  0
 34 35  2  0  0  0
 34 39  1  0  0  0
 35 36  1  0  0  0
 35 37  1  0  0  0
 37 38  1  0  0  0
 39 40  1  0  0  0
 39 41  1  0  0  0
 39 42  1  0  0  0
 42 43  1  0  0  0
M  END
>  <ACTIVITY>
5.49

>  <SET>
1

>  <Min_dist>
999.9

>  <Avg_dist>
999.9

$$$$
5-1j
  Cerius2 12110214053D 1   1.00000                          
Structure written by Cerius2 SD Exporter
 46 48  0  0  0  0  0  0  0  0999 V2000
   26.3800   22.0710   16.4150 C   0  0  0  0  0  0
   25.4920   21.4960   17.2510 C   0  0  0  0  0  0
   26.1750   20.9470   18.4740 C   0  0  0  0  0  0
   25.8640   19.9300   18.7320 H   0  0  0  0  0  0
   25.9920   21.6010   19.3340 H   0  0  0  0  0  0
   27.6470   20.9620   18.0770 C   0  0  0  0  0  0
   27.9300   19.9840   17.6650 H   0  0  0  0  0  0
   28.3050   21.1580   18.9300 H   0  0  0  0  0  0
   27.7670   22.0310   16.9970 C   0  0  0  0  0  0
   28.0320   23.0000   17.4340 H   0  0  0  0  0  0
   28.5280   21.7510   16.2610 H   0  0  0  0  0  0
   24.0350   21.3830   17.1140 C   0  0  0  0  0  0
   23.3250   22.2590   16.2790 C   0  0  0  0  0  0
   23.8490   23.0290   15.7140 H   0  0  0  0  0  0
   21.9340   22.1670   16.1600 C   0  0  0  0  0  0
   21.4080   22.8550   15.5020 H   0  0  0  0  0  0
   21.2430   21.2000   16.8910 C   0  0  0  0  0  0
   21.9320   20.3170   17.7260 C   0  0  0  0  0  0
   21.4040   19.5540   18.2930 H   0  0  0  0  0  0
   23.3230   20.4170   17.8390 C   0  0  0  0  0  0
   23.8440   19.7160   18.4900 H   0  0  0  0  0  0
   19.4770   21.0670   16.7280 S   0  0  0  0  0  0
   18.9390   22.4120   16.5540 O   0  0  0  0  0  0
   18.9840   20.2610   17.8410 O   0  0  0  0  0  0
   19.2610   20.1610   15.2190 C   0  0  0  0  0  0
   18.1900   20.0380   15.0480 H   0  0  0  0  0  0
   19.7350   19.1830   15.3200 H   0  0  0  0  0  0
   19.7070   20.7260   14.3980 H   0  0  0  0  0  0
   26.1570   22.7010   15.1060 C   0  0  0  0  0  0
   26.4230   24.0630   14.9180 C   0  0  0  0  0  0
   26.7730   24.6800   15.7450 H   0  0  0  0  0  0
   26.2330   24.6670   13.6710 C   0  0  0  0  0  0
   26.4470   25.7290   13.5560 H   0  0  0  0  0  0
   25.7740   23.9190   12.5800 C   0  0  0  0  0  0
   25.5290   22.5520   12.7570 C   0  0  0  0  0  0
   25.1920   21.9400   11.9210 H   0  0  0  0  0  0
   25.7200   21.9510   14.0060 C   0  0  0  0  0  0
   25.5320   20.8830   14.1040 H   0  0  0  0  0  0
   25.5810   24.5660   11.2330 C   0  0  0  0  0  0
   25.2270   25.5970   11.3590 H   0  0  0  0  0  0
   24.8340   24.0170   10.6490 H   0  0  0  0  0  0
   26.8400   24.5580   10.5510 O   0  0  0  0  0  0
   26.7240   25.1690    9.2670 C   0  0  0  0  0  0
   27.7050   25.1420    8.7860 H   0  0  0  0  0  0
   26.4120   26.2130    9.3680 H   0  0  0  0  0  0
   26.0130   24.6180    8.6450 H   0  0  0  0  0  0
  1  2  2  0  0  0
  1  9  1  0  0  0
  1 29  1  0  0  0
  2  3  1  0  0  0
  2 12  1  0  0  0
  3  4  1  0  0  0
  3  5  1  0  0  0
  3  6  1  0  0  0
  6  7  1  0  0  0
  6  8  1  0  0  0
  6  9  1  0  0  0
  9 10  1  0  0  0
  9 11  1  0  0  0
 12 13  1  0  0  0
 12 20  2  0  0  0
 13 14  1  0  0  0
 13 15  2  0  0  0
 15 16  1  0  0  0
 15 17  1  0  0  0
 17 18  2  0  0  0
 17 22  1  0  0  0
 18 19  1  0  0  0
 18 20  1  0  0  0
 20 21  1  0  0  0
 22 23  2  0  0  0
 22 24  2  0  0  0
 22 25  1  0  0  0
 25 26  1  0  0  0
 25 27  1  0  0  0
 25 28  1  0  0  0
 29 30  1  0  0  0
 29 37  2  0  0  0
 30 31  1  0  0  0
 30 32  2  0  0  0
 32 33  1  0  0  0
 32 34  1  0  0  0
 34 35  2  0  0  0
 34 39  1  0  0  0
 35 36  1  0  0  0
 35 37  1  0  0  0
 37 38  1  0  0  0
 39 40  1  0  0  0
 39 41  1  0  0  0
 39 42  1  0  0  0
 42 43  1  0  0  0
 43 44  1  0  0  0
 43 45  1  0  0  0
 43 46  1  0  0  0
M  END
>  <ACTIVITY>
5.18

>  <SET>
2

>  <Min_dist>
0.08

>  <Avg_dist>
0.65

$$$$
5-1k
  Cerius2 12110214053D 1   1.00000                          
Structure written by Cerius2 SD Exporter
 43 45  0  0  0  0  0  0  0  0999 V2000
   26.3820   22.0710   16.4160 C   0  0  0  0  0  0
   25.4950   21.4960   17.2530 C   0  0  0  0  0  0
   26.1780   20.9440   18.4750 C   0  0  0  0  0  0
   25.8680   19.9270   18.7310 H   0  0  0  0  0  0
   25.9950   21.5960   19.3360 H   0  0  0  0  0  0
   27.6510   20.9620   18.0780 C   0  0  0  0  0  0
   27.9350   19.9840   17.6660 H   0  0  0  0  0  0
   28.3080   21.1600   18.9300 H   0  0  0  0  0  0
   27.7700   22.0300   16.9960 C   0  0  0  0  0  0
   28.0360   22.9990   17.4320 H   0  0  0  0  0  0
   28.5290   21.7490   16.2590 H   0  0  0  0  0  0
   24.0380   21.3850   17.1160 C   0  0  0  0  0  0
   23.3300   22.2610   16.2800 C   0  0  0  0  0  0
   23.8560   23.0310   15.7160 H   0  0  0  0  0  0
   21.9400   22.1690   16.1570 C   0  0  0  0  0  0
   21.4150   22.8580   15.4980 H   0  0  0  0  0  0
   21.2470   21.2020   16.8870 C   0  0  0  0  0  0
   21.9340   20.3200   17.7230 C   0  0  0  0  0  0
   21.4040   19.5560   18.2890 H   0  0  0  0  0  0
   23.3240   20.4180   17.8400 C   0  0  0  0  0  0
   23.8440   19.7180   18.4920 H   0  0  0  0  0  0
   19.4820   21.0700   16.7190 S   0  0  0  0  0  0
   18.9450   22.4150   16.5300 O   0  0  0  0  0  0
   18.9840   20.2750   17.8370 O   0  0  0  0  0  0
   19.2700   20.1510   15.2170 C   0  0  0  0  0  0
   18.1990   20.0290   15.0430 H   0  0  0  0  0  0
   19.7420   19.1730   15.3290 H   0  0  0  0  0  0
   19.7190   20.7080   14.3930 H   0  0  0  0  0  0
   26.1540   22.7000   15.1090 C   0  0  0  0  0  0
   26.4200   24.0610   14.9180 C   0  0  0  0  0  0
   26.7750   24.6790   15.7420 H   0  0  0  0  0  0
   26.2210   24.6630   13.6700 C   0  0  0  0  0  0
   26.4330   25.7260   13.5610 H   0  0  0  0  0  0
   25.7510   23.9160   12.5870 C   0  0  0  0  0  0
   25.5110   22.5510   12.7630 C   0  0  0  0  0  0
   25.1800   21.9290   11.9350 H   0  0  0  0  0  0
   25.7110   21.9510   14.0120 C   0  0  0  0  0  0
   25.5260   20.8820   14.1100 H   0  0  0  0  0  0
   25.5320   24.7270   11.0130 S   0  0  0  0  0  0
   25.9940   26.4290   11.4510 C   0  0  0  0  0  0
   26.0520   27.0260   10.5370 H   0  0  0  0  0  0
   26.9720   26.4480   11.9410 H   0  0  0  0  0  0
   25.2460   26.8800   12.1080 H   0  0  0  0  0  0
  1  2  2  0  0  0
  1  9  1  0  0  0
  1 29  1  0  0  0
  2  3  1  0  0  0
  2 12  1  0  0  0
  3  4  1  0  0  0
  3  5  1  0  0  0
  3  6  1  0  0  0
  6  7  1  0  0  0
  6  8  1  0  0  0
  6  9  1  0  0  0
  9 10  1  0  0  0
  9 11  1  0  0  0
 12 13  1  0  0  0
 12 20  2  0  0  0
 13 14  1  0  0  0
 13 15  2  0  0  0
 15 16  1  0  0  0
 15 17  1  0  0  0
 17 18  2  0  0  0
 17 22  1  0  0  0
 18 19  1  0  0  0
 18 20  1  0  0  0
 20 21  1  0  0  0
 22 23  2  0  0  0
 22 24  2  0  0  0
 22 25  1  0  0  0
 25 26  1  0  0  0
 25 27  1  0  0  0
 25 28  1  0  0  0
 29 30  1  0  0  0
 29 37  2  0  0  0
 30 31  1  0  0  0
 30 32  2  0  0  0
 32 33  1  0  0  0
 32 34  1  0  0  0
 34 35  2  0  0  0
 34 39  1  0  0  0
 35 36  1  0  0  0
 35 37  1  0  0  0
 37 38  1  0  0  0
 39 40  1  0  0  0
 40 41  1  0  0  0
 40 42  1  0  0  0
 40 43  1  0  0  0
M  END
>  <ACTIVITY>
6.66

>  <SET>
1

>  <Min_dist>
999.9

>  <Avg_dist>
999.9

$$$$
5-1l
  Cerius2 12110214053D 1   1.00000                          
Structure written by Cerius2 SD Exporter
 42 44  0  0  0  0  0  0  0  0999 V2000
   26.3960   22.0940   16.4440 C   0  0  0  0  0  0
   25.5100   21.5080   17.2720 C   0  0  0  0  0  0
   26.2060   20.9040   18.4600 C   0  0  0  0  0  0
   25.8750   19.8890   18.6990 H   0  0  0  0  0  0
   26.0640   21.5380   19.3420 H   0  0  0  0  0  0
   27.6700   20.8900   18.0230 C   0  0  0  0  0  0
   27.9130   19.9180   17.5730 H   0  0  0  0  0  0
   28.3540   21.0390   18.8650 H   0  0  0  0  0  0
   27.7970   21.9900   16.9740 C   0  0  0  0  0  0
   28.1140   22.9300   17.4370 H   0  0  0  0  0  0
   28.5220   21.7090   16.2030 H   0  0  0  0  0  0
   24.0540   21.4000   17.1180 C   0  0  0  0  0  0
   23.3540   22.2770   16.2740 C   0  0  0  0  0  0
   23.8830   23.0520   15.7210 H   0  0  0  0  0  0
   21.9660   22.1860   16.1350 C   0  0  0  0  0  0
   21.4490   22.8760   15.4710 H   0  0  0  0  0  0
   21.2640   21.2180   16.8540 C   0  0  0  0  0  0
   21.9400   20.3340   17.6960 C   0  0  0  0  0  0
   21.4040   19.5700   18.2550 H   0  0  0  0  0  0
   23.3290   20.4330   17.8290 C   0  0  0  0  0  0
   23.8390   19.7290   18.4850 H   0  0  0  0  0  0
   19.5000   21.0890   16.6650 S   0  0  0  0  0  0
   18.9780   22.4220   16.3810 O   0  0  0  0  0  0
   18.9780   20.3710   17.8240 O   0  0  0  0  0  0
   19.3050   20.0780   15.2220 C   0  0  0  0  0  0
   18.2360   19.9560   15.0360 H   0  0  0  0  0  0
   19.7640   19.1040   15.4040 H   0  0  0  0  0  0
   19.7750   20.5760   14.3720 H   0  0  0  0  0  0
   26.1430   22.7330   15.1480 C   0  0  0  0  0  0
   26.3580   24.1100   14.9200 C   0  0  0  0  0  0
   26.1210   24.6340   13.6370 C   0  0  0  0  0  0
   26.2900   25.6880   13.4260 H   0  0  0  0  0  0
   25.6570   23.8130   12.6160 C   0  0  0  0  0  0
   25.4260   22.4640   12.8350 C   0  0  0  0  0  0
   25.0630   21.8350   12.0270 H   0  0  0  0  0  0
   25.6710   21.9250   14.0980 C   0  0  0  0  0  0
   25.4950   20.8620   14.2580 H   0  0  0  0  0  0
   25.4300   24.3340   11.4030 F   0  0  0  0  0  0
   26.8560   25.0390   15.9930 C   0  0  0  0  0  0
   26.6290   26.0820   15.7480 H   0  0  0  0  0  0
   27.9400   24.9430   16.1010 H   0  0  0  0  0  0
   26.3710   24.8310   16.9530 H   0  0  0  0  0  0
  1  2  2  0  0  0
  1  9  1  0  0  0
  1 29  1  0  0  0
  2  3  1  0  0  0
  2 12  1  0  0  0
  3  4  1  0  0  0
  3  5  1  0  0  0
  3  6  1  0  0  0
  6  7  1  0  0  0
  6  8  1  0  0  0
  6  9  1  0  0  0
  9 10  1  0  0  0
  9 11  1  0  0  0
 12 13  1  0  0  0
 12 20  2  0  0  0
 13 14  1  0  0  0
 13 15  2  0  0  0
 15 16  1  0  0  0
 15 17  1  0  0  0
 17 18  2  0  0  0
 17 22  1  0  0  0
 18 19  1  0  0  0
 18 20  1  0  0  0
 20 21  1  0  0  0
 22 23  2  0  0  0
 22 24  2  0  0  0
 22 25  1  0  0  0
 25 26  1  0  0  0
 25 27  1  0  0  0
 25 28  1  0  0  0
 29 30  1  0  0  0
 29 36  2  0  0  0
 30 31  2  0  0  0
 30 39  1  0  0  0
 31 32  1  0  0  0
 31 33  1  0  0  0
 33 34  2  0  0  0
 33 38  1  0  0  0
 34 35  1  0  0  0
 34 36  1  0  0  0
 36 37  1  0  0  0
 39 40  1  0  0  0
 39 41  1  0  0  0
 39 42  1  0  0  0
M  END
>  <ACTIVITY>
7.12

>  <SET>
1

>  <Min_dist>
999.9

>  <Avg_dist>
999.9

$$$$
5-7a
  Cerius2 12110214053D 1   1.00000                          
Structure written by Cerius2 SD Exporter
 45 47  0  0  0  0  0  0  0  0999 V2000
   26.3810   22.0720   16.4150 C   0  0  0  0  0  0
   25.4940   21.4990   17.2540 C   0  0  0  0  0  0
   26.1810   20.9470   18.4770 C   0  0  0  0  0  0
   25.8250   19.9520   18.7600 H   0  0  0  0  0  0
   26.0120   21.6250   19.3230 H   0  0  0  0  0  0
   27.6650   20.9100   18.0560 C   0  0  0  0  0  0
   27.7720   22.0230   16.9950 C   0  0  0  0  0  0
   28.0210   22.9920   17.4450 H   0  0  0  0  0  0
   28.5280   21.7860   16.2380 H   0  0  0  0  0  0
   28.0120   19.5410   17.4360 C   0  0  0  0  0  0
   29.0510   19.5210   17.0870 H   0  0  0  0  0  0
   27.3710   19.3030   16.5800 H   0  0  0  0  0  0
   27.8930   18.7370   18.1710 H   0  0  0  0  0  0
   28.5960   21.1690   19.2430 C   0  0  0  0  0  0
   29.6440   21.1800   18.9260 H   0  0  0  0  0  0
   28.4810   20.3950   20.0100 H   0  0  0  0  0  0
   28.3820   22.1360   19.7130 H   0  0  0  0  0  0
   24.0380   21.3870   17.1170 C   0  0  0  0  0  0
   23.3300   22.2620   16.2790 C   0  0  0  0  0  0
   23.8560   23.0320   15.7150 H   0  0  0  0  0  0
   21.9400   22.1690   16.1550 C   0  0  0  0  0  0
   21.4150   22.8570   15.4960 H   0  0  0  0  0  0
   21.2480   21.2010   16.8850 C   0  0  0  0  0  0
   21.9350   20.3200   17.7220 C   0  0  0  0  0  0
   21.4050   19.5550   18.2870 H   0  0  0  0  0  0
   23.3250   20.4200   17.8390 C   0  0  0  0  0  0
   23.8460   19.7200   18.4910 H   0  0  0  0  0  0
   19.4830   21.0690   16.7180 S   0  0  0  0  0  0
   18.9460   22.4130   16.5270 O   0  0  0  0  0  0
   18.9850   20.2750   17.8360 O   0  0  0  0  0  0
   19.2710   20.1490   15.2170 C   0  0  0  0  0  0
   18.2000   20.0270   15.0420 H   0  0  0  0  0  0
   19.7420   19.1710   15.3290 H   0  0  0  0  0  0
   19.7210   20.7050   14.3920 H   0  0  0  0  0  0
   26.1530   22.7000   15.1080 C   0  0  0  0  0  0
   26.4180   24.0650   14.9210 C   0  0  0  0  0  0
   26.7700   24.6820   15.7470 H   0  0  0  0  0  0
   26.2200   24.6660   13.6750 C   0  0  0  0  0  0
   26.4190   25.7250   13.5360 H   0  0  0  0  0  0
   25.7650   23.9000   12.6090 C   0  0  0  0  0  0
   25.5080   22.5450   12.7650 C   0  0  0  0  0  0
   25.1590   21.9570   11.9210 H   0  0  0  0  0  0
   25.7060   21.9450   14.0120 C   0  0  0  0  0  0
   25.5160   20.8780   14.1140 H   0  0  0  0  0  0
   25.5750   24.4760   11.4150 F   0  0  0  0  0  0
  1  2  2  0  0  0
  1  7  1  0  0  0
  1 35  1  0  0  0
  2  3  1  0  0  0
  2 18  1  0  0  0
  3  4  1  0  0  0
  3  5  1  0  0  0
  3  6  1  0  0  0
  6  7  1  0  0  0
  6 10  1  0  0  0
  6 14  1  0  0  0
  7  8  1  0  0  0
  7  9  1  0  0  0
 10 11  1  0  0  0
 10 12  1  0  0  0
 10 13  1  0  0  0
 14 15  1  0  0  0
 14 16  1  0  0  0
 14 17  1  0  0  0
 18 19  1  0  0  0
 18 26  2  0  0  0
 19 20  1  0  0  0
 19 21  2  0  0  0
 21 22  1  0  0  0
 21 23  1  0  0  0
 23 24  2  0  0  0
 23 28  1  0  0  0
 24 25  1  0  0  0
 24 26  1  0  0  0
 26 27  1  0  0  0
 28 29  2  0  0  0
 28 30  2  0  0  0
 28 31  1  0  0  0
 31 32  1  0  0  0
 31 33  1  0  0  0
 31 34  1  0  0  0
 35 36  1  0  0  0
 35 43  2  0  0  0
 36 37  1  0  0  0
 36 38  2  0  0  0
 38 39  1  0  0  0
 38 40  1  0  0  0
 40 41  2  0  0  0
 40 45  1  0  0  0
 41 42  1  0  0  0
 41 43  1  0  0  0
 43 44  1  0  0  0
M  END
>  <ACTIVITY>
7.82

>  <SET>
1

>  <Min_dist>
999.9

>  <Avg_dist>
999.9

$$$$
5-7c
  Cerius2 12110214053D 1   1.00000                          
Structure written by Cerius2 SD Exporter
 45 47  0  0  0  0  0  0  0  0999 V2000
   26.3830   22.0710   16.4170 C   0  0  0  0  0  0
   25.4970   21.4980   17.2570 C   0  0  0  0  0  0
   26.1850   20.9450   18.4800 C   0  0  0  0  0  0
   25.8400   19.9400   18.7430 H   0  0  0  0  0  0
   25.9850   21.6060   19.3320 H   0  0  0  0  0  0
   27.6650   20.9480   18.0780 C   0  0  0  0  0  0
   27.7760   22.0240   16.9930 C   0  0  0  0  0  0
   28.0360   23.0040   17.4100 H   0  0  0  0  0  0
   28.5230   21.7640   16.2340 H   0  0  0  0  0  0
   28.5590   21.2330   19.2440 C   0  0  0  0  0  0
   29.8680   21.2800   18.8980 F   0  0  0  0  0  0
   28.2740   22.4360   19.8090 F   0  0  0  0  0  0
   28.4400   20.3140   20.2310 F   0  0  0  0  0  0
   28.0860   19.6010   17.5530 C   0  0  0  0  0  0
   27.9550   18.6190   18.4780 F   0  0  0  0  0  0
   29.3800   19.5830   17.1460 F   0  0  0  0  0  0
   27.3490   19.2090   16.4820 F   0  0  0  0  0  0
   24.0410   21.3880   17.1190 C   0  0  0  0  0  0
   23.3360   22.2640   16.2790 C   0  0  0  0  0  0
   23.8640   23.0330   15.7170 H   0  0  0  0  0  0
   21.9470   22.1720   16.1530 C   0  0  0  0  0  0
   21.4240   22.8600   15.4920 H   0  0  0  0  0  0
   21.2520   21.2040   16.8810 C   0  0  0  0  0  0
   21.9360   20.3220   17.7190 C   0  0  0  0  0  0
   21.4040   19.5580   18.2820 H   0  0  0  0  0  0
   23.3260   20.4210   17.8390 C   0  0  0  0  0  0
   23.8430   19.7190   18.4920 H   0  0  0  0  0  0
   19.4870   21.0730   16.7060 S   0  0  0  0  0  0
   18.9530   22.4160   16.4970 O   0  0  0  0  0  0
   18.9830   20.2940   17.8320 O   0  0  0  0  0  0
   19.2800   20.1350   15.2160 C   0  0  0  0  0  0
   18.2100   20.0120   15.0380 H   0  0  0  0  0  0
   19.7510   19.1580   15.3420 H   0  0  0  0  0  0
   19.7350   20.6810   14.3860 H   0  0  0  0  0  0
   26.1490   22.6990   15.1100 C   0  0  0  0  0  0
   26.4130   24.0640   14.9210 C   0  0  0  0  0  0
   26.7670   24.6830   15.7440 H   0  0  0  0  0  0
   26.2070   24.6630   13.6750 C   0  0  0  0  0  0
   26.4040   25.7220   13.5340 H   0  0  0  0  0  0
   25.7450   23.8960   12.6140 C   0  0  0  0  0  0
   25.4890   22.5410   12.7720 C   0  0  0  0  0  0
   25.1350   21.9530   11.9310 H   0  0  0  0  0  0
   25.6950   21.9430   14.0180 C   0  0  0  0  0  0
   25.5040   20.8760   14.1230 H   0  0  0  0  0  0
   25.5480   24.4710   11.4190 F   0  0  0  0  0  0
  1  2  2  0  0  0
  1  7  1  0  0  0
  1 35  1  0  0  0
  2  3  1  0  0  0
  2 18  1  0  0  0
  3  4  1  0  0  0
  3  5  1  0  0  0
  3  6  1  0  0  0
  6  7  1  0  0  0
  6 10  1  0  0  0
  6 14  1  0  0  0
  7  8  1  0  0  0
  7  9  1  0  0  0
 10 11  1  0  0  0
 10 12  1  0  0  0
 10 13  1  0  0  0
 14 15  1  0  0  0
 14 16  1  0  0  0
 14 17  1  0  0  0
 18 19  1  0  0  0
 18 26  2  0  0  0
 19 20  1  0  0  0
 19 21  2  0  0  0
 21 22  1  0  0  0
 21 23  1  0  0  0
 23 24  2  0  0  0
 23 28  1  0  0  0
 24 25  1  0  0  0
 24 26  1  0  0  0
 26 27  1  0  0  0
 28 29  2  0  0  0
 28 30  2  0  0  0
 28 31  1  0  0  0
 31 32  1  0  0  0
 31 33  1  0  0  0
 31 34  1  0  0  0
 35 36  1  0  0  0
 35 43  2  0  0  0
 36 37  1  0  0  0
 36 38  2  0  0  0
 38 39  1  0  0  0
 38 40  1  0  0  0
 40 41  2  0  0  0
 40 45  1  0  0  0
 41 42  1  0  0  0
 41 43  1  0  0  0
 43 44  1  0  0  0
M  END
>  <ACTIVITY>
7.17

>  <SET>
1

>  <Min_dist>
999.9

>  <Avg_dist>
999.9

$$$$
5-7e
  Cerius2 12110214053D 1   1.00000                          
Structure written by Cerius2 SD Exporter
 45 47  0  0  0  0  0  0  0  0999 V2000
   26.3810   22.0700   16.4150 C   0  0  0  0  0  0
   25.4950   21.4980   17.2540 C   0  0  0  0  0  0
   26.1830   20.9480   18.4780 C   0  0  0  0  0  0
   25.8260   19.9520   18.7620 H   0  0  0  0  0  0
   26.0100   21.6260   19.3230 H   0  0  0  0  0  0
   27.6650   20.9150   18.0560 C   0  0  0  0  0  0
   27.7730   22.0240   16.9950 C   0  0  0  0  0  0
   28.0210   22.9940   17.4430 H   0  0  0  0  0  0
   28.5290   21.7890   16.2370 H   0  0  0  0  0  0
   28.0000   19.5460   17.4410 C   0  0  0  0  0  0
   27.3530   19.2990   16.5930 H   0  0  0  0  0  0
   27.9090   18.7420   18.1790 H   0  0  0  0  0  0
   29.2850   19.5370   16.9840 F   0  0  0  0  0  0
   28.5810   21.1830   19.2460 C   0  0  0  0  0  0
   28.5150   20.3870   19.9950 H   0  0  0  0  0  0
   28.3430   22.1320   19.7370 H   0  0  0  0  0  0
   29.8780   21.2580   18.8320 F   0  0  0  0  0  0
   24.0380   21.3870   17.1180 C   0  0  0  0  0  0
   23.3320   22.2630   16.2790 C   0  0  0  0  0  0
   23.8580   23.0320   15.7160 H   0  0  0  0  0  0
   21.9420   22.1700   16.1550 C   0  0  0  0  0  0
   21.4180   22.8580   15.4960 H   0  0  0  0  0  0
   21.2490   21.2030   16.8840 C   0  0  0  0  0  0
   21.9350   20.3210   17.7210 C   0  0  0  0  0  0
   21.4040   19.5570   18.2860 H   0  0  0  0  0  0
   23.3250   20.4200   17.8400 C   0  0  0  0  0  0
   23.8430   19.7190   18.4920 H   0  0  0  0  0  0
   19.4840   21.0700   16.7140 S   0  0  0  0  0  0
   18.9480   22.4140   16.5190 O   0  0  0  0  0  0
   18.9840   20.2790   17.8340 O   0  0  0  0  0  0
   19.2740   20.1450   15.2150 C   0  0  0  0  0  0
   18.2040   20.0210   15.0410 H   0  0  0  0  0  0
   19.7480   19.1690   15.3310 H   0  0  0  0  0  0
   19.7240   20.7000   14.3890 H   0  0  0  0  0  0
   26.1520   22.6990   15.1080 C   0  0  0  0  0  0
   26.4170   24.0640   14.9210 C   0  0  0  0  0  0
   26.7700   24.6810   15.7460 H   0  0  0  0  0  0
   26.2170   24.6660   13.6750 C   0  0  0  0  0  0
   26.4160   25.7250   13.5370 H   0  0  0  0  0  0
   25.7590   23.9010   12.6110 C   0  0  0  0  0  0
   25.5020   22.5450   12.7670 C   0  0  0  0  0  0
   25.1520   21.9580   11.9230 H   0  0  0  0  0  0
   25.7030   21.9450   14.0120 C   0  0  0  0  0  0
   25.5120   20.8780   14.1140 H   0  0  0  0  0  0
   25.5670   24.4770   11.4170 F   0  0  0  0  0  0
  1  2  2  0  0  0
  1  7  1  0  0  0
  1 35  1  0  0  0
  2  3  1  0  0  0
  2 18  1  0  0  0
  3  4  1  0  0  0
  3  5  1  0  0  0
  3  6  1  0  0  0
  6  7  1  0  0  0
  6 10  1  0  0  0
  6 14  1  0  0  0
  7  8  1  0  0  0
  7  9  1  0  0  0
 10 11  1  0  0  0
 10 12  1  0  0  0
 10 13  1  0  0  0
 14 15  1  0  0  0
 14 16  1  0  0  0
 14 17  1  0  0  0
 18 19  1  0  0  0
 18 26  2  0  0  0
 19 20  1  0  0  0
 19 21  2  0  0  0
 21 22  1  0  0  0
 21 23  1  0  0  0
 23 24  2  0  0  0
 23 28  1  0  0  0
 24 25  1  0  0  0
 24 26  1  0  0  0
 26 27  1  0  0  0
 28 29  2  0  0  0
 28 30  2  0  0  0
 28 31  1  0  0  0
 31 32  1  0  0  0
 31 33  1  0  0  0
 31 34  1  0  0  0
 35 36  1  0  0  0
 35 43  2  0  0  0
 36 37  1  0  0  0
 36 38  2  0  0  0
 38 39  1  0  0  0
 38 40  1  0  0  0
 40 41  2  0  0  0
 40 45  1  0  0  0
 41 42  1  0  0  0
 41 43  1  0  0  0
 43 44  1  0  0  0
M  END
>  <ACTIVITY>
7.29

>  <SET>
2

>  <Min_dist>
0.07

>  <Avg_dist>
0.64

$$$$
6-7b
  Cerius2 12110214053D 1   1.00000                          
Structure written by Cerius2 SD Exporter
 39 41  0  0  0  0  0  0  0  0999 V2000
   26.3840   22.0720   16.4160 C   0  0  0  0  0  0
   25.4970   21.4970   17.2530 C   0  0  0  0  0  0
   26.1800   20.9440   18.4740 C   0  0  0  0  0  0
   25.8690   19.9280   18.7300 H   0  0  0  0  0  0
   25.9980   21.5960   19.3360 H   0  0  0  0  0  0
   27.6520   20.9610   18.0760 C   0  0  0  0  0  0
   27.9360   19.9840   17.6630 H   0  0  0  0  0  0
   28.3110   21.1570   18.9280 H   0  0  0  0  0  0
   27.7720   22.0310   16.9960 C   0  0  0  0  0  0
   28.0380   23.0000   17.4330 H   0  0  0  0  0  0
   28.5300   21.7510   16.2580 H   0  0  0  0  0  0
   24.0400   21.3860   17.1150 C   0  0  0  0  0  0
   23.3330   22.2630   16.2780 C   0  0  0  0  0  0
   23.8590   23.0340   15.7160 H   0  0  0  0  0  0
   21.9440   22.1710   16.1540 C   0  0  0  0  0  0
   21.4190   22.8600   15.4960 H   0  0  0  0  0  0
   21.2500   21.2040   16.8840 C   0  0  0  0  0  0
   21.9360   20.3210   17.7200 C   0  0  0  0  0  0
   21.4050   19.5580   18.2850 H   0  0  0  0  0  0
   23.3260   20.4200   17.8370 C   0  0  0  0  0  0
   23.8450   19.7190   18.4900 H   0  0  0  0  0  0
   19.4840   21.0730   16.7140 S   0  0  0  0  0  0
   18.9490   22.4170   16.5180 O   0  0  0  0  0  0
   18.9850   20.2840   17.8360 O   0  0  0  0  0  0
   19.2730   20.1460   15.2170 C   0  0  0  0  0  0
   18.2020   20.0240   15.0430 H   0  0  0  0  0  0
   19.7430   19.1680   15.3350 H   0  0  0  0  0  0
   19.7240   20.6980   14.3910 H   0  0  0  0  0  0
   26.1540   22.7020   15.1100 C   0  0  0  0  0  0
   26.4180   24.0660   14.9250 C   0  0  0  0  0  0
   26.7730   24.6880   15.7420 H   0  0  0  0  0  0
   26.2110   24.6540   13.6800 C   0  0  0  0  0  0
   25.7520   23.8990   12.6090 C   0  0  0  0  0  0
   25.4970   22.5440   12.7660 C   0  0  0  0  0  0
   25.1440   21.9550   11.9240 H   0  0  0  0  0  0
   25.7020   21.9470   14.0140 C   0  0  0  0  0  0
   25.5120   20.8790   14.1180 H   0  0  0  0  0  0
   25.5570   24.4770   11.4140 F   0  0  0  0  0  0
   26.4600   25.9620   13.5200 F   0  0  0  0  0  0
  1  2  2  0  0  0
  1  9  1  0  0  0
  1 29  1  0  0  0
  2  3  1  0  0  0
  2 12  1  0  0  0
  3  4  1  0  0  0
  3  5  1  0  0  0
  3  6  1  0  0  0
  6  7  1  0  0  0
  6  8  1  0  0  0
  6  9  1  0  0  0
  9 10  1  0  0  0
  9 11  1  0  0  0
 12 13  1  0  0  0
 12 20  2  0  0  0
 13 14  1  0  0  0
 13 15  2  0  0  0
 15 16  1  0  0  0
 15 17  1  0  0  0
 17 18  2  0  0  0
 17 22  1  0  0  0
 18 19  1  0  0  0
 18 20  1  0  0  0
 20 21  1  0  0  0
 22 23  2  0  0  0
 22 24  2  0  0  0
 22 25  1  0  0  0
 25 26  1  0  0  0
 25 27  1  0  0  0
 25 28  1  0  0  0
 29 30  1  0  0  0
 29 36  2  0  0  0
 30 31  1  0  0  0
 30 32  2  0  0  0
 32 33  1  0  0  0
 32 39  1  0  0  0
 33 34  2  0  0  0
 33 38  1  0  0  0
 34 35  1  0  0  0
 34 36  1  0  0  0
 36 37  1  0  0  0
M  END
>  <ACTIVITY>
7.29

>  <SET>
1

>  <Min_dist>
999.9

>  <Avg_dist>
999.9

$$$$
6-7d
  Cerius2 12110214053D 1   1.00000                          
Structure written by Cerius2 SD Exporter
 42 44  0  0  0  0  0  0  0  0999 V2000
   26.3840   22.0700   16.4170 C   0  0  0  0  0  0
   25.4960   21.4970   17.2540 C   0  0  0  0  0  0
   26.1800   20.9450   18.4760 C   0  0  0  0  0  0
   25.8670   19.9290   18.7340 H   0  0  0  0  0  0
   26.0000   21.5990   19.3370 H   0  0  0  0  0  0
   27.6510   20.9580   18.0760 C   0  0  0  0  0  0
   27.9310   19.9800   17.6630 H   0  0  0  0  0  0
   28.3110   21.1530   18.9270 H   0  0  0  0  0  0
   27.7720   22.0270   16.9950 C   0  0  0  0  0  0
   28.0400   22.9960   17.4310 H   0  0  0  0  0  0
   28.5290   21.7460   16.2570 H   0  0  0  0  0  0
   24.0390   21.3860   17.1160 C   0  0  0  0  0  0
   23.3320   22.2620   16.2780 C   0  0  0  0  0  0
   23.8570   23.0340   15.7160 H   0  0  0  0  0  0
   21.9420   22.1700   16.1550 C   0  0  0  0  0  0
   21.4170   22.8580   15.4960 H   0  0  0  0  0  0
   21.2490   21.2020   16.8840 C   0  0  0  0  0  0
   21.9350   20.3200   17.7200 C   0  0  0  0  0  0
   21.4050   19.5560   18.2850 H   0  0  0  0  0  0
   23.3250   20.4190   17.8370 C   0  0  0  0  0  0
   23.8440   19.7180   18.4900 H   0  0  0  0  0  0
   19.4830   21.0720   16.7170 S   0  0  0  0  0  0
   18.9480   22.4160   16.5210 O   0  0  0  0  0  0
   18.9840   20.2830   17.8390 O   0  0  0  0  0  0
   19.2700   20.1450   15.2200 C   0  0  0  0  0  0
   18.1990   20.0260   15.0450 H   0  0  0  0  0  0
   19.7390   19.1670   15.3370 H   0  0  0  0  0  0
   19.7220   20.6960   14.3930 H   0  0  0  0  0  0
   26.1540   22.6970   15.1100 C   0  0  0  0  0  0
   26.4180   24.0630   14.9200 C   0  0  0  0  0  0
   26.7700   24.6680   15.7550 H   0  0  0  0  0  0
   26.2170   24.6730   13.6700 C   0  0  0  0  0  0
   25.7590   23.8940   12.6110 C   0  0  0  0  0  0
   25.5020   22.5370   12.7730 C   0  0  0  0  0  0
   25.1510   21.9470   11.9310 H   0  0  0  0  0  0
   25.7030   21.9400   14.0180 C   0  0  0  0  0  0
   25.5120   20.8730   14.1240 H   0  0  0  0  0  0
   25.5600   24.4500   11.4070 F   0  0  0  0  0  0
   26.4800   26.1290   13.4440 C   0  0  0  0  0  0
   25.3730   26.8200   13.0350 F   0  0  0  0  0  0
   27.4310   26.3620   12.4890 F   0  0  0  0  0  0
   26.9230   26.7930   14.5570 F   0  0  0  0  0  0
  1  2  2  0  0  0
  1  9  1  0  0  0
  1 29  1  0  0  0
  2  3  1  0  0  0
  2 12  1  0  0  0
  3  4  1  0  0  0
  3  5  1  0  0  0
  3  6  1  0  0  0
  6  7  1  0  0  0
  6  8  1  0  0  0
  6  9  1  0  0  0
  9 10  1  0  0  0
  9 11  1  0  0  0
 12 13  1  0  0  0
 12 20  2  0  0  0
 13 14  1  0  0  0
 13 15  2  0  0  0
 15 16  1  0  0  0
 15 17  1  0  0  0
 17 18  2  0  0  0
 17 22  1  0  0  0
 18 19  1  0  0  0
 18 20  1  0  0  0
 20 21  1  0  0  0
 22 23  2  0  0  0
 22 24  2  0  0  0
 22 25  1  0  0  0
 25 26  1  0  0  0
 25 27  1  0  0  0
 25 28  1  0  0  0
 29 30  1  0  0  0
 29 36  2  0  0  0
 30 31  1  0  0  0
 30 32  2  0  0  0
 32 33  1  0  0  0
 32 39  1  0  0  0
 33 34  2  0  0  0
 33 38  1  0  0  0
 34 35  1  0  0  0
 34 36  1  0  0  0
 36 37  1  0  0  0
 39 40  1  0  0  0
 39 41  1  0  0  0
 39 42  1  0  0  0
M  END
>  <ACTIVITY>
4

>  <SET>
3

>  <Min_dist>
0.09

>  <Avg_dist>
0.57

$$$$
6-7i
  Cerius2 12110214053D 1   1.00000                          
Structure written by Cerius2 SD Exporter
 43 45  0  0  0  0  0  0  0  0999 V2000
   26.3830   22.0710   16.4160 C   0  0  0  0  0  0
   25.4950   21.4970   17.2530 C   0  0  0  0  0  0
   26.1780   20.9450   18.4750 C   0  0  0  0  0  0
   25.8660   19.9290   18.7320 H   0  0  0  0  0  0
   25.9960   21.5990   19.3350 H   0  0  0  0  0  0
   27.6510   20.9610   18.0760 C   0  0  0  0  0  0
   27.9330   19.9830   17.6640 H   0  0  0  0  0  0
   28.3080   21.1570   18.9290 H   0  0  0  0  0  0
   27.7710   22.0290   16.9960 C   0  0  0  0  0  0
   28.0380   22.9980   17.4320 H   0  0  0  0  0  0
   28.5290   21.7480   16.2580 H   0  0  0  0  0  0
   24.0380   21.3850   17.1150 C   0  0  0  0  0  0
   23.3300   22.2620   16.2790 C   0  0  0  0  0  0
   23.8550   23.0330   15.7170 H   0  0  0  0  0  0
   21.9410   22.1690   16.1560 C   0  0  0  0  0  0
   21.4150   22.8580   15.4980 H   0  0  0  0  0  0
   21.2480   21.2020   16.8860 C   0  0  0  0  0  0
   21.9340   20.3190   17.7220 C   0  0  0  0  0  0
   21.4050   19.5560   18.2880 H   0  0  0  0  0  0
   23.3250   20.4180   17.8380 C   0  0  0  0  0  0
   23.8450   19.7180   18.4910 H   0  0  0  0  0  0
   19.4820   21.0710   16.7180 S   0  0  0  0  0  0
   18.9470   22.4160   16.5260 O   0  0  0  0  0  0
   18.9840   20.2800   17.8390 O   0  0  0  0  0  0
   19.2690   20.1490   15.2190 C   0  0  0  0  0  0
   18.1980   20.0310   15.0430 H   0  0  0  0  0  0
   19.7360   19.1690   15.3340 H   0  0  0  0  0  0
   19.7230   20.7020   14.3940 H   0  0  0  0  0  0
   26.1550   22.7010   15.1090 C   0  0  0  0  0  0
   26.4180   24.0610   14.9200 C   0  0  0  0  0  0
   26.7690   24.6840   15.7390 H   0  0  0  0  0  0
   26.2170   24.6580   13.6740 C   0  0  0  0  0  0
   25.7600   23.9170   12.5820 C   0  0  0  0  0  0
   25.5100   22.5550   12.7650 C   0  0  0  0  0  0
   25.1600   21.9480   11.9320 H   0  0  0  0  0  0
   25.7090   21.9520   14.0130 C   0  0  0  0  0  0
   25.5170   20.8840   14.1120 H   0  0  0  0  0  0
   25.5210   24.3670   11.3120 O   0  0  0  0  0  0
   25.7430   25.7520   11.0600 C   0  0  0  0  0  0
   25.4970   25.9400   10.0100 H   0  0  0  0  0  0
   26.7950   26.0150   11.2060 H   0  0  0  0  0  0
   25.0820   26.3740   11.6720 H   0  0  0  0  0  0
   26.4820   25.9690   13.5670 F   0  0  0  0  0  0
  1  2  2  0  0  0
  1  9  1  0  0  0
  1 29  1  0  0  0
  2  3  1  0  0  0
  2 12  1  0  0  0
  3  4  1  0  0  0
  3  5  1  0  0  0
  3  6  1  0  0  0
  6  7  1  0  0  0
  6  8  1  0  0  0
  6  9  1  0  0  0
  9 10  1  0  0  0
  9 11  1  0  0  0
 12 13  1  0  0  0
 12 20  2  0  0  0
 13 14  1  0  0  0
 13 15  2  0  0  0
 15 16  1  0  0  0
 15 17  1  0  0  0
 17 18  2  0  0  0
 17 22  1  0  0  0
 18 19  1  0  0  0
 18 20  1  0  0  0
 20 21  1  0  0  0
 22 23  2  0  0  0
 22 24  2  0  0  0
 22 25  1  0  0  0
 25 26  1  0  0  0
 25 27  1  0  0  0
 25 28  1  0  0  0
 29 30  1  0  0  0
 29 36  2  0  0  0
 30 31  1  0  0  0
 30 32  2  0  0  0
 32 33  1  0  0  0
 32 43  1  0  0  0
 33 34  2  0  0  0
 33 38  1  0  0  0
 34 35  1  0  0  0
 34 36  1  0  0  0
 36 37  1  0  0  0
 38 39  1  0  0  0
 39 40  1  0  0  0
 39 41  1  0  0  0
 39 42  1  0  0  0
M  END
>  <ACTIVITY>
6.92

>  <SET>
1

>  <Min_dist>
999.9

>  <Avg_dist>
999.9

$$$$
6-7l
  Cerius2 12110214053D 1   1.00000                          
Structure written by Cerius2 SD Exporter
 42 45  0  0  0  0  0  0  0  0999 V2000
   26.3840   22.0750   16.4170 C   0  0  0  0  0  0
   25.4980   21.4980   17.2520 C   0  0  0  0  0  0
   26.1820   20.9410   18.4710 C   0  0  0  0  0  0
   25.8710   19.9240   18.7230 H   0  0  0  0  0  0
   26.0000   21.5900   19.3350 H   0  0  0  0  0  0
   27.6540   20.9600   18.0720 C   0  0  0  0  0  0
   27.9380   19.9830   17.6570 H   0  0  0  0  0  0
   28.3130   21.1540   18.9240 H   0  0  0  0  0  0
   27.7730   22.0310   16.9940 C   0  0  0  0  0  0
   28.0410   22.9990   17.4330 H   0  0  0  0  0  0
   28.5300   21.7520   16.2540 H   0  0  0  0  0  0
   24.0410   21.3890   17.1150 C   0  0  0  0  0  0
   23.3340   22.2650   16.2780 C   0  0  0  0  0  0
   23.8600   23.0350   15.7160 H   0  0  0  0  0  0
   21.9440   22.1730   16.1540 C   0  0  0  0  0  0
   21.4200   22.8610   15.4940 H   0  0  0  0  0  0
   21.2500   21.2050   16.8820 C   0  0  0  0  0  0
   21.9360   20.3230   17.7190 C   0  0  0  0  0  0
   21.4050   19.5600   18.2850 H   0  0  0  0  0  0
   23.3260   20.4220   17.8380 C   0  0  0  0  0  0
   23.8450   19.7220   18.4910 H   0  0  0  0  0  0
   19.4850   21.0720   16.7110 S   0  0  0  0  0  0
   18.9490   22.4160   16.5170 O   0  0  0  0  0  0
   18.9850   20.2810   17.8310 O   0  0  0  0  0  0
   19.2760   20.1480   15.2130 C   0  0  0  0  0  0
   18.2050   20.0260   15.0370 H   0  0  0  0  0  0
   19.7470   19.1710   15.3290 H   0  0  0  0  0  0
   19.7280   20.7020   14.3870 H   0  0  0  0  0  0
   26.1540   22.7110   15.1130 C   0  0  0  0  0  0
   26.4190   24.0780   14.9370 C   0  0  0  0  0  0
   26.7720   24.7000   15.7540 H   0  0  0  0  0  0
   26.2050   24.6330   13.6910 C   0  0  0  0  0  0
   25.7530   23.8850   12.6310 C   0  0  0  0  0  0
   25.4930   22.5390   12.7560 C   0  0  0  0  0  0
   25.1420   21.9500   11.9150 H   0  0  0  0  0  0
   25.7010   21.9510   14.0090 C   0  0  0  0  0  0
   25.5140   20.8830   14.1190 H   0  0  0  0  0  0
   25.6100   24.6210   11.4970 O   0  0  0  0  0  0
   26.0210   25.9280   11.9630 C   0  0  0  0  0  0
   26.8750   26.2620   11.3630 H   0  0  0  0  0  0
   25.1900   26.6290   11.8220 H   0  0  0  0  0  0
   26.4030   25.9370   13.3590 O   0  0  0  0  0  0
  1  2  2  0  0  0
  1  9  1  0  0  0
  1 29  1  0  0  0
  2  3  1  0  0  0
  2 12  1  0  0  0
  3  4  1  0  0  0
  3  5  1  0  0  0
  3  6  1  0  0  0
  6  7  1  0  0  0
  6  8  1  0  0  0
  6  9  1  0  0  0
  9 10  1  0  0  0
  9 11  1  0  0  0
 12 13  1  0  0  0
 12 20  2  0  0  0
 13 14  1  0  0  0
 13 15  2  0  0  0
 15 16  1  0  0  0
 15 17  1  0  0  0
 17 18  2  0  0  0
 17 22  1  0  0  0
 18 19  1  0  0  0
 18 20  1  0  0  0
 20 21  1  0  0  0
 22 23  2  0  0  0
 22 24  2  0  0  0
 22 25  1  0  0  0
 25 26  1  0  0  0
 25 27  1  0  0  0
 25 28  1  0  0  0
 29 30  1  0  0  0
 29 36  2  0  0  0
 30 31  1  0  0  0
 30 32  2  0  0  0
 32 33  1  0  0  0
 32 42  1  0  0  0
 33 34  2  0  0  0
 33 38  1  0  0  0
 34 35  1  0  0  0
 34 36  1  0  0  0
 36 37  1  0  0  0
 38 39  1  0  0  0
 39 40  1  0  0  0
 39 41  1  0  0  0
 39 42  1  0  0  0
M  END
>  <ACTIVITY>
7.68

>  <SET>
1

>  <Min_dist>
999.9

>  <Avg_dist>
999.9

$$$$
6-7m
  Cerius2 12110214053D 1   1.00000                          
Structure written by Cerius2 SD Exporter
 47 49  0  0  0  0  0  0  0  0999 V2000
   26.3820   22.0710   16.4160 C   0  0  0  0  0  0
   25.4940   21.4970   17.2530 C   0  0  0  0  0  0
   26.1780   20.9430   18.4740 C   0  0  0  0  0  0
   25.8660   19.9260   18.7300 H   0  0  0  0  0  0
   25.9970   21.5950   19.3360 H   0  0  0  0  0  0
   27.6500   20.9580   18.0750 C   0  0  0  0  0  0
   27.9320   19.9800   17.6620 H   0  0  0  0  0  0
   28.3080   21.1540   18.9270 H   0  0  0  0  0  0
   27.7700   22.0270   16.9950 C   0  0  0  0  0  0
   28.0380   22.9950   17.4320 H   0  0  0  0  0  0
   28.5280   21.7450   16.2560 H   0  0  0  0  0  0
   24.0380   21.3860   17.1170 C   0  0  0  0  0  0
   23.3290   22.2620   16.2810 C   0  0  0  0  0  0
   23.8550   23.0330   15.7180 H   0  0  0  0  0  0
   21.9400   22.1690   16.1580 C   0  0  0  0  0  0
   21.4140   22.8570   15.4990 H   0  0  0  0  0  0
   21.2470   21.2020   16.8880 C   0  0  0  0  0  0
   21.9340   20.3200   17.7240 C   0  0  0  0  0  0
   21.4040   19.5560   18.2900 H   0  0  0  0  0  0
   23.3240   20.4200   17.8410 C   0  0  0  0  0  0
   23.8440   19.7200   18.4940 H   0  0  0  0  0  0
   19.4820   21.0690   16.7170 S   0  0  0  0  0  0
   18.9440   22.4120   16.5270 O   0  0  0  0  0  0
   18.9830   20.2730   17.8350 O   0  0  0  0  0  0
   19.2720   20.1490   15.2160 C   0  0  0  0  0  0
   18.2010   20.0260   15.0410 H   0  0  0  0  0  0
   19.7450   19.1720   15.3270 H   0  0  0  0  0  0
   19.7210   20.7070   14.3920 H   0  0  0  0  0  0
   26.1540   22.7010   15.1100 C   0  0  0  0  0  0
   26.4180   24.0610   14.9190 C   0  0  0  0  0  0
   26.7760   24.6690   15.7480 H   0  0  0  0  0  0
   26.2200   24.6620   13.6680 C   0  0  0  0  0  0
   25.7570   23.9210   12.5580 C   0  0  0  0  0  0
   25.5150   22.5540   12.7620 C   0  0  0  0  0  0
   25.1480   21.9280   11.9510 H   0  0  0  0  0  0
   25.7120   21.9530   14.0140 C   0  0  0  0  0  0
   25.5180   20.8870   14.1130 H   0  0  0  0  0  0
   25.5320   24.5140   11.3090 N   0  0  0  0  0  0
   26.6850   24.7970   10.4550 C   0  0  0  0  0  0
   26.4020   25.5080    9.6700 H   0  0  0  0  0  0
   27.0560   23.8890    9.9690 H   0  0  0  0  0  0
   27.4980   25.2560   11.0290 H   0  0  0  0  0  0
   24.3140   24.0730   10.6230 C   0  0  0  0  0  0
   24.1010   24.7310    9.7740 H   0  0  0  0  0  0
   23.4370   24.0930   11.2780 H   0  0  0  0  0  0
   24.4370   23.0530   10.2420 H   0  0  0  0  0  0
   26.6260   26.3430   13.5270 Cl  0  0  0  0  0  0
  1  2  2  0  0  0
  1  9  1  0  0  0
  1 29  1  0  0  0
  2  3  1  0  0  0
  2 12  1  0  0  0
  3  4  1  0  0  0
  3  5  1  0  0  0
  3  6  1  0  0  0
  6  7  1  0  0  0
  6  8  1  0  0  0
  6  9  1  0  0  0
  9 10  1  0  0  0
  9 11  1  0  0  0
 12 13  1  0  0  0
 12 20  2  0  0  0
 13 14  1  0  0  0
 13 15  2  0  0  0
 15 16  1  0  0  0
 15 17  1  0  0  0
 17 18  2  0  0  0
 17 22  1  0  0  0
 18 19  1  0  0  0
 18 20  1  0  0  0
 20 21  1  0  0  0
 22 23  2  0  0  0
 22 24  2  0  0  0
 22 25  1  0  0  0
 25 26  1  0  0  0
 25 27  1  0  0  0
 25 28  1  0  0  0
 29 30  1  0  0  0
 29 36  2  0  0  0
 30 31  1  0  0  0
 30 32  2  0  0  0
 32 33  1  0  0  0
 32 47  1  0  0  0
 33 34  2  0  0  0
 33 38  1  0  0  0
 34 35  1  0  0  0
 34 36  1  0  0  0
 36 37  1  0  0  0
 38 39  1  0  0  0
 38 43  1  0  0  0
 39 40  1  0  0  0
 39 41  1  0  0  0
 39 42  1  0  0  0
 43 44  1  0  0  0
 43 45  1  0  0  0
 43 46  1  0  0  0
M  END
>  <ACTIVITY>
8.3

>  <SET>
2

>  <Min_dist>
0.14

>  <Avg_dist>
0.57

$$$$
6-7p
  Cerius2 12110214053D 1   1.00000                          
Structure written by Cerius2 SD Exporter
 42 44  0  0  0  0  0  0  0  0999 V2000
   26.3820   22.0720   16.4160 C   0  0  0  0  0  0
   25.4940   21.4970   17.2520 C   0  0  0  0  0  0
   26.1770   20.9450   18.4740 C   0  0  0  0  0  0
   25.8650   19.9280   18.7300 H   0  0  0  0  0  0
   25.9930   21.5970   19.3350 H   0  0  0  0  0  0
   27.6490   20.9610   18.0770 C   0  0  0  0  0  0
   27.9330   19.9830   17.6660 H   0  0  0  0  0  0
   28.3060   21.1580   18.9300 H   0  0  0  0  0  0
   27.7700   22.0290   16.9960 C   0  0  0  0  0  0
   28.0380   22.9980   17.4330 H   0  0  0  0  0  0
   28.5290   21.7470   16.2590 H   0  0  0  0  0  0
   24.0380   21.3850   17.1140 C   0  0  0  0  0  0
   23.3290   22.2620   16.2780 C   0  0  0  0  0  0
   23.8550   23.0320   15.7150 H   0  0  0  0  0  0
   21.9390   22.1690   16.1560 C   0  0  0  0  0  0
   21.4140   22.8580   15.4990 H   0  0  0  0  0  0
   21.2470   21.2020   16.8870 C   0  0  0  0  0  0
   21.9340   20.3200   17.7220 C   0  0  0  0  0  0
   21.4050   19.5560   18.2880 H   0  0  0  0  0  0
   23.3250   20.4190   17.8380 C   0  0  0  0  0  0
   23.8450   19.7190   18.4900 H   0  0  0  0  0  0
   19.4810   21.0690   16.7220 S   0  0  0  0  0  0
   18.9440   22.4140   16.5410 O   0  0  0  0  0  0
   18.9860   20.2680   17.8370 O   0  0  0  0  0  0
   19.2670   20.1570   15.2160 C   0  0  0  0  0  0
   18.1960   20.0350   15.0440 H   0  0  0  0  0  0
   19.7410   19.1800   15.3210 H   0  0  0  0  0  0
   19.7130   20.7190   14.3930 H   0  0  0  0  0  0
   26.1560   22.7030   15.1090 C   0  0  0  0  0  0
   26.4190   24.0640   14.9230 C   0  0  0  0  0  0
   26.7690   24.6870   15.7420 H   0  0  0  0  0  0
   26.2200   24.6550   13.6750 C   0  0  0  0  0  0
   25.7670   23.9190   12.5840 C   0  0  0  0  0  0
   25.5150   22.5540   12.7610 C   0  0  0  0  0  0
   25.1670   21.9430   11.9280 H   0  0  0  0  0  0
   25.7110   21.9530   14.0100 C   0  0  0  0  0  0
   25.5210   20.8850   14.1100 H   0  0  0  0  0  0
   25.5720   24.6040   11.2670 C   0  0  0  0  0  0
   25.1090   23.7820   10.2760 F   0  0  0  0  0  0
   26.7230   25.1500   10.7690 F   0  0  0  0  0  0
   24.6740   25.6340   11.3240 F   0  0  0  0  0  0
   26.4750   25.9650   13.5370 F   0  0  0  0  0  0
  1  2  2  0  0  0
  1  9  1  0  0  0
  1 29  1  0  0  0
  2  3  1  0  0  0
  2 12  1  0  0  0
  3  4  1  0  0  0
  3  5  1  0  0  0
  3  6  1  0  0  0
  6  7  1  0  0  0
  6  8  1  0  0  0
  6  9  1  0  0  0
  9 10  1  0  0  0
  9 11  1  0  0  0
 12 13  1  0  0  0
 12 20  2  0  0  0
 13 14  1  0  0  0
 13 15  2  0  0  0
 15 16  1  0  0  0
 15 17  1  0  0  0
 17 18  2  0  0  0
 17 22  1  0  0  0
 18 19  1  0  0  0
 18 20  1  0  0  0
 20 21  1  0  0  0
 22 23  2  0  0  0
 22 24  2  0  0  0
 22 25  1  0  0  0
 25 26  1  0  0  0
 25 27  1  0  0  0
 25 28  1  0  0  0
 29 30  1  0  0  0
 29 36  2  0  0  0
 30 31  1  0  0  0
 30 32  2  0  0  0
 32 33  1  0  0  0
 32 42  1  0  0  0
 33 34  2  0  0  0
 33 38  1  0  0  0
 34 35  1  0  0  0
 34 36  1  0  0  0
 36 37  1  0  0  0
 38 39  1  0  0  0
 38 40  1  0  0  0
 38 41  1  0  0  0
M  END
>  <ACTIVITY>
6.12

>  <SET>
1

>  <Min_dist>
999.9

>  <Avg_dist>
999.9

$$$$
6-8a
  Cerius2 12110214053D 1   1.00000                          
Structure written by Cerius2 SD Exporter
 38 40  0  0  0  0  0  0  0  0999 V2000
   26.3820   22.0700   16.4150 C   0  0  0  0  0  0
   25.4950   21.4960   17.2530 C   0  0  0  0  0  0
   26.1790   20.9460   18.4750 C   0  0  0  0  0  0
   25.8690   19.9290   18.7330 H   0  0  0  0  0  0
   25.9950   21.5990   19.3360 H   0  0  0  0  0  0
   27.6520   20.9650   18.0780 C   0  0  0  0  0  0
   27.9380   19.9860   17.6700 H   0  0  0  0  0  0
   28.3080   21.1660   18.9300 H   0  0  0  0  0  0
   27.7700   22.0300   16.9940 C   0  0  0  0  0  0
   28.0370   23.0000   17.4270 H   0  0  0  0  0  0
   28.5280   21.7460   16.2560 H   0  0  0  0  0  0
   24.0380   21.3850   17.1180 C   0  0  0  0  0  0
   23.3300   22.2620   16.2820 C   0  0  0  0  0  0
   23.8550   23.0330   15.7190 H   0  0  0  0  0  0
   21.9400   22.1700   16.1610 C   0  0  0  0  0  0
   21.4100   22.8580   15.5060 H   0  0  0  0  0  0
   21.2460   21.2020   16.8900 C   0  0  0  0  0  0
   21.9340   20.3210   17.7270 C   0  0  0  0  0  0
   21.4030   19.5590   18.2940 H   0  0  0  0  0  0
   23.3250   20.4190   17.8420 C   0  0  0  0  0  0
   23.8440   19.7200   18.4950 H   0  0  0  0  0  0
   19.4880   21.0710   16.7100 S   0  0  0  0  0  0
   18.9330   22.3800   16.4140 O   0  0  0  0  0  0
   18.9580   20.2750   17.8030 O   0  0  0  0  0  0
   19.3440   20.1560   15.3130 N   0  0  0  0  0  0
   18.8670   20.6820   14.5760 H   0  0  0  0  0  0
   18.8740   19.2670   15.5010 H   0  0  0  0  0  0
   26.1530   22.6990   15.1080 C   0  0  0  0  0  0
   26.4180   24.0640   14.9210 C   0  0  0  0  0  0
   26.7700   24.6810   15.7470 H   0  0  0  0  0  0
   26.2190   24.6660   13.6750 C   0  0  0  0  0  0
   26.4180   25.7250   13.5370 H   0  0  0  0  0  0
   25.7630   23.9010   12.6100 C   0  0  0  0  0  0
   25.5060   22.5460   12.7650 C   0  0  0  0  0  0
   25.1570   21.9590   11.9210 H   0  0  0  0  0  0
   25.7050   21.9450   14.0110 C   0  0  0  0  0  0
   25.5140   20.8780   14.1130 H   0  0  0  0  0  0
   25.5740   24.4770   11.4150 F   0  0  0  0  0  0
  1  2  2  0  0  0
  1  9  1  0  0  0
  1 28  1  0  0  0
  2  3  1  0  0  0
  2 12  1  0  0  0
  3  4  1  0  0  0
  3  5  1  0  0  0
  3  6  1  0  0  0
  6  7  1  0  0  0
  6  8  1  0  0  0
  6  9  1  0  0  0
  9 10  1  0  0  0
  9 11  1  0  0  0
 12 13  1  0  0  0
 12 20  2  0  0  0
 13 14  1  0  0  0
 13 15  2  0  0  0
 15 16  1  0  0  0
 15 17  1  0  0  0
 17 18  2  0  0  0
 17 22  1  0  0  0
 18 19  1  0  0  0
 18 20  1  0  0  0
 20 21  1  0  0  0
 22 23  2  0  0  0
 22 24  2  0  0  0
 22 25  1  0  0  0
 25 26  1  0  0  0
 25 27  1  0  0  0
 28 29  1  0  0  0
 28 36  2  0  0  0
 29 30  1  0  0  0
 29 31  2  0  0  0
 31 32  1  0  0  0
 31 33  1  0  0  0
 33 34  2  0  0  0
 33 38  1  0  0  0
 34 35  1  0  0  0
 34 36  1  0  0  0
 36 37  1  0  0  0
M  END
>  <ACTIVITY>
8.15

>  <SET>
1

>  <Min_dist>
999.9

>  <Avg_dist>
999.9

$$$$
6-8b
  Cerius2 12110214053D 1   1.00000                          
Structure written by Cerius2 SD Exporter
 38 40  0  0  0  0  0  0  0  0999 V2000
   26.3840   22.0700   16.4160 C   0  0  0  0  0  0
   25.4970   21.4970   17.2540 C   0  0  0  0  0  0
   26.1810   20.9450   18.4750 C   0  0  0  0  0  0
   25.8690   19.9280   18.7320 H   0  0  0  0  0  0
   25.9980   21.5980   19.3370 H   0  0  0  0  0  0
   27.6530   20.9620   18.0770 C   0  0  0  0  0  0
   27.9370   19.9830   17.6670 H   0  0  0  0  0  0
   28.3110   21.1610   18.9280 H   0  0  0  0  0  0
   27.7720   22.0280   16.9930 C   0  0  0  0  0  0
   28.0410   22.9970   17.4270 H   0  0  0  0  0  0
   28.5290   21.7440   16.2550 H   0  0  0  0  0  0
   24.0400   21.3880   17.1180 C   0  0  0  0  0  0
   23.3330   22.2650   16.2810 C   0  0  0  0  0  0
   23.8580   23.0360   15.7190 H   0  0  0  0  0  0
   21.9430   22.1720   16.1580 C   0  0  0  0  0  0
   21.4140   22.8600   15.5020 H   0  0  0  0  0  0
   21.2490   21.2030   16.8860 C   0  0  0  0  0  0
   21.9360   20.3230   17.7240 C   0  0  0  0  0  0
   21.4050   19.5610   18.2910 H   0  0  0  0  0  0
   23.3260   20.4220   17.8410 C   0  0  0  0  0  0
   23.8460   19.7220   18.4950 H   0  0  0  0  0  0
   19.4910   21.0730   16.7040 S   0  0  0  0  0  0
   18.9360   22.3820   16.4090 O   0  0  0  0  0  0
   18.9610   20.2770   17.7970 O   0  0  0  0  0  0
   19.3490   20.1590   15.3070 N   0  0  0  0  0  0
   18.8730   20.6850   14.5700 H   0  0  0  0  0  0
   18.8780   19.2700   15.4950 H   0  0  0  0  0  0
   26.1520   22.7010   15.1100 C   0  0  0  0  0  0
   26.4170   24.0660   14.9250 C   0  0  0  0  0  0
   26.7720   24.6870   15.7420 H   0  0  0  0  0  0
   26.2080   24.6540   13.6810 C   0  0  0  0  0  0
   25.7470   23.9010   12.6100 C   0  0  0  0  0  0
   25.4920   22.5460   12.7660 C   0  0  0  0  0  0
   25.1380   21.9570   11.9250 H   0  0  0  0  0  0
   25.6980   21.9470   14.0130 C   0  0  0  0  0  0
   25.5080   20.8800   14.1170 H   0  0  0  0  0  0
   25.5520   24.4790   11.4160 F   0  0  0  0  0  0
   26.4570   25.9630   13.5210 F   0  0  0  0  0  0
  1  2  2  0  0  0
  1  9  1  0  0  0
  1 28  1  0  0  0
  2  3  1  0  0  0
  2 12  1  0  0  0
  3  4  1  0  0  0
  3  5  1  0  0  0
  3  6  1  0  0  0
  6  7  1  0  0  0
  6  8  1  0  0  0
  6  9  1  0  0  0
  9 10  1  0  0  0
  9 11  1  0  0  0
 12 13  1  0  0  0
 12 20  2  0  0  0
 13 14  1  0  0  0
 13 15  2  0  0  0
 15 16  1  0  0  0
 15 17  1  0  0  0
 17 18  2  0  0  0
 17 22  1  0  0  0
 18 19  1  0  0  0
 18 20  1  0  0  0
 20 21  1  0  0  0
 22 23  2  0  0  0
 22 24  2  0  0  0
 22 25  1  0  0  0
 25 26  1  0  0  0
 25 27  1  0  0  0
 28 29  1  0  0  0
 28 35  2  0  0  0
 29 30  1  0  0  0
 29 31  2  0  0  0
 31 32  1  0  0  0
 31 38  1  0  0  0
 32 33  2  0  0  0
 32 37  1  0  0  0
 33 34  1  0  0  0
 33 35  1  0  0  0
 35 36  1  0  0  0
M  END
>  <ACTIVITY>
7.74

>  <SET>
1

>  <Min_dist>
999.9

>  <Avg_dist>
999.9

$$$$
6-8h
  Cerius2 12110214053D 1   1.00000                          
Structure written by Cerius2 SD Exporter
 42 44  0  0  0  0  0  0  0  0999 V2000
   26.3810   22.0710   16.4160 C   0  0  0  0  0  0
   25.4940   21.4950   17.2530 C   0  0  0  0  0  0
   26.1800   20.9420   18.4740 C   0  0  0  0  0  0
   25.8680   19.9260   18.7300 H   0  0  0  0  0  0
   25.9980   21.5940   19.3360 H   0  0  0  0  0  0
   27.6510   20.9590   18.0730 C   0  0  0  0  0  0
   27.9330   19.9820   17.6590 H   0  0  0  0  0  0
   28.3100   21.1540   18.9250 H   0  0  0  0  0  0
   27.7690   22.0290   16.9940 C   0  0  0  0  0  0
   28.0360   22.9980   17.4310 H   0  0  0  0  0  0
   28.5270   21.7500   16.2560 H   0  0  0  0  0  0
   24.0370   21.3850   17.1190 C   0  0  0  0  0  0
   23.3290   22.2620   16.2830 C   0  0  0  0  0  0
   23.8550   23.0320   15.7200 H   0  0  0  0  0  0
   21.9390   22.1700   16.1620 C   0  0  0  0  0  0
   21.4100   22.8580   15.5070 H   0  0  0  0  0  0
   21.2450   21.2010   16.8910 C   0  0  0  0  0  0
   21.9330   20.3210   17.7290 C   0  0  0  0  0  0
   21.4030   19.5580   18.2950 H   0  0  0  0  0  0
   23.3240   20.4190   17.8440 C   0  0  0  0  0  0
   23.8440   19.7200   18.4970 H   0  0  0  0  0  0
   19.4880   21.0710   16.7090 S   0  0  0  0  0  0
   18.9330   22.3800   16.4130 O   0  0  0  0  0  0
   18.9580   20.2750   17.8020 O   0  0  0  0  0  0
   19.3450   20.1570   15.3120 N   0  0  0  0  0  0
   18.8660   20.6820   14.5760 H   0  0  0  0  0  0
   18.8760   19.2670   15.5000 H   0  0  0  0  0  0
   26.1530   22.7010   15.1090 C   0  0  0  0  0  0
   26.4160   24.0620   14.9200 C   0  0  0  0  0  0
   26.7650   24.6820   15.7440 H   0  0  0  0  0  0
   26.2190   24.6600   13.6700 C   0  0  0  0  0  0
   26.4230   25.7230   13.5510 H   0  0  0  0  0  0
   25.7650   23.9100   12.5840 C   0  0  0  0  0  0
   25.5120   22.5510   12.7590 C   0  0  0  0  0  0
   25.1640   21.9200   11.9460 H   0  0  0  0  0  0
   25.7100   21.9530   14.0110 C   0  0  0  0  0  0
   25.5200   20.8850   14.1110 H   0  0  0  0  0  0
   25.6150   24.6130   11.4210 O   0  0  0  0  0  0
   25.9320   26.0040   11.4680 C   0  0  0  0  0  0
   25.7650   26.4160   10.4690 H   0  0  0  0  0  0
   26.9860   26.1580   11.7220 H   0  0  0  0  0  0
   25.2730   26.5340   12.1630 H   0  0  0  0  0  0
  1  2  2  0  0  0
  1  9  1  0  0  0
  1 28  1  0  0  0
  2  3  1  0  0  0
  2 12  1  0  0  0
  3  4  1  0  0  0
  3  5  1  0  0  0
  3  6  1  0  0  0
  6  7  1  0  0  0
  6  8  1  0  0  0
  6  9  1  0  0  0
  9 10  1  0  0  0
  9 11  1  0  0  0
 12 13  1  0  0  0
 12 20  2  0  0  0
 13 14  1  0  0  0
 13 15  2  0  0  0
 15 16  1  0  0  0
 15 17  1  0  0  0
 17 18  2  0  0  0
 17 22  1  0  0  0
 18 19  1  0  0  0
 18 20  1  0  0  0
 20 21  1  0  0  0
 22 23  2  0  0  0
 22 24  2  0  0  0
 22 25  1  0  0  0
 25 26  1  0  0  0
 25 27  1  0  0  0
 28 29  1  0  0  0
 28 36  2  0  0  0
 29 30  1  0  0  0
 29 31  2  0  0  0
 31 32  1  0  0  0
 31 33  1  0  0  0
 33 34  2  0  0  0
 33 38  1  0  0  0
 34 35  1  0  0  0
 34 36  1  0  0  0
 36 37  1  0  0  0
 38 39  1  0  0  0
 39 40  1  0  0  0
 39 41  1  0  0  0
 39 42  1  0  0  0
M  END
>  <ACTIVITY>
8.7

>  <SET>
2

>  <Min_dist>
0.08

>  <Avg_dist>
0.63

$$$$
6-8i
  Cerius2 12110214053D 1   1.00000                          
Structure written by Cerius2 SD Exporter
 42 44  0  0  0  0  0  0  0  0999 V2000
   26.3830   22.0710   16.4160 C   0  0  0  0  0  0
   25.4950   21.4970   17.2530 C   0  0  0  0  0  0
   26.1770   20.9420   18.4730 C   0  0  0  0  0  0
   25.8650   19.9250   18.7270 H   0  0  0  0  0  0
   25.9940   21.5920   19.3360 H   0  0  0  0  0  0
   27.6500   20.9580   18.0760 C   0  0  0  0  0  0
   27.9340   19.9810   17.6640 H   0  0  0  0  0  0
   28.3070   21.1550   18.9290 H   0  0  0  0  0  0
   27.7700   22.0270   16.9960 C   0  0  0  0  0  0
   28.0380   22.9960   17.4330 H   0  0  0  0  0  0
   28.5290   21.7460   16.2580 H   0  0  0  0  0  0
   24.0380   21.3880   17.1160 C   0  0  0  0  0  0
   23.3320   22.2650   16.2780 C   0  0  0  0  0  0
   23.8590   23.0340   15.7150 H   0  0  0  0  0  0
   21.9420   22.1750   16.1550 C   0  0  0  0  0  0
   21.4180   22.8650   15.4980 H   0  0  0  0  0  0
   21.2460   21.2090   16.8840 C   0  0  0  0  0  0
   21.9330   20.3270   17.7220 C   0  0  0  0  0  0
   21.3970   19.5680   18.2880 H   0  0  0  0  0  0
   23.3230   20.4230   17.8400 C   0  0  0  0  0  0
   23.8420   19.7240   18.4940 H   0  0  0  0  0  0
   19.4890   21.0620   16.7170 S   0  0  0  0  0  0
   18.9290   22.3720   16.4310 O   0  0  0  0  0  0
   18.9640   20.2590   17.8080 O   0  0  0  0  0  0
   19.3430   20.1440   15.3240 N   0  0  0  0  0  0
   18.8530   20.6620   14.5900 H   0  0  0  0  0  0
   18.8860   19.2490   15.5190 H   0  0  0  0  0  0
   26.1540   22.7030   15.1100 C   0  0  0  0  0  0
   26.4180   24.0630   14.9240 C   0  0  0  0  0  0
   26.7690   24.6880   15.7410 H   0  0  0  0  0  0
   26.2140   24.6510   13.6770 C   0  0  0  0  0  0
   25.7570   23.9120   12.5820 C   0  0  0  0  0  0
   25.5060   22.5520   12.7580 C   0  0  0  0  0  0
   25.1560   21.9190   11.9470 H   0  0  0  0  0  0
   25.7080   21.9550   14.0110 C   0  0  0  0  0  0
   25.5180   20.8870   14.1120 H   0  0  0  0  0  0
   25.6000   24.6100   11.4150 O   0  0  0  0  0  0
   25.9150   26.0010   11.4520 C   0  0  0  0  0  0
   25.7430   26.4070   10.4510 H   0  0  0  0  0  0
   26.9690   26.1600   11.7010 H   0  0  0  0  0  0
   25.2570   26.5350   12.1460 H   0  0  0  0  0  0
   26.4690   25.9620   13.5370 F   0  0  0  0  0  0
  1  2  2  0  0  0
  1  9  1  0  0  0
  1 28  1  0  0  0
  2  3  1  0  0  0
  2 12  1  0  0  0
  3  4  1  0  0  0
  3  5  1  0  0  0
  3  6  1  0  0  0
  6  7  1  0  0  0
  6  8  1  0  0  0
  6  9  1  0  0  0
  9 10  1  0  0  0
  9 11  1  0  0  0
 12 13  1  0  0  0
 12 20  2  0  0  0
 13 14  1  0  0  0
 13 15  2  0  0  0
 15 16  1  0  0  0
 15 17  1  0  0  0
 17 18  2  0  0  0
 17 22  1  0  0  0
 18 19  1  0  0  0
 18 20  1  0  0  0
 20 21  1  0  0  0
 22 23  2  0  0  0
 22 24  2  0  0  0
 22 25  1  0  0  0
 25 26  1  0  0  0
 25 27  1  0  0  0
 28 29  1  0  0  0
 28 35  2  0  0  0
 29 30  1  0  0  0
 29 31  2  0  0  0
 31 32  1  0  0  0
 31 42  1  0  0  0
 32 33  2  0  0  0
 32 37  1  0  0  0
 33 34  1  0  0  0
 33 35  1  0  0  0
 35 36  1  0  0  0
 37 38  1  0  0  0
 38 39  1  0  0  0
 38 40  1  0  0  0
 38 41  1  0  0  0
M  END
>  <ACTIVITY>
7.8

>  <SET>
1

>  <Min_dist>
999.9

>  <Avg_dist>
999.9

$$$$
6-8l
  Cerius2 12110214053D 1   1.00000                          
Structure written by Cerius2 SD Exporter
 41 44  0  0  0  0  0  0  0  0999 V2000
   26.3840   22.0750   16.4160 C   0  0  0  0  0  0
   25.4970   21.4970   17.2510 C   0  0  0  0  0  0
   26.1820   20.9410   18.4700 C   0  0  0  0  0  0
   25.8730   19.9230   18.7220 H   0  0  0  0  0  0
   25.9980   21.5890   19.3350 H   0  0  0  0  0  0
   27.6540   20.9620   18.0730 C   0  0  0  0  0  0
   27.9400   19.9860   17.6580 H   0  0  0  0  0  0
   28.3110   21.1590   18.9260 H   0  0  0  0  0  0
   27.7720   22.0340   16.9950 C   0  0  0  0  0  0
   28.0380   23.0020   17.4330 H   0  0  0  0  0  0
   28.5300   21.7560   16.2560 H   0  0  0  0  0  0
   24.0400   21.3860   17.1150 C   0  0  0  0  0  0
   23.3320   22.2640   16.2790 C   0  0  0  0  0  0
   23.8580   23.0350   15.7160 H   0  0  0  0  0  0
   21.9420   22.1720   16.1580 C   0  0  0  0  0  0
   21.4140   22.8610   15.5030 H   0  0  0  0  0  0
   21.2470   21.2050   16.8870 C   0  0  0  0  0  0
   21.9350   20.3230   17.7230 C   0  0  0  0  0  0
   21.4040   19.5610   18.2900 H   0  0  0  0  0  0
   23.3260   20.4210   17.8380 C   0  0  0  0  0  0
   23.8450   19.7200   18.4910 H   0  0  0  0  0  0
   19.4900   21.0740   16.7080 S   0  0  0  0  0  0
   18.9340   22.3830   16.4140 O   0  0  0  0  0  0
   18.9600   20.2780   17.8010 O   0  0  0  0  0  0
   19.3450   20.1600   15.3120 N   0  0  0  0  0  0
   18.8680   20.6860   14.5750 H   0  0  0  0  0  0
   18.8760   19.2700   15.5000 H   0  0  0  0  0  0
   26.1540   22.7110   15.1120 C   0  0  0  0  0  0
   26.4190   24.0780   14.9370 C   0  0  0  0  0  0
   26.7700   24.7000   15.7550 H   0  0  0  0  0  0
   26.2060   24.6330   13.6910 C   0  0  0  0  0  0
   25.7550   23.8850   12.6300 C   0  0  0  0  0  0
   25.4950   22.5390   12.7550 C   0  0  0  0  0  0
   25.1460   21.9500   11.9130 H   0  0  0  0  0  0
   25.7020   21.9510   14.0080 C   0  0  0  0  0  0
   25.5150   20.8830   14.1180 H   0  0  0  0  0  0
   25.6140   24.6210   11.4960 O   0  0  0  0  0  0
   26.0260   25.9280   11.9620 C   0  0  0  0  0  0
   25.1960   26.6300   11.8180 H   0  0  0  0  0  0
   26.8820   26.2600   11.3640 H   0  0  0  0  0  0
   26.4050   25.9370   13.3590 O   0  0  0  0  0  0
  1  2  2  0  0  0
  1  9  1  0  0  0
  1 28  1  0  0  0
  2  3  1  0  0  0
  2 12  1  0  0  0
  3  4  1  0  0  0
  3  5  1  0  0  0
  3  6  1  0  0  0
  6  7  1  0  0  0
  6  8  1  0  0  0
  6  9  1  0  0  0
  9 10  1  0  0  0
  9 11  1  0  0  0
 12 13  1  0  0  0
 12 20  2  0  0  0
 13 14  1  0  0  0
 13 15  2  0  0  0
 15 16  1  0  0  0
 15 17  1  0  0  0
 17 18  2  0  0  0
 17 22  1  0  0  0
 18 19  1  0  0  0
 18 20  1  0  0  0
 20 21  1  0  0  0
 22 23  2  0  0  0
 22 24  2  0  0  0
 22 25  1  0  0  0
 25 26  1  0  0  0
 25 27  1  0  0  0
 28 29  1  0  0  0
 28 35  2  0  0  0
 29 30  1  0  0  0
 29 31  2  0  0  0
 31 32  1  0  0  0
 31 41  1  0  0  0
 32 33  2  0  0  0
 32 37  1  0  0  0
 33 34  1  0  0  0
 33 35  1  0  0  0
 35 36  1  0  0  0
 37 38  1  0  0  0
 38 39  1  0  0  0
 38 40  1  0  0  0
 38 41  1  0  0  0
M  END
>  <ACTIVITY>
8.7

>  <SET>
2

>  <Min_dist>
0.12

>  <Avg_dist>
0.69

$$$$
6-8m
  Cerius2 12110214053D 1   1.00000                          
Structure written by Cerius2 SD Exporter
 46 48  0  0  0  0  0  0  0  0999 V2000
   26.3820   22.0710   16.4160 C   0  0  0  0  0  0
   25.4950   21.4970   17.2540 C   0  0  0  0  0  0
   26.1800   20.9420   18.4740 C   0  0  0  0  0  0
   25.8660   19.9270   18.7310 H   0  0  0  0  0  0
   26.0020   21.5950   19.3360 H   0  0  0  0  0  0
   27.6510   20.9540   18.0720 C   0  0  0  0  0  0
   27.9290   19.9760   17.6560 H   0  0  0  0  0  0
   28.3120   21.1460   18.9220 H   0  0  0  0  0  0
   27.7710   22.0250   16.9930 C   0  0  0  0  0  0
   28.0400   22.9920   17.4320 H   0  0  0  0  0  0
   28.5280   21.7440   16.2540 H   0  0  0  0  0  0
   24.0370   21.3870   17.1190 C   0  0  0  0  0  0
   23.3290   22.2630   16.2820 C   0  0  0  0  0  0
   23.8530   23.0340   15.7190 H   0  0  0  0  0  0
   21.9390   22.1700   16.1610 C   0  0  0  0  0  0
   21.4090   22.8570   15.5050 H   0  0  0  0  0  0
   21.2450   21.2010   16.8900 C   0  0  0  0  0  0
   21.9330   20.3220   17.7270 C   0  0  0  0  0  0
   21.4040   19.5590   18.2940 H   0  0  0  0  0  0
   23.3240   20.4220   17.8430 C   0  0  0  0  0  0
   23.8440   19.7220   18.4970 H   0  0  0  0  0  0
   19.4880   21.0690   16.7090 S   0  0  0  0  0  0
   18.9310   22.3770   16.4130 O   0  0  0  0  0  0
   18.9580   20.2740   17.8030 O   0  0  0  0  0  0
   19.3450   20.1540   15.3130 N   0  0  0  0  0  0
   18.8690   20.6790   14.5750 H   0  0  0  0  0  0
   18.8750   19.2650   15.5010 H   0  0  0  0  0  0
   26.1530   22.7010   15.1100 C   0  0  0  0  0  0
   26.4180   24.0610   14.9190 C   0  0  0  0  0  0
   26.7770   24.6680   15.7470 H   0  0  0  0  0  0
   26.2170   24.6610   13.6680 C   0  0  0  0  0  0
   25.7520   23.9210   12.5590 C   0  0  0  0  0  0
   25.5090   22.5540   12.7640 C   0  0  0  0  0  0
   25.1400   21.9280   11.9540 H   0  0  0  0  0  0
   25.7090   21.9530   14.0150 C   0  0  0  0  0  0
   25.5150   20.8860   14.1150 H   0  0  0  0  0  0
   25.5220   24.5130   11.3110 N   0  0  0  0  0  0
   26.6730   24.7960   10.4540 C   0  0  0  0  0  0
   26.3880   25.5050    9.6680 H   0  0  0  0  0  0
   27.0440   23.8870    9.9690 H   0  0  0  0  0  0
   27.4860   25.2570   11.0260 H   0  0  0  0  0  0
   24.3030   24.0710   10.6290 C   0  0  0  0  0  0
   24.0890   24.7250    9.7770 H   0  0  0  0  0  0
   23.4270   24.0960   11.2850 H   0  0  0  0  0  0
   24.4240   23.0490   10.2530 H   0  0  0  0  0  0
   26.6210   26.3430   13.5250 Cl  0  0  0  0  0  0
  1  2  2  0  0  0
  1  9  1  0  0  0
  1 28  1  0  0  0
  2  3  1  0  0  0
  2 12  1  0  0  0
  3  4  1  0  0  0
  3  5  1  0  0  0
  3  6  1  0  0  0
  6  7  1  0  0  0
  6  8  1  0  0  0
  6  9  1  0  0  0
  9 10  1  0  0  0
  9 11  1  0  0  0
 12 13  1  0  0  0
 12 20  2  0  0  0
 13 14  1  0  0  0
 13 15  2  0  0  0
 15 16  1  0  0  0
 15 17  1  0  0  0
 17 18  2  0  0  0
 17 22  1  0  0  0
 18 19  1  0  0  0
 18 20  1  0  0  0
 20 21  1  0  0  0
 22 23  2  0  0  0
 22 24  2  0  0  0
 22 25  1  0  0  0
 25 26  1  0  0  0
 25 27  1  0  0  0
 28 29  1  0  0  0
 28 35  2  0  0  0
 29 30  1  0  0  0
 29 31  2  0  0  0
 31 32  1  0  0  0
 31 46  1  0  0  0
 32 33  2  0  0  0
 32 37  1  0  0  0
 33 34  1  0  0  0
 33 35  1  0  0  0
 35 36  1  0  0  0
 37 38  1  0  0  0
 37 42  1  0  0  0
 38 39  1  0  0  0
 38 40  1  0  0  0
 38 41  1  0  0  0
 42 43  1  0  0  0
 42 44  1  0  0  0
 42 45  1  0  0  0
M  END
>  <ACTIVITY>
8.7

>  <SET>
1

>  <Min_dist>
999.9

>  <Avg_dist>
999.9

$$$$
6-8o
  Cerius2 12110214053D 1   1.00000                          
Structure written by Cerius2 SD Exporter
 41 43  0  0  0  0  0  0  0  0999 V2000
   26.3810   22.0710   16.4150 C   0  0  0  0  0  0
   25.4930   21.4960   17.2520 C   0  0  0  0  0  0
   26.1770   20.9450   18.4740 C   0  0  0  0  0  0
   25.8660   19.9290   18.7320 H   0  0  0  0  0  0
   25.9960   21.5990   19.3350 H   0  0  0  0  0  0
   27.6490   20.9590   18.0740 C   0  0  0  0  0  0
   27.9300   19.9820   17.6600 H   0  0  0  0  0  0
   28.3080   21.1540   18.9260 H   0  0  0  0  0  0
   27.7690   22.0300   16.9950 C   0  0  0  0  0  0
   28.0350   22.9980   17.4330 H   0  0  0  0  0  0
   28.5280   21.7500   16.2580 H   0  0  0  0  0  0
   24.0360   21.3840   17.1160 C   0  0  0  0  0  0
   23.3260   22.2610   16.2810 C   0  0  0  0  0  0
   23.8500   23.0310   15.7180 H   0  0  0  0  0  0
   21.9360   22.1680   16.1620 C   0  0  0  0  0  0
   21.4050   22.8560   15.5080 H   0  0  0  0  0  0
   21.2430   21.1990   16.8920 C   0  0  0  0  0  0
   21.9330   20.3190   17.7280 C   0  0  0  0  0  0
   21.4040   19.5560   18.2960 H   0  0  0  0  0  0
   23.3240   20.4180   17.8410 C   0  0  0  0  0  0
   23.8440   19.7180   18.4930 H   0  0  0  0  0  0
   19.4850   21.0700   16.7160 S   0  0  0  0  0  0
   18.9300   22.3800   16.4230 O   0  0  0  0  0  0
   18.9580   20.2750   17.8110 O   0  0  0  0  0  0
   19.3370   20.1570   15.3190 N   0  0  0  0  0  0
   18.8590   20.6840   14.5840 H   0  0  0  0  0  0
   18.8660   19.2680   15.5080 H   0  0  0  0  0  0
   26.1550   22.7000   15.1070 C   0  0  0  0  0  0
   26.4170   24.0630   14.9190 C   0  0  0  0  0  0
   26.7620   24.6810   15.7470 H   0  0  0  0  0  0
   26.2250   24.6660   13.6710 C   0  0  0  0  0  0
   26.4260   25.7310   13.5600 H   0  0  0  0  0  0
   25.7800   23.9130   12.5750 C   0  0  0  0  0  0
   25.5200   22.5490   12.7600 C   0  0  0  0  0  0
   25.1680   21.9390   11.9290 H   0  0  0  0  0  0
   25.7130   21.9490   14.0100 C   0  0  0  0  0  0
   25.5200   20.8820   14.1120 H   0  0  0  0  0  0
   25.5520   24.5660   11.2350 C   0  0  0  0  0  0
   25.7370   23.7200   10.1750 F   0  0  0  0  0  0
   26.3800   25.6280   10.9940 F   0  0  0  0  0  0
   24.2820   25.0540   11.0930 F   0  0  0  0  0  0
  1  2  2  0  0  0
  1  9  1  0  0  0
  1 28  1  0  0  0
  2  3  1  0  0  0
  2 12  1  0  0  0
  3  4  1  0  0  0
  3  5  1  0  0  0
  3  6  1  0  0  0
  6  7  1  0  0  0
  6  8  1  0  0  0
  6  9  1  0  0  0
  9 10  1  0  0  0
  9 11  1  0  0  0
 12 13  1  0  0  0
 12 20  2  0  0  0
 13 14  1  0  0  0
 13 15  2  0  0  0
 15 16  1  0  0  0
 15 17  1  0  0  0
 17 18  2  0  0  0
 17 22  1  0  0  0
 18 19  1  0  0  0
 18 20  1  0  0  0
 20 21  1  0  0  0
 22 23  2  0  0  0
 22 24  2  0  0  0
 22 25  1  0  0  0
 25 26  1  0  0  0
 25 27  1  0  0  0
 28 29  1  0  0  0
 28 36  2  0  0  0
 29 30  1  0  0  0
 29 31  2  0  0  0
 31 32  1  0  0  0
 31 33  1  0  0  0
 33 34  2  0  0  0
 33 38  1  0  0  0
 34 35  1  0  0  0
 34 36  1  0  0  0
 36 37  1  0  0  0
 38 39  1  0  0  0
 38 40  1  0  0  0
 38 41  1  0  0  0
M  END
>  <ACTIVITY>
6.82

>  <SET>
1

>  <Min_dist>
999.9

>  <Avg_dist>
999.9

$$$$
6-8p
  Cerius2 12110214053D 1   1.00000                          
Structure written by Cerius2 SD Exporter
 41 43  0  0  0  0  0  0  0  0999 V2000
   26.3820   22.0710   16.4160 C   0  0  0  0  0  0
   25.4950   21.4970   17.2530 C   0  0  0  0  0  0
   26.1800   20.9440   18.4740 C   0  0  0  0  0  0
   25.8680   19.9270   18.7300 H   0  0  0  0  0  0
   25.9980   21.5960   19.3360 H   0  0  0  0  0  0
   27.6510   20.9590   18.0740 C   0  0  0  0  0  0
   27.9330   19.9820   17.6600 H   0  0  0  0  0  0
   28.3100   21.1540   18.9260 H   0  0  0  0  0  0
   27.7700   22.0280   16.9940 C   0  0  0  0  0  0
   28.0380   22.9970   17.4310 H   0  0  0  0  0  0
   28.5280   21.7480   16.2560 H   0  0  0  0  0  0
   24.0380   21.3860   17.1170 C   0  0  0  0  0  0
   23.3300   22.2630   16.2820 C   0  0  0  0  0  0
   23.8550   23.0340   15.7190 H   0  0  0  0  0  0
   21.9400   22.1700   16.1600 C   0  0  0  0  0  0
   21.4100   22.8580   15.5050 H   0  0  0  0  0  0
   21.2460   21.2010   16.8890 C   0  0  0  0  0  0
   21.9340   20.3210   17.7260 C   0  0  0  0  0  0
   21.4040   19.5590   18.2930 H   0  0  0  0  0  0
   23.3250   20.4200   17.8420 C   0  0  0  0  0  0
   23.8450   19.7200   18.4940 H   0  0  0  0  0  0
   19.4890   21.0720   16.7090 S   0  0  0  0  0  0
   18.9330   22.3810   16.4140 O   0  0  0  0  0  0
   18.9590   20.2760   17.8020 O   0  0  0  0  0  0
   19.3440   20.1590   15.3120 N   0  0  0  0  0  0
   18.8670   20.6850   14.5750 H   0  0  0  0  0  0
   18.8730   19.2700   15.4990 H   0  0  0  0  0  0
   26.1530   22.7020   15.1100 C   0  0  0  0  0  0
   26.4170   24.0630   14.9230 C   0  0  0  0  0  0
   26.7680   24.6860   15.7410 H   0  0  0  0  0  0
   26.2150   24.6550   13.6750 C   0  0  0  0  0  0
   25.7590   23.9190   12.5850 C   0  0  0  0  0  0
   25.5070   22.5530   12.7620 C   0  0  0  0  0  0
   25.1570   21.9430   11.9310 H   0  0  0  0  0  0
   25.7060   21.9530   14.0110 C   0  0  0  0  0  0
   25.5160   20.8840   14.1120 H   0  0  0  0  0  0
   25.5610   24.6040   11.2690 C   0  0  0  0  0  0
   25.0930   23.7820   10.2790 F   0  0  0  0  0  0
   26.7120   25.1470   10.7670 F   0  0  0  0  0  0
   24.6660   25.6360   11.3280 F   0  0  0  0  0  0
   26.4700   25.9640   13.5370 F   0  0  0  0  0  0
  1  2  2  0  0  0
  1  9  1  0  0  0
  1 28  1  0  0  0
  2  3  1  0  0  0
  2 12  1  0  0  0
  3  4  1  0  0  0
  3  5  1  0  0  0
  3  6  1  0  0  0
  6  7  1  0  0  0
  6  8  1  0  0  0
  6  9  1  0  0  0
  9 10  1  0  0  0
  9 11  1  0  0  0
 12 13  1  0  0  0
 12 20  2  0  0  0
 13 14  1  0  0  0
 13 15  2  0  0  0
 15 16  1  0  0  0
 15 17  1  0  0  0
 17 18  2  0  0  0
 17 22  1  0  0  0
 18 19  1  0  0  0
 18 20  1  0  0  0
 20 21  1  0  0  0
 22 23  2  0  0  0
 22 24  2  0  0  0
 22 25  1  0  0  0
 25 26  1  0  0  0
 25 27  1  0  0  0
 28 29  1  0  0  0
 28 35  2  0  0  0
 29 30  1  0  0  0
 29 31  2  0  0  0
 31 32  1  0  0  0
 31 41  1  0  0  0
 32 33  2  0  0  0
 32 37  1  0  0  0
 33 34  1  0  0  0
 33 35  1  0  0  0
 35 36  1  0  0  0
 37 38  1  0  0  0
 37 39  1  0  0  0
 37 40  1  0  0  0
M  END
>  <ACTIVITY>
6.77

>  <SET>
2

>  <Min_dist>
0.15

>  <Avg_dist>
0.59

$$$$
6-Dup697
  Cerius2 12110214053D 1   1.00000                          
Structure written by Cerius2 SD Exporter
 35 37  0  0  0  0  0  0  0  0999 V2000
   26.3700   22.0590   16.4370 C   0  0  0  0  0  0
   25.5250   21.4550   17.3620 C   0  0  0  0  0  0
   26.2640   20.9710   18.4850 C   0  0  0  0  0  0
   27.6140   21.1990   18.3930 C   0  0  0  0  0  0
   28.3870   20.9360   19.1030 H   0  0  0  0  0  0
   28.0130   22.0110   16.9460 S   0  0  0  0  0  0
   25.4620   20.1120   19.9690 Br  0  0  0  0  0  0
   24.0850   21.3800   17.1470 C   0  0  0  0  0  0
   23.3090   20.4710   17.8800 C   0  0  0  0  0  0
   23.7710   19.8150   18.6160 H   0  0  0  0  0  0
   21.9290   20.3980   17.6720 C   0  0  0  0  0  0
   21.3380   19.6910   18.2500 H   0  0  0  0  0  0
   21.3290   21.2300   16.7230 C   0  0  0  0  0  0
   22.0930   22.1450   15.9930 C   0  0  0  0  0  0
   21.6310   22.8010   15.2580 H   0  0  0  0  0  0
   23.4720   22.2150   16.2040 C   0  0  0  0  0  0
   24.0620   22.9290   15.6310 H   0  0  0  0  0  0
   19.5690   21.1460   16.4740 S   0  0  0  0  0  0
   19.1660   22.3180   15.7020 O   0  0  0  0  0  0
   18.9450   20.9230   17.7740 O   0  0  0  0  0  0
   19.3550   19.6990   15.4720 C   0  0  0  0  0  0
   18.2880   19.5820   15.2690 H   0  0  0  0  0  0
   19.7270   18.8300   16.0170 H   0  0  0  0  0  0
   19.8990   19.8320   14.5350 H   0  0  0  0  0  0
   26.0620   22.6780   15.1430 C   0  0  0  0  0  0
   25.5360   21.9130   14.0900 C   0  0  0  0  0  0
   25.3440   20.8490   14.2230 H   0  0  0  0  0  0
   25.2610   22.5040   12.8550 C   0  0  0  0  0  0
   24.8550   21.9130   12.0400 H   0  0  0  0  0  0
   25.5130   23.8580   12.6730 C   0  0  0  0  0  0
   26.0350   24.6340   13.7010 C   0  0  0  0  0  0
   26.2270   25.6910   13.5400 H   0  0  0  0  0  0
   26.3110   24.0440   14.9370 C   0  0  0  0  0  0
   26.7190   24.6580   15.7380 H   0  0  0  0  0  0
   25.2500   24.4250   11.4880 F   0  0  0  0  0  0
  1  2  2  0  0  0
  1  6  1  0  0  0
  1 25  1  0  0  0
  2  3  1  0  0  0
  2  8  1  0  0  0
  3  4  2  0  0  0
  3  7  1  0  0  0
  4  5  1  0  0  0
  4  6  1  0  0  0
  8  9  1  0  0  0
  8 16  2  0  0  0
  9 10  1  0  0  0
  9 11  2  0  0  0
 11 12  1  0  0  0
 11 13  1  0  0  0
 13 14  2  0  0  0
 13 18  1  0  0  0
 14 15  1  0  0  0
 14 16  1  0  0  0
 16 17  1  0  0  0
 18 19  2  0  0  0
 18 20  2  0  0  0
 18 21  1  0  0  0
 21 22  1  0  0  0
 21 23  1  0  0  0
 21 24  1  0  0  0
 25 26  1  0  0  0
 25 33  2  0  0  0
 26 27  1  0  0  0
 26 28  2  0  0  0
 28 29  1  0  0  0
 28 30  1  0  0  0
 30 31  2  0  0  0
 30 35  1  0  0  0
 31 32  1  0  0  0
 31 33  1  0  0  0
 33 34  1  0  0  0
M  END
>  <ACTIVITY>
8

>  <SET>
2

>  <Min_dist>
0.31

>  <Avg_dist>
0.62

$$$$
7-16a
  Cerius2 12110214053D 1   1.00000                          
Structure written by Cerius2 SD Exporter
 38 40  0  0  0  0  0  0  0  0999 V2000
   26.5410   22.0620   16.4080 C   0  0  0  0  0  0
   25.6600   21.4400   17.3300 C   0  0  0  0  0  0
   24.2040   21.3740   17.1060 C   0  0  0  0  0  0
   23.4190   20.4050   17.7500 C   0  0  0  0  0  0
   23.8860   19.6750   18.4120 H   0  0  0  0  0  0
   22.0330   20.3610   17.5670 C   0  0  0  0  0  0
   21.4500   19.5990   18.0790 H   0  0  0  0  0  0
   21.4170   21.3000   16.7350 C   0  0  0  0  0  0
   22.1810   22.2520   16.0610 C   0  0  0  0  0  0
   21.7170   22.9760   15.3950 H   0  0  0  0  0  0
   23.5660   22.2880   16.2480 C   0  0  0  0  0  0
   24.1490   23.0470   15.7300 H   0  0  0  0  0  0
   19.6510   21.2550   16.5230 S   0  0  0  0  0  0
   19.2290   22.5670   16.0410 O   0  0  0  0  0  0
   19.0630   20.7500   17.7610 O   0  0  0  0  0  0
   19.3970   20.0530   15.2450 C   0  0  0  0  0  0
   18.3200   19.9330   15.0980 H   0  0  0  0  0  0
   19.8310   19.1020   15.5570 H   0  0  0  0  0  0
   19.8600   20.3990   14.3190 H   0  0  0  0  0  0
   26.1960   20.8740   18.5030 C   0  0  0  0  0  0
   25.5360   20.3910   19.2230 H   0  0  0  0  0  0
   27.5640   20.9240   18.7700 C   0  0  0  0  0  0
   27.9550   20.4790   19.6840 H   0  0  0  0  0  0
   28.4250   21.5430   17.8720 C   0  0  0  0  0  0
   29.4920   21.5840   18.0780 H   0  0  0  0  0  0
   27.9180   22.1090   16.7030 C   0  0  0  0  0  0
   28.6100   22.5870   16.0080 H   0  0  0  0  0  0
   26.0630   22.6540   15.1460 C   0  0  0  0  0  0
   26.2860   24.0140   14.8620 C   0  0  0  0  0  0
   26.8270   24.6400   15.5690 H   0  0  0  0  0  0
   25.8020   24.5830   13.6800 C   0  0  0  0  0  0
   25.9650   25.6370   13.4720 H   0  0  0  0  0  0
   25.0980   23.7960   12.7780 C   0  0  0  0  0  0
   24.8760   22.4480   13.0290 C   0  0  0  0  0  0
   24.3190   21.8460   12.3160 H   0  0  0  0  0  0
   25.3630   21.8770   14.2070 C   0  0  0  0  0  0
   25.1840   20.8190   14.3970 H   0  0  0  0  0  0
   24.6320   24.3420   11.6460 F   0  0  0  0  0  0
  1  2  1  0  0  0
  1 26  2  0  0  0
  1 28  1  0  0  0
  2  3  1  0  0  0
  2 20  2  0  0  0
  3  4  1  0  0  0
  3 11  2  0  0  0
  4  5  1  0  0  0
  4  6  2  0  0  0
  6  7  1  0  0  0
  6  8  1  0  0  0
  8  9  2  0  0  0
  8 13  1  0  0  0
  9 10  1  0  0  0
  9 11  1  0  0  0
 11 12  1  0  0  0
 13 14  2  0  0  0
 13 15  2  0  0  0
 13 16  1  0  0  0
 16 17  1  0  0  0
 16 18  1  0  0  0
 16 19  1  0  0  0
 20 21  1  0  0  0
 20 22  1  0  0  0
 22 23  1  0  0  0
 22 24  2  0  0  0
 24 25  1  0  0  0
 24 26  1  0  0  0
 26 27  1  0  0  0
 28 29  1  0  0  0
 28 36  2  0  0  0
 29 30  1  0  0  0
 29 31  2  0  0  0
 31 32  1  0  0  0
 31 33  1  0  0  0
 33 34  2  0  0  0
 33 38  1  0  0  0
 34 35  1  0  0  0
 34 36  1  0  0  0
 36 37  1  0  0  0
M  END
>  <ACTIVITY>
6.59

>  <SET>
2

>  <Min_dist>
0.15

>  <Avg_dist>
0.58

$$$$
7-16d
  Cerius2 12110214053D 1   1.00000                          
Structure written by Cerius2 SD Exporter
 42 44  0  0  0  0  0  0  0  0999 V2000
   26.5030   22.0580   16.4750 C   0  0  0  0  0  0
   25.6170   21.4360   17.3920 C   0  0  0  0  0  0
   24.1600   21.3900   17.1710 C   0  0  0  0  0  0
   23.5440   22.2840   16.2790 C   0  0  0  0  0  0
   24.1400   23.0300   15.7550 H   0  0  0  0  0  0
   22.1670   22.2320   16.0460 C   0  0  0  0  0  0
   21.7160   22.9340   15.3470 H   0  0  0  0  0  0
   21.3920   21.2770   16.7060 C   0  0  0  0  0  0
   21.9790   20.3920   17.6120 C   0  0  0  0  0  0
   21.3830   19.6490   18.1390 H   0  0  0  0  0  0
   23.3580   20.4510   17.8410 C   0  0  0  0  0  0
   23.8080   19.7470   18.5410 H   0  0  0  0  0  0
   19.6390   21.2220   16.4100 S   0  0  0  0  0  0
   19.2410   22.5130   15.8570 O   0  0  0  0  0  0
   18.9880   20.7590   17.6310 O   0  0  0  0  0  0
   19.4630   19.9760   15.1590 C   0  0  0  0  0  0
   18.4010   19.8810   14.9220 H   0  0  0  0  0  0
   19.8430   19.0280   15.5450 H   0  0  0  0  0  0
   20.0150   20.2830   14.2690 H   0  0  0  0  0  0
   26.1470   20.8630   18.5650 C   0  0  0  0  0  0
   25.4840   20.3810   19.2840 H   0  0  0  0  0  0
   27.5140   20.9120   18.8410 C   0  0  0  0  0  0
   27.9020   20.4650   19.7550 H   0  0  0  0  0  0
   28.3790   21.5340   17.9490 C   0  0  0  0  0  0
   29.4460   21.5770   18.1620 H   0  0  0  0  0  0
   27.8790   22.1010   16.7770 C   0  0  0  0  0  0
   28.5750   22.5770   16.0860 H   0  0  0  0  0  0
   26.0390   22.6530   15.2100 C   0  0  0  0  0  0
   26.2550   24.0090   14.9320 C   0  0  0  0  0  0
   26.7680   24.6450   15.6500 H   0  0  0  0  0  0
   25.8030   24.5720   13.7380 C   0  0  0  0  0  0
   25.1350   23.8020   12.7840 C   0  0  0  0  0  0
   24.9210   22.4480   13.0540 C   0  0  0  0  0  0
   24.4010   21.8210   12.3310 H   0  0  0  0  0  0
   25.3690   21.8780   14.2520 C   0  0  0  0  0  0
   25.1880   20.8190   14.4320 H   0  0  0  0  0  0
   24.6450   24.2170   11.5750 O   0  0  0  0  0  0
   24.8540   25.5830   11.2250 C   0  0  0  0  0  0
   24.4320   25.7370   10.2270 H   0  0  0  0  0  0
   25.9210   25.8180   11.1730 H   0  0  0  0  0  0
   24.3260   26.2490   11.9150 H   0  0  0  0  0  0
   26.0360   25.8790   13.5440 F   0  0  0  0  0  0
  1  2  1  0  0  0
  1 26  2  0  0  0
  1 28  1  0  0  0
  2  3  1  0  0  0
  2 20  2  0  0  0
  3  4  1  0  0  0
  3 11  2  0  0  0
  4  5  1  0  0  0
  4  6  2  0  0  0
  6  7  1  0  0  0
  6  8  1  0  0  0
  8  9  2  0  0  0
  8 13  1  0  0  0
  9 10  1  0  0  0
  9 11  1  0  0  0
 11 12  1  0  0  0
 13 14  2  0  0  0
 13 15  2  0  0  0
 13 16  1  0  0  0
 16 17  1  0  0  0
 16 18  1  0  0  0
 16 19  1  0  0  0
 20 21  1  0  0  0
 20 22  1  0  0  0
 22 23  1  0  0  0
 22 24  2  0  0  0
 24 25  1  0  0  0
 24 26  1  0  0  0
 26 27  1  0  0  0
 28 29  1  0  0  0
 28 35  2  0  0  0
 29 30  1  0  0  0
 29 31  2  0  0  0
 31 32  1  0  0  0
 31 42  1  0  0  0
 32 33  2  0  0  0
 32 37  1  0  0  0
 33 34  1  0  0  0
 33 35  1  0  0  0
 35 36  1  0  0  0
 37 38  1  0  0  0
 38 39  1  0  0  0
 38 40  1  0  0  0
 38 41  1  0  0  0
M  END
>  <ACTIVITY>
4

>  <SET>
3

>  <Min_dist>
0.18

>  <Avg_dist>
0.56

$$$$
7-17a
  Cerius2 12110214053D 1   1.00000                          
Structure written by Cerius2 SD Exporter
 37 39  0  0  0  0  0  0  0  0999 V2000
   26.4990   22.0610   16.4720 C   0  0  0  0  0  0
   25.6040   21.4470   17.3860 C   0  0  0  0  0  0
   24.1480   21.3840   17.1560 C   0  0  0  0  0  0
   23.5150   22.2850   16.2820 C   0  0  0  0  0  0
   24.0990   23.0440   15.7620 H   0  0  0  0  0  0
   22.1360   22.2270   16.0660 C   0  0  0  0  0  0
   21.6670   22.9330   15.3830 H   0  0  0  0  0  0
   21.3730   21.2590   16.7250 C   0  0  0  0  0  0
   21.9770   20.3620   17.6070 C   0  0  0  0  0  0
   21.3920   19.6100   18.1300 H   0  0  0  0  0  0
   23.3580   20.4280   17.8180 C   0  0  0  0  0  0
   23.8200   19.7180   18.5050 H   0  0  0  0  0  0
   19.6220   21.2110   16.4600 S   0  0  0  0  0  0
   19.2010   22.4730   15.8780 O   0  0  0  0  0  0
   18.9660   20.6890   17.6460 O   0  0  0  0  0  0
   19.4750   20.0380   15.2740 N   0  0  0  0  0  0
   19.0800   20.4280   14.4150 H   0  0  0  0  0  0
   18.9270   19.2420   15.6100 H   0  0  0  0  0  0
   26.1220   20.8830   18.5700 C   0  0  0  0  0  0
   25.4510   20.4100   19.2870 H   0  0  0  0  0  0
   27.4860   20.9250   18.8580 C   0  0  0  0  0  0
   27.8620   20.4850   19.7800 H   0  0  0  0  0  0
   28.3620   21.5310   17.9670 C   0  0  0  0  0  0
   29.4280   21.5670   18.1860 H   0  0  0  0  0  0
   27.8730   22.0930   16.7870 C   0  0  0  0  0  0
   28.5790   22.5570   16.0980 H   0  0  0  0  0  0
   26.0550   22.6580   15.1990 C   0  0  0  0  0  0
   26.2780   24.0210   14.9290 C   0  0  0  0  0  0
   26.7760   24.6510   15.6650 H   0  0  0  0  0  0
   25.8590   24.5900   13.7240 C   0  0  0  0  0  0
   26.0310   25.6440   13.5230 H   0  0  0  0  0  0
   25.2170   23.7990   12.7800 C   0  0  0  0  0  0
   24.9890   22.4500   13.0160 C   0  0  0  0  0  0
   24.4870   21.8440   12.2670 H   0  0  0  0  0  0
   25.4090   21.8810   14.2210 C   0  0  0  0  0  0
   25.2290   20.8200   14.3950 H   0  0  0  0  0  0
   24.8150   24.3450   11.6240 F   0  0  0  0  0  0
  1  2  1  0  0  0
  1 25  2  0  0  0
  1 27  1  0  0  0
  2  3  1  0  0  0
  2 19  2  0  0  0
  3  4  1  0  0  0
  3 11  2  0  0  0
  4  5  1  0  0  0
  4  6  2  0  0  0
  6  7  1  0  0  0
  6  8  1  0  0  0
  8  9  2  0  0  0
  8 13  1  0  0  0
  9 10  1  0  0  0
  9 11  1  0  0  0
 11 12  1  0  0  0
 13 14  2  0  0  0
 13 15  2  0  0  0
 13 16  1  0  0  0
 16 17  1  0  0  0
 16 18  1  0  0  0
 19 20  1  0  0  0
 19 21  1  0  0  0
 21 22  1  0  0  0
 21 23  2  0  0  0
 23 24  1  0  0  0
 23 25  1  0  0  0
 25 26  1  0  0  0
 27 28  1  0  0  0
 27 35  2  0  0  0
 28 29  1  0  0  0
 28 30  2  0  0  0
 30 31  1  0  0  0
 30 32  1  0  0  0
 32 33  2  0  0  0
 32 37  1  0  0  0
 33 34  1  0  0  0
 33 35  1  0  0  0
 35 36  1  0  0  0
M  END
>  <ACTIVITY>
7.21

>  <SET>
1

>  <Min_dist>
999.9

>  <Avg_dist>
999.9

$$$$
7-17b
  Cerius2 12110214053D 1   1.00000                          
Structure written by Cerius2 SD Exporter
 37 39  0  0  0  0  0  0  0  0999 V2000
   26.5040   22.0490   16.4690 C   0  0  0  0  0  0
   25.6120   21.4530   17.3960 C   0  0  0  0  0  0
   24.1610   21.3930   17.1610 C   0  0  0  0  0  0
   23.5410   22.2920   16.2770 C   0  0  0  0  0  0
   24.1330   23.0460   15.7590 H   0  0  0  0  0  0
   22.1640   22.2330   16.0470 C   0  0  0  0  0  0
   21.7020   22.9360   15.3570 H   0  0  0  0  0  0
   21.3940   21.2680   16.7030 C   0  0  0  0  0  0
   21.9900   20.3720   17.5930 C   0  0  0  0  0  0
   21.3990   19.6210   18.1130 H   0  0  0  0  0  0
   23.3680   20.4380   17.8180 C   0  0  0  0  0  0
   23.8260   19.7320   18.5110 H   0  0  0  0  0  0
   19.6450   21.2210   16.4250 S   0  0  0  0  0  0
   19.2270   22.4880   15.8530 O   0  0  0  0  0  0
   18.9800   20.6860   17.6000 O   0  0  0  0  0  0
   19.5090   20.0600   15.2250 N   0  0  0  0  0  0
   19.1130   20.4580   14.3690 H   0  0  0  0  0  0
   18.9650   19.2570   15.5500 H   0  0  0  0  0  0
   26.1310   20.9030   18.5840 C   0  0  0  0  0  0
   25.4600   20.4440   19.3100 H   0  0  0  0  0  0
   27.4980   20.9390   18.8590 C   0  0  0  0  0  0
   27.8780   20.5110   19.7850 H   0  0  0  0  0  0
   28.3730   21.5200   17.9480 C   0  0  0  0  0  0
   29.4410   21.5480   18.1580 H   0  0  0  0  0  0
   27.8800   22.0710   16.7650 C   0  0  0  0  0  0
   28.5810   22.5230   16.0630 H   0  0  0  0  0  0
   26.0400   22.6490   15.2080 C   0  0  0  0  0  0
   26.2630   24.0110   14.9430 C   0  0  0  0  0  0
   26.7840   24.6260   15.6730 H   0  0  0  0  0  0
   25.8120   24.5810   13.7510 C   0  0  0  0  0  0
   25.1400   23.7970   12.8160 C   0  0  0  0  0  0
   24.9150   22.4460   13.0570 C   0  0  0  0  0  0
   24.3900   21.8440   12.3210 H   0  0  0  0  0  0
   25.3650   21.8740   14.2490 C   0  0  0  0  0  0
   25.1830   20.8150   14.4310 H   0  0  0  0  0  0
   24.7010   24.3310   11.6660 F   0  0  0  0  0  0
   26.0920   26.2530   13.4490 Cl  0  0  0  0  0  0
  1  2  1  0  0  0
  1 25  2  0  0  0
  1 27  1  0  0  0
  2  3  1  0  0  0
  2 19  2  0  0  0
  3  4  1  0  0  0
  3 11  2  0  0  0
  4  5  1  0  0  0
  4  6  2  0  0  0
  6  7  1  0  0  0
  6  8  1  0  0  0
  8  9  2  0  0  0
  8 13  1  0  0  0
  9 10  1  0  0  0
  9 11  1  0  0  0
 11 12  1  0  0  0
 13 14  2  0  0  0
 13 15  2  0  0  0
 13 16  1  0  0  0
 16 17  1  0  0  0
 16 18  1  0  0  0
 19 20  1  0  0  0
 19 21  1  0  0  0
 21 22  1  0  0  0
 21 23  2  0  0  0
 23 24  1  0  0  0
 23 25  1  0  0  0
 25 26  1  0  0  0
 27 28  1  0  0  0
 27 34  2  0  0  0
 28 29  1  0  0  0
 28 30  2  0  0  0
 30 31  1  0  0  0
 30 37  1  0  0  0
 31 32  2  0  0  0
 31 36  1  0  0  0
 32 33  1  0  0  0
 32 34  1  0  0  0
 34 35  1  0  0  0
M  END
>  <ACTIVITY>
7.77

>  <SET>
1

>  <Min_dist>
999.9

>  <Avg_dist>
999.9

$$$$
7-17d
  Cerius2 12110214053D 1   1.00000                          
Structure written by Cerius2 SD Exporter
 41 43  0  0  0  0  0  0  0  0999 V2000
   26.5040   22.0530   16.4720 C   0  0  0  0  0  0
   25.6130   21.4490   17.3940 C   0  0  0  0  0  0
   24.1620   21.3890   17.1590 C   0  0  0  0  0  0
   23.5420   22.2910   16.2780 C   0  0  0  0  0  0
   24.1350   23.0460   15.7620 H   0  0  0  0  0  0
   22.1640   22.2360   16.0490 C   0  0  0  0  0  0
   21.7030   22.9420   15.3620 H   0  0  0  0  0  0
   21.3940   21.2700   16.7020 C   0  0  0  0  0  0
   21.9890   20.3710   17.5900 C   0  0  0  0  0  0
   21.3960   19.6200   18.1080 H   0  0  0  0  0  0
   23.3680   20.4330   17.8150 C   0  0  0  0  0  0
   23.8240   19.7250   18.5050 H   0  0  0  0  0  0
   19.6450   21.2260   16.4260 S   0  0  0  0  0  0
   19.2270   22.4960   15.8590 O   0  0  0  0  0  0
   18.9800   20.6890   17.6000 O   0  0  0  0  0  0
   19.5050   20.0700   15.2220 N   0  0  0  0  0  0
   19.1100   20.4720   14.3680 H   0  0  0  0  0  0
   18.9600   19.2670   15.5430 H   0  0  0  0  0  0
   26.1320   20.8920   18.5780 C   0  0  0  0  0  0
   25.4630   20.4230   19.2990 H   0  0  0  0  0  0
   27.5000   20.9300   18.8550 C   0  0  0  0  0  0
   27.8800   20.4940   19.7770 H   0  0  0  0  0  0
   28.3730   21.5260   17.9520 C   0  0  0  0  0  0
   29.4400   21.5580   18.1650 H   0  0  0  0  0  0
   27.8800   22.0820   16.7710 C   0  0  0  0  0  0
   28.5810   22.5430   16.0750 H   0  0  0  0  0  0
   26.0400   22.6510   15.2110 C   0  0  0  0  0  0
   26.2580   24.0070   14.9360 C   0  0  0  0  0  0
   26.7780   24.6390   15.6520 H   0  0  0  0  0  0
   25.8050   24.5720   13.7430 C   0  0  0  0  0  0
   25.1290   23.8050   12.7920 C   0  0  0  0  0  0
   24.9190   22.4490   13.0580 C   0  0  0  0  0  0
   24.3980   21.8250   12.3340 H   0  0  0  0  0  0
   25.3690   21.8770   14.2530 C   0  0  0  0  0  0
   25.1870   20.8180   14.4340 H   0  0  0  0  0  0
   24.6310   24.2240   11.5880 O   0  0  0  0  0  0
   24.7680   25.6070   11.2730 C   0  0  0  0  0  0
   24.2960   25.7730   10.2990 H   0  0  0  0  0  0
   25.8220   25.8870   11.1820 H   0  0  0  0  0  0
   24.2460   26.2320   12.0050 H   0  0  0  0  0  0
   26.0460   25.8770   13.5480 F   0  0  0  0  0  0
  1  2  1  0  0  0
  1 25  2  0  0  0
  1 27  1  0  0  0
  2  3  1  0  0  0
  2 19  2  0  0  0
  3  4  1  0  0  0
  3 11  2  0  0  0
  4  5  1  0  0  0
  4  6  2  0  0  0
  6  7  1  0  0  0
  6  8  1  0  0  0
  8  9  2  0  0  0
  8 13  1  0  0  0
  9 10  1  0  0  0
  9 11  1  0  0  0
 11 12  1  0  0  0
 13 14  2  0  0  0
 13 15  2  0  0  0
 13 16  1  0  0  0
 16 17  1  0  0  0
 16 18  1  0  0  0
 19 20  1  0  0  0
 19 21  1  0  0  0
 21 22  1  0  0  0
 21 23  2  0  0  0
 23 24  1  0  0  0
 23 25  1  0  0  0
 25 26  1  0  0  0
 27 28  1  0  0  0
 27 34  2  0  0  0
 28 29  1  0  0  0
 28 30  2  0  0  0
 30 31  1  0  0  0
 30 41  1  0  0  0
 31 32  2  0  0  0
 31 36  1  0  0  0
 32 33  1  0  0  0
 32 34  1  0  0  0
 34 35  1  0  0  0
 36 37  1  0  0  0
 37 38  1  0  0  0
 37 39  1  0  0  0
 37 40  1  0  0  0
M  END
>  <ACTIVITY>
7.48

>  <SET>
2

>  <Min_dist>
0.04

>  <Avg_dist>
0.57

$$$$
7-20c
  Cerius2 12110214053D 1   1.00000                          
Structure written by Cerius2 SD Exporter
 41 43  0  0  0  0  0  0  0  0999 V2000
   26.5030   22.0640   16.4730 C   0  0  0  0  0  0
   25.6040   21.4420   17.3840 C   0  0  0  0  0  0
   24.1490   21.3780   17.1500 C   0  0  0  0  0  0
   23.5170   22.2850   16.2820 C   0  0  0  0  0  0
   24.1010   23.0440   15.7630 H   0  0  0  0  0  0
   22.1360   22.2330   16.0700 C   0  0  0  0  0  0
   21.6730   22.9450   15.3900 H   0  0  0  0  0  0
   21.3710   21.2770   16.7400 C   0  0  0  0  0  0
   21.9770   20.3610   17.6020 C   0  0  0  0  0  0
   21.3920   19.6070   18.1220 H   0  0  0  0  0  0
   23.3600   20.4180   17.8070 C   0  0  0  0  0  0
   23.8210   19.7010   18.4840 H   0  0  0  0  0  0
   19.6160   21.2110   16.4640 S   0  0  0  0  0  0
   19.1960   22.4940   15.9080 O   0  0  0  0  0  0
   18.9880   20.7510   17.6990 O   0  0  0  0  0  0
   19.4320   19.9610   15.2200 C   0  0  0  0  0  0
   18.3690   19.8630   14.9920 H   0  0  0  0  0  0
   19.8170   19.0150   15.6050 H   0  0  0  0  0  0
   19.9780   20.2670   14.3250 H   0  0  0  0  0  0
   26.1160   20.8760   18.5700 C   0  0  0  0  0  0
   25.4530   20.3970   19.2870 H   0  0  0  0  0  0
   27.4760   20.9300   18.8510 C   0  0  0  0  0  0
   28.3490   21.5420   17.9680 C   0  0  0  0  0  0
   27.8760   22.1060   16.7890 C   0  0  0  0  0  0
   28.5870   22.5730   16.1110 H   0  0  0  0  0  0
   29.6600   21.5930   18.2460 F   0  0  0  0  0  0
   27.9390   20.3880   19.9870 F   0  0  0  0  0  0
   26.0570   22.6560   15.1990 C   0  0  0  0  0  0
   26.2780   24.0190   14.9260 C   0  0  0  0  0  0
   26.7750   24.6410   15.6710 H   0  0  0  0  0  0
   25.8590   24.5950   13.7170 C   0  0  0  0  0  0
   25.1980   23.7910   12.7870 C   0  0  0  0  0  0
   24.9760   22.4410   13.0290 C   0  0  0  0  0  0
   24.4650   21.8340   12.2870 H   0  0  0  0  0  0
   25.4080   21.8740   14.2290 C   0  0  0  0  0  0
   25.2300   20.8140   14.4070 H   0  0  0  0  0  0
   24.7640   24.3220   11.6340 F   0  0  0  0  0  0
   26.0590   26.0570   13.4550 C   0  0  0  0  0  0
   26.2850   26.2360   12.3990 H   0  0  0  0  0  0
   26.9010   26.4500   14.0360 H   0  0  0  0  0  0
   25.1570   26.6130   13.7260 H   0  0  0  0  0  0
  1  2  1  0  0  0
  1 24  2  0  0  0
  1 28  1  0  0  0
  2  3  1  0  0  0
  2 20  2  0  0  0
  3  4  1  0  0  0
  3 11  2  0  0  0
  4  5  1  0  0  0
  4  6  2  0  0  0
  6  7  1  0  0  0
  6  8  1  0  0  0
  8  9  2  0  0  0
  8 13  1  0  0  0
  9 10  1  0  0  0
  9 11  1  0  0  0
 11 12  1  0  0  0
 13 14  2  0  0  0
 13 15  2  0  0  0
 13 16  1  0  0  0
 16 17  1  0  0  0
 16 18  1  0  0  0
 16 19  1  0  0  0
 20 21  1  0  0  0
 20 22  1  0  0  0
 22 23  2  0  0  0
 22 27  1  0  0  0
 23 24  1  0  0  0
 23 26  1  0  0  0
 24 25  1  0  0  0
 28 29  1  0  0  0
 28 35  2  0  0  0
 29 30  1  0  0  0
 29 31  2  0  0  0
 31 32  1  0  0  0
 31 38  1  0  0  0
 32 33  2  0  0  0
 32 37  1  0  0  0
 33 34  1  0  0  0
 33 35  1  0  0  0
 35 36  1  0  0  0
 38 39  1  0  0  0
 38 40  1  0  0  0
 38 41  1  0  0  0
M  END
>  <ACTIVITY>
8.3

>  <SET>
1

>  <Min_dist>
999.9

>  <Avg_dist>
999.9

$$$$
7-20f
  Cerius2 12110214053D 1   1.00000                          
Structure written by Cerius2 SD Exporter
 42 44  0  0  0  0  0  0  0  0999 V2000
   26.5070   22.0570   16.4730 C   0  0  0  0  0  0
   25.6140   21.4430   17.3950 C   0  0  0  0  0  0
   24.1590   21.3970   17.1710 C   0  0  0  0  0  0
   23.5410   22.2880   16.2760 C   0  0  0  0  0  0
   24.1340   23.0340   15.7490 H   0  0  0  0  0  0
   22.1640   22.2320   16.0450 C   0  0  0  0  0  0
   21.7090   22.9310   15.3460 H   0  0  0  0  0  0
   21.3920   21.2760   16.7090 C   0  0  0  0  0  0
   21.9810   20.3950   17.6170 C   0  0  0  0  0  0
   21.3870   19.6530   18.1460 H   0  0  0  0  0  0
   23.3590   20.4590   17.8450 C   0  0  0  0  0  0
   23.8100   19.7580   18.5470 H   0  0  0  0  0  0
   19.6400   21.2090   16.4100 S   0  0  0  0  0  0
   19.2360   22.4950   15.8510 O   0  0  0  0  0  0
   18.9890   20.7440   17.6300 O   0  0  0  0  0  0
   19.4790   19.9570   15.1630 C   0  0  0  0  0  0
   18.4180   19.8530   14.9240 H   0  0  0  0  0  0
   19.8670   19.0150   15.5530 H   0  0  0  0  0  0
   20.0310   20.2670   14.2740 H   0  0  0  0  0  0
   26.1340   20.8670   18.5720 C   0  0  0  0  0  0
   25.4740   20.3910   19.2940 H   0  0  0  0  0  0
   27.4980   20.9050   18.8330 C   0  0  0  0  0  0
   28.3660   21.5120   17.9400 C   0  0  0  0  0  0
   27.8840   22.0850   16.7690 C   0  0  0  0  0  0
   28.5920   22.5460   16.0830 H   0  0  0  0  0  0
   29.6810   21.5450   18.1990 F   0  0  0  0  0  0
   27.9720   20.3530   19.9590 F   0  0  0  0  0  0
   26.0440   22.6530   15.2060 C   0  0  0  0  0  0
   26.2600   24.0130   14.9320 C   0  0  0  0  0  0
   26.7680   24.6360   15.6670 H   0  0  0  0  0  0
   25.8090   24.5820   13.7380 C   0  0  0  0  0  0
   25.1550   23.7960   12.7820 C   0  0  0  0  0  0
   24.9120   22.4460   13.0590 C   0  0  0  0  0  0
   25.3660   21.8780   14.2520 C   0  0  0  0  0  0
   25.1810   20.8220   14.4480 H   0  0  0  0  0  0
   24.0350   21.4420   11.9590 Cl  0  0  0  0  0  0
   24.6860   24.3580   11.6190 O   0  0  0  0  0  0
   25.6790   24.2680   10.5910 C   0  0  0  0  0  0
   26.0310   23.2400   10.4530 H   0  0  0  0  0  0
   26.5250   24.9290   10.8040 H   0  0  0  0  0  0
   25.2190   24.5960    9.6540 H   0  0  0  0  0  0
   26.0660   26.2740   13.4920 Cl  0  0  0  0  0  0
  1  2  1  0  0  0
  1 24  2  0  0  0
  1 28  1  0  0  0
  2  3  1  0  0  0
  2 20  2  0  0  0
  3  4  1  0  0  0
  3 11  2  0  0  0
  4  5  1  0  0  0
  4  6  2  0  0  0
  6  7  1  0  0  0
  6  8  1  0  0  0
  8  9  2  0  0  0
  8 13  1  0  0  0
  9 10  1  0  0  0
  9 11  1  0  0  0
 11 12  1  0  0  0
 13 14  2  0  0  0
 13 15  2  0  0  0
 13 16  1  0  0  0
 16 17  1  0  0  0
 16 18  1  0  0  0
 16 19  1  0  0  0
 20 21  1  0  0  0
 20 22  1  0  0  0
 22 23  2  0  0  0
 22 27  1  0  0  0
 23 24  1  0  0  0
 23 26  1  0  0  0
 24 25  1  0  0  0
 28 29  1  0  0  0
 28 34  2  0  0  0
 29 30  1  0  0  0
 29 31  2  0  0  0
 31 32  1  0  0  0
 31 42  1  0  0  0
 32 33  2  0  0  0
 32 37  1  0  0  0
 33 34  1  0  0  0
 33 36  1  0  0  0
 34 35  1  0  0  0
 37 38  1  0  0  0
 38 39  1  0  0  0
 38 40  1  0  0  0
 38 41  1  0  0  0
M  END
>  <ACTIVITY>
4

>  <SET>
3

>  <Min_dist>
0.16

>  <Avg_dist>
0.57

$$$$
7-20g
  Cerius2 12110214053D 1   1.00000                          
Structure written by Cerius2 SD Exporter
 45 47  0  0  0  0  0  0  0  0999 V2000
   26.5070   22.0610   16.4700 C   0  0  0  0  0  0
   25.6030   21.4440   17.3820 C   0  0  0  0  0  0
   24.1440   21.3790   17.1510 C   0  0  0  0  0  0
   23.5020   22.2850   16.2870 C   0  0  0  0  0  0
   24.0790   23.0500   15.7670 H   0  0  0  0  0  0
   22.1210   22.2290   16.0780 C   0  0  0  0  0  0
   21.6530   22.9370   15.3970 H   0  0  0  0  0  0
   21.3600   21.2690   16.7480 C   0  0  0  0  0  0
   21.9700   20.3610   17.6130 C   0  0  0  0  0  0
   21.3880   19.6070   18.1400 H   0  0  0  0  0  0
   23.3540   20.4200   17.8110 C   0  0  0  0  0  0
   23.8150   19.7030   18.4900 H   0  0  0  0  0  0
   19.6050   21.2020   16.4630 S   0  0  0  0  0  0
   19.1920   22.4700   15.8680 O   0  0  0  0  0  0
   18.9770   20.7790   17.7090 O   0  0  0  0  0  0
   19.4150   19.9240   15.2490 C   0  0  0  0  0  0
   18.3550   19.8510   14.9970 H   0  0  0  0  0  0
   19.7580   18.9760   15.6690 H   0  0  0  0  0  0
   19.9920   20.1860   14.3600 H   0  0  0  0  0  0
   26.1170   20.8830   18.5710 C   0  0  0  0  0  0
   25.4540   20.4120   19.2930 H   0  0  0  0  0  0
   27.4760   20.9340   18.8530 C   0  0  0  0  0  0
   28.3520   21.5400   17.9690 C   0  0  0  0  0  0
   27.8810   22.0980   16.7870 C   0  0  0  0  0  0
   28.5950   22.5580   16.1070 H   0  0  0  0  0  0
   29.6620   21.5910   18.2490 F   0  0  0  0  0  0
   27.9350   20.3940   19.9920 F   0  0  0  0  0  0
   26.0700   22.6560   15.1940 C   0  0  0  0  0  0
   26.2990   24.0130   14.9170 C   0  0  0  0  0  0
   26.8040   24.6310   15.6610 H   0  0  0  0  0  0
   25.8700   24.5990   13.7130 C   0  0  0  0  0  0
   25.1970   23.8120   12.7620 C   0  0  0  0  0  0
   24.9830   22.4560   13.0220 C   0  0  0  0  0  0
   24.4750   21.8060   12.3140 H   0  0  0  0  0  0
   25.4160   21.8860   14.2250 C   0  0  0  0  0  0
   25.2280   20.8280   14.4030 H   0  0  0  0  0  0
   24.7950   24.4630   11.6250 O   0  0  0  0  0  0
   24.0460   23.7100   10.6720 C   0  0  0  0  0  0
   23.7880   24.3810    9.8470 H   0  0  0  0  0  0
   23.1120   23.3430   11.1090 H   0  0  0  0  0  0
   24.6440   22.8890   10.2610 H   0  0  0  0  0  0
   26.1000   26.0700   13.4860 C   0  0  0  0  0  0
   26.5770   26.2400   12.5150 H   0  0  0  0  0  0
   26.7580   26.4980   14.2510 H   0  0  0  0  0  0
   25.1460   26.6070   13.5230 H   0  0  0  0  0  0
  1  2  1  0  0  0
  1 24  2  0  0  0
  1 28  1  0  0  0
  2  3  1  0  0  0
  2 20  2  0  0  0
  3  4  1  0  0  0
  3 11  2  0  0  0
  4  5  1  0  0  0
  4  6  2  0  0  0
  6  7  1  0  0  0
  6  8  1  0  0  0
  8  9  2  0  0  0
  8 13  1  0  0  0
  9 10  1  0  0  0
  9 11  1  0  0  0
 11 12  1  0  0  0
 13 14  2  0  0  0
 13 15  2  0  0  0
 13 16  1  0  0  0
 16 17  1  0  0  0
 16 18  1  0  0  0
 16 19  1  0  0  0
 20 21  1  0  0  0
 20 22  1  0  0  0
 22 23  2  0  0  0
 22 27  1  0  0  0
 23 24  1  0  0  0
 23 26  1  0  0  0
 24 25  1  0  0  0
 28 29  1  0  0  0
 28 35  2  0  0  0
 29 30  1  0  0  0
 29 31  2  0  0  0
 31 32  1  0  0  0
 31 42  1  0  0  0
 32 33  2  0  0  0
 32 37  1  0  0  0
 33 34  1  0  0  0
 33 35  1  0  0  0
 35 36  1  0  0  0
 37 38  1  0  0  0
 38 39  1  0  0  0
 38 40  1  0  0  0
 38 41  1  0  0  0
 42 43  1  0  0  0
 42 44  1  0  0  0
 42 45  1  0  0  0
M  END
>  <ACTIVITY>
7.89

>  <SET>
2

>  <Min_dist>
0.14

>  <Avg_dist>
0.57

$$$$
7-20h
  Cerius2 12110214053D 1   1.00000                          
Structure written by Cerius2 SD Exporter
 46 48  0  0  0  0  0  0  0  0999 V2000
   26.5060   22.0540   16.4730 C   0  0  0  0  0  0
   25.6050   21.4680   17.4030 C   0  0  0  0  0  0
   24.1590   21.3940   17.1450 C   0  0  0  0  0  0
   23.5320   22.2960   16.2680 C   0  0  0  0  0  0
   24.1190   23.0600   15.7580 H   0  0  0  0  0  0
   22.1540   22.2270   16.0400 C   0  0  0  0  0  0
   21.6890   22.9480   15.3690 H   0  0  0  0  0  0
   21.3940   21.2510   16.6890 C   0  0  0  0  0  0
   22.0020   20.3400   17.5530 C   0  0  0  0  0  0
   21.4210   19.5770   18.0660 H   0  0  0  0  0  0
   23.3780   20.4170   17.7800 C   0  0  0  0  0  0
   23.8420   19.7050   18.4660 H   0  0  0  0  0  0
   19.6300   21.2310   16.4800 S   0  0  0  0  0  0
   19.2360   22.5530   15.9980 O   0  0  0  0  0  0
   19.0300   20.7370   17.7150 O   0  0  0  0  0  0
   19.3430   20.0370   15.2010 C   0  0  0  0  0  0
   18.2620   19.9320   15.0860 H   0  0  0  0  0  0
   19.7700   19.0780   15.5000 H   0  0  0  0  0  0
   19.7870   20.3900   14.2680 H   0  0  0  0  0  0
   26.1080   20.9090   18.5970 C   0  0  0  0  0  0
   25.4420   20.4430   19.3170 H   0  0  0  0  0  0
   27.4720   20.9320   18.8630 C   0  0  0  0  0  0
   28.3510   21.5080   17.9570 C   0  0  0  0  0  0
   27.8800   22.0590   16.7700 C   0  0  0  0  0  0
   28.5950   22.4950   16.0760 H   0  0  0  0  0  0
   29.6640   21.5380   18.2250 F   0  0  0  0  0  0
   27.9370   20.3860   19.9970 F   0  0  0  0  0  0
   26.0470   22.6550   15.2070 C   0  0  0  0  0  0
   26.2700   24.0140   14.9330 C   0  0  0  0  0  0
   26.8040   24.6170   15.6630 H   0  0  0  0  0  0
   25.8230   24.5820   13.7340 C   0  0  0  0  0  0
   25.1800   23.7870   12.7680 C   0  0  0  0  0  0
   24.9650   22.4330   13.0320 C   0  0  0  0  0  0
   24.4650   21.7780   12.3210 H   0  0  0  0  0  0
   25.3880   21.8770   14.2440 C   0  0  0  0  0  0
   25.1970   20.8210   14.4280 H   0  0  0  0  0  0
   24.7990   24.4290   11.6160 O   0  0  0  0  0  0
   25.1010   25.8200   11.5180 C   0  0  0  0  0  0
   24.8290   26.1520   10.5100 H   0  0  0  0  0  0
   26.1740   26.0030   11.6480 H   0  0  0  0  0  0
   24.5090   26.4020   12.2330 H   0  0  0  0  0  0
   26.0170   25.9070   13.4220 O   0  0  0  0  0  0
   26.6760   26.6690   14.4390 C   0  0  0  0  0  0
   26.4480   27.7230   14.2500 H   0  0  0  0  0  0
   27.7610   26.5350   14.3730 H   0  0  0  0  0  0
   26.3080   26.4200   15.4430 H   0  0  0  0  0  0
  1  2  1  0  0  0
  1 24  2  0  0  0
  1 28  1  0  0  0
  2  3  1  0  0  0
  2 20  2  0  0  0
  3  4  1  0  0  0
  3 11  2  0  0  0
  4  5  1  0  0  0
  4  6  2  0  0  0
  6  7  1  0  0  0
  6  8  1  0  0  0
  8  9  2  0  0  0
  8 13  1  0  0  0
  9 10  1  0  0  0
  9 11  1  0  0  0
 11 12  1  0  0  0
 13 14  2  0  0  0
 13 15  2  0  0  0
 13 16  1  0  0  0
 16 17  1  0  0  0
 16 18  1  0  0  0
 16 19  1  0  0  0
 20 21  1  0  0  0
 20 22  1  0  0  0
 22 23  2  0  0  0
 22 27  1  0  0  0
 23 24  1  0  0  0
 23 26  1  0  0  0
 24 25  1  0  0  0
 28 29  1  0  0  0
 28 35  2  0  0  0
 29 30  1  0  0  0
 29 31  2  0  0  0
 31 32  1  0  0  0
 31 42  1  0  0  0
 32 33  2  0  0  0
 32 37  1  0  0  0
 33 34  1  0  0  0
 33 35  1  0  0  0
 35 36  1  0  0  0
 37 38  1  0  0  0
 38 39  1  0  0  0
 38 40  1  0  0  0
 38 41  1  0  0  0
 42 43  1  0  0  0
 43 44  1  0  0  0
 43 45  1  0  0  0
 43 46  1  0  0  0
M  END
>  <ACTIVITY>
6.47

>  <SET>
1

>  <Min_dist>
999.9

>  <Avg_dist>
999.9

$$$$
7-20i
  Cerius2 12110214053D 1   1.00000                          
Structure written by Cerius2 SD Exporter
 44 47  0  0  0  0  0  0  0  0999 V2000
   26.5040   22.0610   16.4730 C   0  0  0  0  0  0
   25.6050   21.4430   17.3880 C   0  0  0  0  0  0
   24.1500   21.3910   17.1570 C   0  0  0  0  0  0
   23.5270   22.2880   16.2730 C   0  0  0  0  0  0
   24.1190   23.0380   15.7500 H   0  0  0  0  0  0
   22.1460   22.2410   16.0450 C   0  0  0  0  0  0
   21.7110   22.9550   15.3530 H   0  0  0  0  0  0
   21.3710   21.2940   16.7140 C   0  0  0  0  0  0
   21.9720   20.3910   17.5990 C   0  0  0  0  0  0
   21.3750   19.6450   18.1200 H   0  0  0  0  0  0
   23.3510   20.4450   17.8210 C   0  0  0  0  0  0
   23.8030   19.7350   18.5130 H   0  0  0  0  0  0
   19.6120   21.1820   16.4760 S   0  0  0  0  0  0
   19.1670   22.4990   16.0320 O   0  0  0  0  0  0
   19.0550   20.6200   17.7040 O   0  0  0  0  0  0
   19.3190   20.0190   15.1740 C   0  0  0  0  0  0
   18.2390   19.8940   15.0700 H   0  0  0  0  0  0
   19.7720   19.0610   15.4350 H   0  0  0  0  0  0
   19.7260   20.4080   14.2380 H   0  0  0  0  0  0
   26.1200   20.8690   18.5690 C   0  0  0  0  0  0
   25.4580   20.3930   19.2880 H   0  0  0  0  0  0
   27.4820   20.9130   18.8420 C   0  0  0  0  0  0
   28.3540   21.5240   17.9570 C   0  0  0  0  0  0
   27.8800   22.0940   16.7820 C   0  0  0  0  0  0
   28.5910   22.5600   16.1040 H   0  0  0  0  0  0
   29.6670   21.5660   18.2290 F   0  0  0  0  0  0
   27.9470   20.3610   19.9720 F   0  0  0  0  0  0
   26.0540   22.6590   15.2030 C   0  0  0  0  0  0
   26.2750   24.0200   14.9340 C   0  0  0  0  0  0
   26.7800   24.6460   15.6690 H   0  0  0  0  0  0
   25.8540   24.5860   13.7290 C   0  0  0  0  0  0
   25.1830   23.8050   12.7840 C   0  0  0  0  0  0
   24.9730   22.4500   13.0270 C   0  0  0  0  0  0
   24.4620   21.8330   12.2920 H   0  0  0  0  0  0
   25.4080   21.8810   14.2270 C   0  0  0  0  0  0
   25.2330   20.8190   14.3990 H   0  0  0  0  0  0
   24.7130   24.3010   11.5970 O   0  0  0  0  0  0
   24.6790   25.7370   11.5980 C   0  0  0  0  0  0
   23.8030   26.0610   12.1740 H   0  0  0  0  0  0
   24.5490   26.0660   10.5620 H   0  0  0  0  0  0
   25.9650   26.3070   12.1730 C   0  0  0  0  0  0
   26.8420   25.9660   11.6110 H   0  0  0  0  0  0
   25.9430   27.4010   12.1430 H   0  0  0  0  0  0
   26.1260   25.9180   13.5470 O   0  0  0  0  0  0
  1  2  1  0  0  0
  1 24  2  0  0  0
  1 28  1  0  0  0
  2  3  1  0  0  0
  2 20  2  0  0  0
  3  4  1  0  0  0
  3 11  2  0  0  0
  4  5  1  0  0  0
  4  6  2  0  0  0
  6  7  1  0  0  0
  6  8  1  0  0  0
  8  9  2  0  0  0
  8 13  1  0  0  0
  9 10  1  0  0  0
  9 11  1  0  0  0
 11 12  1  0  0  0
 13 14  2  0  0  0
 13 15  2  0  0  0
 13 16  1  0  0  0
 16 17  1  0  0  0
 16 18  1  0  0  0
 16 19  1  0  0  0
 20 21  1  0  0  0
 20 22  1  0  0  0
 22 23  2  0  0  0
 22 27  1  0  0  0
 23 24  1  0  0  0
 23 26  1  0  0  0
 24 25  1  0  0  0
 28 29  1  0  0  0
 28 35  2  0  0  0
 29 30  1  0  0  0
 29 31  2  0  0  0
 31 32  1  0  0  0
 31 44  1  0  0  0
 32 33  2  0  0  0
 32 37  1  0  0  0
 33 34  1  0  0  0
 33 35  1  0  0  0
 35 36  1  0  0  0
 37 38  1  0  0  0
 38 39  1  0  0  0
 38 40  1  0  0  0
 38 41  1  0  0  0
 41 42  1  0  0  0
 41 43  1  0  0  0
 41 44  1  0  0  0
M  END
>  <ACTIVITY>
6.47

>  <SET>
1

>  <Min_dist>
999.9

>  <Avg_dist>
999.9

$$$$
7-20j
  Cerius2 12110214053D 1   1.00000                          
Structure written by Cerius2 SD Exporter
 41 44  0  0  0  0  0  0  0  0999 V2000
   26.5000   22.0800   16.4780 C   0  0  0  0  0  0
   25.6090   21.4230   17.3760 C   0  0  0  0  0  0
   24.1490   21.3670   17.1580 C   0  0  0  0  0  0
   23.5200   22.2790   16.2910 C   0  0  0  0  0  0
   24.1080   23.0340   15.7730 H   0  0  0  0  0  0
   22.1390   22.2370   16.0780 C   0  0  0  0  0  0
   21.6830   22.9510   15.3960 H   0  0  0  0  0  0
   21.3690   21.2870   16.7470 C   0  0  0  0  0  0
   21.9670   20.3750   17.6190 C   0  0  0  0  0  0
   21.3750   19.6300   18.1450 H   0  0  0  0  0  0
   23.3510   20.4200   17.8230 C   0  0  0  0  0  0
   23.8040   19.7010   18.5060 H   0  0  0  0  0  0
   19.6140   21.2220   16.4500 S   0  0  0  0  0  0
   19.2050   22.4940   15.8640 O   0  0  0  0  0  0
   18.9680   20.7820   17.6840 O   0  0  0  0  0  0
   19.4410   19.9500   15.2300 C   0  0  0  0  0  0
   18.3780   19.8290   15.0120 H   0  0  0  0  0  0
   19.8460   19.0180   15.6290 H   0  0  0  0  0  0
   19.9750   20.2540   14.3270 H   0  0  0  0  0  0
   26.1310   20.8330   18.5470 C   0  0  0  0  0  0
   25.4770   20.3230   19.2500 H   0  0  0  0  0  0
   27.4850   20.9130   18.8390 C   0  0  0  0  0  0
   28.3480   21.5740   17.9800 C   0  0  0  0  0  0
   27.8690   22.1510   16.8090 C   0  0  0  0  0  0
   28.5760   22.6480   16.1500 H   0  0  0  0  0  0
   29.6530   21.6590   18.2730 F   0  0  0  0  0  0
   27.9560   20.3490   19.9620 F   0  0  0  0  0  0
   26.0570   22.6760   15.1980 C   0  0  0  0  0  0
   26.2730   24.0420   14.9320 C   0  0  0  0  0  0
   26.7590   24.6880   15.6570 H   0  0  0  0  0  0
   25.8430   24.5520   13.7230 C   0  0  0  0  0  0
   25.2230   23.7670   12.7810 C   0  0  0  0  0  0
   24.9990   22.4250   12.9920 C   0  0  0  0  0  0
   24.5150   21.8080   12.2420 H   0  0  0  0  0  0
   25.4250   21.8810   14.2100 C   0  0  0  0  0  0
   25.2600   20.8200   14.3900 H   0  0  0  0  0  0
   24.8790   24.4640   11.6650 O   0  0  0  0  0  0
   25.3210   25.7940   12.0250 C   0  0  0  0  0  0
   24.4500   26.4580   12.0440 H   0  0  0  0  0  0
   26.0250   26.1490   11.2630 H   0  0  0  0  0  0
   25.9710   25.8440   13.3170 O   0  0  0  0  0  0
  1  2  1  0  0  0
  1 24  2  0  0  0
  1 28  1  0  0  0
  2  3  1  0  0  0
  2 20  2  0  0  0
  3  4  1  0  0  0
  3 11  2  0  0  0
  4  5  1  0  0  0
  4  6  2  0  0  0
  6  7  1  0  0  0
  6  8  1  0  0  0
  8  9  2  0  0  0
  8 13  1  0  0  0
  9 10  1  0  0  0
  9 11  1  0  0  0
 11 12  1  0  0  0
 13 14  2  0  0  0
 13 15  2  0  0  0
 13 16  1  0  0  0
 16 17  1  0  0  0
 16 18  1  0  0  0
 16 19  1  0  0  0
 20 21  1  0  0  0
 20 22  1  0  0  0
 22 23  2  0  0  0
 22 27  1  0  0  0
 23 24  1  0  0  0
 23 26  1  0  0  0
 24 25  1  0  0  0
 28 29  1  0  0  0
 28 35  2  0  0  0
 29 30  1  0  0  0
 29 31  2  0  0  0
 31 32  1  0  0  0
 31 41  1  0  0  0
 32 33  2  0  0  0
 32 37  1  0  0  0
 33 34  1  0  0  0
 33 35  1  0  0  0
 35 36  1  0  0  0
 37 38  1  0  0  0
 38 39  1  0  0  0
 38 40  1  0  0  0
 38 41  1  0  0  0
M  END
>  <ACTIVITY>
7.92

>  <SET>
1

>  <Min_dist>
999.9

>  <Avg_dist>
999.9

$$$$
7-20k
  Cerius2 12110214053D 1   1.00000                          
Structure written by Cerius2 SD Exporter
 41 43  0  0  0  0  0  0  0  0999 V2000
   26.5070   22.0400   16.4630 C   0  0  0  0  0  0
   25.6090   21.4590   17.4030 C   0  0  0  0  0  0
   24.1550   21.3990   17.1730 C   0  0  0  0  0  0
   23.5340   22.2950   16.2850 C   0  0  0  0  0  0
   24.1270   23.0430   15.7590 H   0  0  0  0  0  0
   22.1570   22.2350   16.0510 C   0  0  0  0  0  0
   21.7030   22.9360   15.3540 H   0  0  0  0  0  0
   21.3890   21.2720   16.7070 C   0  0  0  0  0  0
   21.9810   20.3860   17.6090 C   0  0  0  0  0  0
   21.3880   19.6390   18.1330 H   0  0  0  0  0  0
   23.3580   20.4520   17.8380 C   0  0  0  0  0  0
   23.8110   19.7520   18.5390 H   0  0  0  0  0  0
   19.6370   21.1910   16.4170 S   0  0  0  0  0  0
   19.2110   22.4760   15.8700 O   0  0  0  0  0  0
   19.0010   20.7140   17.6410 O   0  0  0  0  0  0
   19.4770   19.9500   15.1610 C   0  0  0  0  0  0
   18.4160   19.8390   14.9260 H   0  0  0  0  0  0
   19.8730   19.0060   15.5400 H   0  0  0  0  0  0
   20.0230   20.2710   14.2720 H   0  0  0  0  0  0
   26.1260   20.9130   18.5950 C   0  0  0  0  0  0
   25.4650   20.4600   19.3300 H   0  0  0  0  0  0
   27.4930   20.9350   18.8470 C   0  0  0  0  0  0
   28.3670   21.4940   17.9290 C   0  0  0  0  0  0
   27.8870   22.0430   16.7460 C   0  0  0  0  0  0
   28.5950   22.4830   16.0470 H   0  0  0  0  0  0
   29.6840   21.5120   18.1800 F   0  0  0  0  0  0
   27.9620   20.4070   19.9870 F   0  0  0  0  0  0
   26.0460   22.6520   15.2040 C   0  0  0  0  0  0
   26.2670   24.0120   14.9400 C   0  0  0  0  0  0
   26.7850   24.6340   15.6690 H   0  0  0  0  0  0
   25.8230   24.5930   13.7480 C   0  0  0  0  0  0
   26.0000   25.6540   13.5780 H   0  0  0  0  0  0
   25.1600   23.8220   12.7880 C   0  0  0  0  0  0
   24.9290   22.4670   13.0460 C   0  0  0  0  0  0
   24.3990   21.8500   12.3220 H   0  0  0  0  0  0
   25.3750   21.8870   14.2380 C   0  0  0  0  0  0
   25.1820   20.8290   14.4140 H   0  0  0  0  0  0
   24.6490   24.4520   11.5250 C   0  0  0  0  0  0
   24.6490   23.7320   10.7010 H   0  0  0  0  0  0
   25.2850   25.2920   11.2230 H   0  0  0  0  0  0
   23.6290   24.8170   11.6770 H   0  0  0  0  0  0
  1  2  1  0  0  0
  1 24  2  0  0  0
  1 28  1  0  0  0
  2  3  1  0  0  0
  2 20  2  0  0  0
  3  4  1  0  0  0
  3 11  2  0  0  0
  4  5  1  0  0  0
  4  6  2  0  0  0
  6  7  1  0  0  0
  6  8  1  0  0  0
  8  9  2  0  0  0
  8 13  1  0  0  0
  9 10  1  0  0  0
  9 11  1  0  0  0
 11 12  1  0  0  0
 13 14  2  0  0  0
 13 15  2  0  0  0
 13 16  1  0  0  0
 16 17  1  0  0  0
 16 18  1  0  0  0
 16 19  1  0  0  0
 20 21  1  0  0  0
 20 22  1  0  0  0
 22 23  2  0  0  0
 22 27  1  0  0  0
 23 24  1  0  0  0
 23 26  1  0  0  0
 24 25  1  0  0  0
 28 29  1  0  0  0
 28 36  2  0  0  0
 29 30  1  0  0  0
 29 31  2  0  0  0
 31 32  1  0  0  0
 31 33  1  0  0  0
 33 34  2  0  0  0
 33 38  1  0  0  0
 34 35  1  0  0  0
 34 36  1  0  0  0
 36 37  1  0  0  0
 38 39  1  0  0  0
 38 40  1  0  0  0
 38 41  1  0  0  0
M  END
>  <ACTIVITY>
8.15

>  <SET>
1

>  <Min_dist>
999.9

>  <Avg_dist>
999.9

$$$$
7-20o
  Cerius2 12110214053D 1   1.00000                          
Structure written by Cerius2 SD Exporter
 46 48  0  0  0  0  0  0  0  0999 V2000
   26.5130   22.0320   16.4610 C   0  0  0  0  0  0
   25.6090   21.4700   17.4060 C   0  0  0  0  0  0
   24.1560   21.4070   17.1670 C   0  0  0  0  0  0
   23.5330   22.3010   16.2790 C   0  0  0  0  0  0
   24.1230   23.0510   15.7540 H   0  0  0  0  0  0
   22.1570   22.2360   16.0450 C   0  0  0  0  0  0
   21.7000   22.9360   15.3490 H   0  0  0  0  0  0
   21.3910   21.2700   16.7010 C   0  0  0  0  0  0
   21.9870   20.3830   17.6000 C   0  0  0  0  0  0
   21.3950   19.6350   18.1240 H   0  0  0  0  0  0
   23.3640   20.4520   17.8270 C   0  0  0  0  0  0
   23.8190   19.7520   18.5270 H   0  0  0  0  0  0
   19.6380   21.1820   16.4240 S   0  0  0  0  0  0
   19.1990   22.4650   15.8810 O   0  0  0  0  0  0
   19.0170   20.6990   17.6530 O   0  0  0  0  0  0
   19.4750   19.9450   15.1650 C   0  0  0  0  0  0
   18.4130   19.8390   14.9290 H   0  0  0  0  0  0
   19.8660   18.9970   15.5410 H   0  0  0  0  0  0
   20.0230   20.2650   14.2770 H   0  0  0  0  0  0
   26.1160   20.9330   18.6060 C   0  0  0  0  0  0
   25.4470   20.4960   19.3440 H   0  0  0  0  0  0
   27.4820   20.9390   18.8600 C   0  0  0  0  0  0
   28.3630   21.4750   17.9340 C   0  0  0  0  0  0
   27.8930   22.0170   16.7440 C   0  0  0  0  0  0
   28.6080   22.4370   16.0410 H   0  0  0  0  0  0
   29.6800   21.4750   18.1860 F   0  0  0  0  0  0
   27.9440   20.4170   20.0050 F   0  0  0  0  0  0
   26.0520   22.6440   15.2010 C   0  0  0  0  0  0
   26.2910   23.9960   14.9290 C   0  0  0  0  0  0
   26.8560   24.5930   15.6430 H   0  0  0  0  0  0
   25.8210   24.5960   13.7490 C   0  0  0  0  0  0
   25.0860   23.8650   12.7870 C   0  0  0  0  0  0
   24.8950   22.4980   13.0630 C   0  0  0  0  0  0
   24.3380   21.8660   12.3730 H   0  0  0  0  0  0
   25.3630   21.8980   14.2420 C   0  0  0  0  0  0
   25.1610   20.8400   14.4080 H   0  0  0  0  0  0
   24.5560   24.4170   11.6230 N   0  0  0  0  0  0
   25.4060   24.6960   10.4670 C   0  0  0  0  0  0
   24.9260   25.4300    9.8120 H   0  0  0  0  0  0
   25.5800   23.7860    9.8840 H   0  0  0  0  0  0
   26.3690   25.1190   10.7730 H   0  0  0  0  0  0
   23.1130   24.3740   11.3870 C   0  0  0  0  0  0
   22.9040   24.1080   10.3440 H   0  0  0  0  0  0
   22.6680   25.3560   11.5710 H   0  0  0  0  0  0
   22.6120   23.6230   12.0080 H   0  0  0  0  0  0
   26.2750   26.2560   13.5160 Cl  0  0  0  0  0  0
  1  2  1  0  0  0
  1 24  2  0  0  0
  1 28  1  0  0  0
  2  3  1  0  0  0
  2 20  2  0  0  0
  3  4  1  0  0  0
  3 11  2  0  0  0
  4  5  1  0  0  0
  4  6  2  0  0  0
  6  7  1  0  0  0
  6  8  1  0  0  0
  8  9  2  0  0  0
  8 13  1  0  0  0
  9 10  1  0  0  0
  9 11  1  0  0  0
 11 12  1  0  0  0
 13 14  2  0  0  0
 13 15  2  0  0  0
 13 16  1  0  0  0
 16 17  1  0  0  0
 16 18  1  0  0  0
 16 19  1  0  0  0
 20 21  1  0  0  0
 20 22  1  0  0  0
 22 23  2  0  0  0
 22 27  1  0  0  0
 23 24  1  0  0  0
 23 26  1  0  0  0
 24 25  1  0  0  0
 28 29  1  0  0  0
 28 35  2  0  0  0
 29 30  1  0  0  0
 29 31  2  0  0  0
 31 32  1  0  0  0
 31 46  1  0  0  0
 32 33  2  0  0  0
 32 37  1  0  0  0
 33 34  1  0  0  0
 33 35  1  0  0  0
 35 36  1  0  0  0
 37 38  1  0  0  0
 37 42  1  0  0  0
 38 39  1  0  0  0
 38 40  1  0  0  0
 38 41  1  0  0  0
 42 43  1  0  0  0
 42 44  1  0  0  0
 42 45  1  0  0  0
M  END
>  <ACTIVITY>
8.1

>  <SET>
1

>  <Min_dist>
999.9

>  <Avg_dist>
999.9

$$$$
7-20p
  Cerius2 12110214053D 1   1.00000                          
Structure written by Cerius2 SD Exporter
 40 42  0  0  0  0  0  0  0  0999 V2000
   26.5000   22.0540   16.4510 C   0  0  0  0  0  0
   25.6000   21.4670   17.3870 C   0  0  0  0  0  0
   24.1440   21.3990   17.1610 C   0  0  0  0  0  0
   23.5110   22.2960   16.2830 C   0  0  0  0  0  0
   24.0940   23.0520   15.7560 H   0  0  0  0  0  0
   22.1320   22.2340   16.0610 C   0  0  0  0  0  0
   21.6690   22.9390   15.3730 H   0  0  0  0  0  0
   21.3720   21.2650   16.7180 C   0  0  0  0  0  0
   21.9740   20.3750   17.6080 C   0  0  0  0  0  0
   21.3890   19.6240   18.1340 H   0  0  0  0  0  0
   23.3540   20.4440   17.8250 C   0  0  0  0  0  0
   23.8120   19.7420   18.5220 H   0  0  0  0  0  0
   19.6150   21.1920   16.4480 S   0  0  0  0  0  0
   19.1890   22.4840   15.9200 O   0  0  0  0  0  0
   18.9910   20.7030   17.6740 O   0  0  0  0  0  0
   19.4360   19.9630   15.1820 C   0  0  0  0  0  0
   18.3720   19.8580   14.9600 H   0  0  0  0  0  0
   19.8340   19.0150   15.5470 H   0  0  0  0  0  0
   19.9710   20.2920   14.2890 H   0  0  0  0  0  0
   26.1180   20.9000   18.5710 C   0  0  0  0  0  0
   25.4560   20.4420   19.3020 H   0  0  0  0  0  0
   27.4850   20.9000   18.8200 C   0  0  0  0  0  0
   28.3620   21.4560   17.9040 C   0  0  0  0  0  0
   27.8830   22.0260   16.7310 C   0  0  0  0  0  0
   28.5950   22.4600   16.0320 H   0  0  0  0  0  0
   29.6810   21.4490   18.1460 F   0  0  0  0  0  0
   27.9520   20.3510   19.9500 F   0  0  0  0  0  0
   26.0550   22.6970   15.2000 C   0  0  0  0  0  0
   26.2580   24.0500   14.9410 C   0  0  0  0  0  0
   26.7590   24.6900   15.6620 H   0  0  0  0  0  0
   25.8160   24.5830   13.7310 C   0  0  0  0  0  0
   25.9740   25.6390   13.5210 H   0  0  0  0  0  0
   25.1800   23.7600   12.8040 C   0  0  0  0  0  0
   25.0440   22.4160   13.1300 C   0  0  0  0  0  0
   24.5780   21.7180   12.4370 H   0  0  0  0  0  0
   25.4650   21.8700   14.2980 N   0  0  0  0  0  0
   24.7200   24.2840   11.4800 C   0  0  0  0  0  0
   23.8070   23.7750   11.1570 H   0  0  0  0  0  0
   25.4980   24.1320   10.7250 H   0  0  0  0  0  0
   24.4920   25.3540   11.5400 H   0  0  0  0  0  0
  1  2  1  0  0  0
  1 24  2  0  0  0
  1 28  1  0  0  0
  2  3  1  0  0  0
  2 20  2  0  0  0
  3  4  1  0  0  0
  3 11  2  0  0  0
  4  5  1  0  0  0
  4  6  2  0  0  0
  6  7  1  0  0  0
  6  8  1  0  0  0
  8  9  2  0  0  0
  8 13  1  0  0  0
  9 10  1  0  0  0
  9 11  1  0  0  0
 11 12  1  0  0  0
 13 14  2  0  0  0
 13 15  2  0  0  0
 13 16  1  0  0  0
 16 17  1  0  0  0
 16 18  1  0  0  0
 16 19  1  0  0  0
 20 21  1  0  0  0
 20 22  1  0  0  0
 22 23  2  0  0  0
 22 27  1  0  0  0
 23 24  1  0  0  0
 23 26  1  0  0  0
 24 25  1  0  0  0
 28 29  1  0  0  0
 28 36  2  0  0  0
 29 30  1  0  0  0
 29 31  2  0  0  0
 31 32  1  0  0  0
 31 33  1  0  0  0
 33 34  2  0  0  0
 33 37  1  0  0  0
 34 35  1  0  0  0
 34 36  1  0  0  0
 37 38  1  0  0  0
 37 39  1  0  0  0
 37 40  1  0  0  0
M  END
>  <ACTIVITY>
4.28

>  <SET>
2

>  <Min_dist>
0.15

>  <Avg_dist>
0.52

$$$$
7-20q
  Cerius2 12110214053D 1   1.00000                          
Structure written by Cerius2 SD Exporter
 40 42  0  0  0  0  0  0  0  0999 V2000
   26.5000   22.0690   16.4790 C   0  0  0  0  0  0
   25.6050   21.4340   17.3830 C   0  0  0  0  0  0
   24.1520   21.3690   17.1470 C   0  0  0  0  0  0
   23.5230   22.2820   16.2830 C   0  0  0  0  0  0
   24.1080   23.0450   15.7710 H   0  0  0  0  0  0
   22.1420   22.2350   16.0720 C   0  0  0  0  0  0
   21.6780   22.9570   15.4040 H   0  0  0  0  0  0
   21.3760   21.2650   16.7230 C   0  0  0  0  0  0
   21.9790   20.3520   17.5900 C   0  0  0  0  0  0
   21.3930   19.5970   18.1080 H   0  0  0  0  0  0
   23.3610   20.4070   17.7990 C   0  0  0  0  0  0
   23.8210   19.6880   18.4760 H   0  0  0  0  0  0
   19.6160   21.2310   16.4710 S   0  0  0  0  0  0
   19.2170   22.5430   15.9700 O   0  0  0  0  0  0
   18.9900   20.7340   17.6930 O   0  0  0  0  0  0
   19.3920   20.0260   15.1900 C   0  0  0  0  0  0
   18.3210   19.9370   14.9920 H   0  0  0  0  0  0
   19.7880   19.0680   15.5300 H   0  0  0  0  0  0
   19.9080   20.3620   14.2890 H   0  0  0  0  0  0
   26.1180   20.8630   18.5660 C   0  0  0  0  0  0
   25.4560   20.3740   19.2770 H   0  0  0  0  0  0
   27.4760   20.9300   18.8530 C   0  0  0  0  0  0
   28.3460   21.5560   17.9770 C   0  0  0  0  0  0
   27.8720   22.1220   16.8000 C   0  0  0  0  0  0
   28.5810   22.6010   16.1280 H   0  0  0  0  0  0
   29.6550   21.6200   18.2610 F   0  0  0  0  0  0
   27.9390   20.3890   19.9890 F   0  0  0  0  0  0
   26.0540   22.6650   15.2110 C   0  0  0  0  0  0
   26.2570   24.0180   14.9260 C   0  0  0  0  0  0
   26.7390   24.6700   15.6530 H   0  0  0  0  0  0
   25.8370   24.5500   13.7080 C   0  0  0  0  0  0
   25.9910   25.6030   13.4900 H   0  0  0  0  0  0
   25.2230   23.7120   12.7830 C   0  0  0  0  0  0
   25.0130   22.3950   13.0220 N   0  0  0  0  0  0
   25.4290   21.9080   14.2210 C   0  0  0  0  0  0
   25.2460   20.8450   14.3670 H   0  0  0  0  0  0
   24.7650   24.2600   11.4640 C   0  0  0  0  0  0
   24.3460   23.4650   10.8380 H   0  0  0  0  0  0
   23.9900   25.0170   11.6200 H   0  0  0  0  0  0
   25.6060   24.7090   10.9280 H   0  0  0  0  0  0
  1  2  1  0  0  0
  1 24  2  0  0  0
  1 28  1  0  0  0
  2  3  1  0  0  0
  2 20  2  0  0  0
  3  4  1  0  0  0
  3 11  2  0  0  0
  4  5  1  0  0  0
  4  6  2  0  0  0
  6  7  1  0  0  0
  6  8  1  0  0  0
  8  9  2  0  0  0
  8 13  1  0  0  0
  9 10  1  0  0  0
  9 11  1  0  0  0
 11 12  1  0  0  0
 13 14  2  0  0  0
 13 15  2  0  0  0
 13 16  1  0  0  0
 16 17  1  0  0  0
 16 18  1  0  0  0
 16 19  1  0  0  0
 20 21  1  0  0  0
 20 22  1  0  0  0
 22 23  2  0  0  0
 22 27  1  0  0  0
 23 24  1  0  0  0
 23 26  1  0  0  0
 24 25  1  0  0  0
 28 29  1  0  0  0
 28 35  2  0  0  0
 29 30  1  0  0  0
 29 31  2  0  0  0
 31 32  1  0  0  0
 31 33  1  0  0  0
 33 34  2  0  0  0
 33 37  1  0  0  0
 34 35  1  0  0  0
 35 36  1  0  0  0
 37 38  1  0  0  0
 37 39  1  0  0  0
 37 40  1  0  0  0
M  END
>  <ACTIVITY>
6.77

>  <SET>
2

>  <Min_dist>
0.15

>  <Avg_dist>
0.53

$$$$
7-21c
  Cerius2 12110214053D 1   1.00000                          
Structure written by Cerius2 SD Exporter
 40 42  0  0  0  0  0  0  0  0999 V2000
   26.5030   22.0590   16.4710 C   0  0  0  0  0  0
   25.6070   21.4430   17.3890 C   0  0  0  0  0  0
   24.1510   21.3850   17.1590 C   0  0  0  0  0  0
   23.5230   22.2860   16.2820 C   0  0  0  0  0  0
   24.1100   23.0410   15.7600 H   0  0  0  0  0  0
   22.1430   22.2330   16.0660 C   0  0  0  0  0  0
   21.6780   22.9390   15.3820 H   0  0  0  0  0  0
   21.3750   21.2790   16.7370 C   0  0  0  0  0  0
   21.9780   20.3740   17.6130 C   0  0  0  0  0  0
   21.3890   19.6240   18.1370 H   0  0  0  0  0  0
   23.3590   20.4330   17.8240 C   0  0  0  0  0  0
   23.8180   19.7210   18.5090 H   0  0  0  0  0  0
   19.6300   21.2070   16.4390 S   0  0  0  0  0  0
   19.1700   22.4910   15.9380 O   0  0  0  0  0  0
   18.9830   20.5860   17.5800 O   0  0  0  0  0  0
   19.5350   20.1290   15.1610 N   0  0  0  0  0  0
   19.1480   20.5770   14.3260 H   0  0  0  0  0  0
   19.0010   19.2950   15.4200 H   0  0  0  0  0  0
   26.1220   20.8770   18.5730 C   0  0  0  0  0  0
   25.4600   20.4030   19.2950 H   0  0  0  0  0  0
   27.4830   20.9240   18.8450 C   0  0  0  0  0  0
   28.3550   21.5300   17.9550 C   0  0  0  0  0  0
   27.8780   22.0950   16.7780 C   0  0  0  0  0  0
   28.5870   22.5590   16.0960 H   0  0  0  0  0  0
   29.6680   21.5720   18.2240 F   0  0  0  0  0  0
   27.9510   20.3820   19.9790 F   0  0  0  0  0  0
   26.0510   22.6540   15.2000 C   0  0  0  0  0  0
   26.2730   24.0160   14.9280 C   0  0  0  0  0  0
   26.7760   24.6360   15.6710 H   0  0  0  0  0  0
   25.8460   24.5960   13.7240 C   0  0  0  0  0  0
   25.1770   23.7960   12.7970 C   0  0  0  0  0  0
   24.9540   22.4460   13.0380 C   0  0  0  0  0  0
   24.4360   21.8420   12.2980 H   0  0  0  0  0  0
   25.3930   21.8750   14.2330 C   0  0  0  0  0  0
   25.2140   20.8160   14.4110 H   0  0  0  0  0  0
   24.7360   24.3300   11.6490 F   0  0  0  0  0  0
   26.0510   26.0580   13.4640 C   0  0  0  0  0  0
   26.2890   26.2350   12.4100 H   0  0  0  0  0  0
   26.8850   26.4500   14.0540 H   0  0  0  0  0  0
   25.1460   26.6150   13.7240 H   0  0  0  0  0  0
  1  2  1  0  0  0
  1 23  2  0  0  0
  1 27  1  0  0  0
  2  3  1  0  0  0
  2 19  2  0  0  0
  3  4  1  0  0  0
  3 11  2  0  0  0
  4  5  1  0  0  0
  4  6  2  0  0  0
  6  7  1  0  0  0
  6  8  1  0  0  0
  8  9  2  0  0  0
  8 13  1  0  0  0
  9 10  1  0  0  0
  9 11  1  0  0  0
 11 12  1  0  0  0
 13 14  2  0  0  0
 13 15  2  0  0  0
 13 16  1  0  0  0
 16 17  1  0  0  0
 16 18  1  0  0  0
 19 20  1  0  0  0
 19 21  1  0  0  0
 21 22  2  0  0  0
 21 26  1  0  0  0
 22 23  1  0  0  0
 22 25  1  0  0  0
 23 24  1  0  0  0
 27 28  1  0  0  0
 27 34  2  0  0  0
 28 29  1  0  0  0
 28 30  2  0  0  0
 30 31  1  0  0  0
 30 37  1  0  0  0
 31 32  2  0  0  0
 31 36  1  0  0  0
 32 33  1  0  0  0
 32 34  1  0  0  0
 34 35  1  0  0  0
 37 38  1  0  0  0
 37 39  1  0  0  0
 37 40  1  0  0  0
M  END
>  <ACTIVITY>
8.7

>  <SET>
1

>  <Min_dist>
999.9

>  <Avg_dist>
999.9

$$$$
7-21d
  Cerius2 12110214053D 1   1.00000                          
Structure written by Cerius2 SD Exporter
 41 43  0  0  0  0  0  0  0  0999 V2000
   26.5050   22.0580   16.4730 C   0  0  0  0  0  0
   25.6130   21.4420   17.3960 C   0  0  0  0  0  0
   24.1590   21.3940   17.1690 C   0  0  0  0  0  0
   23.5420   22.2870   16.2770 C   0  0  0  0  0  0
   24.1360   23.0340   15.7520 H   0  0  0  0  0  0
   22.1650   22.2300   16.0460 C   0  0  0  0  0  0
   21.7070   22.9280   15.3480 H   0  0  0  0  0  0
   21.3920   21.2730   16.7070 C   0  0  0  0  0  0
   21.9830   20.3860   17.6090 C   0  0  0  0  0  0
   21.3890   19.6410   18.1340 H   0  0  0  0  0  0
   23.3610   20.4500   17.8370 C   0  0  0  0  0  0
   23.8140   19.7470   18.5350 H   0  0  0  0  0  0
   19.6450   21.2190   16.4150 S   0  0  0  0  0  0
   19.2290   22.4810   15.8290 O   0  0  0  0  0  0
   18.9720   20.6930   17.5890 O   0  0  0  0  0  0
   19.5210   20.0480   15.2240 N   0  0  0  0  0  0
   19.1340   20.4370   14.3600 H   0  0  0  0  0  0
   18.9750   19.2460   15.5500 H   0  0  0  0  0  0
   26.1320   20.8690   18.5730 C   0  0  0  0  0  0
   25.4730   20.3940   19.2960 H   0  0  0  0  0  0
   27.4960   20.9110   18.8360 C   0  0  0  0  0  0
   28.3640   21.5170   17.9410 C   0  0  0  0  0  0
   27.8820   22.0880   16.7700 C   0  0  0  0  0  0
   28.5870   22.5490   16.0820 H   0  0  0  0  0  0
   29.6790   21.5530   18.2020 F   0  0  0  0  0  0
   27.9700   20.3620   19.9630 F   0  0  0  0  0  0
   26.0410   22.6550   15.2090 C   0  0  0  0  0  0
   26.2580   24.0110   14.9320 C   0  0  0  0  0  0
   26.7730   24.6460   15.6480 H   0  0  0  0  0  0
   25.8060   24.5750   13.7370 C   0  0  0  0  0  0
   25.1330   23.8050   12.7850 C   0  0  0  0  0  0
   24.9210   22.4510   13.0540 C   0  0  0  0  0  0
   24.4000   21.8260   12.3310 H   0  0  0  0  0  0
   25.3720   21.8810   14.2490 C   0  0  0  0  0  0
   25.1910   20.8210   14.4280 H   0  0  0  0  0  0
   24.6360   24.2210   11.5790 O   0  0  0  0  0  0
   24.8180   25.5930   11.2390 C   0  0  0  0  0  0
   24.3680   25.7530   10.2540 H   0  0  0  0  0  0
   25.8810   25.8420   11.1630 H   0  0  0  0  0  0
   24.3000   26.2460   11.9490 H   0  0  0  0  0  0
   26.0430   25.8800   13.5420 F   0  0  0  0  0  0
  1  2  1  0  0  0
  1 23  2  0  0  0
  1 27  1  0  0  0
  2  3  1  0  0  0
  2 19  2  0  0  0
  3  4  1  0  0  0
  3 11  2  0  0  0
  4  5  1  0  0  0
  4  6  2  0  0  0
  6  7  1  0  0  0
  6  8  1  0  0  0
  8  9  2  0  0  0
  8 13  1  0  0  0
  9 10  1  0  0  0
  9 11  1  0  0  0
 11 12  1  0  0  0
 13 14  2  0  0  0
 13 15  2  0  0  0
 13 16  1  0  0  0
 16 17  1  0  0  0
 16 18  1  0  0  0
 19 20  1  0  0  0
 19 21  1  0  0  0
 21 22  2  0  0  0
 21 26  1  0  0  0
 22 23  1  0  0  0
 22 25  1  0  0  0
 23 24  1  0  0  0
 27 28  1  0  0  0
 27 34  2  0  0  0
 28 29  1  0  0  0
 28 30  2  0  0  0
 30 31  1  0  0  0
 30 41  1  0  0  0
 31 32  2  0  0  0
 31 36  1  0  0  0
 32 33  1  0  0  0
 32 34  1  0  0  0
 34 35  1  0  0  0
 36 37  1  0  0  0
 37 38  1  0  0  0
 37 39  1  0  0  0
 37 40  1  0  0  0
M  END
>  <ACTIVITY>
7.89

>  <SET>
1

>  <Min_dist>
999.9

>  <Avg_dist>
999.9

$$$$
7-21g
  Cerius2 12110214053D 1   1.00000                          
Structure written by Cerius2 SD Exporter
 44 46  0  0  0  0  0  0  0  0999 V2000
   26.5020   22.0610   16.4730 C   0  0  0  0  0  0
   25.6050   21.4430   17.3900 C   0  0  0  0  0  0
   24.1500   21.3840   17.1590 C   0  0  0  0  0  0
   23.5210   22.2850   16.2830 C   0  0  0  0  0  0
   24.1070   23.0430   15.7640 H   0  0  0  0  0  0
   22.1420   22.2270   16.0620 C   0  0  0  0  0  0
   21.6780   22.9330   15.3760 H   0  0  0  0  0  0
   21.3770   21.2620   16.7190 C   0  0  0  0  0  0
   21.9780   20.3650   17.6040 C   0  0  0  0  0  0
   21.3900   19.6140   18.1270 H   0  0  0  0  0  0
   23.3580   20.4290   17.8210 C   0  0  0  0  0  0
   23.8170   19.7180   18.5080 H   0  0  0  0  0  0
   19.6260   21.2150   16.4530 S   0  0  0  0  0  0
   19.2030   22.4790   15.8770 O   0  0  0  0  0  0
   18.9690   20.6870   17.6360 O   0  0  0  0  0  0
   19.4810   20.0490   15.2600 N   0  0  0  0  0  0
   19.0830   20.4430   14.4030 H   0  0  0  0  0  0
   18.9380   19.2480   15.5900 H   0  0  0  0  0  0
   26.1210   20.8750   18.5730 C   0  0  0  0  0  0
   25.4590   20.3990   19.2940 H   0  0  0  0  0  0
   27.4820   20.9240   18.8470 C   0  0  0  0  0  0
   28.3540   21.5330   17.9580 C   0  0  0  0  0  0
   27.8770   22.0970   16.7820 C   0  0  0  0  0  0
   28.5860   22.5600   16.0990 H   0  0  0  0  0  0
   29.6660   21.5760   18.2280 F   0  0  0  0  0  0
   27.9490   20.3810   19.9800 F   0  0  0  0  0  0
   26.0520   22.6550   15.2010 C   0  0  0  0  0  0
   26.2750   24.0120   14.9250 C   0  0  0  0  0  0
   26.7810   24.6310   15.6670 H   0  0  0  0  0  0
   25.8490   24.5930   13.7170 C   0  0  0  0  0  0
   25.1870   23.8010   12.7620 C   0  0  0  0  0  0
   24.9710   22.4470   13.0270 C   0  0  0  0  0  0
   24.4710   21.7930   12.3170 H   0  0  0  0  0  0
   25.4010   21.8810   14.2320 C   0  0  0  0  0  0
   25.2210   20.8220   14.4080 H   0  0  0  0  0  0
   24.8020   24.4450   11.6150 O   0  0  0  0  0  0
   24.0590   23.6880   10.6620 C   0  0  0  0  0  0
   23.8000   24.3550    9.8350 H   0  0  0  0  0  0
   23.1240   23.3170   11.0960 H   0  0  0  0  0  0
   24.6620   22.8700   10.2550 H   0  0  0  0  0  0
   26.1040   26.0560   13.4690 C   0  0  0  0  0  0
   26.7310   26.1850   12.5810 H   0  0  0  0  0  0
   26.6220   26.5230   14.3120 H   0  0  0  0  0  0
   25.1570   26.5860   13.3270 H   0  0  0  0  0  0
  1  2  1  0  0  0
  1 23  2  0  0  0
  1 27  1  0  0  0
  2  3  1  0  0  0
  2 19  2  0  0  0
  3  4  1  0  0  0
  3 11  2  0  0  0
  4  5  1  0  0  0
  4  6  2  0  0  0
  6  7  1  0  0  0
  6  8  1  0  0  0
  8  9  2  0  0  0
  8 13  1  0  0  0
  9 10  1  0  0  0
  9 11  1  0  0  0
 11 12  1  0  0  0
 13 14  2  0  0  0
 13 15  2  0  0  0
 13 16  1  0  0  0
 16 17  1  0  0  0
 16 18  1  0  0  0
 19 20  1  0  0  0
 19 21  1  0  0  0
 21 22  2  0  0  0
 21 26  1  0  0  0
 22 23  1  0  0  0
 22 25  1  0  0  0
 23 24  1  0  0  0
 27 28  1  0  0  0
 27 34  2  0  0  0
 28 29  1  0  0  0
 28 30  2  0  0  0
 30 31  1  0  0  0
 30 41  1  0  0  0
 31 32  2  0  0  0
 31 36  1  0  0  0
 32 33  1  0  0  0
 32 34  1  0  0  0
 34 35  1  0  0  0
 36 37  1  0  0  0
 37 38  1  0  0  0
 37 39  1  0  0  0
 37 40  1  0  0  0
 41 42  1  0  0  0
 41 43  1  0  0  0
 41 44  1  0  0  0
M  END
>  <ACTIVITY>
8.3

>  <SET>
1

>  <Min_dist>
999.9

>  <Avg_dist>
999.9

$$$$
7-21h
  Cerius2 12110214053D 1   1.00000                          
Structure written by Cerius2 SD Exporter
 45 47  0  0  0  0  0  0  0  0999 V2000
   26.5070   22.0580   16.4730 C   0  0  0  0  0  0
   25.6130   21.4450   17.3940 C   0  0  0  0  0  0
   24.1600   21.3900   17.1600 C   0  0  0  0  0  0
   23.5390   22.2900   16.2780 C   0  0  0  0  0  0
   24.1300   23.0440   15.7580 H   0  0  0  0  0  0
   22.1620   22.2340   16.0500 C   0  0  0  0  0  0
   21.7000   22.9380   15.3600 H   0  0  0  0  0  0
   21.3910   21.2720   16.7080 C   0  0  0  0  0  0
   21.9860   20.3760   17.5970 C   0  0  0  0  0  0
   21.3940   19.6270   18.1190 H   0  0  0  0  0  0
   23.3650   20.4380   17.8210 C   0  0  0  0  0  0
   23.8200   19.7300   18.5120 H   0  0  0  0  0  0
   19.6440   21.2250   16.4220 S   0  0  0  0  0  0
   19.2300   22.4920   15.8470 O   0  0  0  0  0  0
   18.9730   20.6900   17.5940 O   0  0  0  0  0  0
   19.5100   20.0620   15.2230 N   0  0  0  0  0  0
   19.1170   20.4590   14.3660 H   0  0  0  0  0  0
   18.9640   19.2600   15.5480 H   0  0  0  0  0  0
   26.1290   20.8780   18.5760 C   0  0  0  0  0  0
   25.4680   20.4050   19.2990 H   0  0  0  0  0  0
   27.4930   20.9210   18.8410 C   0  0  0  0  0  0
   28.3630   21.5230   17.9460 C   0  0  0  0  0  0
   27.8840   22.0890   16.7710 C   0  0  0  0  0  0
   28.5900   22.5490   16.0830 H   0  0  0  0  0  0
   29.6770   21.5600   18.2100 F   0  0  0  0  0  0
   27.9640   20.3770   19.9720 F   0  0  0  0  0  0
   26.0450   22.6540   15.2100 C   0  0  0  0  0  0
   26.2700   24.0080   14.9310 C   0  0  0  0  0  0
   26.8030   24.6300   15.6480 H   0  0  0  0  0  0
   25.8030   24.5690   13.7390 C   0  0  0  0  0  0
   25.1440   23.7910   12.7770 C   0  0  0  0  0  0
   24.9270   22.4390   13.0480 C   0  0  0  0  0  0
   24.4140   21.7850   12.3480 H   0  0  0  0  0  0
   25.3710   21.8790   14.2540 C   0  0  0  0  0  0
   25.1850   20.8220   14.4410 H   0  0  0  0  0  0
   24.7570   24.4410   11.6350 O   0  0  0  0  0  0
   25.0710   25.8280   11.5420 C   0  0  0  0  0  0
   24.6840   26.1940   10.5860 H   0  0  0  0  0  0
   26.1540   25.9880   11.5460 H   0  0  0  0  0  0
   24.5810   26.3970   12.3390 H   0  0  0  0  0  0
   26.0540   25.8970   13.4860 O   0  0  0  0  0  0
   26.7300   26.4860   14.6020 C   0  0  0  0  0  0
   26.8060   27.5620   14.4150 H   0  0  0  0  0  0
   27.7450   26.0870   14.7020 H   0  0  0  0  0  0
   26.1680   26.3410   15.5310 H   0  0  0  0  0  0
  1  2  1  0  0  0
  1 23  2  0  0  0
  1 27  1  0  0  0
  2  3  1  0  0  0
  2 19  2  0  0  0
  3  4  1  0  0  0
  3 11  2  0  0  0
  4  5  1  0  0  0
  4  6  2  0  0  0
  6  7  1  0  0  0
  6  8  1  0  0  0
  8  9  2  0  0  0
  8 13  1  0  0  0
  9 10  1  0  0  0
  9 11  1  0  0  0
 11 12  1  0  0  0
 13 14  2  0  0  0
 13 15  2  0  0  0
 13 16  1  0  0  0
 16 17  1  0  0  0
 16 18  1  0  0  0
 19 20  1  0  0  0
 19 21  1  0  0  0
 21 22  2  0  0  0
 21 26  1  0  0  0
 22 23  1  0  0  0
 22 25  1  0  0  0
 23 24  1  0  0  0
 27 28  1  0  0  0
 27 34  2  0  0  0
 28 29  1  0  0  0
 28 30  2  0  0  0
 30 31  1  0  0  0
 30 41  1  0  0  0
 31 32  2  0  0  0
 31 36  1  0  0  0
 32 33  1  0  0  0
 32 34  1  0  0  0
 34 35  1  0  0  0
 36 37  1  0  0  0
 37 38  1  0  0  0
 37 39  1  0  0  0
 37 40  1  0  0  0
 41 42  1  0  0  0
 42 43  1  0  0  0
 42 44  1  0  0  0
 42 45  1  0  0  0
M  END
>  <ACTIVITY>
7.19

>  <SET>
2

>  <Min_dist>
0.12

>  <Avg_dist>
0.59

$$$$
7-21i
  Cerius2 12110214053D 1   1.00000                          
Structure written by Cerius2 SD Exporter
 43 46  0  0  0  0  0  0  0  0999 V2000
   26.5050   22.0620   16.4730 C   0  0  0  0  0  0
   25.6100   21.4430   17.3910 C   0  0  0  0  0  0
   24.1560   21.3890   17.1630 C   0  0  0  0  0  0
   23.5320   22.2880   16.2810 C   0  0  0  0  0  0
   24.1210   23.0410   15.7580 H   0  0  0  0  0  0
   22.1540   22.2310   16.0560 C   0  0  0  0  0  0
   21.6910   22.9330   15.3650 H   0  0  0  0  0  0
   21.3840   21.2700   16.7160 C   0  0  0  0  0  0
   21.9800   20.3770   17.6070 C   0  0  0  0  0  0
   21.3890   19.6290   18.1310 H   0  0  0  0  0  0
   23.3600   20.4390   17.8270 C   0  0  0  0  0  0
   23.8160   19.7320   18.5190 H   0  0  0  0  0  0
   19.6370   21.2190   16.4290 S   0  0  0  0  0  0
   19.2220   22.4840   15.8480 O   0  0  0  0  0  0
   18.9660   20.6880   17.6020 O   0  0  0  0  0  0
   19.5070   20.0520   15.2340 N   0  0  0  0  0  0
   19.1140   20.4440   14.3750 H   0  0  0  0  0  0
   18.9630   19.2490   15.5610 H   0  0  0  0  0  0
   26.1290   20.8700   18.5700 C   0  0  0  0  0  0
   25.4700   20.3920   19.2900 H   0  0  0  0  0  0
   27.4920   20.9160   18.8370 C   0  0  0  0  0  0
   28.3610   21.5270   17.9480 C   0  0  0  0  0  0
   27.8810   22.0960   16.7740 C   0  0  0  0  0  0
   28.5870   22.5620   16.0910 H   0  0  0  0  0  0
   29.6750   21.5690   18.2140 F   0  0  0  0  0  0
   27.9630   20.3670   19.9660 F   0  0  0  0  0  0
   26.0460   22.6570   15.2060 C   0  0  0  0  0  0
   26.2650   24.0170   14.9310 C   0  0  0  0  0  0
   26.7830   24.6430   15.6560 H   0  0  0  0  0  0
   25.8220   24.5790   13.7330 C   0  0  0  0  0  0
   25.1370   23.7940   12.8010 C   0  0  0  0  0  0
   24.9330   22.4400   13.0480 C   0  0  0  0  0  0
   24.4120   21.8200   12.3210 H   0  0  0  0  0  0
   25.3840   21.8750   14.2440 C   0  0  0  0  0  0
   25.2090   20.8150   14.4250 H   0  0  0  0  0  0
   24.6450   24.2870   11.6210 O   0  0  0  0  0  0
   24.5910   25.7230   11.6330 C   0  0  0  0  0  0
   23.7280   26.0310   12.2350 H   0  0  0  0  0  0
   24.4270   26.0560   10.6030 H   0  0  0  0  0  0
   25.8860   26.3030   12.1770 C   0  0  0  0  0  0
   26.7520   25.9700   11.5930 H   0  0  0  0  0  0
   25.8520   27.3970   12.1480 H   0  0  0  0  0  0
   26.0850   25.9120   13.5450 O   0  0  0  0  0  0
  1  2  1  0  0  0
  1 23  2  0  0  0
  1 27  1  0  0  0
  2  3  1  0  0  0
  2 19  2  0  0  0
  3  4  1  0  0  0
  3 11  2  0  0  0
  4  5  1  0  0  0
  4  6  2  0  0  0
  6  7  1  0  0  0
  6  8  1  0  0  0
  8  9  2  0  0  0
  8 13  1  0  0  0
  9 10  1  0  0  0
  9 11  1  0  0  0
 11 12  1  0  0  0
 13 14  2  0  0  0
 13 15  2  0  0  0
 13 16  1  0  0  0
 16 17  1  0  0  0
 16 18  1  0  0  0
 19 20  1  0  0  0
 19 21  1  0  0  0
 21 22  2  0  0  0
 21 26  1  0  0  0
 22 23  1  0  0  0
 22 25  1  0  0  0
 23 24  1  0  0  0
 27 28  1  0  0  0
 27 34  2  0  0  0
 28 29  1  0  0  0
 28 30  2  0  0  0
 30 31  1  0  0  0
 30 43  1  0  0  0
 31 32  2  0  0  0
 31 36  1  0  0  0
 32 33  1  0  0  0
 32 34  1  0  0  0
 34 35  1  0  0  0
 36 37  1  0  0  0
 37 38  1  0  0  0
 37 39  1  0  0  0
 37 40  1  0  0  0
 40 41  1  0  0  0
 40 42  1  0  0  0
 40 43  1  0  0  0
M  END
>  <ACTIVITY>
7.49

>  <SET>
2

>  <Min_dist>
0.12

>  <Avg_dist>
0.64

$$$$
7-21j
  Cerius2 12110214053D 1   1.00000                          
Structure written by Cerius2 SD Exporter
 40 43  0  0  0  0  0  0  0  0999 V2000
   26.5060   22.0670   16.4750 C   0  0  0  0  0  0
   25.6130   21.4420   17.3900 C   0  0  0  0  0  0
   24.1590   21.3880   17.1600 C   0  0  0  0  0  0
   23.5380   22.2890   16.2790 C   0  0  0  0  0  0
   24.1290   23.0430   15.7580 H   0  0  0  0  0  0
   22.1600   22.2360   16.0520 C   0  0  0  0  0  0
   21.6990   22.9400   15.3630 H   0  0  0  0  0  0
   21.3890   21.2740   16.7100 C   0  0  0  0  0  0
   21.9830   20.3780   17.6000 C   0  0  0  0  0  0
   21.3900   19.6310   18.1230 H   0  0  0  0  0  0
   23.3630   20.4380   17.8220 C   0  0  0  0  0  0
   23.8170   19.7290   18.5130 H   0  0  0  0  0  0
   19.6410   21.2290   16.4250 S   0  0  0  0  0  0
   19.2300   22.4970   15.8500 O   0  0  0  0  0  0
   18.9710   20.6950   17.5980 O   0  0  0  0  0  0
   19.5050   20.0660   15.2270 N   0  0  0  0  0  0
   19.1150   20.4630   14.3690 H   0  0  0  0  0  0
   18.9570   19.2650   15.5510 H   0  0  0  0  0  0
   26.1330   20.8640   18.5660 C   0  0  0  0  0  0
   25.4740   20.3790   19.2820 H   0  0  0  0  0  0
   27.4950   20.9150   18.8350 C   0  0  0  0  0  0
   28.3620   21.5340   17.9480 C   0  0  0  0  0  0
   27.8810   22.1060   16.7770 C   0  0  0  0  0  0
   28.5860   22.5760   16.0950 H   0  0  0  0  0  0
   29.6750   21.5800   18.2160 F   0  0  0  0  0  0
   27.9680   20.3630   19.9610 F   0  0  0  0  0  0
   26.0450   22.6660   15.2100 C   0  0  0  0  0  0
   26.2580   24.0310   14.9470 C   0  0  0  0  0  0
   26.7620   24.6710   15.6660 H   0  0  0  0  0  0
   25.8000   24.5480   13.7520 C   0  0  0  0  0  0
   25.1540   23.7670   12.8230 C   0  0  0  0  0  0
   24.9310   22.4250   13.0350 C   0  0  0  0  0  0
   24.4220   21.8120   12.2980 H   0  0  0  0  0  0
   25.3830   21.8740   14.2400 C   0  0  0  0  0  0
   25.2160   20.8140   14.4280 H   0  0  0  0  0  0
   24.7850   24.4690   11.7190 O   0  0  0  0  0  0
   25.2670   25.7910   12.0580 C   0  0  0  0  0  0
   24.4180   26.4830   12.0650 H   0  0  0  0  0  0
   25.9830   26.1110   11.2920 H   0  0  0  0  0  0
   25.9170   25.8420   13.3500 O   0  0  0  0  0  0
  1  2  1  0  0  0
  1 23  2  0  0  0
  1 27  1  0  0  0
  2  3  1  0  0  0
  2 19  2  0  0  0
  3  4  1  0  0  0
  3 11  2  0  0  0
  4  5  1  0  0  0
  4  6  2  0  0  0
  6  7  1  0  0  0
  6  8  1  0  0  0
  8  9  2  0  0  0
  8 13  1  0  0  0
  9 10  1  0  0  0
  9 11  1  0  0  0
 11 12  1  0  0  0
 13 14  2  0  0  0
 13 15  2  0  0  0
 13 16  1  0  0  0
 16 17  1  0  0  0
 16 18  1  0  0  0
 19 20  1  0  0  0
 19 21  1  0  0  0
 21 22  2  0  0  0
 21 26  1  0  0  0
 22 23  1  0  0  0
 22 25  1  0  0  0
 23 24  1  0  0  0
 27 28  1  0  0  0
 27 34  2  0  0  0
 28 29  1  0  0  0
 28 30  2  0  0  0
 30 31  1  0  0  0
 30 40  1  0  0  0
 31 32  2  0  0  0
 31 36  1  0  0  0
 32 33  1  0  0  0
 32 34  1  0  0  0
 34 35  1  0  0  0
 36 37  1  0  0  0
 37 38  1  0  0  0
 37 39  1  0  0  0
 37 40  1  0  0  0
M  END
>  <ACTIVITY>
8.4

>  <SET>
1

>  <Min_dist>
999.9

>  <Avg_dist>
999.9

$$$$
7-21l
  Cerius2 12110214053D 1   1.00000                          
Structure written by Cerius2 SD Exporter
 40 42  0  0  0  0  0  0  0  0999 V2000
   26.5050   22.0550   16.4720 C   0  0  0  0  0  0
   25.6120   21.4460   17.3960 C   0  0  0  0  0  0
   24.1610   21.3890   17.1610 C   0  0  0  0  0  0
   23.5430   22.2900   16.2790 C   0  0  0  0  0  0
   24.1360   23.0450   15.7620 H   0  0  0  0  0  0
   22.1660   22.2350   16.0470 C   0  0  0  0  0  0
   21.7070   22.9420   15.3590 H   0  0  0  0  0  0
   21.3940   21.2690   16.6990 C   0  0  0  0  0  0
   21.9870   20.3730   17.5900 C   0  0  0  0  0  0
   21.3930   19.6240   18.1080 H   0  0  0  0  0  0
   23.3650   20.4350   17.8170 C   0  0  0  0  0  0
   23.8200   19.7270   18.5100 H   0  0  0  0  0  0
   19.6430   21.2260   16.4300 S   0  0  0  0  0  0
   19.2200   22.4940   15.8620 O   0  0  0  0  0  0
   18.9860   20.6920   17.6090 O   0  0  0  0  0  0
   19.4980   20.0690   15.2260 N   0  0  0  0  0  0
   19.1010   20.4710   14.3740 H   0  0  0  0  0  0
   18.9520   19.2660   15.5500 H   0  0  0  0  0  0
   26.1280   20.8840   18.5800 C   0  0  0  0  0  0
   25.4670   20.4130   19.3050 H   0  0  0  0  0  0
   27.4920   20.9290   18.8440 C   0  0  0  0  0  0
   28.3620   21.5260   17.9450 C   0  0  0  0  0  0
   27.8810   22.0870   16.7680 C   0  0  0  0  0  0
   28.5860   22.5470   16.0790 H   0  0  0  0  0  0
   29.6760   21.5650   18.2080 F   0  0  0  0  0  0
   27.9640   20.3910   19.9780 F   0  0  0  0  0  0
   26.0390   22.6520   15.2110 C   0  0  0  0  0  0
   26.2560   24.0090   14.9360 C   0  0  0  0  0  0
   26.7720   24.6300   15.6660 H   0  0  0  0  0  0
   25.8080   24.5770   13.7380 C   0  0  0  0  0  0
   25.1350   23.8000   12.7840 C   0  0  0  0  0  0
   24.9240   22.4410   13.0570 C   0  0  0  0  0  0
   24.4070   21.8070   12.3380 H   0  0  0  0  0  0
   25.3730   21.8750   14.2540 C   0  0  0  0  0  0
   25.1940   20.8160   14.4350 H   0  0  0  0  0  0
   24.6370   24.3800   11.4900 C   0  0  0  0  0  0
   24.1350   23.6220   10.8770 H   0  0  0  0  0  0
   25.4710   24.7760   10.9020 H   0  0  0  0  0  0
   23.9120   25.1770   11.6820 H   0  0  0  0  0  0
   26.1120   26.2590   13.4780 Cl  0  0  0  0  0  0
  1  2  1  0  0  0
  1 23  2  0  0  0
  1 27  1  0  0  0
  2  3  1  0  0  0
  2 19  2  0  0  0
  3  4  1  0  0  0
  3 11  2  0  0  0
  4  5  1  0  0  0
  4  6  2  0  0  0
  6  7  1  0  0  0
  6  8  1  0  0  0
  8  9  2  0  0  0
  8 13  1  0  0  0
  9 10  1  0  0  0
  9 11  1  0  0  0
 11 12  1  0  0  0
 13 14  2  0  0  0
 13 15  2  0  0  0
 13 16  1  0  0  0
 16 17  1  0  0  0
 16 18  1  0  0  0
 19 20  1  0  0  0
 19 21  1  0  0  0
 21 22  2  0  0  0
 21 26  1  0  0  0
 22 23  1  0  0  0
 22 25  1  0  0  0
 23 24  1  0  0  0
 27 28  1  0  0  0
 27 34  2  0  0  0
 28 29  1  0  0  0
 28 30  2  0  0  0
 30 31  1  0  0  0
 30 40  1  0  0  0
 31 32  2  0  0  0
 31 36  1  0  0  0
 32 33  1  0  0  0
 32 34  1  0  0  0
 34 35  1  0  0  0
 36 37  1  0  0  0
 36 38  1  0  0  0
 36 39  1  0  0  0
M  END
>  <ACTIVITY>
8.52

>  <SET>
1

>  <Min_dist>
999.9

>  <Avg_dist>
999.9

$$$$
7-21m
  Cerius2 12110214053D 1   1.00000                          
Structure written by Cerius2 SD Exporter
 43 45  0  0  0  0  0  0  0  0999 V2000
   26.5020   22.0620   16.4740 C   0  0  0  0  0  0
   25.6070   21.4410   17.3900 C   0  0  0  0  0  0
   24.1520   21.3810   17.1580 C   0  0  0  0  0  0
   23.5240   22.2850   16.2830 C   0  0  0  0  0  0
   24.1110   23.0420   15.7640 H   0  0  0  0  0  0
   22.1450   22.2290   16.0620 C   0  0  0  0  0  0
   21.6800   22.9360   15.3780 H   0  0  0  0  0  0
   21.3780   21.2630   16.7170 C   0  0  0  0  0  0
   21.9790   20.3640   17.6010 C   0  0  0  0  0  0
   21.3900   19.6120   18.1210 H   0  0  0  0  0  0
   23.3590   20.4260   17.8170 C   0  0  0  0  0  0
   23.8180   19.7150   18.5040 H   0  0  0  0  0  0
   19.6280   21.2200   16.4510 S   0  0  0  0  0  0
   19.2090   22.4870   15.8790 O   0  0  0  0  0  0
   18.9700   20.6900   17.6320 O   0  0  0  0  0  0
   19.4780   20.0580   15.2540 N   0  0  0  0  0  0
   19.0770   20.4550   14.4000 H   0  0  0  0  0  0
   18.9340   19.2560   15.5840 H   0  0  0  0  0  0
   26.1220   20.8740   18.5730 C   0  0  0  0  0  0
   25.4610   20.3960   19.2920 H   0  0  0  0  0  0
   27.4830   20.9260   18.8470 C   0  0  0  0  0  0
   28.3540   21.5370   17.9590 C   0  0  0  0  0  0
   27.8770   22.1020   16.7830 C   0  0  0  0  0  0
   28.5840   22.5690   16.1010 H   0  0  0  0  0  0
   29.6660   21.5850   18.2310 F   0  0  0  0  0  0
   27.9510   20.3840   19.9800 F   0  0  0  0  0  0
   26.0500   22.6530   15.2020 C   0  0  0  0  0  0
   26.2720   24.0110   14.9230 C   0  0  0  0  0  0
   26.7790   24.6280   15.6650 H   0  0  0  0  0  0
   25.8450   24.5950   13.7160 C   0  0  0  0  0  0
   25.1870   23.7980   12.7600 C   0  0  0  0  0  0
   24.9690   22.4410   13.0340 C   0  0  0  0  0  0
   24.4600   21.8050   12.3090 H   0  0  0  0  0  0
   25.3970   21.8760   14.2380 C   0  0  0  0  0  0
   25.2130   20.8170   14.4190 H   0  0  0  0  0  0
   24.7070   24.3720   11.4540 C   0  0  0  0  0  0
   24.2560   23.6030   10.8180 H   0  0  0  0  0  0
   25.5430   24.8080   10.8990 H   0  0  0  0  0  0
   23.9470   25.1400   11.6350 H   0  0  0  0  0  0
   26.1010   26.0590   13.4760 C   0  0  0  0  0  0
   26.7440   26.1920   12.6010 H   0  0  0  0  0  0
   26.6030   26.5250   14.3300 H   0  0  0  0  0  0
   25.1560   26.5890   13.3210 H   0  0  0  0  0  0
  1  2  1  0  0  0
  1 23  2  0  0  0
  1 27  1  0  0  0
  2  3  1  0  0  0
  2 19  2  0  0  0
  3  4  1  0  0  0
  3 11  2  0  0  0
  4  5  1  0  0  0
  4  6  2  0  0  0
  6  7  1  0  0  0
  6  8  1  0  0  0
  8  9  2  0  0  0
  8 13  1  0  0  0
  9 10  1  0  0  0
  9 11  1  0  0  0
 11 12  1  0  0  0
 13 14  2  0  0  0
 13 15  2  0  0  0
 13 16  1  0  0  0
 16 17  1  0  0  0
 16 18  1  0  0  0
 19 20  1  0  0  0
 19 21  1  0  0  0
 21 22  2  0  0  0
 21 26  1  0  0  0
 22 23  1  0  0  0
 22 25  1  0  0  0
 23 24  1  0  0  0
 27 28  1  0  0  0
 27 34  2  0  0  0
 28 29  1  0  0  0
 28 30  2  0  0  0
 30 31  1  0  0  0
 30 40  1  0  0  0
 31 32  2  0  0  0
 31 36  1  0  0  0
 32 33  1  0  0  0
 32 34  1  0  0  0
 34 35  1  0  0  0
 36 37  1  0  0  0
 36 38  1  0  0  0
 36 39  1  0  0  0
 40 41  1  0  0  0
 40 42  1  0  0  0
 40 43  1  0  0  0
M  END
>  <ACTIVITY>
8.3

>  <SET>
2

>  <Min_dist>
0.05

>  <Avg_dist>
0.57

$$$$
7-21o
  Cerius2 12110214053D 1   1.00000                          
Structure written by Cerius2 SD Exporter
 45 47  0  0  0  0  0  0  0  0999 V2000
   26.5060   22.0610   16.4760 C   0  0  0  0  0  0
   25.6100   21.4420   17.3900 C   0  0  0  0  0  0
   24.1560   21.3820   17.1540 C   0  0  0  0  0  0
   23.5300   22.2870   16.2790 C   0  0  0  0  0  0
   24.1170   23.0470   15.7640 H   0  0  0  0  0  0
   22.1510   22.2320   16.0560 C   0  0  0  0  0  0
   21.6870   22.9420   15.3740 H   0  0  0  0  0  0
   21.3830   21.2650   16.7090 C   0  0  0  0  0  0
   21.9830   20.3620   17.5890 C   0  0  0  0  0  0
   21.3930   19.6100   18.1070 H   0  0  0  0  0  0
   23.3630   20.4240   17.8080 C   0  0  0  0  0  0
   23.8200   19.7100   18.4930 H   0  0  0  0  0  0
   19.6300   21.2280   16.4490 S   0  0  0  0  0  0
   19.2120   22.5000   15.8870 O   0  0  0  0  0  0
   18.9750   20.6930   17.6290 O   0  0  0  0  0  0
   19.4720   20.0740   15.2450 N   0  0  0  0  0  0
   19.0750   20.4800   14.3940 H   0  0  0  0  0  0
   18.9190   19.2770   15.5710 H   0  0  0  0  0  0
   26.1240   20.8750   18.5730 C   0  0  0  0  0  0
   25.4630   20.3960   19.2920 H   0  0  0  0  0  0
   27.4860   20.9270   18.8470 C   0  0  0  0  0  0
   28.3570   21.5380   17.9590 C   0  0  0  0  0  0
   27.8810   22.1020   16.7830 C   0  0  0  0  0  0
   28.5880   22.5660   16.1000 H   0  0  0  0  0  0
   29.6690   21.5860   18.2330 F   0  0  0  0  0  0
   27.9540   20.3840   19.9800 F   0  0  0  0  0  0
   26.0500   22.6540   15.2080 C   0  0  0  0  0  0
   26.2720   24.0050   14.9240 C   0  0  0  0  0  0
   26.8020   24.6240   15.6470 H   0  0  0  0  0  0
   25.8230   24.5770   13.7210 C   0  0  0  0  0  0
   25.1270   23.8170   12.7520 C   0  0  0  0  0  0
   24.9430   22.4530   13.0500 C   0  0  0  0  0  0
   24.4130   21.8010   12.3570 H   0  0  0  0  0  0
   25.3900   21.8820   14.2490 C   0  0  0  0  0  0
   25.2060   20.8230   14.4270 H   0  0  0  0  0  0
   24.6310   24.3360   11.5580 N   0  0  0  0  0  0
   25.5200   24.5990   10.4280 C   0  0  0  0  0  0
   25.0550   25.3090    9.7350 H   0  0  0  0  0  0
   25.7310   23.6780    9.8760 H   0  0  0  0  0  0
   26.4630   25.0470   10.7600 H   0  0  0  0  0  0
   23.1970   24.2820   11.2730 C   0  0  0  0  0  0
   23.0250   23.9830   10.2320 H   0  0  0  0  0  0
   22.7450   25.2690   11.4100 H   0  0  0  0  0  0
   22.6750   23.5500   11.8990 H   0  0  0  0  0  0
   26.2580   26.2400   13.4710 Cl  0  0  0  0  0  0
  1  2  1  0  0  0
  1 23  2  0  0  0
  1 27  1  0  0  0
  2  3  1  0  0  0
  2 19  2  0  0  0
  3  4  1  0  0  0
  3 11  2  0  0  0
  4  5  1  0  0  0
  4  6  2  0  0  0
  6  7  1  0  0  0
  6  8  1  0  0  0
  8  9  2  0  0  0
  8 13  1  0  0  0
  9 10  1  0  0  0
  9 11  1  0  0  0
 11 12  1  0  0  0
 13 14  2  0  0  0
 13 15  2  0  0  0
 13 16  1  0  0  0
 16 17  1  0  0  0
 16 18  1  0  0  0
 19 20  1  0  0  0
 19 21  1  0  0  0
 21 22  2  0  0  0
 21 26  1  0  0  0
 22 23  1  0  0  0
 22 25  1  0  0  0
 23 24  1  0  0  0
 27 28  1  0  0  0
 27 34  2  0  0  0
 28 29  1  0  0  0
 28 30  2  0  0  0
 30 31  1  0  0  0
 30 45  1  0  0  0
 31 32  2  0  0  0
 31 36  1  0  0  0
 32 33  1  0  0  0
 32 34  1  0  0  0
 34 35  1  0  0  0
 36 37  1  0  0  0
 36 41  1  0  0  0
 37 38  1  0  0  0
 37 39  1  0  0  0
 37 40  1  0  0  0
 41 42  1  0  0  0
 41 43  1  0  0  0
 41 44  1  0  0  0
M  END
>  <ACTIVITY>
8.22

>  <SET>
2

>  <Min_dist>
0.16

>  <Avg_dist>
0.57

$$$$
7-21p
  Cerius2 12110214053D 1   1.00000                          
Structure written by Cerius2 SD Exporter
 39 41  0  0  0  0  0  0  0  0999 V2000
   26.4990   22.0560   16.4520 C   0  0  0  0  0  0
   25.5990   21.4680   17.3860 C   0  0  0  0  0  0
   24.1430   21.3950   17.1580 C   0  0  0  0  0  0
   23.5080   22.2940   16.2840 C   0  0  0  0  0  0
   24.0880   23.0520   15.7580 H   0  0  0  0  0  0
   22.1280   22.2300   16.0640 C   0  0  0  0  0  0
   21.6590   22.9340   15.3790 H   0  0  0  0  0  0
   21.3680   21.2580   16.7190 C   0  0  0  0  0  0
   21.9750   20.3640   17.6020 C   0  0  0  0  0  0
   21.3920   19.6090   18.1240 H   0  0  0  0  0  0
   23.3550   20.4350   17.8180 C   0  0  0  0  0  0
   23.8150   19.7310   18.5110 H   0  0  0  0  0  0
   19.6170   21.2030   16.4550 S   0  0  0  0  0  0
   19.1880   22.4610   15.8710 O   0  0  0  0  0  0
   18.9640   20.6810   17.6420 O   0  0  0  0  0  0
   19.4760   20.0270   15.2700 N   0  0  0  0  0  0
   19.0720   20.4140   14.4130 H   0  0  0  0  0  0
   18.9360   19.2260   15.6080 H   0  0  0  0  0  0
   26.1160   20.9020   18.5710 C   0  0  0  0  0  0
   25.4540   20.4420   19.3010 H   0  0  0  0  0  0
   27.4830   20.9040   18.8220 C   0  0  0  0  0  0
   28.3600   21.4620   17.9080 C   0  0  0  0  0  0
   27.8820   22.0310   16.7350 C   0  0  0  0  0  0
   28.5940   22.4660   16.0360 H   0  0  0  0  0  0
   29.6790   21.4580   18.1530 F   0  0  0  0  0  0
   27.9490   20.3560   19.9530 F   0  0  0  0  0  0
   26.0570   22.6980   15.2000 C   0  0  0  0  0  0
   26.2550   24.0520   14.9410 C   0  0  0  0  0  0
   26.7440   24.6950   15.6670 H   0  0  0  0  0  0
   25.8190   24.5820   13.7290 C   0  0  0  0  0  0
   25.9590   25.6420   13.5250 H   0  0  0  0  0  0
   25.2120   23.7510   12.7880 C   0  0  0  0  0  0
   25.0530   22.4130   13.1260 C   0  0  0  0  0  0
   24.5720   21.7170   12.4410 H   0  0  0  0  0  0
   25.4680   21.8700   14.2970 N   0  0  0  0  0  0
   24.6980   24.2900   11.4910 C   0  0  0  0  0  0
   23.6630   24.6260   11.6080 H   0  0  0  0  0  0
   24.7350   23.5250   10.7080 H   0  0  0  0  0  0
   25.3070   25.1330   11.1500 H   0  0  0  0  0  0
  1  2  1  0  0  0
  1 23  2  0  0  0
  1 27  1  0  0  0
  2  3  1  0  0  0
  2 19  2  0  0  0
  3  4  1  0  0  0
  3 11  2  0  0  0
  4  5  1  0  0  0
  4  6  2  0  0  0
  6  7  1  0  0  0
  6  8  1  0  0  0
  8  9  2  0  0  0
  8 13  1  0  0  0
  9 10  1  0  0  0
  9 11  1  0  0  0
 11 12  1  0  0  0
 13 14  2  0  0  0
 13 15  2  0  0  0
 13 16  1  0  0  0
 16 17  1  0  0  0
 16 18  1  0  0  0
 19 20  1  0  0  0
 19 21  1  0  0  0
 21 22  2  0  0  0
 21 26  1  0  0  0
 22 23  1  0  0  0
 22 25  1  0  0  0
 23 24  1  0  0  0
 27 28  1  0  0  0
 27 35  2  0  0  0
 28 29  1  0  0  0
 28 30  2  0  0  0
 30 31  1  0  0  0
 30 32  1  0  0  0
 32 33  2  0  0  0
 32 36  1  0  0  0
 33 34  1  0  0  0
 33 35  1  0  0  0
 36 37  1  0  0  0
 36 38  1  0  0  0
 36 39  1  0  0  0
M  END
>  <ACTIVITY>
6.48

>  <SET>
1

>  <Min_dist>
999.9

>  <Avg_dist>
999.9

$$$$
7-21q
  Cerius2 12110214053D 1   1.00000                          
Structure written by Cerius2 SD Exporter
 39 41  0  0  0  0  0  0  0  0999 V2000
   26.5060   22.0660   16.4830 C   0  0  0  0  0  0
   25.6070   21.4420   17.3930 C   0  0  0  0  0  0
   24.1530   21.3910   17.1610 C   0  0  0  0  0  0
   23.5270   22.2910   16.2810 C   0  0  0  0  0  0
   24.1140   23.0440   15.7580 H   0  0  0  0  0  0
   22.1480   22.2380   16.0620 C   0  0  0  0  0  0
   21.6850   22.9430   15.3740 H   0  0  0  0  0  0
   21.3760   21.2880   16.7350 C   0  0  0  0  0  0
   21.9760   20.3850   17.6150 C   0  0  0  0  0  0
   21.3850   19.6390   18.1400 H   0  0  0  0  0  0
   23.3570   20.4420   17.8270 C   0  0  0  0  0  0
   23.8130   19.7320   18.5160 H   0  0  0  0  0  0
   19.6330   21.2120   16.4300 S   0  0  0  0  0  0
   19.1950   22.4480   15.8060 O   0  0  0  0  0  0
   18.9670   20.7110   17.6190 O   0  0  0  0  0  0
   19.5300   20.0180   15.2600 N   0  0  0  0  0  0
   19.1540   20.3910   14.3840 H   0  0  0  0  0  0
   18.9820   19.2210   15.5920 H   0  0  0  0  0  0
   26.1210   20.8500   18.5640 C   0  0  0  0  0  0
   25.4570   20.3690   19.2790 H   0  0  0  0  0  0
   27.4840   20.8750   18.8310 C   0  0  0  0  0  0
   28.3600   21.4810   17.9440 C   0  0  0  0  0  0
   27.8850   22.0700   16.7790 C   0  0  0  0  0  0
   28.5970   22.5300   16.0980 H   0  0  0  0  0  0
   29.6750   21.4980   18.2050 F   0  0  0  0  0  0
   27.9500   20.3060   19.9520 F   0  0  0  0  0  0
   26.0530   22.6870   15.2240 C   0  0  0  0  0  0
   26.2210   24.0570   14.9370 C   0  0  0  0  0  0
   26.6240   24.6310   15.5790 H   0  0  0  0  0  0
   25.7850   24.5490   13.6990 C   0  0  0  0  0  0
   25.9050   25.5960   13.4330 H   0  0  0  0  0  0
   25.1870   23.6830   12.7980 C   0  0  0  0  0  0
   25.0020   22.3670   13.0370 N   0  0  0  0  0  0
   25.4380   21.9070   14.2380 C   0  0  0  0  0  0
   25.2820   20.8400   14.3980 H   0  0  0  0  0  0
   24.7050   24.1810   11.4680 C   0  0  0  0  0  0
   24.3250   23.4610   10.9790 H   0  0  0  0  0  0
   24.0490   24.8550   11.6010 H   0  0  0  0  0  0
   25.4370   24.5430   10.9810 H   0  0  0  0  0  0
  1  2  1  0  0  0
  1 23  2  0  0  0
  1 27  1  0  0  0
  2  3  1  0  0  0
  2 19  2  0  0  0
  3  4  1  0  0  0
  3 11  2  0  0  0
  4  5  1  0  0  0
  4  6  2  0  0  0
  6  7  1  0  0  0
  6  8  1  0  0  0
  8  9  2  0  0  0
  8 13  1  0  0  0
  9 10  1  0  0  0
  9 11  1  0  0  0
 11 12  1  0  0  0
 13 14  2  0  0  0
 13 15  2  0  0  0
 13 16  1  0  0  0
 16 17  1  0  0  0
 16 18  1  0  0  0
 19 20  1  0  0  0
 19 21  1  0  0  0
 21 22  2  0  0  0
 21 26  1  0  0  0
 22 23  1  0  0  0
 22 25  1  0  0  0
 23 24  1  0  0  0
 27 28  1  0  0  0
 27 34  2  0  0  0
 28 29  1  0  0  0
 28 30  2  0  0  0
 30 31  1  0  0  0
 30 32  1  0  0  0
 32 33  2  0  0  0
 32 36  1  0  0  0
 33 34  1  0  0  0
 34 35  1  0  0  0
 36 37  1  0  0  0
 36 38  1  0  0  0
 36 39  1  0  0  0
M  END
>  <ACTIVITY>
7.29

>  <SET>
1

>  <Min_dist>
999.9

>  <Avg_dist>
999.9

$$$$
7-32
  Cerius2 12110214053D 1   1.00000                          
Structure written by Cerius2 SD Exporter
 41 44  0  0  0  0  0  0  0  0999 V2000
   26.5070   22.0640   16.4740 C   0  0  0  0  0  0
   25.6100   21.4400   17.3980 C   0  0  0  0  0  0
   24.1560   21.3870   17.1650 C   0  0  0  0  0  0
   23.5360   22.2870   16.2820 C   0  0  0  0  0  0
   24.1280   23.0400   15.7630 H   0  0  0  0  0  0
   22.1580   22.2340   16.0550 C   0  0  0  0  0  0
   21.7010   22.9430   15.3680 H   0  0  0  0  0  0
   21.3880   21.2710   16.7110 C   0  0  0  0  0  0
   21.9810   20.3770   17.6040 C   0  0  0  0  0  0
   21.3890   19.6290   18.1270 H   0  0  0  0  0  0
   23.3590   20.4380   17.8270 C   0  0  0  0  0  0
   23.8140   19.7310   18.5210 H   0  0  0  0  0  0
   19.6340   21.2190   16.4280 S   0  0  0  0  0  0
   19.2330   22.5160   15.8930 O   0  0  0  0  0  0
   18.9900   20.7410   17.6480 O   0  0  0  0  0  0
   19.4460   19.9860   15.1670 C   0  0  0  0  0  0
   18.3820   19.8910   14.9420 H   0  0  0  0  0  0
   19.8330   19.0350   15.5390 H   0  0  0  0  0  0
   19.9870   20.3030   14.2740 H   0  0  0  0  0  0
   26.1210   20.8610   18.5790 C   0  0  0  0  0  0
   25.4630   20.3810   19.2990 H   0  0  0  0  0  0
   27.4780   20.9180   18.8130 C   0  0  0  0  0  0
   28.3360   21.5230   17.9310 C   0  0  0  0  0  0
   27.8880   22.1020   16.7640 C   0  0  0  0  0  0
   28.5920   22.5690   16.0800 H   0  0  0  0  0  0
   29.6310   21.4710   18.3460 O   0  0  0  0  0  0
   29.4920   20.7540   19.5960 C   0  0  0  0  0  0
   30.0850   19.8340   19.5410 H   0  0  0  0  0  0
   29.8820   21.3820   20.4050 H   0  0  0  0  0  0
   28.1200   20.4060   19.8970 O   0  0  0  0  0  0
   26.0420   22.6580   15.2070 C   0  0  0  0  0  0
   26.2580   24.0200   14.9310 C   0  0  0  0  0  0
   26.7650   24.6540   15.6580 H   0  0  0  0  0  0
   25.8200   24.5810   13.7290 C   0  0  0  0  0  0
   25.9860   25.6340   13.5210 H   0  0  0  0  0  0
   25.1700   23.7830   12.7960 C   0  0  0  0  0  0
   24.9490   22.4340   13.0410 C   0  0  0  0  0  0
   24.4420   21.8230   12.3000 H   0  0  0  0  0  0
   25.3860   21.8730   14.2430 C   0  0  0  0  0  0
   25.2110   20.8140   14.4260 H   0  0  0  0  0  0
   24.7530   24.3210   11.6420 F   0  0  0  0  0  0
  1  2  1  0  0  0
  1 24  2  0  0  0
  1 31  1  0  0  0
  2  3  1  0  0  0
  2 20  2  0  0  0
  3  4  1  0  0  0
  3 11  2  0  0  0
  4  5  1  0  0  0
  4  6  2  0  0  0
  6  7  1  0  0  0
  6  8  1  0  0  0
  8  9  2  0  0  0
  8 13  1  0  0  0
  9 10  1  0  0  0
  9 11  1  0  0  0
 11 12  1  0  0  0
 13 14  2  0  0  0
 13 15  2  0  0  0
 13 16  1  0  0  0
 16 17  1  0  0  0
 16 18  1  0  0  0
 16 19  1  0  0  0
 20 21  1  0  0  0
 20 22  1  0  0  0
 22 23  2  0  0  0
 22 30  1  0  0  0
 23 24  1  0  0  0
 23 26  1  0  0  0
 24 25  1  0  0  0
 26 27  1  0  0  0
 27 28  1  0  0  0
 27 29  1  0  0  0
 27 30  1  0  0  0
 31 32  1  0  0  0
 31 39  2  0  0  0
 32 33  1  0  0  0
 32 34  2  0  0  0
 34 35  1  0  0  0
 34 36  1  0  0  0
 36 37  2  0  0  0
 36 41  1  0  0  0
 37 38  1  0  0  0
 37 39  1  0  0  0
 39 40  1  0  0  0
M  END
>  <ACTIVITY>
7.08

>  <SET>
2

>  <Min_dist>
0.08

>  <Avg_dist>
0.65

$$$$
7-34
  Cerius2 12110214053D 1   1.00000                          
Structure written by Cerius2 SD Exporter
 38 40  0  0  0  0  0  0  0  0999 V2000
   26.5050   22.0520   16.4710 C   0  0  0  0  0  0
   25.6150   21.4470   17.3960 C   0  0  0  0  0  0
   24.1650   21.3920   17.1610 C   0  0  0  0  0  0
   23.5490   22.2920   16.2750 C   0  0  0  0  0  0
   24.1420   23.0440   15.7550 H   0  0  0  0  0  0
   22.1720   22.2380   16.0440 C   0  0  0  0  0  0
   21.7170   22.9460   15.3550 H   0  0  0  0  0  0
   21.4000   21.2760   16.6990 C   0  0  0  0  0  0
   21.9910   20.3790   17.5910 C   0  0  0  0  0  0
   21.3970   19.6300   18.1120 H   0  0  0  0  0  0
   23.3690   20.4390   17.8180 C   0  0  0  0  0  0
   23.8210   19.7300   18.5110 H   0  0  0  0  0  0
   19.6450   21.2250   16.4160 S   0  0  0  0  0  0
   19.2430   22.5210   15.8810 O   0  0  0  0  0  0
   19.0030   20.7480   17.6370 O   0  0  0  0  0  0
   19.4570   19.9920   15.1550 C   0  0  0  0  0  0
   18.3910   19.8850   14.9450 H   0  0  0  0  0  0
   19.8610   19.0460   15.5220 H   0  0  0  0  0  0
   19.9830   20.3180   14.2560 H   0  0  0  0  0  0
   26.1420   20.8920   18.5780 C   0  0  0  0  0  0
   27.5040   20.9310   18.8520 C   0  0  0  0  0  0
   28.3710   21.5250   17.9530 C   0  0  0  0  0  0
   27.8790   22.0770   16.7760 C   0  0  0  0  0  0
   28.7450   22.6430   15.9180 F   0  0  0  0  0  0
   29.6860   21.5680   18.2150 F   0  0  0  0  0  0
   27.9770   20.3950   19.9880 F   0  0  0  0  0  0
   25.3210   20.3130   19.4710 F   0  0  0  0  0  0
   26.0350   22.6480   15.2100 C   0  0  0  0  0  0
   26.2520   24.0100   14.9380 C   0  0  0  0  0  0
   26.7730   24.6390   15.6580 H   0  0  0  0  0  0
   25.7980   24.5790   13.7450 C   0  0  0  0  0  0
   25.9660   25.6320   13.5400 H   0  0  0  0  0  0
   25.1290   23.7880   12.8200 C   0  0  0  0  0  0
   24.9030   22.4390   13.0640 C   0  0  0  0  0  0
   24.3770   21.8350   12.3300 H   0  0  0  0  0  0
   25.3560   21.8690   14.2570 C   0  0  0  0  0  0
   25.1730   20.8110   14.4390 H   0  0  0  0  0  0
   24.6970   24.3330   11.6750 F   0  0  0  0  0  0
  1  2  1  0  0  0
  1 23  2  0  0  0
  1 28  1  0  0  0
  2  3  1  0  0  0
  2 20  2  0  0  0
  3  4  1  0  0  0
  3 11  2  0  0  0
  4  5  1  0  0  0
  4  6  2  0  0  0
  6  7  1  0  0  0
  6  8  1  0  0  0
  8  9  2  0  0  0
  8 13  1  0  0  0
  9 10  1  0  0  0
  9 11  1  0  0  0
 11 12  1  0  0  0
 13 14  2  0  0  0
 13 15  2  0  0  0
 13 16  1  0  0  0
 16 17  1  0  0  0
 16 18  1  0  0  0
 16 19  1  0  0  0
 20 21  1  0  0  0
 20 27  1  0  0  0
 21 22  2  0  0  0
 21 26  1  0  0  0
 22 23  1  0  0  0
 22 25  1  0  0  0
 23 24  1  0  0  0
 28 29  1  0  0  0
 28 36  2  0  0  0
 29 30  1  0  0  0
 29 31  2  0  0  0
 31 32  1  0  0  0
 31 33  1  0  0  0
 33 34  2  0  0  0
 33 38  1  0  0  0
 34 35  1  0  0  0
 34 36  1  0  0  0
 36 37  1  0  0  0
M  END
>  <ACTIVITY>
4

>  <SET>
3

>  <Min_dist>
0.07

>  <Avg_dist>
0.56

$$$$
7-36
  Cerius2 12110214053D 1   1.00000                          
Structure written by Cerius2 SD Exporter
 44 47  0  0  0  0  0  0  0  0999 V2000
   26.5050   22.0350   16.4640 C   0  0  0  0  0  0
   25.6130   21.4660   17.4050 C   0  0  0  0  0  0
   24.1590   21.4150   17.1790 C   0  0  0  0  0  0
   23.5410   22.2990   16.2780 C   0  0  0  0  0  0
   24.1370   23.0390   15.7440 H   0  0  0  0  0  0
   22.1660   22.2330   16.0370 C   0  0  0  0  0  0
   21.7140   22.9210   15.3260 H   0  0  0  0  0  0
   21.3960   21.2760   16.7020 C   0  0  0  0  0  0
   21.9850   20.4040   17.6200 C   0  0  0  0  0  0
   21.3900   19.6630   18.1510 H   0  0  0  0  0  0
   23.3610   20.4750   17.8530 C   0  0  0  0  0  0
   23.8140   19.7830   18.5630 H   0  0  0  0  0  0
   19.6470   21.1800   16.4000 S   0  0  0  0  0  0
   19.2160   22.4540   15.8320 O   0  0  0  0  0  0
   19.0060   20.7140   17.6260 O   0  0  0  0  0  0
   19.5040   19.9210   15.1590 C   0  0  0  0  0  0
   18.4440   19.7880   14.9310 H   0  0  0  0  0  0
   19.9190   18.9890   15.5470 H   0  0  0  0  0  0
   20.0400   20.2420   14.2630 H   0  0  0  0  0  0
   26.1330   20.9140   18.5930 C   0  0  0  0  0  0
   25.4440   20.4740   19.3160 H   0  0  0  0  0  0
   27.5100   20.9060   18.8650 C   0  0  0  0  0  0
   28.4000   21.4650   17.9260 C   0  0  0  0  0  0
   27.8870   22.0210   16.7420 C   0  0  0  0  0  0
   28.5750   22.4610   16.0180 H   0  0  0  0  0  0
   29.7790   21.4560   18.1950 C   0  0  0  0  0  0
   30.4830   21.8840   17.4830 H   0  0  0  0  0  0
   30.2710   20.9000   19.3780 C   0  0  0  0  0  0
   31.3420   20.8990   19.5730 H   0  0  0  0  0  0
   29.3920   20.3480   20.3050 C   0  0  0  0  0  0
   29.7740   19.9150   21.2280 H   0  0  0  0  0  0
   28.0200   20.3510   20.0510 C   0  0  0  0  0  0
   27.3480   19.9140   20.7890 H   0  0  0  0  0  0
   26.0400   22.6490   15.2060 C   0  0  0  0  0  0
   26.2660   24.0120   14.9410 C   0  0  0  0  0  0
   26.8000   24.6290   15.6640 H   0  0  0  0  0  0
   25.8110   24.5960   13.7570 C   0  0  0  0  0  0
   25.9840   25.6510   13.5610 H   0  0  0  0  0  0
   25.1320   23.8190   12.8280 C   0  0  0  0  0  0
   24.9040   22.4680   13.0580 C   0  0  0  0  0  0
   24.3730   21.8740   12.3190 H   0  0  0  0  0  0
   25.3580   21.8850   14.2430 C   0  0  0  0  0  0
   25.1680   20.8260   14.4180 H   0  0  0  0  0  0
   24.6930   24.3790   11.6930 F   0  0  0  0  0  0
  1  2  1  0  0  0
  1 24  2  0  0  0
  1 34  1  0  0  0
  2  3  1  0  0  0
  2 20  2  0  0  0
  3  4  1  0  0  0
  3 11  2  0  0  0
  4  5  1  0  0  0
  4  6  2  0  0  0
  6  7  1  0  0  0
  6  8  1  0  0  0
  8  9  2  0  0  0
  8 13  1  0  0  0
  9 10  1  0  0  0
  9 11  1  0  0  0
 11 12  1  0  0  0
 13 14  2  0  0  0
 13 15  2  0  0  0
 13 16  1  0  0  0
 16 17  1  0  0  0
 16 18  1  0  0  0
 16 19  1  0  0  0
 20 21  1  0  0  0
 20 22  1  0  0  0
 22 23  2  0  0  0
 22 32  1  0  0  0
 23 24  1  0  0  0
 23 26  1  0  0  0
 24 25  1  0  0  0
 26 27  1  0  0  0
 26 28  2  0  0  0
 28 29  1  0  0  0
 28 30  1  0  0  0
 30 31  1  0  0  0
 30 32  2  0  0  0
 32 33  1  0  0  0
 34 35  1  0  0  0
 34 42  2  0  0  0
 35 36  1  0  0  0
 35 37  2  0  0  0
 37 38  1  0  0  0
 37 39  1  0  0  0
 39 40  2  0  0  0
 39 44  1  0  0  0
 40 41  1  0  0  0
 40 42  1  0  0  0
 42 43  1  0  0  0
M  END
>  <ACTIVITY>
4

>  <SET>
3

>  <Min_dist>
0.2

>  <Avg_dist>
0.59

$$$$
7-39
  Cerius2 12110214053D 1   1.00000                          
Structure written by Cerius2 SD Exporter
 36 38  0  0  0  0  0  0  0  0999 V2000
   26.4860   22.0720   16.4740 C   0  0  0  0  0  0
   25.5800   21.4510   17.3580 C   0  0  0  0  0  0
   24.1190   21.3870   17.1600 C   0  0  0  0  0  0
   23.4510   22.2730   16.2950 C   0  0  0  0  0  0
   24.0050   23.0400   15.7530 H   0  0  0  0  0  0
   22.0660   22.2000   16.1120 C   0  0  0  0  0  0
   21.5790   22.8960   15.4310 H   0  0  0  0  0  0
   21.3270   21.2430   16.8100 C   0  0  0  0  0  0
   21.9630   20.3550   17.6770 C   0  0  0  0  0  0
   21.3980   19.6040   18.2240 H   0  0  0  0  0  0
   23.3480   20.4350   17.8530 C   0  0  0  0  0  0
   23.8320   19.7390   18.5390 H   0  0  0  0  0  0
   19.5690   21.1370   16.5620 S   0  0  0  0  0  0
   19.0860   22.4600   16.1760 O   0  0  0  0  0  0
   18.9890   20.5040   17.7430 O   0  0  0  0  0  0
   19.4030   20.0410   15.1790 C   0  0  0  0  0  0
   18.3390   19.9300   14.9600 H   0  0  0  0  0  0
   19.8310   19.0710   15.4400 H   0  0  0  0  0  0
   19.9160   20.4740   14.3180 H   0  0  0  0  0  0
   26.0110   20.8620   18.5150 N   0  0  0  0  0  0
   27.3400   20.9290   18.7690 C   0  0  0  0  0  0
   27.6840   20.4640   19.6870 H   0  0  0  0  0  0
   28.2230   21.5560   17.9140 C   0  0  0  0  0  0
   29.2840   21.6020   18.1400 H   0  0  0  0  0  0
   27.8230   22.1370   16.7580 N   0  0  0  0  0  0
   26.1210   22.6720   15.1780 C   0  0  0  0  0  0
   26.3670   24.0360   14.9290 C   0  0  0  0  0  0
   26.8260   24.6560   15.6990 H   0  0  0  0  0  0
   26.0250   24.6190   13.7060 C   0  0  0  0  0  0
   26.2140   25.6740   13.5260 H   0  0  0  0  0  0
   25.4420   23.8400   12.7160 C   0  0  0  0  0  0
   25.1990   22.4890   12.9240 C   0  0  0  0  0  0
   24.7490   21.8910   12.1360 H   0  0  0  0  0  0
   25.5410   21.9060   14.1480 C   0  0  0  0  0  0
   25.3550   20.8420   14.2880 H   0  0  0  0  0  0
   25.1160   24.3970   11.5420 F   0  0  0  0  0  0
  1  2  1  0  0  0
  1 25  2  0  0  0
  1 26  1  0  0  0
  2  3  1  0  0  0
  2 20  2  0  0  0
  3  4  1  0  0  0
  3 11  2  0  0  0
  4  5  1  0  0  0
  4  6  2  0  0  0
  6  7  1  0  0  0
  6  8  1  0  0  0
  8  9  2  0  0  0
  8 13  1  0  0  0
  9 10  1  0  0  0
  9 11  1  0  0  0
 11 12  1  0  0  0
 13 14  2  0  0  0
 13 15  2  0  0  0
 13 16  1  0  0  0
 16 17  1  0  0  0
 16 18  1  0  0  0
 16 19  1  0  0  0
 20 21  1  0  0  0
 21 22  1  0  0  0
 21 23  2  0  0  0
 23 24  1  0  0  0
 23 25  1  0  0  0
 26 27  1  0  0  0
 26 34  2  0  0  0
 27 28  1  0  0  0
 27 29  2  0  0  0
 29 30  1  0  0  0
 29 31  1  0  0  0
 31 32  2  0  0  0
 31 36  1  0  0  0
 32 33  1  0  0  0
 32 34  1  0  0  0
 34 35  1  0  0  0
M  END
>  <ACTIVITY>
4

>  <SET>
3

>  <Min_dist>
0.34

>  <Avg_dist>
0.54

$$$$
8-10a
  Cerius2 12110214053D 1   1.00000                          
Structure written by Cerius2 SD Exporter
 36 38  0  0  0  0  0  0  0  0999 V2000
   21.2480   21.1940   16.9430 C   0  0  0  0  0  0
   21.9630   20.3270   17.7710 C   0  0  0  0  0  0
   21.4490   19.5670   18.3560 H   0  0  0  0  0  0
   23.3550   20.4390   17.8540 C   0  0  0  0  0  0
   23.8880   19.7490   18.5080 H   0  0  0  0  0  0
   24.0460   21.4050   17.0970 C   0  0  0  0  0  0
   23.3110   22.2760   16.2810 C   0  0  0  0  0  0
   23.7760   23.0810   15.7230 H   0  0  0  0  0  0
   21.9160   22.1660   16.1980 C   0  0  0  0  0  0
   21.3660   22.8540   15.5590 H   0  0  0  0  0  0
   25.4710   21.4890   17.2160 N   0  0  0  0  0  0
   26.4130   22.1460   16.4220 C   0  0  0  0  0  0
   26.2120   22.7300   15.0980 C   0  0  0  0  0  0
   26.4690   24.0920   14.8830 C   0  0  0  0  0  0
   26.7950   24.7310   15.7020 H   0  0  0  0  0  0
   26.3030   24.6490   13.6130 C   0  0  0  0  0  0
   26.4950   25.7050   13.4450 H   0  0  0  0  0  0
   25.8900   23.8430   12.5590 C   0  0  0  0  0  0
   25.6440   22.4880   12.7490 C   0  0  0  0  0  0
   25.3290   21.8710   11.9120 H   0  0  0  0  0  0
   25.8100   21.9290   14.0180 C   0  0  0  0  0  0
   25.6260   20.8650   14.1550 H   0  0  0  0  0  0
   25.7330   24.3770   11.3410 F   0  0  0  0  0  0
   27.6060   22.0620   17.1160 C   0  0  0  0  0  0
   28.5590   22.4770   16.8110 H   0  0  0  0  0  0
   27.3590   21.2590   18.2480 C   0  0  0  0  0  0
   26.0740   20.8660   18.2760 N   0  0  0  0  0  0
   28.3450   20.8600   19.2600 C   0  0  0  0  0  0
   28.1100   20.1370   20.2240 O   0  0  0  0  0  0
   29.5950   21.3560   19.0630 O   0  5  0  0  0  0
   19.4880   21.0270   16.8230 S   0  0  0  0  0  0
   18.9260   22.2860   16.3660 O   0  0  0  0  0  0
   18.9790   20.3840   18.0210 O   0  0  0  0  0  0
   19.3230   19.9240   15.5740 N   0  0  0  0  0  0
   18.8230   20.3350   14.7810 H   0  0  0  0  0  0
   18.8680   19.0660   15.8980 H   0  0  0  0  0  0
  1  2  1  0  0  0
  1  9  2  0  0  0
  1 31  1  0  0  0
  2  3  1  0  0  0
  2  4  2  0  0  0
  4  5  1  0  0  0
  4  6  1  0  0  0
  6  7  2  0  0  0
  6 11  1  0  0  0
  7  8  1  0  0  0
  7  9  1  0  0  0
  9 10  1  0  0  0
 11 12  1  0  0  0
 11 27  1  0  0  0
 12 13  1  0  0  0
 12 24  2  0  0  0
 13 14  1  0  0  0
 13 21  2  0  0  0
 14 15  1  0  0  0
 14 16  2  0  0  0
 16 17  1  0  0  0
 16 18  1  0  0  0
 18 19  2  0  0  0
 18 23  1  0  0  0
 19 20  1  0  0  0
 19 21  1  0  0  0
 21 22  1  0  0  0
 24 25  1  0  0  0
 24 26  1  0  0  0
 26 27  2  0  0  0
 26 28  1  0  0  0
 28 29  2  0  0  0
 28 30  1  0  0  0
 31 32  2  0  0  0
 31 33  2  0  0  0
 31 34  1  0  0  0
 34 35  1  0  0  0
 34 36  1  0  0  0
M  CHG  1  30  -1
M  END
>  <ACTIVITY>
4

>  <SET>
3

>  <Min_dist>
0.19

>  <Avg_dist>
0.55

$$$$
8-11a
  Cerius2 12110214053D 1   1.00000                          
Structure written by Cerius2 SD Exporter
 39 41  0  0  0  0  0  0  0  0999 V2000
   21.2490   21.1830   16.9480 C   0  0  0  0  0  0
   21.9660   20.3190   17.7750 C   0  0  0  0  0  0
   21.4590   19.5570   18.3620 H   0  0  0  0  0  0
   23.3580   20.4360   17.8560 C   0  0  0  0  0  0
   23.8920   19.7470   18.5090 H   0  0  0  0  0  0
   24.0470   21.4040   17.0990 C   0  0  0  0  0  0
   23.3090   22.2730   16.2840 C   0  0  0  0  0  0
   23.7700   23.0810   15.7260 H   0  0  0  0  0  0
   21.9150   22.1580   16.2010 C   0  0  0  0  0  0
   21.3580   22.8430   15.5650 H   0  0  0  0  0  0
   25.4720   21.4910   17.2170 N   0  0  0  0  0  0
   26.4130   22.1450   16.4220 C   0  0  0  0  0  0
   26.2110   22.7300   15.0980 C   0  0  0  0  0  0
   26.4690   24.0920   14.8830 C   0  0  0  0  0  0
   26.7960   24.7300   15.7030 H   0  0  0  0  0  0
   26.3000   24.6500   13.6140 C   0  0  0  0  0  0
   26.4930   25.7060   13.4470 H   0  0  0  0  0  0
   25.8850   23.8440   12.5600 C   0  0  0  0  0  0
   25.6390   22.4900   12.7500 C   0  0  0  0  0  0
   25.3210   21.8730   11.9140 H   0  0  0  0  0  0
   25.8070   21.9300   14.0180 C   0  0  0  0  0  0
   25.6220   20.8650   14.1550 H   0  0  0  0  0  0
   25.7250   24.3800   11.3430 F   0  0  0  0  0  0
   27.6080   22.0600   17.1120 C   0  0  0  0  0  0
   28.5610   22.4730   16.8040 H   0  0  0  0  0  0
   27.3620   21.2600   18.2480 C   0  0  0  0  0  0
   26.0760   20.8710   18.2790 N   0  0  0  0  0  0
   28.3520   20.8620   19.2590 C   0  0  0  0  0  0
   28.0940   20.1380   20.2240 O   0  0  0  0  0  0
   29.6160   21.3810   19.0120 O   0  0  0  0  0  0
   30.6090   20.9950   20.0430 N   0  0  0  0  0  0
   31.1800   20.3330   19.5030 H   0  0  0  0  0  0
   30.0570   20.3750   20.6570 H   0  0  0  0  0  0
   19.4890   21.0390   16.8120 S   0  0  0  0  0  0
   18.9330   22.2970   16.3450 O   0  0  0  0  0  0
   18.9750   20.4070   18.0140 O   0  0  0  0  0  0
   19.3200   19.9420   15.5580 N   0  0  0  0  0  0
   18.8350   20.3640   14.7610 H   0  0  0  0  0  0
   18.8480   19.0900   15.8730 H   0  0  0  0  0  0
  1  2  1  0  0  0
  1  9  2  0  0  0
  1 34  1  0  0  0
  2  3  1  0  0  0
  2  4  2  0  0  0
  4  5  1  0  0  0
  4  6  1  0  0  0
  6  7  2  0  0  0
  6 11  1  0  0  0
  7  8  1  0  0  0
  7  9  1  0  0  0
  9 10  1  0  0  0
 11 12  1  0  0  0
 11 27  1  0  0  0
 12 13  1  0  0  0
 12 24  2  0  0  0
 13 14  1  0  0  0
 13 21  2  0  0  0
 14 15  1  0  0  0
 14 16  2  0  0  0
 16 17  1  0  0  0
 16 18  1  0  0  0
 18 19  2  0  0  0
 18 23  1  0  0  0
 19 20  1  0  0  0
 19 21  1  0  0  0
 21 22  1  0  0  0
 24 25  1  0  0  0
 24 26  1  0  0  0
 26 27  2  0  0  0
 26 28  1  0  0  0
 28 29  2  0  0  0
 28 30  1  0  0  0
 30 31  1  0  0  0
 31 32  1  0  0  0
 31 33  1  0  0  0
 34 35  2  0  0  0
 34 36  2  0  0  0
 34 37  1  0  0  0
 37 38  1  0  0  0
 37 39  1  0  0  0
M  END
>  <ACTIVITY>
4

>  <SET>
3

>  <Min_dist>
0.28

>  <Avg_dist>
0.6

$$$$
8-13a
  Cerius2 12110214053D 1   1.00000                          
Structure written by Cerius2 SD Exporter
 35 37  0  0  0  0  0  0  0  0999 V2000
   21.2500   21.1670   16.9230 C   0  0  0  0  0  0
   21.9650   20.3120   17.7630 C   0  0  0  0  0  0
   21.4560   19.5500   18.3490 H   0  0  0  0  0  0
   23.3560   20.4320   17.8500 C   0  0  0  0  0  0
   23.8890   19.7440   18.5070 H   0  0  0  0  0  0
   24.0460   21.3990   17.0950 C   0  0  0  0  0  0
   23.3100   22.2680   16.2790 C   0  0  0  0  0  0
   23.7730   23.0780   15.7240 H   0  0  0  0  0  0
   21.9170   22.1510   16.1900 C   0  0  0  0  0  0
   21.3630   22.8370   15.5520 H   0  0  0  0  0  0
   25.4700   21.4890   17.2180 N   0  0  0  0  0  0
   26.4150   22.1490   16.4230 C   0  0  0  0  0  0
   26.2120   22.7320   15.0990 C   0  0  0  0  0  0
   26.4700   24.0930   14.8820 C   0  0  0  0  0  0
   26.7980   24.7320   15.7000 H   0  0  0  0  0  0
   26.2990   24.6490   13.6120 C   0  0  0  0  0  0
   26.4920   25.7050   13.4430 H   0  0  0  0  0  0
   25.8830   23.8420   12.5600 C   0  0  0  0  0  0
   25.6380   22.4880   12.7510 C   0  0  0  0  0  0
   25.3200   21.8710   11.9160 H   0  0  0  0  0  0
   25.8080   21.9300   14.0200 C   0  0  0  0  0  0
   25.6230   20.8650   14.1580 H   0  0  0  0  0  0
   25.7210   24.3770   11.3420 F   0  0  0  0  0  0
   27.6120   22.0670   17.1140 C   0  0  0  0  0  0
   28.5640   22.4800   16.8080 H   0  0  0  0  0  0
   27.3480   21.2710   18.2340 C   0  0  0  0  0  0
   26.0740   20.8700   18.2830 N   0  0  0  0  0  0
   28.2720   20.8490   19.2480 C   0  0  0  0  0  0
   29.0240   20.5060   20.0700 N   0  0  0  0  0  0
   19.4850   21.0490   16.8290 S   0  0  0  0  0  0
   18.9440   22.3320   16.4160 O   0  0  0  0  0  0
   18.9820   20.3880   18.0210 O   0  0  0  0  0  0
   19.2720   19.9860   15.5530 N   0  0  0  0  0  0
   18.7700   20.4330   14.7810 H   0  0  0  0  0  0
   18.8000   19.1310   15.8600 H   0  0  0  0  0  0
  1  2  1  0  0  0
  1  9  2  0  0  0
  1 30  1  0  0  0
  2  3  1  0  0  0
  2  4  2  0  0  0
  4  5  1  0  0  0
  4  6  1  0  0  0
  6  7  2  0  0  0
  6 11  1  0  0  0
  7  8  1  0  0  0
  7  9  1  0  0  0
  9 10  1  0  0  0
 11 12  1  0  0  0
 11 27  1  0  0  0
 12 13  1  0  0  0
 12 24  2  0  0  0
 13 14  1  0  0  0
 13 21  2  0  0  0
 14 15  1  0  0  0
 14 16  2  0  0  0
 16 17  1  0  0  0
 16 18  1  0  0  0
 18 19  2  0  0  0
 18 23  1  0  0  0
 19 20  1  0  0  0
 19 21  1  0  0  0
 21 22  1  0  0  0
 24 25  1  0  0  0
 24 26  1  0  0  0
 26 27  2  0  0  0
 26 28  1  0  0  0
 28 29  3  0  0  0
 30 31  2  0  0  0
 30 32  2  0  0  0
 30 33  1  0  0  0
 33 34  1  0  0  0
 33 35  1  0  0  0
M  END
>  <ACTIVITY>
6.47

>  <SET>
2

>  <Min_dist>
0.09

>  <Avg_dist>
0.55

$$$$
8-14a
  Cerius2 12110214053D 1   1.00000                          
Structure written by Cerius2 SD Exporter
 38 40  0  0  0  0  0  0  0  0999 V2000
   21.2470   21.1930   16.9430 C   0  0  0  0  0  0
   21.9630   20.3270   17.7710 C   0  0  0  0  0  0
   21.4490   19.5670   18.3560 H   0  0  0  0  0  0
   23.3550   20.4410   17.8550 C   0  0  0  0  0  0
   23.8880   19.7510   18.5080 H   0  0  0  0  0  0
   24.0450   21.4070   17.0980 C   0  0  0  0  0  0
   23.3090   22.2770   16.2820 C   0  0  0  0  0  0
   23.7740   23.0820   15.7230 H   0  0  0  0  0  0
   21.9150   22.1660   16.1970 C   0  0  0  0  0  0
   21.3650   22.8530   15.5580 H   0  0  0  0  0  0
   25.4710   21.4910   17.2170 N   0  0  0  0  0  0
   26.4150   22.1450   16.4220 C   0  0  0  0  0  0
   26.2130   22.7300   15.0980 C   0  0  0  0  0  0
   26.4700   24.0900   14.8830 C   0  0  0  0  0  0
   26.7990   24.7270   15.7030 H   0  0  0  0  0  0
   26.3000   24.6510   13.6140 C   0  0  0  0  0  0
   26.4970   25.7090   13.4640 H   0  0  0  0  0  0
   25.8820   23.8500   12.5530 C   0  0  0  0  0  0
   25.6370   22.4920   12.7500 C   0  0  0  0  0  0
   25.3170   21.8610   11.9240 H   0  0  0  0  0  0
   25.8070   21.9320   14.0190 C   0  0  0  0  0  0
   25.6220   20.8670   14.1550 H   0  0  0  0  0  0
   25.6730   24.5390   10.9900 Cl  0  0  0  0  0  0
   27.6120   22.0530   17.1100 C   0  0  0  0  0  0
   28.5670   22.4600   16.7990 H   0  0  0  0  0  0
   27.3540   21.2590   18.2400 C   0  0  0  0  0  0
   26.0750   20.8730   18.2820 N   0  0  0  0  0  0
   28.3330   20.8260   19.2850 C   0  0  0  0  0  0
   27.8170   20.6070   20.2260 H   0  0  0  0  0  0
   29.0630   21.6200   19.4700 H   0  0  0  0  0  0
   29.0450   19.6490   18.8810 O   0  0  0  0  0  0
   29.6350   19.4480   19.6380 H   0  0  0  0  0  0
   19.4880   21.0250   16.8190 S   0  0  0  0  0  0
   18.9250   22.2820   16.3590 O   0  0  0  0  0  0
   18.9780   20.3840   18.0170 O   0  0  0  0  0  0
   19.3260   19.9200   15.5700 N   0  0  0  0  0  0
   18.8270   20.3310   14.7770 H   0  0  0  0  0  0
   18.8710   19.0630   15.8940 H   0  0  0  0  0  0
  1  2  1  0  0  0
  1  9  2  0  0  0
  1 33  1  0  0  0
  2  3  1  0  0  0
  2  4  2  0  0  0
  4  5  1  0  0  0
  4  6  1  0  0  0
  6  7  2  0  0  0
  6 11  1  0  0  0
  7  8  1  0  0  0
  7  9  1  0  0  0
  9 10  1  0  0  0
 11 12  1  0  0  0
 11 27  1  0  0  0
 12 13  1  0  0  0
 12 24  2  0  0  0
 13 14  1  0  0  0
 13 21  2  0  0  0
 14 15  1  0  0  0
 14 16  2  0  0  0
 16 17  1  0  0  0
 16 18  1  0  0  0
 18 19  2  0  0  0
 18 23  1  0  0  0
 19 20  1  0  0  0
 19 21  1  0  0  0
 21 22  1  0  0  0
 24 25  1  0  0  0
 24 26  1  0  0  0
 26 27  2  0  0  0
 26 28  1  0  0  0
 28 29  1  0  0  0
 28 30  1  0  0  0
 28 31  1  0  0  0
 31 32  1  0  0  0
 33 34  2  0  0  0
 33 35  2  0  0  0
 33 36  1  0  0  0
 36 37  1  0  0  0
 36 38  1  0  0  0
M  END
>  <ACTIVITY>
6.08

>  <SET>
2

>  <Min_dist>
0.11

>  <Avg_dist>
0.54

$$$$
8-16a
  Cerius2 12110214053D 1   1.00000                          
Structure written by Cerius2 SD Exporter
 37 39  0  0  0  0  0  0  0  0999 V2000
   21.2460   21.1930   16.9430 C   0  0  0  0  0  0
   21.9620   20.3260   17.7700 C   0  0  0  0  0  0
   21.4480   19.5660   18.3560 H   0  0  0  0  0  0
   23.3540   20.4390   17.8520 C   0  0  0  0  0  0
   23.8870   19.7480   18.5060 H   0  0  0  0  0  0
   24.0450   21.4050   17.0950 C   0  0  0  0  0  0
   23.3080   22.2750   16.2800 C   0  0  0  0  0  0
   23.7730   23.0790   15.7190 H   0  0  0  0  0  0
   21.9140   22.1650   16.1970 C   0  0  0  0  0  0
   21.3630   22.8520   15.5580 H   0  0  0  0  0  0
   25.4700   21.4900   17.2150 N   0  0  0  0  0  0
   26.4160   22.1450   16.4220 C   0  0  0  0  0  0
   26.2150   22.7300   15.0980 C   0  0  0  0  0  0
   26.4730   24.0900   14.8820 C   0  0  0  0  0  0
   26.8030   24.7270   15.7010 H   0  0  0  0  0  0
   26.3020   24.6490   13.6140 C   0  0  0  0  0  0
   26.4980   25.7080   13.4560 H   0  0  0  0  0  0
   25.8820   23.8520   12.5500 C   0  0  0  0  0  0
   25.7500   24.2890   11.5620 H   0  0  0  0  0  0
   25.6390   22.4940   12.7510 C   0  0  0  0  0  0
   25.3180   21.8700   11.9190 H   0  0  0  0  0  0
   25.8100   21.9330   14.0180 C   0  0  0  0  0  0
   25.6240   20.8680   14.1530 H   0  0  0  0  0  0
   27.6110   22.0580   17.1140 C   0  0  0  0  0  0
   28.5640   22.4690   16.8050 H   0  0  0  0  0  0
   27.3530   21.2650   18.2450 C   0  0  0  0  0  0
   26.0740   20.8710   18.2800 N   0  0  0  0  0  0
   28.3310   20.8370   19.2870 C   0  0  0  0  0  0
   29.3460   20.7790   18.8820 H   0  0  0  0  0  0
   28.0640   19.8580   19.6950 H   0  0  0  0  0  0
   28.3480   21.7310   20.3250 F   0  0  0  0  0  0
   19.4860   21.0260   16.8240 S   0  0  0  0  0  0
   18.9240   22.2850   16.3670 O   0  0  0  0  0  0
   18.9780   20.3840   18.0230 O   0  0  0  0  0  0
   19.3200   19.9230   15.5750 N   0  0  0  0  0  0
   18.8170   20.3330   14.7840 H   0  0  0  0  0  0
   18.8660   19.0650   15.9000 H   0  0  0  0  0  0
  1  2  1  0  0  0
  1  9  2  0  0  0
  1 32  1  0  0  0
  2  3  1  0  0  0
  2  4  2  0  0  0
  4  5  1  0  0  0
  4  6  1  0  0  0
  6  7  2  0  0  0
  6 11  1  0  0  0
  7  8  1  0  0  0
  7  9  1  0  0  0
  9 10  1  0  0  0
 11 12  1  0  0  0
 11 27  1  0  0  0
 12 13  1  0  0  0
 12 24  2  0  0  0
 13 14  1  0  0  0
 13 22  2  0  0  0
 14 15  1  0  0  0
 14 16  2  0  0  0
 16 17  1  0  0  0
 16 18  1  0  0  0
 18 19  1  0  0  0
 18 20  2  0  0  0
 20 21  1  0  0  0
 20 22  1  0  0  0
 22 23  1  0  0  0
 24 25  1  0  0  0
 24 26  1  0  0  0
 26 27  2  0  0  0
 26 28  1  0  0  0
 28 29  1  0  0  0
 28 30  1  0  0  0
 28 31  1  0  0  0
 32 33  2  0  0  0
 32 34  2  0  0  0
 32 35  1  0  0  0
 35 36  1  0  0  0
 35 37  1  0  0  0
M  END
>  <ACTIVITY>
6.7

>  <SET>
1

>  <Min_dist>
999.9

>  <Avg_dist>
999.9

$$$$
8-17a
  Cerius2 12110214053D 1   1.00000                          
Structure written by Cerius2 SD Exporter
 38 40  0  0  0  0  0  0  0  0999 V2000
   21.2480   21.1930   16.9410 C   0  0  0  0  0  0
   21.9630   20.3280   17.7700 C   0  0  0  0  0  0
   21.4480   19.5680   18.3550 H   0  0  0  0  0  0
   23.3540   20.4420   17.8550 C   0  0  0  0  0  0
   23.8870   19.7510   18.5080 H   0  0  0  0  0  0
   24.0450   21.4070   17.0970 C   0  0  0  0  0  0
   23.3100   22.2770   16.2810 C   0  0  0  0  0  0
   23.7750   23.0830   15.7220 H   0  0  0  0  0  0
   21.9150   22.1660   16.1960 C   0  0  0  0  0  0
   21.3650   22.8540   15.5560 H   0  0  0  0  0  0
   25.4700   21.4910   17.2160 N   0  0  0  0  0  0
   26.4160   22.1430   16.4220 C   0  0  0  0  0  0
   26.2130   22.7290   15.0990 C   0  0  0  0  0  0
   26.4710   24.0900   14.8840 C   0  0  0  0  0  0
   26.8000   24.7270   15.7040 H   0  0  0  0  0  0
   26.3000   24.6510   13.6150 C   0  0  0  0  0  0
   26.4980   25.7090   13.4650 H   0  0  0  0  0  0
   25.8820   23.8500   12.5540 C   0  0  0  0  0  0
   25.6370   22.4920   12.7500 C   0  0  0  0  0  0
   25.3170   21.8610   11.9240 H   0  0  0  0  0  0
   25.8070   21.9320   14.0190 C   0  0  0  0  0  0
   25.6220   20.8670   14.1550 H   0  0  0  0  0  0
   25.6730   24.5400   10.9910 Cl  0  0  0  0  0  0
   27.6120   22.0530   17.1100 C   0  0  0  0  0  0
   28.5650   22.4650   16.7990 H   0  0  0  0  0  0
   27.3570   21.2520   18.2380 C   0  0  0  0  0  0
   26.0740   20.8730   18.2820 N   0  0  0  0  0  0
   28.3280   20.8280   19.2930 C   0  0  0  0  0  0
   28.3760   19.7340   19.3430 H   0  0  0  0  0  0
   27.9800   21.1750   20.2730 H   0  0  0  0  0  0
   29.6660   21.3750   19.0160 C   0  0  0  0  0  0
   30.7310   21.8030   18.8140 N   0  0  0  0  0  0
   19.4880   21.0240   16.8210 S   0  0  0  0  0  0
   18.9250   22.2820   16.3640 O   0  0  0  0  0  0
   18.9800   20.3790   18.0180 O   0  0  0  0  0  0
   19.3240   19.9200   15.5720 N   0  0  0  0  0  0
   18.8220   20.3300   14.7800 H   0  0  0  0  0  0
   18.8720   19.0610   15.8960 H   0  0  0  0  0  0
  1  2  1  0  0  0
  1  9  2  0  0  0
  1 33  1  0  0  0
  2  3  1  0  0  0
  2  4  2  0  0  0
  4  5  1  0  0  0
  4  6  1  0  0  0
  6  7  2  0  0  0
  6 11  1  0  0  0
  7  8  1  0  0  0
  7  9  1  0  0  0
  9 10  1  0  0  0
 11 12  1  0  0  0
 11 27  1  0  0  0
 12 13  1  0  0  0
 12 24  2  0  0  0
 13 14  1  0  0  0
 13 21  2  0  0  0
 14 15  1  0  0  0
 14 16  2  0  0  0
 16 17  1  0  0  0
 16 18  1  0  0  0
 18 19  2  0  0  0
 18 23  1  0  0  0
 19 20  1  0  0  0
 19 21  1  0  0  0
 21 22  1  0  0  0
 24 25  1  0  0  0
 24 26  1  0  0  0
 26 27  2  0  0  0
 26 28  1  0  0  0
 28 29  1  0  0  0
 28 30  1  0  0  0
 28 31  1  0  0  0
 31 32  3  0  0  0
 33 34  2  0  0  0
 33 35  2  0  0  0
 33 36  1  0  0  0
 36 37  1  0  0  0
 36 38  1  0  0  0
M  END
>  <ACTIVITY>
6.92

>  <SET>
2

>  <Min_dist>
0.24

>  <Avg_dist>
0.56

$$$$
8-19
  Cerius2 12110214053D 1   1.00000                          
Structure written by Cerius2 SD Exporter
 38 40  0  0  0  0  0  0  0  0999 V2000
   21.2450   21.1920   16.9430 C   0  0  0  0  0  0
   21.9610   20.3250   17.7700 C   0  0  0  0  0  0
   21.4480   19.5660   18.3550 H   0  0  0  0  0  0
   23.3530   20.4390   17.8520 C   0  0  0  0  0  0
   23.8860   19.7480   18.5050 H   0  0  0  0  0  0
   24.0440   21.4050   17.0950 C   0  0  0  0  0  0
   23.3080   22.2740   16.2790 C   0  0  0  0  0  0
   23.7720   23.0790   15.7190 H   0  0  0  0  0  0
   21.9130   22.1640   16.1960 C   0  0  0  0  0  0
   21.3630   22.8510   15.5570 H   0  0  0  0  0  0
   25.4690   21.4900   17.2160 N   0  0  0  0  0  0
   26.4170   22.1450   16.4210 C   0  0  0  0  0  0
   26.2150   22.7310   15.0980 C   0  0  0  0  0  0
   26.4740   24.0910   14.8820 C   0  0  0  0  0  0
   26.8040   24.7280   15.7010 H   0  0  0  0  0  0
   26.3020   24.6490   13.6130 C   0  0  0  0  0  0
   26.4980   25.7090   13.4560 H   0  0  0  0  0  0
   25.8820   23.8520   12.5500 C   0  0  0  0  0  0
   25.7500   24.2880   11.5620 H   0  0  0  0  0  0
   25.6390   22.4940   12.7510 C   0  0  0  0  0  0
   25.3190   21.8690   11.9190 H   0  0  0  0  0  0
   25.8100   21.9330   14.0190 C   0  0  0  0  0  0
   25.6250   20.8690   14.1540 H   0  0  0  0  0  0
   27.6150   22.0560   17.1110 C   0  0  0  0  0  0
   28.5640   22.4690   16.7950 H   0  0  0  0  0  0
   27.3370   21.2660   18.2270 C   0  0  0  0  0  0
   26.0720   20.8720   18.2830 N   0  0  0  0  0  0
   28.1140   20.8120   19.2300 O   0  0  0  0  0  0
   29.4680   21.2510   19.1520 C   0  0  0  0  0  0
   30.0030   20.8400   20.0140 H   0  0  0  0  0  0
   29.5330   22.3430   19.2060 H   0  0  0  0  0  0
   29.9530   20.8740   18.2450 H   0  0  0  0  0  0
   19.4860   21.0260   16.8250 S   0  0  0  0  0  0
   18.9230   22.2850   16.3680 O   0  0  0  0  0  0
   18.9780   20.3830   18.0240 O   0  0  0  0  0  0
   19.3190   19.9220   15.5760 N   0  0  0  0  0  0
   18.8170   20.3330   14.7840 H   0  0  0  0  0  0
   18.8650   19.0650   15.9010 H   0  0  0  0  0  0
  1  2  1  0  0  0
  1  9  2  0  0  0
  1 33  1  0  0  0
  2  3  1  0  0  0
  2  4  2  0  0  0
  4  5  1  0  0  0
  4  6  1  0  0  0
  6  7  2  0  0  0
  6 11  1  0  0  0
  7  8  1  0  0  0
  7  9  1  0  0  0
  9 10  1  0  0  0
 11 12  1  0  0  0
 11 27  1  0  0  0
 12 13  1  0  0  0
 12 24  2  0  0  0
 13 14  1  0  0  0
 13 22  2  0  0  0
 14 15  1  0  0  0
 14 16  2  0  0  0
 16 17  1  0  0  0
 16 18  1  0  0  0
 18 19  1  0  0  0
 18 20  2  0  0  0
 20 21  1  0  0  0
 20 22  1  0  0  0
 22 23  1  0  0  0
 24 25  1  0  0  0
 24 26  1  0  0  0
 26 27  2  0  0  0
 26 28  1  0  0  0
 28 29  1  0  0  0
 29 30  1  0  0  0
 29 31  1  0  0  0
 29 32  1  0  0  0
 33 34  2  0  0  0
 33 35  2  0  0  0
 33 36  1  0  0  0
 36 37  1  0  0  0
 36 38  1  0  0  0
M  END
>  <ACTIVITY>
4

>  <SET>
3

>  <Min_dist>
0.31

>  <Avg_dist>
0.57

$$$$
8-1aa
  Cerius2 12110214053D 1   1.00000                          
Structure written by Cerius2 SD Exporter
 44 46  0  0  0  0  0  0  0  0999 V2000
   21.2490   21.1820   16.9460 C   0  0  0  0  0  0
   21.9650   20.3190   17.7740 C   0  0  0  0  0  0
   21.4590   19.5550   18.3600 H   0  0  0  0  0  0
   23.3570   20.4370   17.8550 C   0  0  0  0  0  0
   23.8920   19.7470   18.5080 H   0  0  0  0  0  0
   24.0470   21.4050   17.0990 C   0  0  0  0  0  0
   23.3090   22.2730   16.2830 C   0  0  0  0  0  0
   23.7690   23.0790   15.7220 H   0  0  0  0  0  0
   21.9150   22.1570   16.2000 C   0  0  0  0  0  0
   21.3580   22.8410   15.5620 H   0  0  0  0  0  0
   25.4720   21.4920   17.2190 N   0  0  0  0  0  0
   26.4170   22.1410   16.4220 C   0  0  0  0  0  0
   26.2130   22.7240   15.0980 C   0  0  0  0  0  0
   26.4700   24.0840   14.8780 C   0  0  0  0  0  0
   26.8020   24.7040   15.7110 H   0  0  0  0  0  0
   26.2950   24.6650   13.6080 C   0  0  0  0  0  0
   25.8700   23.8530   12.5390 C   0  0  0  0  0  0
   25.6250   22.4910   12.7590 C   0  0  0  0  0  0
   25.2910   21.8490   11.9450 H   0  0  0  0  0  0
   25.8010   21.9280   14.0250 C   0  0  0  0  0  0
   25.6110   20.8640   14.1620 H   0  0  0  0  0  0
   25.5980   24.5060   10.8940 S   0  0  0  0  0  0
   25.0540   22.9800   10.0760 C   0  0  0  0  0  0
   24.8620   23.1890    9.0210 H   0  0  0  0  0  0
   24.1320   22.6050   10.5290 H   0  0  0  0  0  0
   25.8310   22.2130   10.1430 H   0  0  0  0  0  0
   26.5710   26.1350   13.4400 C   0  0  0  0  0  0
   27.3660   26.2930   12.7040 H   0  0  0  0  0  0
   26.9020   26.5910   14.3790 H   0  0  0  0  0  0
   25.6640   26.6600   13.1240 H   0  0  0  0  0  0
   27.6140   22.0510   17.1070 C   0  0  0  0  0  0
   28.5680   22.4570   16.7930 H   0  0  0  0  0  0
   27.3640   21.2630   18.2490 C   0  0  0  0  0  0
   26.0750   20.8780   18.2870 N   0  0  0  0  0  0
   28.3720   20.8460   19.2870 C   0  0  0  0  0  0
   29.5610   21.5060   19.1670 F   0  0  0  0  0  0
   28.6670   19.5140   19.2180 F   0  0  0  0  0  0
   27.9380   21.0770   20.5620 F   0  0  0  0  0  0
   19.4880   21.0390   16.8090 S   0  0  0  0  0  0
   18.9340   22.2970   16.3410 O   0  0  0  0  0  0
   18.9750   20.4070   18.0110 O   0  0  0  0  0  0
   19.3200   19.9420   15.5540 N   0  0  0  0  0  0
   18.8390   20.3660   14.7560 H   0  0  0  0  0  0
   18.8450   19.0920   15.8680 H   0  0  0  0  0  0
  1  2  1  0  0  0
  1  9  2  0  0  0
  1 39  1  0  0  0
  2  3  1  0  0  0
  2  4  2  0  0  0
  4  5  1  0  0  0
  4  6  1  0  0  0
  6  7  2  0  0  0
  6 11  1  0  0  0
  7  8  1  0  0  0
  7  9  1  0  0  0
  9 10  1  0  0  0
 11 12  1  0  0  0
 11 34  1  0  0  0
 12 13  1  0  0  0
 12 31  2  0  0  0
 13 14  1  0  0  0
 13 20  2  0  0  0
 14 15  1  0  0  0
 14 16  2  0  0  0
 16 17  1  0  0  0
 16 27  1  0  0  0
 17 18  2  0  0  0
 17 22  1  0  0  0
 18 19  1  0  0  0
 18 20  1  0  0  0
 20 21  1  0  0  0
 22 23  1  0  0  0
 23 24  1  0  0  0
 23 25  1  0  0  0
 23 26  1  0  0  0
 27 28  1  0  0  0
 27 29  1  0  0  0
 27 30  1  0  0  0
 31 32  1  0  0  0
 31 33  1  0  0  0
 33 34  2  0  0  0
 33 35  1  0  0  0
 35 36  1  0  0  0
 35 37  1  0  0  0
 35 38  1  0  0  0
 39 40  2  0  0  0
 39 41  2  0  0  0
 39 42  1  0  0  0
 42 43  1  0  0  0
 42 44  1  0  0  0
M  END
>  <ACTIVITY>
8.43

>  <SET>
1

>  <Min_dist>
999.9

>  <Avg_dist>
999.9

$$$$
8-1ab
  Cerius2 12110214053D 1   1.00000                          
Structure written by Cerius2 SD Exporter
 45 47  0  0  0  0  0  0  0  0999 V2000
   21.2360   21.1750   16.9490 C   0  0  0  0  0  0
   21.9610   20.3230   17.7820 C   0  0  0  0  0  0
   21.4570   19.5550   18.3650 H   0  0  0  0  0  0
   23.3510   20.4600   17.8710 C   0  0  0  0  0  0
   23.8880   19.7780   18.5300 H   0  0  0  0  0  0
   24.0330   21.4380   17.1180 C   0  0  0  0  0  0
   23.2850   22.2920   16.2960 C   0  0  0  0  0  0
   23.7290   23.0970   15.7250 H   0  0  0  0  0  0
   21.8930   22.1570   16.2050 C   0  0  0  0  0  0
   21.3340   22.8310   15.5600 H   0  0  0  0  0  0
   25.4610   21.5260   17.2330 N   0  0  0  0  0  0
   26.4140   22.1260   16.4080 C   0  0  0  0  0  0
   26.2130   22.7360   15.1000 C   0  0  0  0  0  0
   26.4730   24.0900   14.9050 C   0  0  0  0  0  0
   26.7920   24.7240   15.7290 H   0  0  0  0  0  0
   26.3250   24.6560   13.6350 C   0  0  0  0  0  0
   25.9270   23.9120   12.5010 C   0  0  0  0  0  0
   25.6870   22.5430   12.7350 C   0  0  0  0  0  0
   25.3860   21.8780   11.9280 H   0  0  0  0  0  0
   25.8270   21.9620   14.0060 C   0  0  0  0  0  0
   25.6360   20.8950   14.1200 H   0  0  0  0  0  0
   25.7810   24.4620   11.2280 N   0  0  0  0  0  0
   25.9530   25.8970   10.9920 C   0  0  0  0  0  0
   25.6940   26.1710    9.9620 H   0  0  0  0  0  0
   26.9950   26.1920   11.1520 H   0  0  0  0  0  0
   25.2960   26.4850   11.6420 H   0  0  0  0  0  0
   25.5020   23.6200   10.0620 C   0  0  0  0  0  0
   25.4760   24.2010    9.1340 H   0  0  0  0  0  0
   24.5270   23.1310   10.1610 H   0  0  0  0  0  0
   26.2810   22.8590    9.9380 H   0  0  0  0  0  0
   26.6070   25.9660   13.5310 F   0  0  0  0  0  0
   27.6320   21.9540   17.0380 C   0  0  0  0  0  0
   28.5980   22.2890   16.6750 H   0  0  0  0  0  0
   27.3770   21.2050   18.2020 C   0  0  0  0  0  0
   26.0640   20.9390   18.3180 N   0  0  0  0  0  0
   28.4060   20.7340   19.1950 C   0  0  0  0  0  0
   29.6250   20.5130   18.6170 F   0  0  0  0  0  0
   28.0610   19.5630   19.8100 F   0  0  0  0  0  0
   28.6170   21.6430   20.1930 F   0  0  0  0  0  0
   19.4810   20.9800   16.8040 S   0  0  0  0  0  0
   18.9020   22.2250   16.3270 O   0  0  0  0  0  0
   18.9640   20.3370   17.9980 O   0  0  0  0  0  0
   19.3550   19.8690   15.5580 N   0  0  0  0  0  0
   18.8490   20.2660   14.7610 H   0  0  0  0  0  0
   18.9160   19.0030   15.8840 H   0  0  0  0  0  0
  1  2  1  0  0  0
  1  9  2  0  0  0
  1 40  1  0  0  0
  2  3  1  0  0  0
  2  4  2  0  0  0
  4  5  1  0  0  0
  4  6  1  0  0  0
  6  7  2  0  0  0
  6 11  1  0  0  0
  7  8  1  0  0  0
  7  9  1  0  0  0
  9 10  1  0  0  0
 11 12  1  0  0  0
 11 35  1  0  0  0
 12 13  1  0  0  0
 12 32  2  0  0  0
 13 14  1  0  0  0
 13 20  2  0  0  0
 14 15  1  0  0  0
 14 16  2  0  0  0
 16 17  1  0  0  0
 16 31  1  0  0  0
 17 18  2  0  0  0
 17 22  1  0  0  0
 18 19  1  0  0  0
 18 20  1  0  0  0
 20 21  1  0  0  0
 22 23  1  0  0  0
 22 27  1  0  0  0
 23 24  1  0  0  0
 23 25  1  0  0  0
 23 26  1  0  0  0
 27 28  1  0  0  0
 27 29  1  0  0  0
 27 30  1  0  0  0
 32 33  1  0  0  0
 32 34  1  0  0  0
 34 35  2  0  0  0
 34 36  1  0  0  0
 36 37  1  0  0  0
 36 38  1  0  0  0
 36 39  1  0  0  0
 40 41  2  0  0  0
 40 42  2  0  0  0
 40 43  1  0  0  0
 43 44  1  0  0  0
 43 45  1  0  0  0
M  END
>  <ACTIVITY>
8.24

>  <SET>
1

>  <Min_dist>
999.9

>  <Avg_dist>
999.9

$$$$
8-1ac
  Cerius2 12110214053D 1   1.00000                          
Structure written by Cerius2 SD Exporter
 42 44  0  0  0  0  0  0  0  0999 V2000
   21.2470   21.1850   16.9510 C   0  0  0  0  0  0
   21.9630   20.3200   17.7770 C   0  0  0  0  0  0
   21.4550   19.5580   18.3650 H   0  0  0  0  0  0
   23.3550   20.4340   17.8560 C   0  0  0  0  0  0
   23.8900   19.7430   18.5080 H   0  0  0  0  0  0
   24.0450   21.4000   17.0990 C   0  0  0  0  0  0
   23.3080   22.2710   16.2850 C   0  0  0  0  0  0
   23.7710   23.0780   15.7260 H   0  0  0  0  0  0
   21.9140   22.1590   16.2040 C   0  0  0  0  0  0
   21.3580   22.8450   15.5680 H   0  0  0  0  0  0
   25.4700   21.4860   17.2160 N   0  0  0  0  0  0
   26.4120   22.1460   16.4240 C   0  0  0  0  0  0
   26.2110   22.7290   15.0990 C   0  0  0  0  0  0
   26.4650   24.0830   14.8750 C   0  0  0  0  0  0
   26.7900   24.7110   15.7040 H   0  0  0  0  0  0
   26.3030   24.6530   13.5980 C   0  0  0  0  0  0
   25.8860   23.8740   12.4980 C   0  0  0  0  0  0
   25.6530   22.5060   12.7540 C   0  0  0  0  0  0
   25.3360   21.8490   11.9430 H   0  0  0  0  0  0
   25.8160   21.9380   14.0230 C   0  0  0  0  0  0
   25.6300   20.8720   14.1500 H   0  0  0  0  0  0
   25.6780   24.2850   11.1930 N   0  0  0  0  0  0
   25.8490   25.2690   10.9800 H   0  0  0  0  0  0
   25.2530   23.4890   10.0630 C   0  0  0  0  0  0
   25.2010   24.1270    9.1740 H   0  0  0  0  0  0
   24.2520   23.0770   10.2190 H   0  0  0  0  0  0
   25.9700   22.6930    9.8440 H   0  0  0  0  0  0
   26.6560   26.3480   13.5090 Cl  0  0  0  0  0  0
   27.6070   22.0660   17.1170 C   0  0  0  0  0  0
   28.5580   22.4840   16.8100 H   0  0  0  0  0  0
   27.3610   21.2620   18.2480 C   0  0  0  0  0  0
   26.0760   20.8620   18.2760 N   0  0  0  0  0  0
   28.3690   20.8440   19.2860 C   0  0  0  0  0  0
   29.5600   21.5020   19.1630 F   0  0  0  0  0  0
   28.6610   19.5110   19.2190 F   0  0  0  0  0  0
   27.9370   21.0780   20.5610 F   0  0  0  0  0  0
   19.4860   21.0390   16.8160 S   0  0  0  0  0  0
   18.9300   22.2960   16.3470 O   0  0  0  0  0  0
   18.9720   20.4070   18.0180 O   0  0  0  0  0  0
   19.3200   19.9390   15.5630 N   0  0  0  0  0  0
   18.8360   20.3590   14.7650 H   0  0  0  0  0  0
   18.8490   19.0880   15.8800 H   0  0  0  0  0  0
  1  2  1  0  0  0
  1  9  2  0  0  0
  1 37  1  0  0  0
  2  3  1  0  0  0
  2  4  2  0  0  0
  4  5  1  0  0  0
  4  6  1  0  0  0
  6  7  2  0  0  0
  6 11  1  0  0  0
  7  8  1  0  0  0
  7  9  1  0  0  0
  9 10  1  0  0  0
 11 12  1  0  0  0
 11 32  1  0  0  0
 12 13  1  0  0  0
 12 29  2  0  0  0
 13 14  1  0  0  0
 13 20  2  0  0  0
 14 15  1  0  0  0
 14 16  2  0  0  0
 16 17  1  0  0  0
 16 28  1  0  0  0
 17 18  2  0  0  0
 17 22  1  0  0  0
 18 19  1  0  0  0
 18 20  1  0  0  0
 20 21  1  0  0  0
 22 23  1  0  0  0
 22 24  1  0  0  0
 24 25  1  0  0  0
 24 26  1  0  0  0
 24 27  1  0  0  0
 29 30  1  0  0  0
 29 31  1  0  0  0
 31 32  2  0  0  0
 31 33  1  0  0  0
 33 34  1  0  0  0
 33 35  1  0  0  0
 33 36  1  0  0  0
 37 38  2  0  0  0
 37 39  2  0  0  0
 37 40  1  0  0  0
 40 41  1  0  0  0
 40 42  1  0  0  0
M  END
>  <ACTIVITY>
7.57

>  <SET>
2

>  <Min_dist>
0.07

>  <Avg_dist>
0.52

$$$$
8-1ad
  Cerius2 12110214053D 1   1.00000                          
Structure written by Cerius2 SD Exporter
 44 46  0  0  0  0  0  0  0  0999 V2000
   21.2490   21.1880   16.9470 C   0  0  0  0  0  0
   21.9650   20.3230   17.7740 C   0  0  0  0  0  0
   21.4560   19.5610   18.3600 H   0  0  0  0  0  0
   23.3570   20.4380   17.8570 C   0  0  0  0  0  0
   23.8910   19.7480   18.5090 H   0  0  0  0  0  0
   24.0470   21.4050   17.1000 C   0  0  0  0  0  0
   23.3100   22.2750   16.2850 C   0  0  0  0  0  0
   23.7730   23.0820   15.7270 H   0  0  0  0  0  0
   21.9170   22.1610   16.2010 C   0  0  0  0  0  0
   21.3620   22.8470   15.5630 H   0  0  0  0  0  0
   25.4720   21.4910   17.2180 N   0  0  0  0  0  0
   26.4140   22.1470   16.4230 C   0  0  0  0  0  0
   26.2100   22.7320   15.0990 C   0  0  0  0  0  0
   26.4590   24.0920   14.8860 C   0  0  0  0  0  0
   26.7730   24.7250   15.7140 H   0  0  0  0  0  0
   26.2950   24.6450   13.6150 C   0  0  0  0  0  0
   25.9050   23.8360   12.5370 C   0  0  0  0  0  0
   25.6170   22.4770   12.7400 C   0  0  0  0  0  0
   25.8040   21.9310   14.0210 C   0  0  0  0  0  0
   25.6220   20.8670   14.1790 H   0  0  0  0  0  0
   25.1610   21.5840   11.6200 C   0  0  0  0  0  0
   24.6080   20.7210   12.0050 H   0  0  0  0  0  0
   26.0240   21.2190   11.0550 H   0  0  0  0  0  0
   24.4860   22.1170   10.9420 H   0  0  0  0  0  0
   25.7260   24.3810   11.2890 O   0  0  0  0  0  0
   26.9470   24.3210   10.5420 C   0  0  0  0  0  0
   27.2500   23.2840   10.3630 H   0  0  0  0  0  0
   27.7530   24.8680   11.0420 H   0  0  0  0  0  0
   26.7670   24.7930    9.5720 H   0  0  0  0  0  0
   26.5710   26.3400   13.4180 Cl  0  0  0  0  0  0
   27.6110   22.0600   17.1100 C   0  0  0  0  0  0
   28.5640   22.4730   16.7990 H   0  0  0  0  0  0
   27.3660   21.2590   18.2450 C   0  0  0  0  0  0
   26.0780   20.8670   18.2780 N   0  0  0  0  0  0
   28.3740   20.8390   19.2800 C   0  0  0  0  0  0
   29.5840   21.4550   19.1230 F   0  0  0  0  0  0
   28.6250   19.4960   19.2470 F   0  0  0  0  0  0
   27.9680   21.1220   20.5530 F   0  0  0  0  0  0
   19.4890   21.0360   16.8090 S   0  0  0  0  0  0
   18.9320   22.2890   16.3300 O   0  0  0  0  0  0
   18.9710   20.4120   18.0130 O   0  0  0  0  0  0
   19.3290   19.9260   15.5650 N   0  0  0  0  0  0
   18.8430   20.3370   14.7640 H   0  0  0  0  0  0
   18.8620   19.0750   15.8880 H   0  0  0  0  0  0
  1  2  1  0  0  0
  1  9  2  0  0  0
  1 39  1  0  0  0
  2  3  1  0  0  0
  2  4  2  0  0  0
  4  5  1  0  0  0
  4  6  1  0  0  0
  6  7  2  0  0  0
  6 11  1  0  0  0
  7  8  1  0  0  0
  7  9  1  0  0  0
  9 10  1  0  0  0
 11 12  1  0  0  0
 11 34  1  0  0  0
 12 13  1  0  0  0
 12 31  2  0  0  0
 13 14  1  0  0  0
 13 19  2  0  0  0
 14 15  1  0  0  0
 14 16  2  0  0  0
 16 17  1  0  0  0
 16 30  1  0  0  0
 17 18  2  0  0  0
 17 25  1  0  0  0
 18 19  1  0  0  0
 18 21  1  0  0  0
 19 20  1  0  0  0
 21 22  1  0  0  0
 21 23  1  0  0  0
 21 24  1  0  0  0
 25 26  1  0  0  0
 26 27  1  0  0  0
 26 28  1  0  0  0
 26 29  1  0  0  0
 31 32  1  0  0  0
 31 33  1  0  0  0
 33 34  2  0  0  0
 33 35  1  0  0  0
 35 36  1  0  0  0
 35 37  1  0  0  0
 35 38  1  0  0  0
 39 40  2  0  0  0
 39 41  2  0  0  0
 39 42  1  0  0  0
 42 43  1  0  0  0
 42 44  1  0  0  0
M  END
>  <ACTIVITY>
7.18

>  <SET>
1

>  <Min_dist>
999.9

>  <Avg_dist>
999.9

$$$$
8-1ae
  Cerius2 12110214053D 1   1.00000                          
Structure written by Cerius2 SD Exporter
 37 39  0  0  0  0  0  0  0  0999 V2000
   21.2480   21.1850   16.9490 C   0  0  0  0  0  0
   21.9650   20.3200   17.7750 C   0  0  0  0  0  0
   21.4570   19.5570   18.3620 H   0  0  0  0  0  0
   23.3570   20.4350   17.8560 C   0  0  0  0  0  0
   23.8910   19.7440   18.5080 H   0  0  0  0  0  0
   24.0460   21.4010   17.0980 C   0  0  0  0  0  0
   23.3090   22.2720   16.2840 C   0  0  0  0  0  0
   23.7720   23.0790   15.7260 H   0  0  0  0  0  0
   21.9160   22.1590   16.2020 C   0  0  0  0  0  0
   21.3590   22.8440   15.5650 H   0  0  0  0  0  0
   25.4710   21.4880   17.2170 N   0  0  0  0  0  0
   26.4130   22.1470   16.4230 C   0  0  0  0  0  0
   26.2100   22.7310   15.0980 C   0  0  0  0  0  0
   26.4670   24.0910   14.8810 C   0  0  0  0  0  0
   26.7930   24.7200   15.7070 H   0  0  0  0  0  0
   26.3000   24.6500   13.6090 C   0  0  0  0  0  0
   25.8830   23.8470   12.5410 C   0  0  0  0  0  0
   25.6400   22.4880   12.7500 C   0  0  0  0  0  0
   25.3230   21.8500   11.9280 H   0  0  0  0  0  0
   25.8090   21.9310   14.0210 C   0  0  0  0  0  0
   25.6260   20.8660   14.1570 H   0  0  0  0  0  0
   25.6560   24.4730   10.9460 Cl  0  0  0  0  0  0
   26.6260   26.3380   13.4220 Cl  0  0  0  0  0  0
   27.6080   22.0660   17.1140 C   0  0  0  0  0  0
   28.5590   22.4830   16.8060 H   0  0  0  0  0  0
   27.3630   21.2650   18.2480 C   0  0  0  0  0  0
   26.0780   20.8660   18.2770 N   0  0  0  0  0  0
   28.3700   20.8500   19.2870 C   0  0  0  0  0  0
   29.5640   21.5000   19.1580 F   0  0  0  0  0  0
   28.6560   19.5150   19.2300 F   0  0  0  0  0  0
   27.9410   21.0960   20.5610 F   0  0  0  0  0  0
   19.4880   21.0410   16.8130 S   0  0  0  0  0  0
   18.9330   22.2990   16.3460 O   0  0  0  0  0  0
   18.9740   20.4090   18.0150 O   0  0  0  0  0  0
   19.3190   19.9420   15.5600 N   0  0  0  0  0  0
   18.8340   20.3630   14.7640 H   0  0  0  0  0  0
   18.8480   19.0900   15.8760 H   0  0  0  0  0  0
  1  2  1  0  0  0
  1  9  2  0  0  0
  1 32  1  0  0  0
  2  3  1  0  0  0
  2  4  2  0  0  0
  4  5  1  0  0  0
  4  6  1  0  0  0
  6  7  2  0  0  0
  6 11  1  0  0  0
  7  8  1  0  0  0
  7  9  1  0  0  0
  9 10  1  0  0  0
 11 12  1  0  0  0
 11 27  1  0  0  0
 12 13  1  0  0  0
 12 24  2  0  0  0
 13 14  1  0  0  0
 13 20  2  0  0  0
 14 15  1  0  0  0
 14 16  2  0  0  0
 16 17  1  0  0  0
 16 23  1  0  0  0
 17 18  2  0  0  0
 17 22  1  0  0  0
 18 19  1  0  0  0
 18 20  1  0  0  0
 20 21  1  0  0  0
 24 25  1  0  0  0
 24 26  1  0  0  0
 26 27  2  0  0  0
 26 28  1  0  0  0
 28 29  1  0  0  0
 28 30  1  0  0  0
 28 31  1  0  0  0
 32 33  2  0  0  0
 32 34  2  0  0  0
 32 35  1  0  0  0
 35 36  1  0  0  0
 35 37  1  0  0  0
M  END
>  <ACTIVITY>
7.82

>  <SET>
1

>  <Min_dist>
999.9

>  <Avg_dist>
999.9

$$$$
8-1af
  Cerius2 12110214053D 1   1.00000                          
Structure written by Cerius2 SD Exporter
 37 39  0  0  0  0  0  0  0  0999 V2000
   21.2390   21.1750   16.9470 C   0  0  0  0  0  0
   21.9630   20.3200   17.7760 C   0  0  0  0  0  0
   21.4630   19.5530   18.3630 H   0  0  0  0  0  0
   23.3540   20.4520   17.8580 C   0  0  0  0  0  0
   23.8900   19.7660   18.5140 H   0  0  0  0  0  0
   24.0390   21.4270   17.1050 C   0  0  0  0  0  0
   23.2910   22.2820   16.2850 C   0  0  0  0  0  0
   23.7360   23.0860   15.7130 H   0  0  0  0  0  0
   21.8980   22.1530   16.2010 C   0  0  0  0  0  0
   21.3360   22.8280   15.5590 H   0  0  0  0  0  0
   25.4670   21.5150   17.2270 N   0  0  0  0  0  0
   26.4230   22.1340   16.4190 C   0  0  0  0  0  0
   26.2240   22.7550   15.1100 C   0  0  0  0  0  0
   26.4730   24.1200   14.8720 C   0  0  0  0  0  0
   26.2970   24.6630   13.5950 C   0  0  0  0  0  0
   26.4830   25.7190   13.4190 H   0  0  0  0  0  0
   25.8800   23.8440   12.5490 C   0  0  0  0  0  0
   25.6390   22.4890   12.7640 C   0  0  0  0  0  0
   25.3180   21.8470   11.9470 H   0  0  0  0  0  0
   25.8140   21.9450   14.0390 C   0  0  0  0  0  0
   25.6280   20.8820   14.1880 H   0  0  0  0  0  0
   25.6610   24.5100   10.9770 Cl  0  0  0  0  0  0
   26.9770   25.1890   16.1370 Cl  0  0  0  0  0  0
   27.6340   21.9730   17.0680 C   0  0  0  0  0  0
   28.5980   22.3310   16.7300 H   0  0  0  0  0  0
   27.3700   21.2170   18.2270 C   0  0  0  0  0  0
   26.0640   20.9070   18.3020 N   0  0  0  0  0  0
   28.3810   20.7650   19.2470 C   0  0  0  0  0  0
   29.5260   21.5080   19.2180 F   0  0  0  0  0  0
   28.7630   19.4670   19.0570 F   0  0  0  0  0  0
   27.9110   20.8430   20.5280 F   0  0  0  0  0  0
   19.4810   21.0060   16.8040 S   0  0  0  0  0  0
   18.9100   22.2580   16.3390 O   0  0  0  0  0  0
   18.9710   20.3630   18.0030 O   0  0  0  0  0  0
   19.3330   19.9100   15.5460 N   0  0  0  0  0  0
   18.8490   20.3300   14.7480 H   0  0  0  0  0  0
   18.8660   19.0540   15.8570 H   0  0  0  0  0  0
  1  2  1  0  0  0
  1  9  2  0  0  0
  1 32  1  0  0  0
  2  3  1  0  0  0
  2  4  2  0  0  0
  4  5  1  0  0  0
  4  6  1  0  0  0
  6  7  2  0  0  0
  6 11  1  0  0  0
  7  8  1  0  0  0
  7  9  1  0  0  0
  9 10  1  0  0  0
 11 12  1  0  0  0
 11 27  1  0  0  0
 12 13  1  0  0  0
 12 24  2  0  0  0
 13 14  1  0  0  0
 13 20  2  0  0  0
 14 15  2  0  0  0
 14 23  1  0  0  0
 15 16  1  0  0  0
 15 17  1  0  0  0
 17 18  2  0  0  0
 17 22  1  0  0  0
 18 19  1  0  0  0
 18 20  1  0  0  0
 20 21  1  0  0  0
 24 25  1  0  0  0
 24 26  1  0  0  0
 26 27  2  0  0  0
 26 28  1  0  0  0
 28 29  1  0  0  0
 28 30  1  0  0  0
 28 31  1  0  0  0
 32 33  2  0  0  0
 32 34  2  0  0  0
 32 35  1  0  0  0
 35 36  1  0  0  0
 35 37  1  0  0  0
M  END
>  <ACTIVITY>
7.25

>  <SET>
1

>  <Min_dist>
999.9

>  <Avg_dist>
999.9

$$$$
8-1ag
  Cerius2 12110214053D 1   1.00000                          
Structure written by Cerius2 SD Exporter
 37 39  0  0  0  0  0  0  0  0999 V2000
   21.2410   21.1760   16.9460 C   0  0  0  0  0  0
   21.9630   20.3200   17.7740 C   0  0  0  0  0  0
   21.4620   19.5530   18.3610 H   0  0  0  0  0  0
   23.3540   20.4500   17.8570 C   0  0  0  0  0  0
   23.8900   19.7630   18.5120 H   0  0  0  0  0  0
   24.0410   21.4240   17.1040 C   0  0  0  0  0  0
   23.2950   22.2800   16.2840 C   0  0  0  0  0  0
   23.7410   23.0850   15.7140 H   0  0  0  0  0  0
   21.9010   22.1530   16.1990 C   0  0  0  0  0  0
   21.3400   22.8300   15.5570 H   0  0  0  0  0  0
   25.4680   21.5120   17.2270 N   0  0  0  0  0  0
   26.4230   22.1340   16.4200 C   0  0  0  0  0  0
   26.2220   22.7550   15.1090 C   0  0  0  0  0  0
   26.4720   24.1200   14.8740 C   0  0  0  0  0  0
   26.2940   24.6610   13.5960 C   0  0  0  0  0  0
   26.4790   25.7170   13.4120 H   0  0  0  0  0  0
   25.8740   23.8470   12.5430 C   0  0  0  0  0  0
   25.7380   24.2770   11.5530 H   0  0  0  0  0  0
   25.6350   22.4930   12.7670 C   0  0  0  0  0  0
   25.8110   21.9440   14.0380 C   0  0  0  0  0  0
   25.6290   20.8830   14.1950 H   0  0  0  0  0  0
   25.1220   21.4890   11.4660 Cl  0  0  0  0  0  0
   26.9760   25.1890   16.1370 Cl  0  0  0  0  0  0
   27.6330   21.9780   17.0720 C   0  0  0  0  0  0
   28.5970   22.3400   16.7350 H   0  0  0  0  0  0
   27.3700   21.2230   18.2310 C   0  0  0  0  0  0
   26.0650   20.9060   18.3030 N   0  0  0  0  0  0
   28.3780   20.7780   19.2560 C   0  0  0  0  0  0
   29.5630   21.4520   19.1600 F   0  0  0  0  0  0
   28.6840   19.4510   19.1400 F   0  0  0  0  0  0
   27.9430   20.9600   20.5380 F   0  0  0  0  0  0
   19.4830   21.0110   16.8040 S   0  0  0  0  0  0
   18.9110   22.2720   16.3640 O   0  0  0  0  0  0
   18.9750   20.3460   17.9910 O   0  0  0  0  0  0
   19.3300   19.9380   15.5270 N   0  0  0  0  0  0
   18.8420   20.3710   14.7390 H   0  0  0  0  0  0
   18.8680   19.0750   15.8230 H   0  0  0  0  0  0
  1  2  1  0  0  0
  1  9  2  0  0  0
  1 32  1  0  0  0
  2  3  1  0  0  0
  2  4  2  0  0  0
  4  5  1  0  0  0
  4  6  1  0  0  0
  6  7  2  0  0  0
  6 11  1  0  0  0
  7  8  1  0  0  0
  7  9  1  0  0  0
  9 10  1  0  0  0
 11 12  1  0  0  0
 11 27  1  0  0  0
 12 13  1  0  0  0
 12 24  2  0  0  0
 13 14  1  0  0  0
 13 20  2  0  0  0
 14 15  2  0  0  0
 14 23  1  0  0  0
 15 16  1  0  0  0
 15 17  1  0  0  0
 17 18  1  0  0  0
 17 19  2  0  0  0
 19 20  1  0  0  0
 19 22  1  0  0  0
 20 21  1  0  0  0
 24 25  1  0  0  0
 24 26  1  0  0  0
 26 27  2  0  0  0
 26 28  1  0  0  0
 28 29  1  0  0  0
 28 30  1  0  0  0
 28 31  1  0  0  0
 32 33  2  0  0  0
 32 34  2  0  0  0
 32 35  1  0  0  0
 35 36  1  0  0  0
 35 37  1  0  0  0
M  END
>  <ACTIVITY>
4

>  <SET>
3

>  <Min_dist>
0.03

>  <Avg_dist>
0.51

$$$$
8-1ai
  Cerius2 12110214053D 1   1.00000                          
Structure written by Cerius2 SD Exporter
 36 38  0  0  0  0  0  0  0  0999 V2000
   21.2730   21.1910   16.8920 C   0  0  0  0  0  0
   21.9780   20.3280   17.7310 C   0  0  0  0  0  0
   21.4610   19.5700   18.3150 H   0  0  0  0  0  0
   23.3700   20.4350   17.8210 C   0  0  0  0  0  0
   23.8970   19.7420   18.4770 H   0  0  0  0  0  0
   24.0690   21.3970   17.0670 C   0  0  0  0  0  0
   23.3420   22.2760   16.2520 C   0  0  0  0  0  0
   23.8150   23.0870   15.7050 H   0  0  0  0  0  0
   21.9480   22.1720   16.1620 C   0  0  0  0  0  0
   21.4010   22.8650   15.5260 H   0  0  0  0  0  0
   25.4930   21.4770   17.1920 N   0  0  0  0  0  0
   26.4330   22.1600   16.4270 C   0  0  0  0  0  0
   26.2250   22.7580   15.1180 C   0  0  0  0  0  0
   25.7540   21.8990   14.1820 N   0  0  0  0  0  0
   25.5170   22.4070   12.9490 C   0  0  0  0  0  0
   25.1460   21.7000   12.2100 H   0  0  0  0  0  0
   25.7180   23.7360   12.6130 C   0  0  0  0  0  0
   25.5110   24.0890   11.6080 H   0  0  0  0  0  0
   26.1860   24.6010   13.5960 C   0  0  0  0  0  0
   26.3480   25.6520   13.3700 H   0  0  0  0  0  0
   26.4390   24.1100   14.8740 C   0  0  0  0  0  0
   26.7930   24.7770   15.6550 H   0  0  0  0  0  0
   27.6170   22.0920   17.1380 C   0  0  0  0  0  0
   28.5610   22.5430   16.8550 H   0  0  0  0  0  0
   27.3710   21.2530   18.2450 C   0  0  0  0  0  0
   26.0950   20.8220   18.2360 N   0  0  0  0  0  0
   28.3690   20.8320   19.2900 C   0  0  0  0  0  0
   29.5480   21.5160   19.2040 F   0  0  0  0  0  0
   28.6900   19.5080   19.1990 F   0  0  0  0  0  0
   27.9100   21.0290   20.5620 F   0  0  0  0  0  0
   19.5060   21.0910   16.7980 S   0  0  0  0  0  0
   18.9770   22.3800   16.3880 O   0  0  0  0  0  0
   18.9960   20.4310   17.9880 O   0  0  0  0  0  0
   19.2830   20.0330   15.5190 N   0  0  0  0  0  0
   18.7840   20.4850   14.7480 H   0  0  0  0  0  0
   18.8050   19.1810   15.8240 H   0  0  0  0  0  0
  1  2  1  0  0  0
  1  9  2  0  0  0
  1 31  1  0  0  0
  2  3  1  0  0  0
  2  4  2  0  0  0
  4  5  1  0  0  0
  4  6  1  0  0  0
  6  7  2  0  0  0
  6 11  1  0  0  0
  7  8  1  0  0  0
  7  9  1  0  0  0
  9 10  1  0  0  0
 11 12  1  0  0  0
 11 26  1  0  0  0
 12 13  1  0  0  0
 12 23  2  0  0  0
 13 14  1  0  0  0
 13 21  2  0  0  0
 14 15  2  0  0  0
 15 16  1  0  0  0
 15 17  1  0  0  0
 17 18  1  0  0  0
 17 19  2  0  0  0
 19 20  1  0  0  0
 19 21  1  0  0  0
 21 22  1  0  0  0
 23 24  1  0  0  0
 23 25  1  0  0  0
 25 26  2  0  0  0
 25 27  1  0  0  0
 27 28  1  0  0  0
 27 29  1  0  0  0
 27 30  1  0  0  0
 31 32  2  0  0  0
 31 33  2  0  0  0
 31 34  1  0  0  0
 34 35  1  0  0  0
 34 36  1  0  0  0
M  END
>  <ACTIVITY>
4.34

>  <SET>
2

>  <Min_dist>
0.21

>  <Avg_dist>
0.53

$$$$
8-1aj
  Cerius2 12110214053D 1   1.00000                          
Structure written by Cerius2 SD Exporter
 36 38  0  0  0  0  0  0  0  0999 V2000
   21.2600   21.1750   16.9090 C   0  0  0  0  0  0
   21.9700   20.3170   17.7490 C   0  0  0  0  0  0
   21.4570   19.5560   18.3330 H   0  0  0  0  0  0
   23.3610   20.4320   17.8400 C   0  0  0  0  0  0
   23.8900   19.7430   18.4970 H   0  0  0  0  0  0
   24.0560   21.3990   17.0880 C   0  0  0  0  0  0
   23.3250   22.2700   16.2690 C   0  0  0  0  0  0
   23.7910   23.0790   15.7160 H   0  0  0  0  0  0
   21.9310   22.1580   16.1780 C   0  0  0  0  0  0
   21.3810   22.8460   15.5390 H   0  0  0  0  0  0
   25.4800   21.4850   17.2170 N   0  0  0  0  0  0
   26.4290   22.1450   16.4330 C   0  0  0  0  0  0
   26.2370   22.7280   15.1080 C   0  0  0  0  0  0
   25.7720   21.9620   14.0400 C   0  0  0  0  0  0
   25.5640   20.9010   14.1630 H   0  0  0  0  0  0
   25.5490   22.4470   12.7900 N   0  0  0  0  0  0
   25.7930   23.7650   12.6010 C   0  0  0  0  0  0
   25.6120   24.1410   11.5960 H   0  0  0  0  0  0
   26.2410   24.6130   13.6000 C   0  0  0  0  0  0
   26.4130   25.6660   13.3940 H   0  0  0  0  0  0
   26.4590   24.0870   14.8710 C   0  0  0  0  0  0
   26.8000   24.7450   15.6680 H   0  0  0  0  0  0
   27.6180   22.0630   17.1360 C   0  0  0  0  0  0
   28.5730   22.4800   16.8380 H   0  0  0  0  0  0
   27.3620   21.2600   18.2660 C   0  0  0  0  0  0
   26.0770   20.8620   18.2820 N   0  0  0  0  0  0
   28.3590   20.8420   19.3140 C   0  0  0  0  0  0
   29.5560   21.4900   19.1950 F   0  0  0  0  0  0
   28.6430   19.5060   19.2580 F   0  0  0  0  0  0
   27.9210   21.0880   20.5840 F   0  0  0  0  0  0
   19.4940   21.0640   16.8150 S   0  0  0  0  0  0
   18.9570   22.3490   16.4040 O   0  0  0  0  0  0
   18.9890   20.4030   18.0060 O   0  0  0  0  0  0
   19.2770   20.0030   15.5370 N   0  0  0  0  0  0
   18.7730   20.4510   14.7670 H   0  0  0  0  0  0
   18.8050   19.1480   15.8440 H   0  0  0  0  0  0
  1  2  1  0  0  0
  1  9  2  0  0  0
  1 31  1  0  0  0
  2  3  1  0  0  0
  2  4  2  0  0  0
  4  5  1  0  0  0
  4  6  1  0  0  0
  6  7  2  0  0  0
  6 11  1  0  0  0
  7  8  1  0  0  0
  7  9  1  0  0  0
  9 10  1  0  0  0
 11 12  1  0  0  0
 11 26  1  0  0  0
 12 13  1  0  0  0
 12 23  2  0  0  0
 13 14  1  0  0  0
 13 21  2  0  0  0
 14 15  1  0  0  0
 14 16  2  0  0  0
 16 17  1  0  0  0
 17 18  1  0  0  0
 17 19  2  0  0  0
 19 20  1  0  0  0
 19 21  1  0  0  0
 21 22  1  0  0  0
 23 24  1  0  0  0
 23 25  1  0  0  0
 25 26  2  0  0  0
 25 27  1  0  0  0
 27 28  1  0  0  0
 27 29  1  0  0  0
 27 30  1  0  0  0
 31 32  2  0  0  0
 31 33  2  0  0  0
 31 34  1  0  0  0
 34 35  1  0  0  0
 34 36  1  0  0  0
M  END
>  <ACTIVITY>
4.35

>  <SET>
2

>  <Min_dist>
0.19

>  <Avg_dist>
0.51

$$$$
8-1ak
  Cerius2 12110214053D 1   1.00000                          
Structure written by Cerius2 SD Exporter
 36 38  0  0  0  0  0  0  0  0999 V2000
   21.2510   21.1690   16.9230 C   0  0  0  0  0  0
   21.9660   20.3140   17.7630 C   0  0  0  0  0  0
   21.4560   19.5520   18.3490 H   0  0  0  0  0  0
   23.3570   20.4330   17.8500 C   0  0  0  0  0  0
   23.8900   19.7470   18.5070 H   0  0  0  0  0  0
   24.0470   21.4000   17.0930 C   0  0  0  0  0  0
   23.3110   22.2700   16.2770 C   0  0  0  0  0  0
   23.7750   23.0790   15.7230 H   0  0  0  0  0  0
   21.9170   22.1540   16.1910 C   0  0  0  0  0  0
   21.3630   22.8400   15.5530 H   0  0  0  0  0  0
   25.4720   21.4880   17.2140 N   0  0  0  0  0  0
   26.4120   22.1560   16.4280 C   0  0  0  0  0  0
   26.2110   22.7440   15.1040 C   0  0  0  0  0  0
   26.4670   24.0990   14.8870 C   0  0  0  0  0  0
   26.7900   24.7530   15.6910 H   0  0  0  0  0  0
   26.2920   24.6090   13.6110 C   0  0  0  0  0  0
   26.4760   25.6620   13.4080 H   0  0  0  0  0  0
   25.8960   23.8660   12.5510 N   0  0  0  0  0  0
   25.6700   22.5520   12.7830 C   0  0  0  0  0  0
   25.3600   21.9660   11.9200 H   0  0  0  0  0  0
   25.8160   21.9520   14.0230 C   0  0  0  0  0  0
   25.6270   20.8890   14.1330 H   0  0  0  0  0  0
   27.6070   22.0740   17.1210 C   0  0  0  0  0  0
   28.5570   22.4970   16.8190 H   0  0  0  0  0  0
   27.3620   21.2590   18.2450 C   0  0  0  0  0  0
   26.0780   20.8550   18.2680 N   0  0  0  0  0  0
   28.3710   20.8320   19.2770 C   0  0  0  0  0  0
   29.5280   21.5560   19.2180 F   0  0  0  0  0  0
   28.7350   19.5220   19.1380 F   0  0  0  0  0  0
   27.9070   20.9660   20.5550 F   0  0  0  0  0  0
   19.4860   21.0510   16.8310 S   0  0  0  0  0  0
   18.9440   22.3330   16.4180 O   0  0  0  0  0  0
   18.9830   20.3890   18.0220 O   0  0  0  0  0  0
   19.2720   19.9870   15.5540 N   0  0  0  0  0  0
   18.7720   20.4330   14.7810 H   0  0  0  0  0  0
   18.7990   19.1340   15.8620 H   0  0  0  0  0  0
  1  2  1  0  0  0
  1  9  2  0  0  0
  1 31  1  0  0  0
  2  3  1  0  0  0
  2  4  2  0  0  0
  4  5  1  0  0  0
  4  6  1  0  0  0
  6  7  2  0  0  0
  6 11  1  0  0  0
  7  8  1  0  0  0
  7  9  1  0  0  0
  9 10  1  0  0  0
 11 12  1  0  0  0
 11 26  1  0  0  0
 12 13  1  0  0  0
 12 23  2  0  0  0
 13 14  1  0  0  0
 13 21  2  0  0  0
 14 15  1  0  0  0
 14 16  2  0  0  0
 16 17  1  0  0  0
 16 18  1  0  0  0
 18 19  2  0  0  0
 19 20  1  0  0  0
 19 21  1  0  0  0
 21 22  1  0  0  0
 23 24  1  0  0  0
 23 25  1  0  0  0
 25 26  2  0  0  0
 25 27  1  0  0  0
 27 28  1  0  0  0
 27 29  1  0  0  0
 27 30  1  0  0  0
 31 32  2  0  0  0
 31 33  2  0  0  0
 31 34  1  0  0  0
 34 35  1  0  0  0
 34 36  1  0  0  0
M  END
>  <ACTIVITY>
4.19

>  <SET>
2

>  <Min_dist>
0.15

>  <Avg_dist>
0.5

$$$$
8-1al
  Cerius2 12110214053D 1   1.00000                          
Structure written by Cerius2 SD Exporter
 34 36  0  0  0  0  0  0  0  0999 V2000
   21.2610   21.1820   16.9100 C   0  0  0  0  0  0
   21.9600   20.3150   17.7500 C   0  0  0  0  0  0
   21.4370   19.5580   18.3320 H   0  0  0  0  0  0
   23.3520   20.4140   17.8440 C   0  0  0  0  0  0
   23.8730   19.7180   18.5010 H   0  0  0  0  0  0
   24.0580   21.3740   17.0950 C   0  0  0  0  0  0
   23.3380   22.2570   16.2770 C   0  0  0  0  0  0
   23.8160   23.0640   15.7310 H   0  0  0  0  0  0
   21.9440   22.1600   16.1830 C   0  0  0  0  0  0
   21.4030   22.8560   15.5450 H   0  0  0  0  0  0
   25.4810   21.4480   17.2270 N   0  0  0  0  0  0
   26.4300   22.1570   16.4920 C   0  0  0  0  0  0
   26.2440   22.8060   15.2250 C   0  0  0  0  0  0
   26.5670   24.4800   15.0260 S   0  0  0  0  0  0
   26.1480   24.4210   13.3860 C   0  0  0  0  0  0
   25.7850   23.1680   12.9630 C   0  0  0  0  0  0
   25.4920   22.9240   11.9480 H   0  0  0  0  0  0
   25.8510   22.2240   14.0330 C   0  0  0  0  0  0
   25.6160   21.1710   13.9260 H   0  0  0  0  0  0
   26.1900   25.9250   12.2640 Br  0  0  0  0  0  0
   27.6160   22.0460   17.1920 C   0  0  0  0  0  0
   28.5680   22.4870   16.9270 H   0  0  0  0  0  0
   27.3600   21.1690   18.2680 C   0  0  0  0  0  0
   26.0780   20.7560   18.2500 N   0  0  0  0  0  0
   28.3560   20.6950   19.2920 C   0  0  0  0  0  0
   29.5450   21.3650   19.2250 F   0  0  0  0  0  0
   28.6580   19.3700   19.1490 F   0  0  0  0  0  0
   27.9060   20.8500   20.5730 F   0  0  0  0  0  0
   19.4940   21.0900   16.8120 S   0  0  0  0  0  0
   18.9710   22.3830   16.4080 O   0  0  0  0  0  0
   18.9800   20.4270   17.9980 O   0  0  0  0  0  0
   19.2690   20.0410   15.5270 N   0  0  0  0  0  0
   18.7770   20.5000   14.7570 H   0  0  0  0  0  0
   18.7840   19.1910   15.8260 H   0  0  0  0  0  0
  1  2  1  0  0  0
  1  9  2  0  0  0
  1 29  1  0  0  0
  2  3  1  0  0  0
  2  4  2  0  0  0
  4  5  1  0  0  0
  4  6  1  0  0  0
  6  7  2  0  0  0
  6 11  1  0  0  0
  7  8  1  0  0  0
  7  9  1  0  0  0
  9 10  1  0  0  0
 11 12  1  0  0  0
 11 24  1  0  0  0
 12 13  1  0  0  0
 12 21  2  0  0  0
 13 14  1  0  0  0
 13 18  2  0  0  0
 14 15  1  0  0  0
 15 16  2  0  0  0
 15 20  1  0  0  0
 16 17  1  0  0  0
 16 18  1  0  0  0
 18 19  1  0  0  0
 21 22  1  0  0  0
 21 23  1  0  0  0
 23 24  2  0  0  0
 23 25  1  0  0  0
 25 26  1  0  0  0
 25 27  1  0  0  0
 25 28  1  0  0  0
 29 30  2  0  0  0
 29 31  2  0  0  0
 29 32  1  0  0  0
 32 33  1  0  0  0
 32 34  1  0  0  0
M  END
>  <ACTIVITY>
7.92

>  <SET>
1

>  <Min_dist>
999.9

>  <Avg_dist>
999.9

$$$$
8-1an
  Cerius2 12110214053D 1   1.00000                          
Structure written by Cerius2 SD Exporter
 40 43  0  0  0  0  0  0  0  0999 V2000
   21.2490   21.1810   16.9410 C   0  0  0  0  0  0
   21.9570   20.3140   17.7720 C   0  0  0  0  0  0
   21.4450   19.5530   18.3550 H   0  0  0  0  0  0
   23.3500   20.4260   17.8590 C   0  0  0  0  0  0
   23.8790   19.7330   18.5130 H   0  0  0  0  0  0
   24.0450   21.3930   17.1080 C   0  0  0  0  0  0
   23.3150   22.2640   16.2890 C   0  0  0  0  0  0
   23.7830   23.0680   15.7300 H   0  0  0  0  0  0
   21.9220   22.1540   16.1990 C   0  0  0  0  0  0
   21.3700   22.8400   15.5600 H   0  0  0  0  0  0
   25.4680   21.4750   17.2300 N   0  0  0  0  0  0
   26.4070   22.1440   16.4570 C   0  0  0  0  0  0
   26.2500   22.8020   15.1390 C   0  0  0  0  0  0
   25.8370   22.1010   14.0290 C   0  0  0  0  0  0
   25.5960   21.0490   13.9550 H   0  0  0  0  0  0
   25.7490   23.0950   12.6470 S   0  0  0  0  0  0
   26.2330   24.4960   13.5270 C   0  0  0  0  0  0
   26.4640   24.2020   14.8760 C   0  0  0  0  0  0
   26.8530   25.2690   15.7270 C   0  0  0  0  0  0
   27.0330   25.0890   16.7860 H   0  0  0  0  0  0
   27.0110   26.5640   15.2230 C   0  0  0  0  0  0
   27.3130   27.3690   15.8900 H   0  0  0  0  0  0
   26.7850   26.8240   13.8800 C   0  0  0  0  0  0
   26.9110   27.8340   13.4940 H   0  0  0  0  0  0
   26.3920   25.7990   13.0160 C   0  0  0  0  0  0
   26.2100   26.0100   11.9650 H   0  0  0  0  0  0
   27.6150   22.0350   17.1090 C   0  0  0  0  0  0
   28.5660   22.4500   16.7960 H   0  0  0  0  0  0
   27.3740   21.2080   18.2280 C   0  0  0  0  0  0
   26.0810   20.8300   18.2750 N   0  0  0  0  0  0
   28.3920   20.7530   19.2390 C   0  0  0  0  0  0
   29.6310   21.2880   19.0220 F   0  0  0  0  0  0
   28.5580   19.3970   19.2370 F   0  0  0  0  0  0
   28.0490   21.0960   20.5160 F   0  0  0  0  0  0
   19.4880   21.0530   16.8020 S   0  0  0  0  0  0
   18.9420   22.3220   16.3510 O   0  0  0  0  0  0
   18.9710   20.4070   17.9950 O   0  0  0  0  0  0
   19.3090   19.9780   15.5300 N   0  0  0  0  0  0
   18.8280   20.4170   14.7400 H   0  0  0  0  0  0
   18.8300   19.1260   15.8310 H   0  0  0  0  0  0
  1  2  1  0  0  0
  1  9  2  0  0  0
  1 35  1  0  0  0
  2  3  1  0  0  0
  2  4  2  0  0  0
  4  5  1  0  0  0
  4  6  1  0  0  0
  6  7  2  0  0  0
  6 11  1  0  0  0
  7  8  1  0  0  0
  7  9  1  0  0  0
  9 10  1  0  0  0
 11 12  1  0  0  0
 11 30  1  0  0  0
 12 13  1  0  0  0
 12 27  2  0  0  0
 13 14  2  0  0  0
 13 18  1  0  0  0
 14 15  1  0  0  0
 14 16  1  0  0  0
 16 17  1  0  0  0
 17 18  1  0  0  0
 17 25  2  0  0  0
 18 19  2  0  0  0
 19 20  1  0  0  0
 19 21  1  0  0  0
 21 22  1  0  0  0
 21 23  2  0  0  0
 23 24  1  0  0  0
 23 25  1  0  0  0
 25 26  1  0  0  0
 27 28  1  0  0  0
 27 29  1  0  0  0
 29 30  2  0  0  0
 29 31  1  0  0  0
 31 32  1  0  0  0
 31 33  1  0  0  0
 31 34  1  0  0  0
 35 36  2  0  0  0
 35 37  2  0  0  0
 35 38  1  0  0  0
 38 39  1  0  0  0
 38 40  1  0  0  0
M  END
>  <ACTIVITY>
6.46

>  <SET>
2

>  <Min_dist>
0.22

>  <Avg_dist>
0.55

$$$$
8-1ao
  Cerius2 12110214053D 1   1.00000                          
Structure written by Cerius2 SD Exporter
 40 43  0  0  0  0  0  0  0  0999 V2000
   21.2770   21.2030   16.8930 C   0  0  0  0  0  0
   21.9730   20.3310   17.7310 C   0  0  0  0  0  0
   21.4480   19.5760   18.3130 H   0  0  0  0  0  0
   23.3660   20.4220   17.8210 C   0  0  0  0  0  0
   23.8880   19.7240   18.4760 H   0  0  0  0  0  0
   24.0730   21.3780   17.0680 C   0  0  0  0  0  0
   23.3570   22.2690   16.2560 C   0  0  0  0  0  0
   23.8410   23.0760   15.7150 H   0  0  0  0  0  0
   21.9620   22.1790   16.1660 C   0  0  0  0  0  0
   21.4210   22.8790   15.5320 H   0  0  0  0  0  0
   25.4950   21.4480   17.1920 N   0  0  0  0  0  0
   26.4320   22.1820   16.4740 C   0  0  0  0  0  0
   26.2580   22.8330   15.2120 C   0  0  0  0  0  0
   25.8080   22.1600   14.1040 O   0  0  0  0  0  0
   25.7170   23.0510   13.0810 C   0  0  0  0  0  0
   26.0850   24.3170   13.5120 C   0  0  0  0  0  0
   26.4160   24.1710   14.8840 C   0  0  0  0  0  0
   26.7330   24.9560   15.5590 H   0  0  0  0  0  0
   26.0480   25.3790   12.5920 C   0  0  0  0  0  0
   26.3260   26.3880   12.8890 H   0  0  0  0  0  0
   25.6450   25.1140   11.2760 C   0  0  0  0  0  0
   25.6130   25.9270   10.5520 H   0  0  0  0  0  0
   25.2840   23.8230   10.8790 C   0  0  0  0  0  0
   24.9730   23.6450    9.8500 H   0  0  0  0  0  0
   25.3120   22.7540   11.7820 C   0  0  0  0  0  0
   25.0320   21.7490   11.4870 H   0  0  0  0  0  0
   27.6070   22.1130   17.1960 C   0  0  0  0  0  0
   28.5440   22.5970   16.9530 H   0  0  0  0  0  0
   27.3670   21.2000   18.2470 C   0  0  0  0  0  0
   26.1020   20.7380   18.1970 N   0  0  0  0  0  0
   28.3650   20.7380   19.2760 C   0  0  0  0  0  0
   29.5170   21.4710   19.2620 F   0  0  0  0  0  0
   28.7390   19.4380   19.0890 F   0  0  0  0  0  0
   27.8790   20.8180   20.5500 F   0  0  0  0  0  0
   19.5090   21.1200   16.7960 S   0  0  0  0  0  0
   18.9950   22.4130   16.3810 O   0  0  0  0  0  0
   18.9910   20.4690   17.9870 O   0  0  0  0  0  0
   19.2780   20.0590   15.5200 N   0  0  0  0  0  0
   18.7860   20.5140   14.7470 H   0  0  0  0  0  0
   18.7910   19.2140   15.8270 H   0  0  0  0  0  0
  1  2  1  0  0  0
  1  9  2  0  0  0
  1 35  1  0  0  0
  2  3  1  0  0  0
  2  4  2  0  0  0
  4  5  1  0  0  0
  4  6  1  0  0  0
  6  7  2  0  0  0
  6 11  1  0  0  0
  7  8  1  0  0  0
  7  9  1  0  0  0
  9 10  1  0  0  0
 11 12  1  0  0  0
 11 30  1  0  0  0
 12 13  1  0  0  0
 12 27  2  0  0  0
 13 14  1  0  0  0
 13 17  2  0  0  0
 14 15  1  0  0  0
 15 16  1  0  0  0
 15 25  2  0  0  0
 16 17  1  0  0  0
 16 19  2  0  0  0
 17 18  1  0  0  0
 19 20  1  0  0  0
 19 21  1  0  0  0
 21 22  1  0  0  0
 21 23  2  0  0  0
 23 24  1  0  0  0
 23 25  1  0  0  0
 25 26  1  0  0  0
 27 28  1  0  0  0
 27 29  1  0  0  0
 29 30  2  0  0  0
 29 31  1  0  0  0
 31 32  1  0  0  0
 31 33  1  0  0  0
 31 34  1  0  0  0
 35 36  2  0  0  0
 35 37  2  0  0  0
 35 38  1  0  0  0
 38 39  1  0  0  0
 38 40  1  0  0  0
M  END
>  <ACTIVITY>
6.05

>  <SET>
2

>  <Min_dist>
0.12

>  <Avg_dist>
0.56

$$$$
8-1ap
  Cerius2 12110214053D 1   1.00000                          
Structure written by Cerius2 SD Exporter
 41 43  0  0  0  0  0  0  0  0999 V2000
   21.2640   21.1780   16.9110 C   0  0  0  0  0  0
   21.9770   20.3210   17.7490 C   0  0  0  0  0  0
   21.4650   19.5600   18.3350 H   0  0  0  0  0  0
   23.3690   20.4350   17.8350 C   0  0  0  0  0  0
   23.9010   19.7470   18.4910 H   0  0  0  0  0  0
   24.0610   21.4010   17.0800 C   0  0  0  0  0  0
   23.3260   22.2740   16.2660 C   0  0  0  0  0  0
   23.7940   23.0820   15.7120 H   0  0  0  0  0  0
   21.9330   22.1620   16.1780 C   0  0  0  0  0  0
   21.3810   22.8500   15.5420 H   0  0  0  0  0  0
   25.4850   21.4910   17.2070 N   0  0  0  0  0  0
   26.4390   22.1610   16.4390 C   0  0  0  0  0  0
   26.1870   22.6840   15.1330 C   0  0  0  0  0  0
   26.4620   23.9920   14.9480 C   0  0  0  0  0  0
   26.8320   24.6050   15.7710 H   0  0  0  0  0  0
   26.2910   24.7180   13.6440 C   0  0  0  0  0  0
   27.2870   24.9670   13.2580 H   0  0  0  0  0  0
   25.7700   25.6660   13.8210 H   0  0  0  0  0  0
   25.5220   23.9150   12.5960 C   0  0  0  0  0  0
   25.6730   24.3580   11.6060 H   0  0  0  0  0  0
   24.4470   23.9660   12.8080 H   0  0  0  0  0  0
   25.9680   22.4590   12.5950 C   0  0  0  0  0  0
   27.0340   22.4000   12.3370 H   0  0  0  0  0  0
   25.4230   21.8980   11.8290 H   0  0  0  0  0  0
   25.7340   21.8200   13.9650 C   0  0  0  0  0  0
   24.6670   21.5960   14.0760 H   0  0  0  0  0  0
   26.2630   20.8590   13.9950 H   0  0  0  0  0  0
   27.6170   22.1080   17.1570 C   0  0  0  0  0  0
   28.5670   22.5440   16.8710 H   0  0  0  0  0  0
   27.3580   21.2960   18.2800 C   0  0  0  0  0  0
   26.0820   20.8650   18.2730 N   0  0  0  0  0  0
   28.3470   20.8960   19.3420 C   0  0  0  0  0  0
   29.5330   21.5670   19.2410 F   0  0  0  0  0  0
   28.6560   19.5670   19.2910 F   0  0  0  0  0  0
   27.8840   21.1340   20.6060 F   0  0  0  0  0  0
   19.4980   21.0670   16.8220 S   0  0  0  0  0  0
   18.9590   22.3510   16.4110 O   0  0  0  0  0  0
   18.9970   20.4060   18.0150 O   0  0  0  0  0  0
   19.2780   20.0050   15.5450 N   0  0  0  0  0  0
   18.7760   20.4550   14.7750 H   0  0  0  0  0  0
   18.8040   19.1520   15.8520 H   0  0  0  0  0  0
  1  2  1  0  0  0
  1  9  2  0  0  0
  1 36  1  0  0  0
  2  3  1  0  0  0
  2  4  2  0  0  0
  4  5  1  0  0  0
  4  6  1  0  0  0
  6  7  2  0  0  0
  6 11  1  0  0  0
  7  8  1  0  0  0
  7  9  1  0  0  0
  9 10  1  0  0  0
 11 12  1  0  0  0
 11 31  1  0  0  0
 12 13  1  0  0  0
 12 28  2  0  0  0
 13 14  2  0  0  0
 13 25  1  0  0  0
 14 15  1  0  0  0
 14 16  1  0  0  0
 16 17  1  0  0  0
 16 18  1  0  0  0
 16 19  1  0  0  0
 19 20  1  0  0  0
 19 21  1  0  0  0
 19 22  1  0  0  0
 22 23  1  0  0  0
 22 24  1  0  0  0
 22 25  1  0  0  0
 25 26  1  0  0  0
 25 27  1  0  0  0
 28 29  1  0  0  0
 28 30  1  0  0  0
 30 31  2  0  0  0
 30 32  1  0  0  0
 32 33  1  0  0  0
 32 34  1  0  0  0
 32 35  1  0  0  0
 36 37  2  0  0  0
 36 38  2  0  0  0
 36 39  1  0  0  0
 39 40  1  0  0  0
 39 41  1  0  0  0
M  END
>  <ACTIVITY>
7.08

>  <SET>
2

>  <Min_dist>
0.2

>  <Avg_dist>
0.55

$$$$
8-1aq
  Cerius2 12110214053D 1   1.00000                          
Structure written by Cerius2 SD Exporter
 44 47  0  0  0  0  0  0  0  0999 V2000
   21.2600   21.1740   16.9090 C   0  0  0  0  0  0
   21.9710   20.3190   17.7500 C   0  0  0  0  0  0
   21.4600   19.5580   18.3350 H   0  0  0  0  0  0
   23.3620   20.4380   17.8410 C   0  0  0  0  0  0
   23.8920   19.7500   18.5000 H   0  0  0  0  0  0
   24.0550   21.4050   17.0890 C   0  0  0  0  0  0
   23.3220   22.2750   16.2700 C   0  0  0  0  0  0
   23.7870   23.0840   15.7160 H   0  0  0  0  0  0
   21.9290   22.1590   16.1780 C   0  0  0  0  0  0
   21.3770   22.8440   15.5380 H   0  0  0  0  0  0
   25.4800   21.4920   17.2160 N   0  0  0  0  0  0
   26.4280   22.1470   16.4280 C   0  0  0  0  0  0
   26.2320   22.7330   15.1030 C   0  0  0  0  0  0
   25.7660   21.9300   14.0410 C   0  0  0  0  0  0
   25.5730   20.8700   14.2010 H   0  0  0  0  0  0
   25.5470   22.4710   12.7700 C   0  0  0  0  0  0
   25.1830   21.8440   11.9590 H   0  0  0  0  0  0
   25.8010   23.8170   12.5760 C   0  0  0  0  0  0
   26.2500   24.6240   13.6260 C   0  0  0  0  0  0
   26.4560   24.1030   14.8930 C   0  0  0  0  0  0
   26.7840   24.7490   15.7040 H   0  0  0  0  0  0
   26.4000   26.0450   13.1790 C   0  0  0  0  0  0
   27.3190   26.5060   13.5520 H   0  0  0  0  0  0
   25.5300   26.6320   13.4900 H   0  0  0  0  0  0
   26.4390   25.8740   11.6530 C   0  0  0  0  0  0
   26.0810   26.7620   11.1240 H   0  0  0  0  0  0
   27.4780   25.7060   11.3370 H   0  0  0  0  0  0
   25.6080   24.6230   11.3290 C   0  0  0  0  0  0
   24.5500   24.8730   11.2020 H   0  0  0  0  0  0
   25.9850   24.1140   10.4380 H   0  0  0  0  0  0
   27.6200   22.0600   17.1240 C   0  0  0  0  0  0
   28.5750   22.4720   16.8190 H   0  0  0  0  0  0
   27.3660   21.2610   18.2560 C   0  0  0  0  0  0
   26.0780   20.8700   18.2820 N   0  0  0  0  0  0
   28.3650   20.8400   19.3000 C   0  0  0  0  0  0
   29.5840   21.4370   19.1390 F   0  0  0  0  0  0
   28.5970   19.4940   19.2860 F   0  0  0  0  0  0
   27.9590   21.1450   20.5680 F   0  0  0  0  0  0
   19.4940   21.0580   16.8110 S   0  0  0  0  0  0
   18.9550   22.3410   16.3970 O   0  0  0  0  0  0
   18.9890   20.3970   18.0020 O   0  0  0  0  0  0
   19.2830   19.9940   15.5350 N   0  0  0  0  0  0
   18.7840   20.4410   14.7610 H   0  0  0  0  0  0
   18.8100   19.1400   15.8410 H   0  0  0  0  0  0
  1  2  1  0  0  0
  1  9  2  0  0  0
  1 39  1  0  0  0
  2  3  1  0  0  0
  2  4  2  0  0  0
  4  5  1  0  0  0
  4  6  1  0  0  0
  6  7  2  0  0  0
  6 11  1  0  0  0
  7  8  1  0  0  0
  7  9  1  0  0  0
  9 10  1  0  0  0
 11 12  1  0  0  0
 11 34  1  0  0  0
 12 13  1  0  0  0
 12 31  2  0  0  0
 13 14  1  0  0  0
 13 20  2  0  0  0
 14 15  1  0  0  0
 14 16  2  0  0  0
 16 17  1  0  0  0
 16 18  1  0  0  0
 18 19  2  0  0  0
 18 28  1  0  0  0
 19 20  1  0  0  0
 19 22  1  0  0  0
 20 21  1  0  0  0
 22 23  1  0  0  0
 22 24  1  0  0  0
 22 25  1  0  0  0
 25 26  1  0  0  0
 25 27  1  0  0  0
 25 28  1  0  0  0
 28 29  1  0  0  0
 28 30  1  0  0  0
 31 32  1  0  0  0
 31 33  1  0  0  0
 33 34  2  0  0  0
 33 35  1  0  0  0
 35 36  1  0  0  0
 35 37  1  0  0  0
 35 38  1  0  0  0
 39 40  2  0  0  0
 39 41  2  0  0  0
 39 42  1  0  0  0
 42 43  1  0  0  0
 42 44  1  0  0  0
M  END
>  <ACTIVITY>
7.51

>  <SET>
2

>  <Min_dist>
0.12

>  <Avg_dist>
0.54

$$$$
8-1ar
  Cerius2 12110214053D 1   1.00000                          
Structure written by Cerius2 SD Exporter
 45 48  0  0  0  0  0  0  0  0999 V2000
   21.2590   21.1730   16.9110 C   0  0  0  0  0  0
   21.9690   20.3170   17.7530 C   0  0  0  0  0  0
   21.4570   19.5550   18.3370 H   0  0  0  0  0  0
   23.3600   20.4340   17.8450 C   0  0  0  0  0  0
   23.8900   19.7460   18.5030 H   0  0  0  0  0  0
   24.0550   21.4010   17.0930 C   0  0  0  0  0  0
   23.3220   22.2720   16.2740 C   0  0  0  0  0  0
   23.7880   23.0810   15.7210 H   0  0  0  0  0  0
   21.9290   22.1570   16.1810 C   0  0  0  0  0  0
   21.3780   22.8430   15.5410 H   0  0  0  0  0  0
   25.4790   21.4880   17.2200 N   0  0  0  0  0  0
   26.4260   22.1410   16.4280 C   0  0  0  0  0  0
   26.2290   22.7190   15.1010 C   0  0  0  0  0  0
   25.7700   21.9270   14.0480 C   0  0  0  0  0  0
   25.5760   20.8650   14.1940 H   0  0  0  0  0  0
   25.5600   22.4880   12.7860 C   0  0  0  0  0  0
   25.2050   21.8420   11.9830 H   0  0  0  0  0  0
   25.7930   23.8520   12.5520 C   0  0  0  0  0  0
   26.2570   24.6590   13.6010 C   0  0  0  0  0  0
   26.4500   24.0830   14.8740 C   0  0  0  0  0  0
   26.7820   24.7170   15.6970 H   0  0  0  0  0  0
   26.5120   26.1390   13.4600 C   0  0  0  0  0  0
   27.3940   26.4120   14.0550 H   0  0  0  0  0  0
   25.6550   26.6750   13.8870 H   0  0  0  0  0  0
   26.7480   26.6120   12.0310 C   0  0  0  0  0  0
   26.8630   27.7030   12.0380 H   0  0  0  0  0  0
   27.6880   26.2020   11.6390 H   0  0  0  0  0  0
   25.5840   26.2410   11.1330 C   0  0  0  0  0  0
   24.6350   26.5960   11.5500 H   0  0  0  0  0  0
   25.7060   26.7050   10.1490 H   0  0  0  0  0  0
   25.4920   24.4410   10.8920 S   0  0  0  0  0  0
   27.6180   22.0600   17.1250 C   0  0  0  0  0  0
   28.5710   22.4730   16.8200 H   0  0  0  0  0  0
   27.3650   21.2650   18.2620 C   0  0  0  0  0  0
   26.0780   20.8700   18.2870 N   0  0  0  0  0  0
   28.3660   20.8520   19.3080 C   0  0  0  0  0  0
   29.5790   21.4610   19.1510 F   0  0  0  0  0  0
   28.6100   19.5080   19.2930 F   0  0  0  0  0  0
   27.9530   21.1530   20.5750 F   0  0  0  0  0  0
   19.4940   21.0600   16.8110 S   0  0  0  0  0  0
   18.9580   22.3440   16.3950 O   0  0  0  0  0  0
   18.9830   20.3990   17.9990 O   0  0  0  0  0  0
   19.2830   19.9970   15.5330 N   0  0  0  0  0  0
   18.7840   20.4440   14.7590 H   0  0  0  0  0  0
   18.8090   19.1430   15.8390 H   0  0  0  0  0  0
  1  2  1  0  0  0
  1  9  2  0  0  0
  1 40  1  0  0  0
  2  3  1  0  0  0
  2  4  2  0  0  0
  4  5  1  0  0  0
  4  6  1  0  0  0
  6  7  2  0  0  0
  6 11  1  0  0  0
  7  8  1  0  0  0
  7  9  1  0  0  0
  9 10  1  0  0  0
 11 12  1  0  0  0
 11 35  1  0  0  0
 12 13  1  0  0  0
 12 32  2  0  0  0
 13 14  1  0  0  0
 13 20  2  0  0  0
 14 15  1  0  0  0
 14 16  2  0  0  0
 16 17  1  0  0  0
 16 18  1  0  0  0
 18 19  2  0  0  0
 18 31  1  0  0  0
 19 20  1  0  0  0
 19 22  1  0  0  0
 20 21  1  0  0  0
 22 23  1  0  0  0
 22 24  1  0  0  0
 22 25  1  0  0  0
 25 26  1  0  0  0
 25 27  1  0  0  0
 25 28  1  0  0  0
 28 29  1  0  0  0
 28 30  1  0  0  0
 28 31  1  0  0  0
 32 33  1  0  0  0
 32 34  1  0  0  0
 34 35  2  0  0  0
 34 36  1  0  0  0
 36 37  1  0  0  0
 36 38  1  0  0  0
 36 39  1  0  0  0
 40 41  2  0  0  0
 40 42  2  0  0  0
 40 43  1  0  0  0
 43 44  1  0  0  0
 43 45  1  0  0  0
M  END
>  <ACTIVITY>
6.64

>  <SET>
1

>  <Min_dist>
999.9

>  <Avg_dist>
999.9

$$$$
8-1as
  Cerius2 12110214053D 1   1.00000                          
Structure written by Cerius2 SD Exporter
 42 45  0  0  0  0  0  0  0  0999 V2000
   21.2610   21.1750   16.9080 C   0  0  0  0  0  0
   21.9710   20.3190   17.7500 C   0  0  0  0  0  0
   21.4590   19.5570   18.3340 H   0  0  0  0  0  0
   23.3630   20.4360   17.8410 C   0  0  0  0  0  0
   23.8930   19.7470   18.4980 H   0  0  0  0  0  0
   24.0560   21.4030   17.0880 C   0  0  0  0  0  0
   23.3240   22.2730   16.2700 C   0  0  0  0  0  0
   23.7900   23.0820   15.7160 H   0  0  0  0  0  0
   21.9310   22.1590   16.1770 C   0  0  0  0  0  0
   21.3790   22.8450   15.5380 H   0  0  0  0  0  0
   25.4810   21.4900   17.2160 N   0  0  0  0  0  0
   26.4270   22.1480   16.4290 C   0  0  0  0  0  0
   26.2310   22.7340   15.1040 C   0  0  0  0  0  0
   25.7650   21.9300   14.0410 C   0  0  0  0  0  0
   25.5720   20.8690   14.2010 H   0  0  0  0  0  0
   25.5570   22.4700   12.7680 C   0  0  0  0  0  0
   25.2100   21.8480   11.9490 H   0  0  0  0  0  0
   25.8020   23.8150   12.5900 C   0  0  0  0  0  0
   26.2470   24.6210   13.6250 C   0  0  0  0  0  0
   26.4660   24.1020   14.8900 C   0  0  0  0  0  0
   26.8200   24.7450   15.6930 H   0  0  0  0  0  0
   26.4830   25.9910   13.1150 C   0  0  0  0  0  0
   27.5540   26.1620   12.9690 H   0  0  0  0  0  0
   26.0600   26.7770   13.7460 H   0  0  0  0  0  0
   25.7530   25.8800   11.7760 C   0  0  0  0  0  0
   24.7330   26.2770   11.8470 H   0  0  0  0  0  0
   26.2760   26.4270   10.9850 H   0  0  0  0  0  0
   25.6530   24.4790   11.4010 O   0  0  0  0  0  0
   27.6190   22.0640   17.1260 C   0  0  0  0  0  0
   28.5720   22.4800   16.8230 H   0  0  0  0  0  0
   27.3660   21.2640   18.2580 C   0  0  0  0  0  0
   26.0800   20.8680   18.2800 N   0  0  0  0  0  0
   28.3660   20.8470   19.3030 C   0  0  0  0  0  0
   29.5790   21.4570   19.1490 F   0  0  0  0  0  0
   28.6110   19.5030   19.2820 F   0  0  0  0  0  0
   27.9530   21.1420   20.5710 F   0  0  0  0  0  0
   19.4950   21.0620   16.8110 S   0  0  0  0  0  0
   18.9590   22.3470   16.3970 O   0  0  0  0  0  0
   18.9870   20.4010   18.0000 O   0  0  0  0  0  0
   19.2820   20.0000   15.5330 N   0  0  0  0  0  0
   18.7830   20.4480   14.7600 H   0  0  0  0  0  0
   18.8070   19.1460   15.8390 H   0  0  0  0  0  0
  1  2  1  0  0  0
  1  9  2  0  0  0
  1 37  1  0  0  0
  2  3  1  0  0  0
  2  4  2  0  0  0
  4  5  1  0  0  0
  4  6  1  0  0  0
  6  7  2  0  0  0
  6 11  1  0  0  0
  7  8  1  0  0  0
  7  9  1  0  0  0
  9 10  1  0  0  0
 11 12  1  0  0  0
 11 32  1  0  0  0
 12 13  1  0  0  0
 12 29  2  0  0  0
 13 14  1  0  0  0
 13 20  2  0  0  0
 14 15  1  0  0  0
 14 16  2  0  0  0
 16 17  1  0  0  0
 16 18  1  0  0  0
 18 19  2  0  0  0
 18 28  1  0  0  0
 19 20  1  0  0  0
 19 22  1  0  0  0
 20 21  1  0  0  0
 22 23  1  0  0  0
 22 24  1  0  0  0
 22 25  1  0  0  0
 25 26  1  0  0  0
 25 27  1  0  0  0
 25 28  1  0  0  0
 29 30  1  0  0  0
 29 31  1  0  0  0
 31 32  2  0  0  0
 31 33  1  0  0  0
 33 34  1  0  0  0
 33 35  1  0  0  0
 33 36  1  0  0  0
 37 38  2  0  0  0
 37 39  2  0  0  0
 37 40  1  0  0  0
 40 41  1  0  0  0
 40 42  1  0  0  0
M  END
>  <ACTIVITY>
7.68

>  <SET>
1

>  <Min_dist>
999.9

>  <Avg_dist>
999.9

$$$$
8-1at
  Cerius2 12110214053D 1   1.00000                          
Structure written by Cerius2 SD Exporter
 43 46  0  0  0  0  0  0  0  0999 V2000
   21.2630   21.1770   16.9050 C   0  0  0  0  0  0
   21.9720   20.3200   17.7470 C   0  0  0  0  0  0
   21.4590   19.5590   18.3310 H   0  0  0  0  0  0
   23.3630   20.4360   17.8410 C   0  0  0  0  0  0
   23.8930   19.7480   18.4990 H   0  0  0  0  0  0
   24.0580   21.4030   17.0880 C   0  0  0  0  0  0
   23.3270   22.2740   16.2690 C   0  0  0  0  0  0
   23.7950   23.0830   15.7180 H   0  0  0  0  0  0
   21.9340   22.1610   16.1760 C   0  0  0  0  0  0
   21.3840   22.8490   15.5360 H   0  0  0  0  0  0
   25.4820   21.4900   17.2160 N   0  0  0  0  0  0
   26.4280   22.1500   16.4300 C   0  0  0  0  0  0
   26.2310   22.7370   15.1050 C   0  0  0  0  0  0
   25.7600   21.9320   14.0430 C   0  0  0  0  0  0
   25.5760   20.8710   14.2170 H   0  0  0  0  0  0
   25.5300   22.4700   12.7650 C   0  0  0  0  0  0
   25.7930   23.8180   12.5950 C   0  0  0  0  0  0
   26.2390   24.6090   13.6300 C   0  0  0  0  0  0
   26.4600   24.1040   14.8940 C   0  0  0  0  0  0
   26.8030   24.7550   15.6930 H   0  0  0  0  0  0
   26.4250   25.9040   13.2550 O   0  0  0  0  0  0
   26.0510   25.8450   11.8590 C   0  0  0  0  0  0
   25.2180   26.5370   11.6890 H   0  0  0  0  0  0
   26.9070   26.1620   11.2520 H   0  0  0  0  0  0
   25.6490   24.5210   11.4380 O   0  0  0  0  0  0
   25.0660   21.6100   11.6320 C   0  0  0  0  0  0
   24.2720   22.1110   11.0680 H   0  0  0  0  0  0
   24.6580   20.6610   11.9940 H   0  0  0  0  0  0
   25.9010   21.3930   10.9590 H   0  0  0  0  0  0
   27.6200   22.0660   17.1260 C   0  0  0  0  0  0
   28.5730   22.4830   16.8230 H   0  0  0  0  0  0
   27.3680   21.2630   18.2570 C   0  0  0  0  0  0
   26.0820   20.8650   18.2790 N   0  0  0  0  0  0
   28.3690   20.8460   19.3010 C   0  0  0  0  0  0
   29.5700   21.4850   19.1700 F   0  0  0  0  0  0
   28.6430   19.5080   19.2540 F   0  0  0  0  0  0
   27.9400   21.1050   20.5720 F   0  0  0  0  0  0
   19.4970   21.0640   16.8070 S   0  0  0  0  0  0
   18.9600   22.3480   16.3920 O   0  0  0  0  0  0
   18.9890   20.4030   17.9960 O   0  0  0  0  0  0
   19.2850   20.0020   15.5290 N   0  0  0  0  0  0
   18.7870   20.4500   14.7550 H   0  0  0  0  0  0
   18.8110   19.1480   15.8340 H   0  0  0  0  0  0
  1  2  1  0  0  0
  1  9  2  0  0  0
  1 38  1  0  0  0
  2  3  1  0  0  0
  2  4  2  0  0  0
  4  5  1  0  0  0
  4  6  1  0  0  0
  6  7  2  0  0  0
  6 11  1  0  0  0
  7  8  1  0  0  0
  7  9  1  0  0  0
  9 10  1  0  0  0
 11 12  1  0  0  0
 11 33  1  0  0  0
 12 13  1  0  0  0
 12 30  2  0  0  0
 13 14  1  0  0  0
 13 19  2  0  0  0
 14 15  1  0  0  0
 14 16  2  0  0  0
 16 17  1  0  0  0
 16 26  1  0  0  0
 17 18  2  0  0  0
 17 25  1  0  0  0
 18 19  1  0  0  0
 18 21  1  0  0  0
 19 20  1  0  0  0
 21 22  1  0  0  0
 22 23  1  0  0  0
 22 24  1  0  0  0
 22 25  1  0  0  0
 26 27  1  0  0  0
 26 28  1  0  0  0
 26 29  1  0  0  0
 30 31  1  0  0  0
 30 32  1  0  0  0
 32 33  2  0  0  0
 32 34  1  0  0  0
 34 35  1  0  0  0
 34 36  1  0  0  0
 34 37  1  0  0  0
 38 39  2  0  0  0
 38 40  2  0  0  0
 38 41  1  0  0  0
 41 42  1  0  0  0
 41 43  1  0  0  0
M  END
>  <ACTIVITY>
7.28

>  <SET>
1

>  <Min_dist>
999.9

>  <Avg_dist>
999.9

$$$$
8-1b
  Cerius2 12110214053D 1   1.00000                          
Structure written by Cerius2 SD Exporter
 37 39  0  0  0  0  0  0  0  0999 V2000
   21.2480   21.1840   16.9450 C   0  0  0  0  0  0
   21.9650   20.3200   17.7720 C   0  0  0  0  0  0
   21.4590   19.5570   18.3590 H   0  0  0  0  0  0
   23.3570   20.4390   17.8540 C   0  0  0  0  0  0
   23.8920   19.7490   18.5070 H   0  0  0  0  0  0
   24.0470   21.4080   17.0990 C   0  0  0  0  0  0
   23.3080   22.2750   16.2820 C   0  0  0  0  0  0
   23.7660   23.0820   15.7220 H   0  0  0  0  0  0
   21.9140   22.1580   16.1980 C   0  0  0  0  0  0
   21.3570   22.8420   15.5600 H   0  0  0  0  0  0
   25.4720   21.4950   17.2190 N   0  0  0  0  0  0
   26.4180   22.1410   16.4230 C   0  0  0  0  0  0
   26.2140   22.7310   15.1010 C   0  0  0  0  0  0
   26.4670   24.0900   14.8710 C   0  0  0  0  0  0
   26.2920   24.6530   13.6100 C   0  0  0  0  0  0
   26.4880   25.7110   13.4590 H   0  0  0  0  0  0
   25.8670   23.8550   12.5500 C   0  0  0  0  0  0
   25.7280   24.2890   11.5610 H   0  0  0  0  0  0
   25.6240   22.4960   12.7560 C   0  0  0  0  0  0
   25.2980   21.8700   11.9260 H   0  0  0  0  0  0
   25.8020   21.9340   14.0240 C   0  0  0  0  0  0
   25.6150   20.8700   14.1600 H   0  0  0  0  0  0
   26.8720   24.8810   15.8770 F   0  0  0  0  0  0
   27.6170   22.0440   17.1060 C   0  0  0  0  0  0
   28.5720   22.4480   16.7920 H   0  0  0  0  0  0
   27.3650   21.2570   18.2480 C   0  0  0  0  0  0
   26.0740   20.8780   18.2860 N   0  0  0  0  0  0
   28.3700   20.8380   19.2870 C   0  0  0  0  0  0
   27.9430   21.0860   20.5610 F   0  0  0  0  0  0
   29.5680   21.4820   19.1570 F   0  0  0  0  0  0
   28.6500   19.5010   19.2300 F   0  0  0  0  0  0
   19.4880   21.0350   16.8090 S   0  0  0  0  0  0
   18.9290   22.2960   16.3550 O   0  0  0  0  0  0
   18.9750   20.3890   18.0040 O   0  0  0  0  0  0
   19.3240   19.9480   15.5450 N   0  0  0  0  0  0
   18.8360   20.3750   14.7530 H   0  0  0  0  0  0
   18.8580   19.0910   15.8530 H   0  0  0  0  0  0
  1  2  1  0  0  0
  1  9  2  0  0  0
  1 32  1  0  0  0
  2  3  1  0  0  0
  2  4  2  0  0  0
  4  5  1  0  0  0
  4  6  1  0  0  0
  6  7  2  0  0  0
  6 11  1  0  0  0
  7  8  1  0  0  0
  7  9  1  0  0  0
  9 10  1  0  0  0
 11 12  1  0  0  0
 11 27  1  0  0  0
 12 13  1  0  0  0
 12 24  2  0  0  0
 13 14  1  0  0  0
 13 21  2  0  0  0
 14 15  2  0  0  0
 14 23  1  0  0  0
 15 16  1  0  0  0
 15 17  1  0  0  0
 17 18  1  0  0  0
 17 19  2  0  0  0
 19 20  1  0  0  0
 19 21  1  0  0  0
 21 22  1  0  0  0
 24 25  1  0  0  0
 24 26  1  0  0  0
 26 27  2  0  0  0
 26 28  1  0  0  0
 28 29  1  0  0  0
 28 30  1  0  0  0
 28 31  1  0  0  0
 32 33  2  0  0  0
 32 34  2  0  0  0
 32 35  1  0  0  0
 35 36  1  0  0  0
 35 37  1  0  0  0
M  END
>  <ACTIVITY>
7.24

>  <SET>
1

>  <Min_dist>
999.9

>  <Avg_dist>
999.9

$$$$
8-1c
  Cerius2 12110214053D 1   1.00000                          
Structure written by Cerius2 SD Exporter
 37 39  0  0  0  0  0  0  0  0999 V2000
   21.2480   21.1860   16.9480 C   0  0  0  0  0  0
   21.9650   20.3210   17.7740 C   0  0  0  0  0  0
   21.4580   19.5580   18.3610 H   0  0  0  0  0  0
   23.3570   20.4360   17.8550 C   0  0  0  0  0  0
   23.8920   19.7460   18.5070 H   0  0  0  0  0  0
   24.0470   21.4030   17.0970 C   0  0  0  0  0  0
   23.3090   22.2730   16.2830 C   0  0  0  0  0  0
   23.7710   23.0790   15.7230 H   0  0  0  0  0  0
   21.9150   22.1590   16.2010 C   0  0  0  0  0  0
   21.3580   22.8450   15.5650 H   0  0  0  0  0  0
   25.4720   21.4890   17.2150 N   0  0  0  0  0  0
   26.4150   22.1480   16.4230 C   0  0  0  0  0  0
   26.2120   22.7340   15.0990 C   0  0  0  0  0  0
   26.4700   24.0930   14.8840 C   0  0  0  0  0  0
   26.8000   24.7380   15.6940 H   0  0  0  0  0  0
   26.2960   24.6370   13.6150 C   0  0  0  0  0  0
   25.8780   23.8510   12.5470 C   0  0  0  0  0  0
   25.7480   24.2960   11.5650 H   0  0  0  0  0  0
   25.6350   22.4940   12.7490 C   0  0  0  0  0  0
   25.3140   21.8680   11.9180 H   0  0  0  0  0  0
   25.8070   21.9360   14.0180 C   0  0  0  0  0  0
   25.6220   20.8710   14.1550 H   0  0  0  0  0  0
   26.5340   25.9410   13.4190 F   0  0  0  0  0  0
   27.6100   22.0640   17.1140 C   0  0  0  0  0  0
   28.5610   22.4810   16.8070 H   0  0  0  0  0  0
   27.3630   21.2640   18.2480 C   0  0  0  0  0  0
   26.0770   20.8660   18.2760 N   0  0  0  0  0  0
   28.3690   20.8480   19.2880 C   0  0  0  0  0  0
   29.5510   21.5260   19.1820 F   0  0  0  0  0  0
   28.6820   19.5210   19.2060 F   0  0  0  0  0  0
   27.9250   21.0590   20.5630 F   0  0  0  0  0  0
   19.4880   21.0400   16.8120 S   0  0  0  0  0  0
   18.9320   22.2970   16.3440 O   0  0  0  0  0  0
   18.9740   20.4080   18.0150 O   0  0  0  0  0  0
   19.3200   19.9410   15.5590 N   0  0  0  0  0  0
   18.8350   20.3620   14.7630 H   0  0  0  0  0  0
   18.8490   19.0890   15.8750 H   0  0  0  0  0  0
  1  2  1  0  0  0
  1  9  2  0  0  0
  1 32  1  0  0  0
  2  3  1  0  0  0
  2  4  2  0  0  0
  4  5  1  0  0  0
  4  6  1  0  0  0
  6  7  2  0  0  0
  6 11  1  0  0  0
  7  8  1  0  0  0
  7  9  1  0  0  0
  9 10  1  0  0  0
 11 12  1  0  0  0
 11 27  1  0  0  0
 12 13  1  0  0  0
 12 24  2  0  0  0
 13 14  1  0  0  0
 13 21  2  0  0  0
 14 15  1  0  0  0
 14 16  2  0  0  0
 16 17  1  0  0  0
 16 23  1  0  0  0
 17 18  1  0  0  0
 17 19  2  0  0  0
 19 20  1  0  0  0
 19 21  1  0  0  0
 21 22  1  0  0  0
 24 25  1  0  0  0
 24 26  1  0  0  0
 26 27  2  0  0  0
 26 28  1  0  0  0
 28 29  1  0  0  0
 28 30  1  0  0  0
 28 31  1  0  0  0
 32 33  2  0  0  0
 32 34  2  0  0  0
 32 35  1  0  0  0
 35 36  1  0  0  0
 35 37  1  0  0  0
M  END
>  <ACTIVITY>
5.11

>  <SET>
1

>  <Min_dist>
999.9

>  <Avg_dist>
999.9

$$$$
8-1d
  Cerius2 12110214053D 1   1.00000                          
Structure written by Cerius2 SD Exporter
 37 39  0  0  0  0  0  0  0  0999 V2000
   21.2490   21.1850   16.9470 C   0  0  0  0  0  0
   21.9650   20.3200   17.7740 C   0  0  0  0  0  0
   21.4570   19.5580   18.3600 H   0  0  0  0  0  0
   23.3570   20.4360   17.8550 C   0  0  0  0  0  0
   23.8910   19.7460   18.5080 H   0  0  0  0  0  0
   24.0470   21.4030   17.0990 C   0  0  0  0  0  0
   23.3100   22.2730   16.2840 C   0  0  0  0  0  0
   23.7720   23.0810   15.7260 H   0  0  0  0  0  0
   21.9160   22.1590   16.2000 C   0  0  0  0  0  0
   21.3590   22.8440   15.5630 H   0  0  0  0  0  0
   25.4720   21.4900   17.2170 N   0  0  0  0  0  0
   26.4150   22.1450   16.4220 C   0  0  0  0  0  0
   26.2110   22.7290   15.0980 C   0  0  0  0  0  0
   26.4700   24.0910   14.8820 C   0  0  0  0  0  0
   26.8010   24.7290   15.7010 H   0  0  0  0  0  0
   26.2960   24.6490   13.6140 C   0  0  0  0  0  0
   26.4890   25.7050   13.4450 H   0  0  0  0  0  0
   25.8760   23.8440   12.5620 C   0  0  0  0  0  0
   25.6300   22.4890   12.7520 C   0  0  0  0  0  0
   25.3090   21.8730   11.9170 H   0  0  0  0  0  0
   25.8030   21.9290   14.0200 C   0  0  0  0  0  0
   25.6190   20.8650   14.1570 H   0  0  0  0  0  0
   25.7100   24.3800   11.3460 F   0  0  0  0  0  0
   27.6110   22.0630   17.1130 C   0  0  0  0  0  0
   28.5620   22.4780   16.8030 H   0  0  0  0  0  0
   27.3640   21.2650   18.2490 C   0  0  0  0  0  0
   26.0780   20.8690   18.2790 N   0  0  0  0  0  0
   28.3720   20.8510   19.2870 C   0  0  0  0  0  0
   27.9300   21.0650   20.5620 F   0  0  0  0  0  0
   29.5540   21.5270   19.1780 F   0  0  0  0  0  0
   28.6840   19.5230   19.2070 F   0  0  0  0  0  0
   19.4880   21.0400   16.8100 S   0  0  0  0  0  0
   18.9330   22.2980   16.3430 O   0  0  0  0  0  0
   18.9740   20.4070   18.0120 O   0  0  0  0  0  0
   19.3220   19.9420   15.5560 N   0  0  0  0  0  0
   18.8380   20.3630   14.7590 H   0  0  0  0  0  0
   18.8490   19.0910   15.8720 H   0  0  0  0  0  0
  1  2  1  0  0  0
  1  9  2  0  0  0
  1 32  1  0  0  0
  2  3  1  0  0  0
  2  4  2  0  0  0
  4  5  1  0  0  0
  4  6  1  0  0  0
  6  7  2  0  0  0
  6 11  1  0  0  0
  7  8  1  0  0  0
  7  9  1  0  0  0
  9 10  1  0  0  0
 11 12  1  0  0  0
 11 27  1  0  0  0
 12 13  1  0  0  0
 12 24  2  0  0  0
 13 14  1  0  0  0
 13 21  2  0  0  0
 14 15  1  0  0  0
 14 16  2  0  0  0
 16 17  1  0  0  0
 16 18  1  0  0  0
 18 19  2  0  0  0
 18 23  1  0  0  0
 19 20  1  0  0  0
 19 21  1  0  0  0
 21 22  1  0  0  0
 24 25  1  0  0  0
 24 26  1  0  0  0
 26 27  2  0  0  0
 26 28  1  0  0  0
 28 29  1  0  0  0
 28 30  1  0  0  0
 28 31  1  0  0  0
 32 33  2  0  0  0
 32 34  2  0  0  0
 32 35  1  0  0  0
 35 36  1  0  0  0
 35 37  1  0  0  0
M  END
>  <ACTIVITY>
7.39

>  <SET>
1

>  <Min_dist>
999.9

>  <Avg_dist>
999.9

$$$$
8-1g
  Cerius2 12110214053D 1   1.00000                          
Structure written by Cerius2 SD Exporter
 40 42  0  0  0  0  0  0  0  0999 V2000
   21.2410   21.1810   16.9450 C   0  0  0  0  0  0
   21.9630   20.3220   17.7720 C   0  0  0  0  0  0
   21.4600   19.5550   18.3580 H   0  0  0  0  0  0
   23.3540   20.4480   17.8530 C   0  0  0  0  0  0
   23.8890   19.7600   18.5080 H   0  0  0  0  0  0
   24.0420   21.4220   17.1010 C   0  0  0  0  0  0
   23.2970   22.2790   16.2810 C   0  0  0  0  0  0
   23.7480   23.0820   15.7090 H   0  0  0  0  0  0
   21.9040   22.1550   16.1970 C   0  0  0  0  0  0
   21.3460   22.8330   15.5530 H   0  0  0  0  0  0
   25.4700   21.5090   17.2240 N   0  0  0  0  0  0
   26.4250   22.1390   16.4220 C   0  0  0  0  0  0
   26.2220   22.7570   15.1110 C   0  0  0  0  0  0
   26.4710   24.1270   14.8870 C   0  0  0  0  0  0
   26.2870   24.6510   13.5970 C   0  0  0  0  0  0
   26.4730   25.7070   13.4000 H   0  0  0  0  0  0
   25.8630   23.8360   12.5470 C   0  0  0  0  0  0
   25.7240   24.2580   11.5540 H   0  0  0  0  0  0
   25.6250   22.4830   12.7690 C   0  0  0  0  0  0
   25.3000   21.8450   11.9500 H   0  0  0  0  0  0
   25.8080   21.9450   14.0430 C   0  0  0  0  0  0
   25.6260   20.8820   14.1960 H   0  0  0  0  0  0
   26.9320   25.0430   15.9900 C   0  0  0  0  0  0
   27.9540   24.7910   16.2910 H   0  0  0  0  0  0
   26.2660   24.9710   16.8550 H   0  0  0  0  0  0
   26.9290   26.0900   15.6680 H   0  0  0  0  0  0
   27.6340   21.9840   17.0760 C   0  0  0  0  0  0
   28.5970   22.3480   16.7400 H   0  0  0  0  0  0
   27.3710   21.2200   18.2300 C   0  0  0  0  0  0
   26.0670   20.9000   18.2990 N   0  0  0  0  0  0
   28.3860   20.7680   19.2460 C   0  0  0  0  0  0
   27.8500   20.5760   20.4880 F   0  0  0  0  0  0
   29.4010   21.6680   19.4090 F   0  0  0  0  0  0
   28.9750   19.5870   18.8970 F   0  0  0  0  0  0
   19.4830   21.0140   16.8050 S   0  0  0  0  0  0
   18.9070   22.2890   16.4140 O   0  0  0  0  0  0
   18.9790   20.3040   17.9670 O   0  0  0  0  0  0
   19.3310   19.9860   15.4910 N   0  0  0  0  0  0
   18.8330   20.4430   14.7210 H   0  0  0  0  0  0
   18.8770   19.1090   15.7580 H   0  0  0  0  0  0
  1  2  1  0  0  0
  1  9  2  0  0  0
  1 35  1  0  0  0
  2  3  1  0  0  0
  2  4  2  0  0  0
  4  5  1  0  0  0
  4  6  1  0  0  0
  6  7  2  0  0  0
  6 11  1  0  0  0
  7  8  1  0  0  0
  7  9  1  0  0  0
  9 10  1  0  0  0
 11 12  1  0  0  0
 11 30  1  0  0  0
 12 13  1  0  0  0
 12 27  2  0  0  0
 13 14  1  0  0  0
 13 21  2  0  0  0
 14 15  2  0  0  0
 14 23  1  0  0  0
 15 16  1  0  0  0
 15 17  1  0  0  0
 17 18  1  0  0  0
 17 19  2  0  0  0
 19 20  1  0  0  0
 19 21  1  0  0  0
 21 22  1  0  0  0
 23 24  1  0  0  0
 23 25  1  0  0  0
 23 26  1  0  0  0
 27 28  1  0  0  0
 27 29  1  0  0  0
 29 30  2  0  0  0
 29 31  1  0  0  0
 31 32  1  0  0  0
 31 33  1  0  0  0
 31 34  1  0  0  0
 35 36  2  0  0  0
 35 37  2  0  0  0
 35 38  1  0  0  0
 38 39  1  0  0  0
 38 40  1  0  0  0
M  END
>  <ACTIVITY>
7.16

>  <SET>
1

>  <Min_dist>
999.9

>  <Avg_dist>
999.9

$$$$
8-1i
  Cerius2 12110214053D 1   1.00000                          
Structure written by Cerius2 SD Exporter
 40 42  0  0  0  0  0  0  0  0999 V2000
   21.2480   21.1860   16.9480 C   0  0  0  0  0  0
   21.9640   20.3210   17.7750 C   0  0  0  0  0  0
   21.4570   19.5590   18.3620 H   0  0  0  0  0  0
   23.3570   20.4370   17.8550 C   0  0  0  0  0  0
   23.8910   19.7470   18.5080 H   0  0  0  0  0  0
   24.0460   21.4040   17.0990 C   0  0  0  0  0  0
   23.3080   22.2730   16.2840 C   0  0  0  0  0  0
   23.7700   23.0790   15.7230 H   0  0  0  0  0  0
   21.9150   22.1590   16.2010 C   0  0  0  0  0  0
   21.3580   22.8450   15.5640 H   0  0  0  0  0  0
   25.4720   21.4910   17.2170 N   0  0  0  0  0  0
   26.4160   22.1450   16.4220 C   0  0  0  0  0  0
   26.2120   22.7300   15.0990 C   0  0  0  0  0  0
   26.4720   24.0880   14.8810 C   0  0  0  0  0  0
   26.8080   24.7250   15.6970 H   0  0  0  0  0  0
   26.2970   24.6480   13.6120 C   0  0  0  0  0  0
   26.5040   25.7070   13.4660 H   0  0  0  0  0  0
   25.8600   23.8580   12.5420 C   0  0  0  0  0  0
   25.6310   22.4940   12.7530 C   0  0  0  0  0  0
   25.3160   21.8550   11.9290 H   0  0  0  0  0  0
   25.8060   21.9330   14.0210 C   0  0  0  0  0  0
   25.6250   20.8680   14.1560 H   0  0  0  0  0  0
   25.7040   24.4520   11.1720 C   0  0  0  0  0  0
   24.9170   23.9370   10.6120 H   0  0  0  0  0  0
   26.6450   24.3690   10.6200 H   0  0  0  0  0  0
   25.4210   25.5080   11.2340 H   0  0  0  0  0  0
   27.6120   22.0580   17.1110 C   0  0  0  0  0  0
   28.5640   22.4710   16.8000 H   0  0  0  0  0  0
   27.3640   21.2620   18.2470 C   0  0  0  0  0  0
   26.0770   20.8700   18.2800 N   0  0  0  0  0  0
   28.3710   20.8430   19.2850 C   0  0  0  0  0  0
   29.5640   21.4980   19.1600 F   0  0  0  0  0  0
   28.6600   19.5100   19.2200 F   0  0  0  0  0  0
   27.9400   21.0810   20.5600 F   0  0  0  0  0  0
   19.4880   21.0370   16.8100 S   0  0  0  0  0  0
   18.9430   22.2520   16.2300 O   0  0  0  0  0  0
   18.9590   20.5140   18.0580 O   0  0  0  0  0  0
   19.3260   19.8330   15.6560 N   0  0  0  0  0  0
   18.8480   20.1840   14.8220 H   0  0  0  0  0  0
   18.8500   19.0140   16.0420 H   0  0  0  0  0  0
  1  2  1  0  0  0
  1  9  2  0  0  0
  1 35  1  0  0  0
  2  3  1  0  0  0
  2  4  2  0  0  0
  4  5  1  0  0  0
  4  6  1  0  0  0
  6  7  2  0  0  0
  6 11  1  0  0  0
  7  8  1  0  0  0
  7  9  1  0  0  0
  9 10  1  0  0  0
 11 12  1  0  0  0
 11 30  1  0  0  0
 12 13  1  0  0  0
 12 27  2  0  0  0
 13 14  1  0  0  0
 13 21  2  0  0  0
 14 15  1  0  0  0
 14 16  2  0  0  0
 16 17  1  0  0  0
 16 18  1  0  0  0
 18 19  2  0  0  0
 18 23  1  0  0  0
 19 20  1  0  0  0
 19 21  1  0  0  0
 21 22  1  0  0  0
 23 24  1  0  0  0
 23 25  1  0  0  0
 23 26  1  0  0  0
 27 28  1  0  0  0
 27 29  1  0  0  0
 29 30  2  0  0  0
 29 31  1  0  0  0
 31 32  1  0  0  0
 31 33  1  0  0  0
 31 34  1  0  0  0
 35 36  2  0  0  0
 35 37  2  0  0  0
 35 38  1  0  0  0
 38 39  1  0  0  0
 38 40  1  0  0  0
M  END
>  <ACTIVITY>
7.4

>  <SET>
1

>  <Min_dist>
999.9

>  <Avg_dist>
999.9

$$$$
8-1j
  Cerius2 12110214053D 1   1.00000                          
Structure written by Cerius2 SD Exporter
 43 45  0  0  0  0  0  0  0  0999 V2000
   21.2460   21.1840   16.9510 C   0  0  0  0  0  0
   21.9640   20.3190   17.7760 C   0  0  0  0  0  0
   21.4580   19.5560   18.3640 H   0  0  0  0  0  0
   23.3560   20.4350   17.8530 C   0  0  0  0  0  0
   23.8920   19.7450   18.5050 H   0  0  0  0  0  0
   24.0440   21.4030   17.0960 C   0  0  0  0  0  0
   23.3050   22.2710   16.2820 C   0  0  0  0  0  0
   23.7660   23.0780   15.7200 H   0  0  0  0  0  0
   21.9110   22.1570   16.2020 C   0  0  0  0  0  0
   21.3540   22.8410   15.5660 H   0  0  0  0  0  0
   25.4700   21.4910   17.2150 N   0  0  0  0  0  0
   26.4140   22.1450   16.4210 C   0  0  0  0  0  0
   26.2140   22.7310   15.0980 C   0  0  0  0  0  0
   26.4720   24.0900   14.8810 C   0  0  0  0  0  0
   26.8020   24.7270   15.7000 H   0  0  0  0  0  0
   26.3040   24.6490   13.6110 C   0  0  0  0  0  0
   26.5090   25.7100   13.4680 H   0  0  0  0  0  0
   25.8810   23.8580   12.5370 C   0  0  0  0  0  0
   25.6440   22.4940   12.7490 C   0  0  0  0  0  0
   25.3300   21.8550   11.9240 H   0  0  0  0  0  0
   25.8130   21.9340   14.0180 C   0  0  0  0  0  0
   25.6290   20.8690   14.1530 H   0  0  0  0  0  0
   25.7150   24.4580   11.1630 C   0  0  0  0  0  0
   25.3980   25.5040   11.2530 H   0  0  0  0  0  0
   24.9060   23.9420   10.6310 H   0  0  0  0  0  0
   26.9980   24.3770   10.3510 C   0  0  0  0  0  0
   26.8470   24.8170    9.3600 H   0  0  0  0  0  0
   27.3180   23.3390   10.2150 H   0  0  0  0  0  0
   27.8130   24.9190   10.8420 H   0  0  0  0  0  0
   27.6100   22.0610   17.1130 C   0  0  0  0  0  0
   28.5620   22.4750   16.8030 H   0  0  0  0  0  0
   27.3610   21.2630   18.2480 C   0  0  0  0  0  0
   26.0740   20.8710   18.2790 N   0  0  0  0  0  0
   28.3660   20.8450   19.2870 C   0  0  0  0  0  0
   29.5790   21.4530   19.1270 F   0  0  0  0  0  0
   28.6090   19.5010   19.2650 F   0  0  0  0  0  0
   27.9600   21.1400   20.5580 F   0  0  0  0  0  0
   19.4850   21.0370   16.8180 S   0  0  0  0  0  0
   18.9410   22.2470   16.2270 O   0  0  0  0  0  0
   18.9580   20.5270   18.0720 O   0  0  0  0  0  0
   19.3180   19.8220   15.6770 N   0  0  0  0  0  0
   18.8390   20.1660   14.8410 H   0  0  0  0  0  0
   18.8410   19.0080   16.0720 H   0  0  0  0  0  0
  1  2  1  0  0  0
  1  9  2  0  0  0
  1 38  1  0  0  0
  2  3  1  0  0  0
  2  4  2  0  0  0
  4  5  1  0  0  0
  4  6  1  0  0  0
  6  7  2  0  0  0
  6 11  1  0  0  0
  7  8  1  0  0  0
  7  9  1  0  0  0
  9 10  1  0  0  0
 11 12  1  0  0  0
 11 33  1  0  0  0
 12 13  1  0  0  0
 12 30  2  0  0  0
 13 14  1  0  0  0
 13 21  2  0  0  0
 14 15  1  0  0  0
 14 16  2  0  0  0
 16 17  1  0  0  0
 16 18  1  0  0  0
 18 19  2  0  0  0
 18 23  1  0  0  0
 19 20  1  0  0  0
 19 21  1  0  0  0
 21 22  1  0  0  0
 23 24  1  0  0  0
 23 25  1  0  0  0
 23 26  1  0  0  0
 26 27  1  0  0  0
 26 28  1  0  0  0
 26 29  1  0  0  0
 30 31  1  0  0  0
 30 32  1  0  0  0
 32 33  2  0  0  0
 32 34  1  0  0  0
 34 35  1  0  0  0
 34 36  1  0  0  0
 34 37  1  0  0  0
 38 39  2  0  0  0
 38 40  2  0  0  0
 38 41  1  0  0  0
 41 42  1  0  0  0
 41 43  1  0  0  0
M  END
>  <ACTIVITY>
6.07

>  <SET>
1

>  <Min_dist>
999.9

>  <Avg_dist>
999.9

$$$$
8-1l
  Cerius2 12110214053D 1   1.00000                          
Structure written by Cerius2 SD Exporter
 39 41  0  0  0  0  0  0  0  0999 V2000
   21.2480   21.1860   16.9490 C   0  0  0  0  0  0
   21.9650   20.3210   17.7750 C   0  0  0  0  0  0
   21.4570   19.5590   18.3620 H   0  0  0  0  0  0
   23.3570   20.4360   17.8560 C   0  0  0  0  0  0
   23.8910   19.7460   18.5080 H   0  0  0  0  0  0
   24.0470   21.4030   17.0990 C   0  0  0  0  0  0
   23.3090   22.2730   16.2840 C   0  0  0  0  0  0
   23.7720   23.0800   15.7250 H   0  0  0  0  0  0
   21.9160   22.1600   16.2020 C   0  0  0  0  0  0
   21.3590   22.8450   15.5650 H   0  0  0  0  0  0
   25.4720   21.4890   17.2160 N   0  0  0  0  0  0
   26.4140   22.1450   16.4220 C   0  0  0  0  0  0
   26.2110   22.7290   15.0980 C   0  0  0  0  0  0
   26.4690   24.0900   14.8810 C   0  0  0  0  0  0
   26.7980   24.7270   15.7010 H   0  0  0  0  0  0
   26.2990   24.6530   13.6120 C   0  0  0  0  0  0
   26.5000   25.7130   13.4750 H   0  0  0  0  0  0
   25.8800   23.8460   12.5470 C   0  0  0  0  0  0
   25.6340   22.4810   12.7470 C   0  0  0  0  0  0
   25.3150   21.8370   11.9310 H   0  0  0  0  0  0
   25.8060   21.9270   14.0200 C   0  0  0  0  0  0
   25.6220   20.8630   14.1600 H   0  0  0  0  0  0
   25.7010   24.4320   11.2120 N   0  3  0  0  0  0
   25.3510   23.6840   10.2800 O   0  0  0  0  0  0
   25.9080   25.6520   11.0700 O   0  5  0  0  0  0
   27.6090   22.0640   17.1130 C   0  0  0  0  0  0
   28.5610   22.4810   16.8040 H   0  0  0  0  0  0
   27.3630   21.2650   18.2480 C   0  0  0  0  0  0
   26.0780   20.8680   18.2780 N   0  0  0  0  0  0
   28.3700   20.8510   19.2870 C   0  0  0  0  0  0
   27.9480   21.1140   20.5600 F   0  0  0  0  0  0
   29.5710   21.4880   19.1470 F   0  0  0  0  0  0
   28.6430   19.5130   19.2440 F   0  0  0  0  0  0
   19.4880   21.0380   16.8110 S   0  0  0  0  0  0
   18.9310   22.2950   16.3420 O   0  0  0  0  0  0
   18.9730   20.4070   18.0130 O   0  0  0  0  0  0
   19.3230   19.9380   15.5590 N   0  0  0  0  0  0
   18.8380   20.3580   14.7620 H   0  0  0  0  0  0
   18.8530   19.0860   15.8760 H   0  0  0  0  0  0
  1  2  1  0  0  0
  1  9  2  0  0  0
  1 34  1  0  0  0
  2  3  1  0  0  0
  2  4  2  0  0  0
  4  5  1  0  0  0
  4  6  1  0  0  0
  6  7  2  0  0  0
  6 11  1  0  0  0
  7  8  1  0  0  0
  7  9  1  0  0  0
  9 10  1  0  0  0
 11 12  1  0  0  0
 11 29  1  0  0  0
 12 13  1  0  0  0
 12 26  2  0  0  0
 13 14  1  0  0  0
 13 21  2  0  0  0
 14 15  1  0  0  0
 14 16  2  0  0  0
 16 17  1  0  0  0
 16 18  1  0  0  0
 18 19  2  0  0  0
 18 23  1  0  0  0
 19 20  1  0  0  0
 19 21  1  0  0  0
 21 22  1  0  0  0
 23 24  2  0  0  0
 23 25  1  0  0  0
 26 27  1  0  0  0
 26 28  1  0  0  0
 28 29  2  0  0  0
 28 30  1  0  0  0
 30 31  1  0  0  0
 30 32  1  0  0  0
 30 33  1  0  0  0
 34 35  2  0  0  0
 34 36  2  0  0  0
 34 37  1  0  0  0
 37 38  1  0  0  0
 37 39  1  0  0  0
M  CHG  2  23   1  25  -1
M  END
>  <ACTIVITY>
5.58

>  <SET>
1

>  <Min_dist>
999.9

>  <Avg_dist>
999.9

$$$$
8-1m
  Cerius2 12110214053D 1   1.00000                          
Structure written by Cerius2 SD Exporter
 38 40  0  0  0  0  0  0  0  0999 V2000
   21.2470   21.1850   16.9490 C   0  0  0  0  0  0
   21.9640   20.3200   17.7750 C   0  0  0  0  0  0
   21.4570   19.5570   18.3620 H   0  0  0  0  0  0
   23.3570   20.4350   17.8540 C   0  0  0  0  0  0
   23.8910   19.7440   18.5060 H   0  0  0  0  0  0
   24.0460   21.4020   17.0970 C   0  0  0  0  0  0
   23.3080   22.2710   16.2820 C   0  0  0  0  0  0
   23.7700   23.0780   15.7220 H   0  0  0  0  0  0
   21.9140   22.1580   16.2010 C   0  0  0  0  0  0
   21.3570   22.8440   15.5650 H   0  0  0  0  0  0
   25.4710   21.4890   17.2150 N   0  0  0  0  0  0
   26.4140   22.1460   16.4220 C   0  0  0  0  0  0
   26.2120   22.7310   15.0980 C   0  0  0  0  0  0
   26.4700   24.0910   14.8820 C   0  0  0  0  0  0
   26.7980   24.7300   15.7010 H   0  0  0  0  0  0
   26.3010   24.6490   13.6120 C   0  0  0  0  0  0
   26.4960   25.7070   13.4550 H   0  0  0  0  0  0
   25.8850   23.8450   12.5570 C   0  0  0  0  0  0
   25.6390   22.4900   12.7480 C   0  0  0  0  0  0
   25.3210   21.8530   11.9260 H   0  0  0  0  0  0
   25.8090   21.9320   14.0180 C   0  0  0  0  0  0
   25.6240   20.8670   14.1550 H   0  0  0  0  0  0
   25.7310   24.4250   11.3320 O   0  0  0  0  0  0
   25.9520   25.3780   11.4110 H   0  0  0  0  0  0
   27.6100   22.0640   17.1130 C   0  0  0  0  0  0
   28.5610   22.4800   16.8050 H   0  0  0  0  0  0
   27.3620   21.2660   18.2490 C   0  0  0  0  0  0
   26.0760   20.8690   18.2790 N   0  0  0  0  0  0
   28.3680   20.8520   19.2890 C   0  0  0  0  0  0
   29.5730   21.4810   19.1430 F   0  0  0  0  0  0
   28.6320   19.5120   19.2540 F   0  0  0  0  0  0
   27.9510   21.1270   20.5610 F   0  0  0  0  0  0
   19.4870   21.0390   16.8150 S   0  0  0  0  0  0
   18.9420   22.2570   16.2410 O   0  0  0  0  0  0
   18.9610   20.5120   18.0610 O   0  0  0  0  0  0
   19.3200   19.8410   15.6560 N   0  0  0  0  0  0
   18.8420   20.1970   14.8250 H   0  0  0  0  0  0
   18.8430   19.0210   16.0390 H   0  0  0  0  0  0
  1  2  1  0  0  0
  1  9  2  0  0  0
  1 33  1  0  0  0
  2  3  1  0  0  0
  2  4  2  0  0  0
  4  5  1  0  0  0
  4  6  1  0  0  0
  6  7  2  0  0  0
  6 11  1  0  0  0
  7  8  1  0  0  0
  7  9  1  0  0  0
  9 10  1  0  0  0
 11 12  1  0  0  0
 11 28  1  0  0  0
 12 13  1  0  0  0
 12 25  2  0  0  0
 13 14  1  0  0  0
 13 21  2  0  0  0
 14 15  1  0  0  0
 14 16  2  0  0  0
 16 17  1  0  0  0
 16 18  1  0  0  0
 18 19  2  0  0  0
 18 23  1  0  0  0
 19 20  1  0  0  0
 19 21  1  0  0  0
 21 22  1  0  0  0
 23 24  1  0  0  0
 25 26  1  0  0  0
 25 27  1  0  0  0
 27 28  2  0  0  0
 27 29  1  0  0  0
 29 30  1  0  0  0
 29 31  1  0  0  0
 29 32  1  0  0  0
 33 34  2  0  0  0
 33 35  2  0  0  0
 33 36  1  0  0  0
 36 37  1  0  0  0
 36 38  1  0  0  0
M  END
>  <ACTIVITY>
4

>  <SET>
3

>  <Min_dist>
0.06

>  <Avg_dist>
0.49

$$$$
8-1n
  Cerius2 12110214053D 1   1.00000                          
Structure written by Cerius2 SD Exporter
 41 43  0  0  0  0  0  0  0  0999 V2000
   21.2460   21.1820   16.9420 C   0  0  0  0  0  0
   21.9650   20.3230   17.7710 C   0  0  0  0  0  0
   21.4610   19.5570   18.3560 H   0  0  0  0  0  0
   23.3570   20.4470   17.8550 C   0  0  0  0  0  0
   23.8910   19.7590   18.5100 H   0  0  0  0  0  0
   24.0460   21.4190   17.1020 C   0  0  0  0  0  0
   23.3040   22.2790   16.2820 C   0  0  0  0  0  0
   23.7580   23.0840   15.7150 H   0  0  0  0  0  0
   21.9110   22.1570   16.1960 C   0  0  0  0  0  0
   21.3530   22.8370   15.5540 H   0  0  0  0  0  0
   25.4720   21.5060   17.2240 N   0  0  0  0  0  0
   26.4240   22.1380   16.4230 C   0  0  0  0  0  0
   26.2180   22.7510   15.1080 C   0  0  0  0  0  0
   26.4700   24.1220   14.8830 C   0  0  0  0  0  0
   26.2790   24.6500   13.6020 C   0  0  0  0  0  0
   26.4530   25.7000   13.3790 H   0  0  0  0  0  0
   25.8500   23.8310   12.5530 C   0  0  0  0  0  0
   25.7040   24.2540   11.5600 H   0  0  0  0  0  0
   25.6110   22.4780   12.7720 C   0  0  0  0  0  0
   25.2810   21.8420   11.9520 H   0  0  0  0  0  0
   25.7990   21.9370   14.0430 C   0  0  0  0  0  0
   25.6150   20.8750   14.1970 H   0  0  0  0  0  0
   26.8770   24.8540   15.9720 O   0  0  0  0  0  0
   27.1320   26.2410   15.7680 C   0  0  0  0  0  0
   27.4470   26.6650   16.7270 H   0  0  0  0  0  0
   26.2240   26.7670   15.4540 H   0  0  0  0  0  0
   27.9480   26.3900   15.0540 H   0  0  0  0  0  0
   27.6310   22.0030   17.0860 C   0  0  0  0  0  0
   28.5900   22.3830   16.7570 H   0  0  0  0  0  0
   27.3720   21.2300   18.2350 C   0  0  0  0  0  0
   26.0710   20.8900   18.2940 N   0  0  0  0  0  0
   28.3810   20.7870   19.2600 C   0  0  0  0  0  0
   27.9320   20.9390   20.5420 F   0  0  0  0  0  0
   29.5530   21.4850   19.1860 F   0  0  0  0  0  0
   28.7130   19.4690   19.1240 F   0  0  0  0  0  0
   19.4880   21.0240   16.7990 S   0  0  0  0  0  0
   18.9260   22.2760   16.3250 O   0  0  0  0  0  0
   18.9710   20.3920   18.0000 O   0  0  0  0  0  0
   19.3350   19.9200   15.5480 N   0  0  0  0  0  0
   18.8490   20.3350   14.7480 H   0  0  0  0  0  0
   18.8690   19.0650   15.8640 H   0  0  0  0  0  0
  1  2  1  0  0  0
  1  9  2  0  0  0
  1 36  1  0  0  0
  2  3  1  0  0  0
  2  4  2  0  0  0
  4  5  1  0  0  0
  4  6  1  0  0  0
  6  7  2  0  0  0
  6 11  1  0  0  0
  7  8  1  0  0  0
  7  9  1  0  0  0
  9 10  1  0  0  0
 11 12  1  0  0  0
 11 31  1  0  0  0
 12 13  1  0  0  0
 12 28  2  0  0  0
 13 14  1  0  0  0
 13 21  2  0  0  0
 14 15  2  0  0  0
 14 23  1  0  0  0
 15 16  1  0  0  0
 15 17  1  0  0  0
 17 18  1  0  0  0
 17 19  2  0  0  0
 19 20  1  0  0  0
 19 21  1  0  0  0
 21 22  1  0  0  0
 23 24  1  0  0  0
 24 25  1  0  0  0
 24 26  1  0  0  0
 24 27  1  0  0  0
 28 29  1  0  0  0
 28 30  1  0  0  0
 30 31  2  0  0  0
 30 32  1  0  0  0
 32 33  1  0  0  0
 32 34  1  0  0  0
 32 35  1  0  0  0
 36 37  2  0  0  0
 36 38  2  0  0  0
 36 39  1  0  0  0
 39 40  1  0  0  0
 39 41  1  0  0  0
M  END
>  <ACTIVITY>
6.54

>  <SET>
1

>  <Min_dist>
999.9

>  <Avg_dist>
999.9

$$$$
8-1o
  Cerius2 12110214053D 1   1.00000                          
Structure written by Cerius2 SD Exporter
 41 43  0  0  0  0  0  0  0  0999 V2000
   21.2500   21.1870   16.9470 C   0  0  0  0  0  0
   21.9650   20.3210   17.7740 C   0  0  0  0  0  0
   21.4560   19.5580   18.3600 H   0  0  0  0  0  0
   23.3570   20.4360   17.8560 C   0  0  0  0  0  0
   23.8910   19.7450   18.5080 H   0  0  0  0  0  0
   24.0480   21.4020   17.0990 C   0  0  0  0  0  0
   23.3110   22.2730   16.2840 C   0  0  0  0  0  0
   23.7750   23.0790   15.7250 H   0  0  0  0  0  0
   21.9180   22.1600   16.2000 C   0  0  0  0  0  0
   21.3630   22.8460   15.5630 H   0  0  0  0  0  0
   25.4730   21.4880   17.2180 N   0  0  0  0  0  0
   26.4150   22.1450   16.4240 C   0  0  0  0  0  0
   26.2110   22.7280   15.0990 C   0  0  0  0  0  0
   26.4680   24.0860   14.8780 C   0  0  0  0  0  0
   26.8000   24.7250   15.6950 H   0  0  0  0  0  0
   26.2930   24.6490   13.6070 C   0  0  0  0  0  0
   26.4980   25.7100   13.4910 H   0  0  0  0  0  0
   25.8690   23.8570   12.5410 C   0  0  0  0  0  0
   25.6280   22.4980   12.7560 C   0  0  0  0  0  0
   25.3030   21.8650   11.9320 H   0  0  0  0  0  0
   25.8030   21.9330   14.0230 C   0  0  0  0  0  0
   25.6170   20.8690   14.1560 H   0  0  0  0  0  0
   25.6590   24.2810   11.2580 O   0  0  0  0  0  0
   25.8840   25.6650   10.9950 C   0  0  0  0  0  0
   25.6660   25.8420    9.9370 H   0  0  0  0  0  0
   26.9310   25.9330   11.1700 H   0  0  0  0  0  0
   25.2090   26.2940   11.5850 H   0  0  0  0  0  0
   27.6110   22.0630   17.1150 C   0  0  0  0  0  0
   28.5620   22.4790   16.8060 H   0  0  0  0  0  0
   27.3640   21.2640   18.2500 C   0  0  0  0  0  0
   26.0780   20.8660   18.2790 N   0  0  0  0  0  0
   28.3710   20.8500   19.2890 C   0  0  0  0  0  0
   27.9350   21.0810   20.5630 F   0  0  0  0  0  0
   29.5590   21.5130   19.1700 F   0  0  0  0  0  0
   28.6700   19.5180   19.2210 F   0  0  0  0  0  0
   19.4900   21.0410   16.8090 S   0  0  0  0  0  0
   18.9350   22.2990   16.3400 O   0  0  0  0  0  0
   18.9730   20.4090   18.0090 O   0  0  0  0  0  0
   19.3250   19.9410   15.5560 N   0  0  0  0  0  0
   18.8390   20.3610   14.7590 H   0  0  0  0  0  0
   18.8570   19.0890   15.8720 H   0  0  0  0  0  0
  1  2  1  0  0  0
  1  9  2  0  0  0
  1 36  1  0  0  0
  2  3  1  0  0  0
  2  4  2  0  0  0
  4  5  1  0  0  0
  4  6  1  0  0  0
  6  7  2  0  0  0
  6 11  1  0  0  0
  7  8  1  0  0  0
  7  9  1  0  0  0
  9 10  1  0  0  0
 11 12  1  0  0  0
 11 31  1  0  0  0
 12 13  1  0  0  0
 12 28  2  0  0  0
 13 14  1  0  0  0
 13 21  2  0  0  0
 14 15  1  0  0  0
 14 16  2  0  0  0
 16 17  1  0  0  0
 16 18  1  0  0  0
 18 19  2  0  0  0
 18 23  1  0  0  0
 19 20  1  0  0  0
 19 21  1  0  0  0
 21 22  1  0  0  0
 23 24  1  0  0  0
 24 25  1  0  0  0
 24 26  1  0  0  0
 24 27  1  0  0  0
 28 29  1  0  0  0
 28 30  1  0  0  0
 30 31  2  0  0  0
 30 32  1  0  0  0
 32 33  1  0  0  0
 32 34  1  0  0  0
 32 35  1  0  0  0
 36 37  2  0  0  0
 36 38  2  0  0  0
 36 39  1  0  0  0
 39 40  1  0  0  0
 39 41  1  0  0  0
M  END
>  <ACTIVITY>
8.1

>  <SET>
1

>  <Min_dist>
999.9

>  <Avg_dist>
999.9

$$$$
8-1p
  Cerius2 12110214053D 1   1.00000                          
Structure written by Cerius2 SD Exporter
 44 46  0  0  0  0  0  0  0  0999 V2000
   21.2470   21.1930   16.9440 C   0  0  0  0  0  0
   21.9620   20.3250   17.7710 C   0  0  0  0  0  0
   21.4480   19.5660   18.3570 H   0  0  0  0  0  0
   23.3540   20.4370   17.8530 C   0  0  0  0  0  0
   23.8870   19.7460   18.5060 H   0  0  0  0  0  0
   24.0450   21.4020   17.0960 C   0  0  0  0  0  0
   23.3100   22.2730   16.2800 C   0  0  0  0  0  0
   23.7750   23.0780   15.7210 H   0  0  0  0  0  0
   21.9150   22.1640   16.1980 C   0  0  0  0  0  0
   21.3650   22.8530   15.5590 H   0  0  0  0  0  0
   25.4700   21.4880   17.2150 N   0  0  0  0  0  0
   26.4130   22.1450   16.4230 C   0  0  0  0  0  0
   26.2130   22.7290   15.0980 C   0  0  0  0  0  0
   26.4690   24.0870   14.8800 C   0  0  0  0  0  0
   26.7960   24.7260   15.7000 H   0  0  0  0  0  0
   26.3040   24.6510   13.6080 C   0  0  0  0  0  0
   26.5090   25.7120   13.4940 H   0  0  0  0  0  0
   25.8900   23.8580   12.5380 C   0  0  0  0  0  0
   25.6480   22.4990   12.7510 C   0  0  0  0  0  0
   25.3310   21.8660   11.9230 H   0  0  0  0  0  0
   25.8130   21.9340   14.0190 C   0  0  0  0  0  0
   25.6280   20.8690   14.1500 H   0  0  0  0  0  0
   25.6920   24.2820   11.2530 O   0  0  0  0  0  0
   25.9310   25.6660   10.9810 C   0  0  0  0  0  0
   26.9760   25.9190   11.1910 H   0  0  0  0  0  0
   25.2610   26.2920   11.5830 H   0  0  0  0  0  0
   25.6470   25.9070    9.5100 C   0  0  0  0  0  0
   25.8200   26.9530    9.2450 H   0  0  0  0  0  0
   24.6100   25.6480    9.2700 H   0  0  0  0  0  0
   26.2860   25.2730    8.8850 H   0  0  0  0  0  0
   27.6080   22.0630   17.1160 C   0  0  0  0  0  0
   28.5590   22.4800   16.8080 H   0  0  0  0  0  0
   27.3590   21.2660   18.2520 C   0  0  0  0  0  0
   26.0740   20.8670   18.2780 N   0  0  0  0  0  0
   28.3640   20.8540   19.2940 C   0  0  0  0  0  0
   27.9370   21.1130   20.5660 F   0  0  0  0  0  0
   29.5620   21.4970   19.1590 F   0  0  0  0  0  0
   28.6430   19.5170   19.2480 F   0  0  0  0  0  0
   19.4860   21.0290   16.8250 S   0  0  0  0  0  0
   18.9250   22.2880   16.3680 O   0  0  0  0  0  0
   18.9770   20.3870   18.0240 O   0  0  0  0  0  0
   19.3190   19.9250   15.5760 N   0  0  0  0  0  0
   18.8160   20.3370   14.7850 H   0  0  0  0  0  0
   18.8640   19.0680   15.9010 H   0  0  0  0  0  0
  1  2  1  0  0  0
  1  9  2  0  0  0
  1 39  1  0  0  0
  2  3  1  0  0  0
  2  4  2  0  0  0
  4  5  1  0  0  0
  4  6  1  0  0  0
  6  7  2  0  0  0
  6 11  1  0  0  0
  7  8  1  0  0  0
  7  9  1  0  0  0
  9 10  1  0  0  0
 11 12  1  0  0  0
 11 34  1  0  0  0
 12 13  1  0  0  0
 12 31  2  0  0  0
 13 14  1  0  0  0
 13 21  2  0  0  0
 14 15  1  0  0  0
 14 16  2  0  0  0
 16 17  1  0  0  0
 16 18  1  0  0  0
 18 19  2  0  0  0
 18 23  1  0  0  0
 19 20  1  0  0  0
 19 21  1  0  0  0
 21 22  1  0  0  0
 23 24  1  0  0  0
 24 25  1  0  0  0
 24 26  1  0  0  0
 24 27  1  0  0  0
 27 28  1  0  0  0
 27 29  1  0  0  0
 27 30  1  0  0  0
 31 32  1  0  0  0
 31 33  1  0  0  0
 33 34  2  0  0  0
 33 35  1  0  0  0
 35 36  1  0  0  0
 35 37  1  0  0  0
 35 38  1  0  0  0
 39 40  2  0  0  0
 39 41  2  0  0  0
 39 42  1  0  0  0
 42 43  1  0  0  0
 42 44  1  0  0  0
M  END
>  <ACTIVITY>
6.19

>  <SET>
2

>  <Min_dist>
0.06

>  <Avg_dist>
0.5

$$$$
8-1q
  Cerius2 12110214053D 1   1.00000                          
Structure written by Cerius2 SD Exporter
 41 43  0  0  0  0  0  0  0  0999 V2000
   21.2480   21.1840   16.9480 C   0  0  0  0  0  0
   21.9650   20.3190   17.7740 C   0  0  0  0  0  0
   21.4570   19.5570   18.3610 H   0  0  0  0  0  0
   23.3570   20.4340   17.8540 C   0  0  0  0  0  0
   23.8910   19.7440   18.5060 H   0  0  0  0  0  0
   24.0460   21.4020   17.0970 C   0  0  0  0  0  0
   23.3090   22.2710   16.2830 C   0  0  0  0  0  0
   23.7710   23.0780   15.7230 H   0  0  0  0  0  0
   21.9150   22.1580   16.2010 C   0  0  0  0  0  0
   21.3580   22.8430   15.5640 H   0  0  0  0  0  0
   25.4720   21.4890   17.2160 N   0  0  0  0  0  0
   26.4140   22.1470   16.4240 C   0  0  0  0  0  0
   26.2130   22.7300   15.0990 C   0  0  0  0  0  0
   26.4670   24.0890   14.8800 C   0  0  0  0  0  0
   26.7890   24.7300   15.6990 H   0  0  0  0  0  0
   26.2970   24.6470   13.6080 C   0  0  0  0  0  0
   26.4790   25.7120   13.4800 H   0  0  0  0  0  0
   25.8890   23.8520   12.5330 C   0  0  0  0  0  0
   25.6370   22.4940   12.7510 C   0  0  0  0  0  0
   25.3130   21.8510   11.9340 H   0  0  0  0  0  0
   25.8080   21.9340   14.0220 C   0  0  0  0  0  0
   25.6200   20.8700   14.1580 H   0  0  0  0  0  0
   25.6340   24.5190   10.8980 S   0  0  0  0  0  0
   26.0930   26.2560   11.1720 C   0  0  0  0  0  0
   26.1290   26.7680   10.2070 H   0  0  0  0  0  0
   27.0800   26.3240   11.6380 H   0  0  0  0  0  0
   25.3540   26.7610   11.7990 H   0  0  0  0  0  0
   27.6100   22.0650   17.1150 C   0  0  0  0  0  0
   28.5610   22.4810   16.8070 H   0  0  0  0  0  0
   27.3630   21.2630   18.2480 C   0  0  0  0  0  0
   26.0770   20.8660   18.2770 N   0  0  0  0  0  0
   28.3720   20.8420   19.2830 C   0  0  0  0  0  0
   29.5220   21.5780   19.2310 F   0  0  0  0  0  0
   28.7490   19.5370   19.1390 F   0  0  0  0  0  0
   27.9010   20.9670   20.5600 F   0  0  0  0  0  0
   19.4880   21.0420   16.8140 S   0  0  0  0  0  0
   18.9330   22.3000   16.3470 O   0  0  0  0  0  0
   18.9740   20.4100   18.0150 O   0  0  0  0  0  0
   19.3170   19.9450   15.5590 N   0  0  0  0  0  0
   18.8310   20.3670   14.7640 H   0  0  0  0  0  0
   18.8450   19.0930   15.8750 H   0  0  0  0  0  0
  1  2  1  0  0  0
  1  9  2  0  0  0
  1 36  1  0  0  0
  2  3  1  0  0  0
  2  4  2  0  0  0
  4  5  1  0  0  0
  4  6  1  0  0  0
  6  7  2  0  0  0
  6 11  1  0  0  0
  7  8  1  0  0  0
  7  9  1  0  0  0
  9 10  1  0  0  0
 11 12  1  0  0  0
 11 31  1  0  0  0
 12 13  1  0  0  0
 12 28  2  0  0  0
 13 14  1  0  0  0
 13 21  2  0  0  0
 14 15  1  0  0  0
 14 16  2  0  0  0
 16 17  1  0  0  0
 16 18  1  0  0  0
 18 19  2  0  0  0
 18 23  1  0  0  0
 19 20  1  0  0  0
 19 21  1  0  0  0
 21 22  1  0  0  0
 23 24  1  0  0  0
 24 25  1  0  0  0
 24 26  1  0  0  0
 24 27  1  0  0  0
 28 29  1  0  0  0
 28 30  1  0  0  0
 30 31  2  0  0  0
 30 32  1  0  0  0
 32 33  1  0  0  0
 32 34  1  0  0  0
 32 35  1  0  0  0
 36 37  2  0  0  0
 36 38  2  0  0  0
 36 39  1  0  0  0
 39 40  1  0  0  0
 39 41  1  0  0  0
M  END
>  <ACTIVITY>
8.05

>  <SET>
1

>  <Min_dist>
999.9

>  <Avg_dist>
999.9

$$$$
8-1r
  Cerius2 12110214053D 1   1.00000                          
Structure written by Cerius2 SD Exporter
 39 41  0  0  0  0  0  0  0  0999 V2000
   21.2480   21.1840   16.9490 C   0  0  0  0  0  0
   21.9640   20.3190   17.7750 C   0  0  0  0  0  0
   21.4560   19.5570   18.3630 H   0  0  0  0  0  0
   23.3570   20.4340   17.8550 C   0  0  0  0  0  0
   23.8910   19.7440   18.5080 H   0  0  0  0  0  0
   24.0460   21.4010   17.0980 C   0  0  0  0  0  0
   23.3080   22.2710   16.2830 C   0  0  0  0  0  0
   23.7710   23.0770   15.7230 H   0  0  0  0  0  0
   21.9150   22.1580   16.2020 C   0  0  0  0  0  0
   21.3580   22.8430   15.5650 H   0  0  0  0  0  0
   25.4710   21.4890   17.2160 N   0  0  0  0  0  0
   26.4140   22.1450   16.4230 C   0  0  0  0  0  0
   26.2130   22.7300   15.0990 C   0  0  0  0  0  0
   26.4660   24.0890   14.8820 C   0  0  0  0  0  0
   26.7840   24.7310   15.7010 H   0  0  0  0  0  0
   26.2980   24.6460   13.6080 C   0  0  0  0  0  0
   26.4820   25.7100   13.4710 H   0  0  0  0  0  0
   25.9080   23.8550   12.5260 C   0  0  0  0  0  0
   25.6430   22.5030   12.7490 C   0  0  0  0  0  0
   25.3100   21.8670   11.9300 H   0  0  0  0  0  0
   25.8090   21.9380   14.0190 C   0  0  0  0  0  0
   25.6150   20.8750   14.1520 H   0  0  0  0  0  0
   25.6840   24.4210   11.2860 N   0  0  0  0  0  0
   25.5240   23.8330   10.4710 H   0  0  0  0  0  0
   25.9950   25.3690   11.0880 H   0  0  0  0  0  0
   27.6090   22.0630   17.1140 C   0  0  0  0  0  0
   28.5610   22.4790   16.8050 H   0  0  0  0  0  0
   27.3620   21.2650   18.2490 C   0  0  0  0  0  0
   26.0770   20.8680   18.2790 N   0  0  0  0  0  0
   28.3700   20.8490   19.2870 C   0  0  0  0  0  0
   27.9220   21.0420   20.5630 F   0  0  0  0  0  0
   29.5460   21.5390   19.1910 F   0  0  0  0  0  0
   28.6970   19.5260   19.1920 F   0  0  0  0  0  0
   19.4870   21.0400   16.8130 S   0  0  0  0  0  0
   18.9470   22.2460   16.2100 O   0  0  0  0  0  0
   18.9570   20.5430   18.0700 O   0  0  0  0  0  0
   19.3190   19.8170   15.6810 N   0  0  0  0  0  0
   18.8430   20.1560   14.8410 H   0  0  0  0  0  0
   18.8390   19.0070   16.0810 H   0  0  0  0  0  0
  1  2  1  0  0  0
  1  9  2  0  0  0
  1 34  1  0  0  0
  2  3  1  0  0  0
  2  4  2  0  0  0
  4  5  1  0  0  0
  4  6  1  0  0  0
  6  7  2  0  0  0
  6 11  1  0  0  0
  7  8  1  0  0  0
  7  9  1  0  0  0
  9 10  1  0  0  0
 11 12  1  0  0  0
 11 29  1  0  0  0
 12 13  1  0  0  0
 12 26  2  0  0  0
 13 14  1  0  0  0
 13 21  2  0  0  0
 14 15  1  0  0  0
 14 16  2  0  0  0
 16 17  1  0  0  0
 16 18  1  0  0  0
 18 19  2  0  0  0
 18 23  1  0  0  0
 19 20  1  0  0  0
 19 21  1  0  0  0
 21 22  1  0  0  0
 23 24  1  0  0  0
 23 25  1  0  0  0
 26 27  1  0  0  0
 26 28  1  0  0  0
 28 29  2  0  0  0
 28 30  1  0  0  0
 30 31  1  0  0  0
 30 32  1  0  0  0
 30 33  1  0  0  0
 34 35  2  0  0  0
 34 36  2  0  0  0
 34 37  1  0  0  0
 37 38  1  0  0  0
 37 39  1  0  0  0
M  END
>  <ACTIVITY>
6.47

>  <SET>
1

>  <Min_dist>
999.9

>  <Avg_dist>
999.9

$$$$
8-1s
  Cerius2 12110214053D 1   1.00000                          
Structure written by Cerius2 SD Exporter
 45 47  0  0  0  0  0  0  0  0999 V2000
   21.2400   21.1870   16.9470 C   0  0  0  0  0  0
   21.9590   20.3230   17.7720 C   0  0  0  0  0  0
   21.4500   19.5600   18.3580 H   0  0  0  0  0  0
   23.3520   20.4410   17.8520 C   0  0  0  0  0  0
   23.8850   19.7510   18.5060 H   0  0  0  0  0  0
   24.0400   21.4100   17.0970 C   0  0  0  0  0  0
   23.2990   22.2740   16.2800 C   0  0  0  0  0  0
   23.7560   23.0770   15.7120 H   0  0  0  0  0  0
   21.9040   22.1590   16.1980 C   0  0  0  0  0  0
   21.3510   22.8430   15.5580 H   0  0  0  0  0  0
   25.4680   21.4970   17.2170 N   0  0  0  0  0  0
   26.4160   22.1540   16.4300 C   0  0  0  0  0  0
   26.2120   22.7760   15.1150 C   0  0  0  0  0  0
   26.4700   24.1530   14.8830 C   0  0  0  0  0  0
   26.3030   24.6390   13.5720 C   0  0  0  0  0  0
   26.4650   25.6920   13.3480 H   0  0  0  0  0  0
   25.9070   23.8030   12.5240 C   0  0  0  0  0  0
   25.7830   24.2120   11.5220 H   0  0  0  0  0  0
   25.6740   22.4540   12.7590 C   0  0  0  0  0  0
   25.3740   21.8000   11.9430 H   0  0  0  0  0  0
   25.8310   21.9420   14.0450 C   0  0  0  0  0  0
   25.6610   20.8780   14.2080 H   0  0  0  0  0  0
   26.8610   25.0160   15.9160 N   0  0  0  0  0  0
   25.7920   25.4430   16.8200 C   0  0  0  0  0  0
   26.2100   25.9970   17.6680 H   0  0  0  0  0  0
   25.0860   26.0990   16.2990 H   0  0  0  0  0  0
   25.2390   24.5960   17.2350 H   0  0  0  0  0  0
   27.9040   26.0040   15.6390 C   0  0  0  0  0  0
   27.5090   26.8560   15.0750 H   0  0  0  0  0  0
   28.3170   26.3860   16.5790 H   0  0  0  0  0  0
   28.7340   25.5560   15.0810 H   0  0  0  0  0  0
   27.6190   22.0200   17.1000 C   0  0  0  0  0  0
   28.5760   22.4190   16.7840 H   0  0  0  0  0  0
   27.3640   21.2200   18.2300 C   0  0  0  0  0  0
   26.0690   20.8600   18.2740 N   0  0  0  0  0  0
   28.3830   20.7720   19.2450 C   0  0  0  0  0  0
   29.6120   21.3300   19.0320 F   0  0  0  0  0  0
   28.5700   19.4180   19.2260 F   0  0  0  0  0  0
   28.0410   21.0900   20.5290 F   0  0  0  0  0  0
   19.4800   21.0190   16.8260 S   0  0  0  0  0  0
   18.9140   22.2740   16.3660 O   0  0  0  0  0  0
   18.9730   20.3790   18.0270 O   0  0  0  0  0  0
   19.3180   19.9130   15.5790 N   0  0  0  0  0  0
   18.8180   20.3220   14.7850 H   0  0  0  0  0  0
   18.8650   19.0540   15.9030 H   0  0  0  0  0  0
  1  2  1  0  0  0
  1  9  2  0  0  0
  1 40  1  0  0  0
  2  3  1  0  0  0
  2  4  2  0  0  0
  4  5  1  0  0  0
  4  6  1  0  0  0
  6  7  2  0  0  0
  6 11  1  0  0  0
  7  8  1  0  0  0
  7  9  1  0  0  0
  9 10  1  0  0  0
 11 12  1  0  0  0
 11 35  1  0  0  0
 12 13  1  0  0  0
 12 32  2  0  0  0
 13 14  1  0  0  0
 13 21  2  0  0  0
 14 15  2  0  0  0
 14 23  1  0  0  0
 15 16  1  0  0  0
 15 17  1  0  0  0
 17 18  1  0  0  0
 17 19  2  0  0  0
 19 20  1  0  0  0
 19 21  1  0  0  0
 21 22  1  0  0  0
 23 24  1  0  0  0
 23 28  1  0  0  0
 24 25  1  0  0  0
 24 26  1  0  0  0
 24 27  1  0  0  0
 28 29  1  0  0  0
 28 30  1  0  0  0
 28 31  1  0  0  0
 32 33  1  0  0  0
 32 34  1  0  0  0
 34 35  2  0  0  0
 34 36  1  0  0  0
 36 37  1  0  0  0
 36 38  1  0  0  0
 36 39  1  0  0  0
 40 41  2  0  0  0
 40 42  2  0  0  0
 40 43  1  0  0  0
 43 44  1  0  0  0
 43 45  1  0  0  0
M  END
>  <ACTIVITY>
4.84

>  <SET>
2

>  <Min_dist>
0.11

>  <Avg_dist>
0.53

$$$$
8-1t
  Cerius2 12110214053D 1   1.00000                          
Structure written by Cerius2 SD Exporter
 42 44  0  0  0  0  0  0  0  0999 V2000
   21.2480   21.1870   16.9490 C   0  0  0  0  0  0
   21.9640   20.3210   17.7760 C   0  0  0  0  0  0
   21.4560   19.5590   18.3620 H   0  0  0  0  0  0
   23.3570   20.4360   17.8570 C   0  0  0  0  0  0
   23.8900   19.7460   18.5090 H   0  0  0  0  0  0
   24.0470   21.4020   17.0990 C   0  0  0  0  0  0
   23.3100   22.2730   16.2850 C   0  0  0  0  0  0
   23.7740   23.0780   15.7250 H   0  0  0  0  0  0
   21.9160   22.1600   16.2020 C   0  0  0  0  0  0
   21.3610   22.8460   15.5650 H   0  0  0  0  0  0
   25.4720   21.4880   17.2170 N   0  0  0  0  0  0
   26.4150   22.1440   16.4230 C   0  0  0  0  0  0
   26.2120   22.7300   15.1000 C   0  0  0  0  0  0
   26.4680   24.0850   14.8790 C   0  0  0  0  0  0
   26.7990   24.7260   15.6960 H   0  0  0  0  0  0
   26.2940   24.6450   13.6060 C   0  0  0  0  0  0
   26.5000   25.7070   13.4870 H   0  0  0  0  0  0
   25.8720   23.8690   12.5210 C   0  0  0  0  0  0
   25.6360   22.5080   12.7520 C   0  0  0  0  0  0
   25.3140   21.8640   11.9350 H   0  0  0  0  0  0
   25.8070   21.9390   14.0210 C   0  0  0  0  0  0
   25.6200   20.8750   14.1500 H   0  0  0  0  0  0
   25.6870   24.3760   11.2520 N   0  0  0  0  0  0
   25.3720   23.7480   10.5110 H   0  0  0  0  0  0
   25.8930   25.7620   10.8860 C   0  0  0  0  0  0
   25.6740   25.8950    9.8220 H   0  0  0  0  0  0
   26.9320   26.0630   11.0540 H   0  0  0  0  0  0
   25.2260   26.4210   11.4490 H   0  0  0  0  0  0
   27.6100   22.0620   17.1140 C   0  0  0  0  0  0
   28.5620   22.4790   16.8060 H   0  0  0  0  0  0
   27.3630   21.2640   18.2500 C   0  0  0  0  0  0
   26.0780   20.8660   18.2790 N   0  0  0  0  0  0
   28.3690   20.8510   19.2900 C   0  0  0  0  0  0
   27.9330   21.0820   20.5640 F   0  0  0  0  0  0
   29.5580   21.5150   19.1720 F   0  0  0  0  0  0
   28.6700   19.5200   19.2240 F   0  0  0  0  0  0
   19.4880   21.0390   16.8090 S   0  0  0  0  0  0
   18.9320   22.2960   16.3390 O   0  0  0  0  0  0
   18.9720   20.4080   18.0100 O   0  0  0  0  0  0
   19.3250   19.9380   15.5570 N   0  0  0  0  0  0
   18.8410   20.3580   14.7580 H   0  0  0  0  0  0
   18.8540   19.0870   15.8730 H   0  0  0  0  0  0
  1  2  1  0  0  0
  1  9  2  0  0  0
  1 37  1  0  0  0
  2  3  1  0  0  0
  2  4  2  0  0  0
  4  5  1  0  0  0
  4  6  1  0  0  0
  6  7  2  0  0  0
  6 11  1  0  0  0
  7  8  1  0  0  0
  7  9  1  0  0  0
  9 10  1  0  0  0
 11 12  1  0  0  0
 11 32  1  0  0  0
 12 13  1  0  0  0
 12 29  2  0  0  0
 13 14  1  0  0  0
 13 21  2  0  0  0
 14 15  1  0  0  0
 14 16  2  0  0  0
 16 17  1  0  0  0
 16 18  1  0  0  0
 18 19  2  0  0  0
 18 23  1  0  0  0
 19 20  1  0  0  0
 19 21  1  0  0  0
 21 22  1  0  0  0
 23 24  1  0  0  0
 23 25  1  0  0  0
 25 26  1  0  0  0
 25 27  1  0  0  0
 25 28  1  0  0  0
 29 30  1  0  0  0
 29 31  1  0  0  0
 31 32  2  0  0  0
 31 33  1  0  0  0
 33 34  1  0  0  0
 33 35  1  0  0  0
 33 36  1  0  0  0
 37 38  2  0  0  0
 37 39  2  0  0  0
 37 40  1  0  0  0
 40 41  1  0  0  0
 40 42  1  0  0  0
M  END
>  <ACTIVITY>
7.8

>  <SET>
1

>  <Min_dist>
999.9

>  <Avg_dist>
999.9

$$$$
8-1u
  Cerius2 12110214053D 1   1.00000                          
Structure written by Cerius2 SD Exporter
 45 47  0  0  0  0  0  0  0  0999 V2000
   21.2430   21.1840   16.9490 C   0  0  0  0  0  0
   21.9620   20.3220   17.7760 C   0  0  0  0  0  0
   21.4560   19.5590   18.3630 H   0  0  0  0  0  0
   23.3550   20.4410   17.8570 C   0  0  0  0  0  0
   23.8890   19.7530   18.5110 H   0  0  0  0  0  0
   24.0430   21.4110   17.1010 C   0  0  0  0  0  0
   23.3020   22.2770   16.2870 C   0  0  0  0  0  0
   23.7600   23.0860   15.7270 H   0  0  0  0  0  0
   21.9090   22.1590   16.2020 C   0  0  0  0  0  0
   21.3520   22.8410   15.5620 H   0  0  0  0  0  0
   25.4700   21.4960   17.2190 N   0  0  0  0  0  0
   26.4180   22.1350   16.4180 C   0  0  0  0  0  0
   26.2170   22.7280   15.0980 C   0  0  0  0  0  0
   26.4770   24.0810   14.8850 C   0  0  0  0  0  0
   26.8110   24.7170   15.7030 H   0  0  0  0  0  0
   26.3010   24.6490   13.6130 C   0  0  0  0  0  0
   26.5140   25.7120   13.5200 H   0  0  0  0  0  0
   25.8750   23.8950   12.5050 C   0  0  0  0  0  0
   25.6420   22.5290   12.7460 C   0  0  0  0  0  0
   25.3150   21.8660   11.9480 H   0  0  0  0  0  0
   25.8120   21.9510   14.0150 C   0  0  0  0  0  0
   25.6210   20.8850   14.1360 H   0  0  0  0  0  0
   25.7020   24.4630   11.2490 N   0  0  0  0  0  0
   25.8810   25.9000   11.0330 C   0  0  0  0  0  0
   25.6650   26.1870    9.9980 H   0  0  0  0  0  0
   26.9150   26.1970   11.2390 H   0  0  0  0  0  0
   25.2010   26.4760   11.6710 H   0  0  0  0  0  0
   25.2880   23.6560   10.0990 C   0  0  0  0  0  0
   25.2480   24.2480    9.1780 H   0  0  0  0  0  0
   24.2870   23.2410   10.2590 H   0  0  0  0  0  0
   25.9960   22.8400    9.9200 H   0  0  0  0  0  0
   27.6170   22.0360   17.1010 C   0  0  0  0  0  0
   28.5720   22.4350   16.7820 H   0  0  0  0  0  0
   27.3630   21.2580   18.2470 C   0  0  0  0  0  0
   26.0710   20.8880   18.2920 N   0  0  0  0  0  0
   28.3680   20.8420   19.2890 C   0  0  0  0  0  0
   28.0030   21.2260   20.5490 F   0  0  0  0  0  0
   29.6080   21.3750   19.0740 F   0  0  0  0  0  0
   28.5400   19.4870   19.3360 F   0  0  0  0  0  0
   19.4840   21.0230   16.8130 S   0  0  0  0  0  0
   18.9000   22.3280   16.5540 O   0  0  0  0  0  0
   18.9950   20.2020   17.9060 O   0  0  0  0  0  0
   19.3230   20.1260   15.4080 N   0  0  0  0  0  0
   18.8180   20.6520   14.6910 H   0  0  0  0  0  0
   18.8750   19.2250   15.5960 H   0  0  0  0  0  0
  1  2  1  0  0  0
  1  9  2  0  0  0
  1 40  1  0  0  0
  2  3  1  0  0  0
  2  4  2  0  0  0
  4  5  1  0  0  0
  4  6  1  0  0  0
  6  7  2  0  0  0
  6 11  1  0  0  0
  7  8  1  0  0  0
  7  9  1  0  0  0
  9 10  1  0  0  0
 11 12  1  0  0  0
 11 35  1  0  0  0
 12 13  1  0  0  0
 12 32  2  0  0  0
 13 14  1  0  0  0
 13 21  2  0  0  0
 14 15  1  0  0  0
 14 16  2  0  0  0
 16 17  1  0  0  0
 16 18  1  0  0  0
 18 19  2  0  0  0
 18 23  1  0  0  0
 19 20  1  0  0  0
 19 21  1  0  0  0
 21 22  1  0  0  0
 23 24  1  0  0  0
 23 28  1  0  0  0
 24 25  1  0  0  0
 24 26  1  0  0  0
 24 27  1  0  0  0
 28 29  1  0  0  0
 28 30  1  0  0  0
 28 31  1  0  0  0
 32 33  1  0  0  0
 32 34  1  0  0  0
 34 35  2  0  0  0
 34 36  1  0  0  0
 36 37  1  0  0  0
 36 38  1  0  0  0
 36 39  1  0  0  0
 40 41  2  0  0  0
 40 42  2  0  0  0
 40 43  1  0  0  0
 43 44  1  0  0  0
 43 45  1  0  0  0
M  END
>  <ACTIVITY>
8.33

>  <SET>
1

>  <Min_dist>
999.9

>  <Avg_dist>
999.9

$$$$
8-1v
  Cerius2 12110214053D 1   1.00000                          
Structure written by Cerius2 SD Exporter
 41 43  0  0  0  0  0  0  0  0999 V2000
   21.2480   21.1860   16.9490 C   0  0  0  0  0  0
   21.9650   20.3200   17.7740 C   0  0  0  0  0  0
   21.4580   19.5570   18.3610 H   0  0  0  0  0  0
   23.3570   20.4350   17.8540 C   0  0  0  0  0  0
   23.8920   19.7440   18.5050 H   0  0  0  0  0  0
   24.0460   21.4020   17.0970 C   0  0  0  0  0  0
   23.3090   22.2710   16.2810 C   0  0  0  0  0  0
   23.7710   23.0760   15.7200 H   0  0  0  0  0  0
   21.9150   22.1590   16.2010 C   0  0  0  0  0  0
   21.3580   22.8440   15.5640 H   0  0  0  0  0  0
   25.4710   21.4890   17.2150 N   0  0  0  0  0  0
   26.4140   22.1460   16.4230 C   0  0  0  0  0  0
   26.2110   22.7310   15.0990 C   0  0  0  0  0  0
   26.4700   24.0890   14.8810 C   0  0  0  0  0  0
   26.8020   24.7270   15.6990 H   0  0  0  0  0  0
   26.2990   24.6480   13.6110 C   0  0  0  0  0  0
   26.5050   25.7070   13.4640 H   0  0  0  0  0  0
   25.8720   23.8570   12.5360 C   0  0  0  0  0  0
   25.6390   22.4920   12.7500 C   0  0  0  0  0  0
   25.3260   21.8520   11.9260 H   0  0  0  0  0  0
   25.8090   21.9330   14.0210 C   0  0  0  0  0  0
   25.6270   20.8680   14.1560 H   0  0  0  0  0  0
   25.7030   24.4560   11.1660 C   0  0  0  0  0  0
   25.4110   25.5090   11.2330 H   0  0  0  0  0  0
   24.9320   23.9230   10.5990 H   0  0  0  0  0  0
   26.9440   24.3590   10.4720 O   0  0  0  0  0  0
   26.7730   24.7610    9.5940 H   0  0  0  0  0  0
   27.6100   22.0630   17.1140 C   0  0  0  0  0  0
   28.5610   22.4790   16.8050 H   0  0  0  0  0  0
   27.3620   21.2640   18.2490 C   0  0  0  0  0  0
   26.0760   20.8680   18.2780 N   0  0  0  0  0  0
   28.3680   20.8490   19.2880 C   0  0  0  0  0  0
   29.5660   21.4940   19.1550 F   0  0  0  0  0  0
   28.6480   19.5130   19.2360 F   0  0  0  0  0  0
   27.9420   21.1020   20.5620 F   0  0  0  0  0  0
   19.4870   21.0390   16.8150 S   0  0  0  0  0  0
   18.9500   22.2280   16.1770 O   0  0  0  0  0  0
   18.9540   20.5790   18.0850 O   0  0  0  0  0  0
   19.3210   19.7830   15.7200 N   0  0  0  0  0  0
   18.8490   20.0960   14.8680 H   0  0  0  0  0  0
   18.8390   18.9860   16.1420 H   0  0  0  0  0  0
  1  2  1  0  0  0
  1  9  2  0  0  0
  1 36  1  0  0  0
  2  3  1  0  0  0
  2  4  2  0  0  0
  4  5  1  0  0  0
  4  6  1  0  0  0
  6  7  2  0  0  0
  6 11  1  0  0  0
  7  8  1  0  0  0
  7  9  1  0  0  0
  9 10  1  0  0  0
 11 12  1  0  0  0
 11 31  1  0  0  0
 12 13  1  0  0  0
 12 28  2  0  0  0
 13 14  1  0  0  0
 13 21  2  0  0  0
 14 15  1  0  0  0
 14 16  2  0  0  0
 16 17  1  0  0  0
 16 18  1  0  0  0
 18 19  2  0  0  0
 18 23  1  0  0  0
 19 20  1  0  0  0
 19 21  1  0  0  0
 21 22  1  0  0  0
 23 24  1  0  0  0
 23 25  1  0  0  0
 23 26  1  0  0  0
 26 27  1  0  0  0
 28 29  1  0  0  0
 28 30  1  0  0  0
 30 31  2  0  0  0
 30 32  1  0  0  0
 32 33  1  0  0  0
 32 34  1  0  0  0
 32 35  1  0  0  0
 36 37  2  0  0  0
 36 38  2  0  0  0
 36 39  1  0  0  0
 39 40  1  0  0  0
 39 41  1  0  0  0
M  END
>  <ACTIVITY>
4.03

>  <SET>
2

>  <Min_dist>
0.05

>  <Avg_dist>
0.51

$$$$
8-1w
  Cerius2 12110214053D 1   1.00000                          
Structure written by Cerius2 SD Exporter
 39 41  0  0  0  0  0  0  0  0999 V2000
   21.2510   21.1870   16.9450 C   0  0  0  0  0  0
   21.9660   20.3220   17.7730 C   0  0  0  0  0  0
   21.4570   19.5600   18.3600 H   0  0  0  0  0  0
   23.3580   20.4380   17.8560 C   0  0  0  0  0  0
   23.8920   19.7480   18.5090 H   0  0  0  0  0  0
   24.0480   21.4040   17.0990 C   0  0  0  0  0  0
   23.3120   22.2740   16.2840 C   0  0  0  0  0  0
   23.7760   23.0810   15.7260 H   0  0  0  0  0  0
   21.9190   22.1610   16.2000 C   0  0  0  0  0  0
   21.3630   22.8460   15.5620 H   0  0  0  0  0  0
   25.4730   21.4890   17.2180 N   0  0  0  0  0  0
   26.4160   22.1450   16.4230 C   0  0  0  0  0  0
   26.2100   22.7280   15.1000 C   0  0  0  0  0  0
   26.4680   24.0870   14.8810 C   0  0  0  0  0  0
   26.8020   24.7250   15.6980 H   0  0  0  0  0  0
   26.2900   24.6490   13.6120 C   0  0  0  0  0  0
   26.4900   25.7090   13.4750 H   0  0  0  0  0  0
   25.8620   23.8530   12.5420 C   0  0  0  0  0  0
   25.6210   22.4900   12.7540 C   0  0  0  0  0  0
   25.2940   21.8510   11.9350 H   0  0  0  0  0  0
   25.7990   21.9300   14.0240 C   0  0  0  0  0  0
   25.6130   20.8660   14.1620 H   0  0  0  0  0  0
   25.6580   24.4050   11.1770 C   0  0  0  0  0  0
   25.2980   23.7700   10.2000 O   0  0  0  0  0  0
   25.9160   25.7250   11.1130 O   0  5  0  0  0  0
   27.6120   22.0610   17.1130 C   0  0  0  0  0  0
   28.5630   22.4770   16.8040 H   0  0  0  0  0  0
   27.3650   21.2630   18.2480 C   0  0  0  0  0  0
   26.0790   20.8680   18.2790 N   0  0  0  0  0  0
   28.3730   20.8460   19.2860 C   0  0  0  0  0  0
   29.5520   21.5270   19.1830 F   0  0  0  0  0  0
   28.6900   19.5200   19.1980 F   0  0  0  0  0  0
   27.9280   21.0490   20.5620 F   0  0  0  0  0  0
   19.4910   21.0410   16.8060 S   0  0  0  0  0  0
   18.9360   22.2980   16.3370 O   0  0  0  0  0  0
   18.9740   20.4080   18.0060 O   0  0  0  0  0  0
   19.3270   19.9420   15.5520 N   0  0  0  0  0  0
   18.8410   20.3620   14.7560 H   0  0  0  0  0  0
   18.8570   19.0900   15.8680 H   0  0  0  0  0  0
  1  2  1  0  0  0
  1  9  2  0  0  0
  1 34  1  0  0  0
  2  3  1  0  0  0
  2  4  2  0  0  0
  4  5  1  0  0  0
  4  6  1  0  0  0
  6  7  2  0  0  0
  6 11  1  0  0  0
  7  8  1  0  0  0
  7  9  1  0  0  0
  9 10  1  0  0  0
 11 12  1  0  0  0
 11 29  1  0  0  0
 12 13  1  0  0  0
 12 26  2  0  0  0
 13 14  1  0  0  0
 13 21  2  0  0  0
 14 15  1  0  0  0
 14 16  2  0  0  0
 16 17  1  0  0  0
 16 18  1  0  0  0
 18 19  2  0  0  0
 18 23  1  0  0  0
 19 20  1  0  0  0
 19 21  1  0  0  0
 21 22  1  0  0  0
 23 24  2  0  0  0
 23 25  1  0  0  0
 26 27  1  0  0  0
 26 28  1  0  0  0
 28 29  2  0  0  0
 28 30  1  0  0  0
 30 31  1  0  0  0
 30 32  1  0  0  0
 30 33  1  0  0  0
 34 35  2  0  0  0
 34 36  2  0  0  0
 34 37  1  0  0  0
 37 38  1  0  0  0
 37 39  1  0  0  0
M  CHG  1  25  -1
M  END
>  <ACTIVITY>
4.95

>  <SET>
1

>  <Min_dist>
999.9

>  <Avg_dist>
999.9

$$$$
8-1x
  Cerius2 12110214053D 1   1.00000                          
Structure written by Cerius2 SD Exporter
 44 46  0  0  0  0  0  0  0  0999 V2000
   21.2500   21.1840   16.9470 C   0  0  0  0  0  0
   21.9650   20.3180   17.7730 C   0  0  0  0  0  0
   21.4560   19.5560   18.3600 H   0  0  0  0  0  0
   23.3570   20.4320   17.8530 C   0  0  0  0  0  0
   23.8910   19.7410   18.5060 H   0  0  0  0  0  0
   24.0470   21.3980   17.0970 C   0  0  0  0  0  0
   23.3110   22.2690   16.2820 C   0  0  0  0  0  0
   23.7750   23.0760   15.7250 H   0  0  0  0  0  0
   21.9170   22.1570   16.2000 C   0  0  0  0  0  0
   21.3610   22.8440   15.5640 H   0  0  0  0  0  0
   25.4720   21.4860   17.2160 N   0  0  0  0  0  0
   26.4140   22.1450   16.4240 C   0  0  0  0  0  0
   26.2110   22.7270   15.0990 C   0  0  0  0  0  0
   26.4670   24.0850   14.8780 C   0  0  0  0  0  0
   26.7960   24.7120   15.7070 H   0  0  0  0  0  0
   26.2960   24.6540   13.6040 C   0  0  0  0  0  0
   25.8690   23.8470   12.5340 C   0  0  0  0  0  0
   25.6310   22.4880   12.7520 C   0  0  0  0  0  0
   25.3080   21.8240   11.9540 H   0  0  0  0  0  0
   25.8060   21.9310   14.0230 C   0  0  0  0  0  0
   25.6210   20.8670   14.1610 H   0  0  0  0  0  0
   25.7250   24.4830   11.3280 O   0  0  0  0  0  0
   26.0130   25.8800   11.2890 C   0  0  0  0  0  0
   25.8580   26.2220   10.2610 H   0  0  0  0  0  0
   27.0580   26.0740   11.5520 H   0  0  0  0  0  0
   25.3280   26.4400   11.9340 H   0  0  0  0  0  0
   26.5680   26.1210   13.4060 C   0  0  0  0  0  0
   27.3470   26.2650   12.6500 H   0  0  0  0  0  0
   26.9130   26.5950   14.3310 H   0  0  0  0  0  0
   25.6540   26.6350   13.0900 H   0  0  0  0  0  0
   27.6080   22.0700   17.1190 C   0  0  0  0  0  0
   28.5580   22.4910   16.8130 H   0  0  0  0  0  0
   27.3610   21.2700   18.2530 C   0  0  0  0  0  0
   26.0780   20.8650   18.2780 N   0  0  0  0  0  0
   28.3670   20.8610   19.2960 C   0  0  0  0  0  0
   27.9340   21.1110   20.5680 F   0  0  0  0  0  0
   29.5600   21.5140   19.1680 F   0  0  0  0  0  0
   28.6570   19.5270   19.2450 F   0  0  0  0  0  0
   19.4880   21.0460   16.8140 S   0  0  0  0  0  0
   18.9360   22.3060   16.3480 O   0  0  0  0  0  0
   18.9750   20.4140   18.0160 O   0  0  0  0  0  0
   19.3140   19.9510   15.5590 N   0  0  0  0  0  0
   18.8270   20.3750   14.7650 H   0  0  0  0  0  0
   18.8410   19.1000   15.8740 H   0  0  0  0  0  0
  1  2  1  0  0  0
  1  9  2  0  0  0
  1 39  1  0  0  0
  2  3  1  0  0  0
  2  4  2  0  0  0
  4  5  1  0  0  0
  4  6  1  0  0  0
  6  7  2  0  0  0
  6 11  1  0  0  0
  7  8  1  0  0  0
  7  9  1  0  0  0
  9 10  1  0  0  0
 11 12  1  0  0  0
 11 34  1  0  0  0
 12 13  1  0  0  0
 12 31  2  0  0  0
 13 14  1  0  0  0
 13 20  2  0  0  0
 14 15  1  0  0  0
 14 16  2  0  0  0
 16 17  1  0  0  0
 16 27  1  0  0  0
 17 18  2  0  0  0
 17 22  1  0  0  0
 18 19  1  0  0  0
 18 20  1  0  0  0
 20 21  1  0  0  0
 22 23  1  0  0  0
 23 24  1  0  0  0
 23 25  1  0  0  0
 23 26  1  0  0  0
 27 28  1  0  0  0
 27 29  1  0  0  0
 27 30  1  0  0  0
 31 32  1  0  0  0
 31 33  1  0  0  0
 33 34  2  0  0  0
 33 35  1  0  0  0
 35 36  1  0  0  0
 35 37  1  0  0  0
 35 38  1  0  0  0
 39 40  2  0  0  0
 39 41  2  0  0  0
 39 42  1  0  0  0
 42 43  1  0  0  0
 42 44  1  0  0  0
M  END
>  <ACTIVITY>
8.03

>  <SET>
1

>  <Min_dist>
999.9

>  <Avg_dist>
999.9

$$$$
8-1y
  Cerius2 12110214053D 1   1.00000                          
Structure written by Cerius2 SD Exporter
 47 49  0  0  0  0  0  0  0  0999 V2000
   21.2490   21.1850   16.9490 C   0  0  0  0  0  0
   21.9650   20.3200   17.7750 C   0  0  0  0  0  0
   21.4570   19.5570   18.3610 H   0  0  0  0  0  0
   23.3560   20.4350   17.8550 C   0  0  0  0  0  0
   23.8900   19.7440   18.5070 H   0  0  0  0  0  0
   24.0460   21.4010   17.0980 C   0  0  0  0  0  0
   23.3090   22.2710   16.2820 C   0  0  0  0  0  0
   23.7730   23.0770   15.7220 H   0  0  0  0  0  0
   21.9150   22.1590   16.2010 C   0  0  0  0  0  0
   21.3580   22.8450   15.5660 H   0  0  0  0  0  0
   25.4710   21.4880   17.2160 N   0  0  0  0  0  0
   26.4130   22.1460   16.4240 C   0  0  0  0  0  0
   26.2110   22.7280   15.0990 C   0  0  0  0  0  0
   26.4690   24.0850   14.8760 C   0  0  0  0  0  0
   26.8000   24.7120   15.7040 H   0  0  0  0  0  0
   26.3010   24.6560   13.6010 C   0  0  0  0  0  0
   25.8900   23.8440   12.5270 C   0  0  0  0  0  0
   25.6480   22.4850   12.7480 C   0  0  0  0  0  0
   25.3350   21.8180   11.9490 H   0  0  0  0  0  0
   25.8110   21.9310   14.0230 C   0  0  0  0  0  0
   25.6250   20.8670   14.1610 H   0  0  0  0  0  0
   25.7630   24.4700   11.3160 O   0  0  0  0  0  0
   25.3090   23.6840   10.2160 C   0  0  0  0  0  0
   25.2390   24.3440    9.3460 H   0  0  0  0  0  0
   24.3110   23.2770   10.4060 H   0  0  0  0  0  0
   26.0260   22.8920    9.9760 H   0  0  0  0  0  0
   26.5930   26.1290   13.4160 C   0  0  0  0  0  0
   26.4430   26.6570   14.3660 H   0  0  0  0  0  0
   25.8720   26.5710   12.7180 H   0  0  0  0  0  0
   28.0130   26.3710   12.9250 C   0  0  0  0  0  0
   28.1950   27.4450   12.8120 H   0  0  0  0  0  0
   28.1900   25.8950   11.9560 H   0  0  0  0  0  0
   28.7490   25.9750   13.6330 H   0  0  0  0  0  0
   27.6080   22.0650   17.1170 C   0  0  0  0  0  0
   28.5590   22.4820   16.8090 H   0  0  0  0  0  0
   27.3610   21.2620   18.2490 C   0  0  0  0  0  0
   26.0760   20.8630   18.2760 N   0  0  0  0  0  0
   28.3680   20.8400   19.2840 C   0  0  0  0  0  0
   27.9040   20.9850   20.5610 F   0  0  0  0  0  0
   29.5280   21.5600   19.2210 F   0  0  0  0  0  0
   28.7270   19.5280   19.1540 F   0  0  0  0  0  0
   19.4880   21.0400   16.8160 S   0  0  0  0  0  0
   18.9320   22.2980   16.3490 O   0  0  0  0  0  0
   18.9760   20.4080   18.0180 O   0  0  0  0  0  0
   19.3200   19.9420   15.5620 N   0  0  0  0  0  0
   18.8350   20.3630   14.7660 H   0  0  0  0  0  0
   18.8480   19.0910   15.8780 H   0  0  0  0  0  0
  1  2  1  0  0  0
  1  9  2  0  0  0
  1 42  1  0  0  0
  2  3  1  0  0  0
  2  4  2  0  0  0
  4  5  1  0  0  0
  4  6  1  0  0  0
  6  7  2  0  0  0
  6 11  1  0  0  0
  7  8  1  0  0  0
  7  9  1  0  0  0
  9 10  1  0  0  0
 11 12  1  0  0  0
 11 37  1  0  0  0
 12 13  1  0  0  0
 12 34  2  0  0  0
 13 14  1  0  0  0
 13 20  2  0  0  0
 14 15  1  0  0  0
 14 16  2  0  0  0
 16 17  1  0  0  0
 16 27  1  0  0  0
 17 18  2  0  0  0
 17 22  1  0  0  0
 18 19  1  0  0  0
 18 20  1  0  0  0
 20 21  1  0  0  0
 22 23  1  0  0  0
 23 24  1  0  0  0
 23 25  1  0  0  0
 23 26  1  0  0  0
 27 28  1  0  0  0
 27 29  1  0  0  0
 27 30  1  0  0  0
 30 31  1  0  0  0
 30 32  1  0  0  0
 30 33  1  0  0  0
 34 35  1  0  0  0
 34 36  1  0  0  0
 36 37  2  0  0  0
 36 38  1  0  0  0
 38 39  1  0  0  0
 38 40  1  0  0  0
 38 41  1  0  0  0
 42 43  2  0  0  0
 42 44  2  0  0  0
 42 45  1  0  0  0
 45 46  1  0  0  0
 45 47  1  0  0  0
M  END
>  <ACTIVITY>
6.37

>  <SET>
1

>  <Min_dist>
999.9

>  <Avg_dist>
999.9

$$$$
8-1z
  Cerius2 12110214053D 1   1.00000                          
Structure written by Cerius2 SD Exporter
 45 47  0  0  0  0  0  0  0  0999 V2000
   21.2510   21.1880   16.9450 C   0  0  0  0  0  0
   21.9660   20.3230   17.7730 C   0  0  0  0  0  0
   21.4560   19.5610   18.3590 H   0  0  0  0  0  0
   23.3580   20.4390   17.8570 C   0  0  0  0  0  0
   23.8910   19.7480   18.5100 H   0  0  0  0  0  0
   24.0490   21.4050   17.1010 C   0  0  0  0  0  0
   23.3120   22.2760   16.2850 C   0  0  0  0  0  0
   23.7760   23.0830   15.7280 H   0  0  0  0  0  0
   21.9190   22.1620   16.1990 C   0  0  0  0  0  0
   21.3640   22.8470   15.5610 H   0  0  0  0  0  0
   25.4740   21.4900   17.2180 N   0  0  0  0  0  0
   26.4160   22.1460   16.4230 C   0  0  0  0  0  0
   26.2090   22.7310   15.1000 C   0  0  0  0  0  0
   26.4650   24.0920   14.8840 C   0  0  0  0  0  0
   26.8000   24.7270   15.7020 H   0  0  0  0  0  0
   26.2890   24.6430   13.6140 C   0  0  0  0  0  0
   25.8170   23.8520   12.5630 C   0  0  0  0  0  0
   25.6010   22.4890   12.7580 C   0  0  0  0  0  0
   25.2710   21.8610   11.9340 H   0  0  0  0  0  0
   25.7990   21.9300   14.0230 C   0  0  0  0  0  0
   25.6240   20.8640   14.1610 H   0  0  0  0  0  0
   25.6140   24.3660   11.3090 O   0  0  0  0  0  0
   25.8850   25.7720   11.3080 C   0  0  0  0  0  0
   25.6180   26.1610   10.3210 H   0  0  0  0  0  0
   26.9490   25.9700   11.4730 H   0  0  0  0  0  0
   25.2780   26.2950   12.0550 H   0  0  0  0  0  0
   26.5280   25.9830   13.4530 O   0  0  0  0  0  0
   27.0030   26.5470   14.6810 C   0  0  0  0  0  0
   27.0970   27.6280   14.5360 H   0  0  0  0  0  0
   27.9900   26.1540   14.9440 H   0  0  0  0  0  0
   26.2920   26.3750   15.4970 H   0  0  0  0  0  0
   27.6130   22.0620   17.1120 C   0  0  0  0  0  0
   28.5640   22.4770   16.8030 H   0  0  0  0  0  0
   27.3660   21.2610   18.2470 C   0  0  0  0  0  0
   26.0800   20.8660   18.2780 N   0  0  0  0  0  0
   28.3750   20.8420   19.2830 C   0  0  0  0  0  0
   27.9280   21.0360   20.5590 F   0  0  0  0  0  0
   29.5520   21.5290   19.1850 F   0  0  0  0  0  0
   28.6980   19.5180   19.1870 F   0  0  0  0  0  0
   19.4910   21.0400   16.8040 S   0  0  0  0  0  0
   18.9350   22.2960   16.3340 O   0  0  0  0  0  0
   18.9730   20.4070   18.0040 O   0  0  0  0  0  0
   19.3310   19.9390   15.5510 N   0  0  0  0  0  0
   18.8470   20.3580   14.7520 H   0  0  0  0  0  0
   18.8600   19.0870   15.8670 H   0  0  0  0  0  0
  1  2  1  0  0  0
  1  9  2  0  0  0
  1 40  1  0  0  0
  2  3  1  0  0  0
  2  4  2  0  0  0
  4  5  1  0  0  0
  4  6  1  0  0  0
  6  7  2  0  0  0
  6 11  1  0  0  0
  7  8  1  0  0  0
  7  9  1  0  0  0
  9 10  1  0  0  0
 11 12  1  0  0  0
 11 35  1  0  0  0
 12 13  1  0  0  0
 12 32  2  0  0  0
 13 14  1  0  0  0
 13 20  2  0  0  0
 14 15  1  0  0  0
 14 16  2  0  0  0
 16 17  1  0  0  0
 16 27  1  0  0  0
 17 18  2  0  0  0
 17 22  1  0  0  0
 18 19  1  0  0  0
 18 20  1  0  0  0
 20 21  1  0  0  0
 22 23  1  0  0  0
 23 24  1  0  0  0
 23 25  1  0  0  0
 23 26  1  0  0  0
 27 28  1  0  0  0
 28 29  1  0  0  0
 28 30  1  0  0  0
 28 31  1  0  0  0
 32 33  1  0  0  0
 32 34  1  0  0  0
 34 35  2  0  0  0
 34 36  1  0  0  0
 36 37  1  0  0  0
 36 38  1  0  0  0
 36 39  1  0  0  0
 40 41  2  0  0  0
 40 42  2  0  0  0
 40 43  1  0  0  0
 43 44  1  0  0  0
 43 45  1  0  0  0
M  END
>  <ACTIVITY>
6.22

>  <SET>
1

>  <Min_dist>
999.9

>  <Avg_dist>
999.9

$$$$
8-20b
  Cerius2 12110214053D 1   1.00000                          
Structure written by Cerius2 SD Exporter
 37 39  0  0  0  0  0  0  0  0999 V2000
   21.2510   21.1830   16.9390 C   0  0  0  0  0  0
   21.9690   20.3220   17.7670 C   0  0  0  0  0  0
   21.4630   19.5580   18.3540 H   0  0  0  0  0  0
   23.3610   20.4440   17.8510 C   0  0  0  0  0  0
   23.8940   19.7550   18.5050 H   0  0  0  0  0  0
   24.0500   21.4140   17.0970 C   0  0  0  0  0  0
   23.3100   22.2780   16.2780 C   0  0  0  0  0  0
   23.7660   23.0840   15.7150 H   0  0  0  0  0  0
   21.9160   22.1580   16.1930 C   0  0  0  0  0  0
   21.3590   22.8400   15.5530 H   0  0  0  0  0  0
   25.4770   21.5020   17.2210 N   0  0  0  0  0  0
   26.4290   22.1400   16.4200 C   0  0  0  0  0  0
   26.2120   22.7310   15.1010 C   0  0  0  0  0  0
   26.4680   24.0920   14.8830 C   0  0  0  0  0  0
   26.8110   24.7280   15.6970 H   0  0  0  0  0  0
   26.2760   24.6510   13.6180 C   0  0  0  0  0  0
   26.4700   25.7100   13.4570 H   0  0  0  0  0  0
   25.8370   23.8550   12.5610 C   0  0  0  0  0  0
   25.6880   24.2930   11.5760 H   0  0  0  0  0  0
   25.5940   22.4970   12.7660 C   0  0  0  0  0  0
   25.2570   21.8750   11.9390 H   0  0  0  0  0  0
   25.7850   21.9350   14.0290 C   0  0  0  0  0  0
   25.5970   20.8710   14.1690 H   0  0  0  0  0  0
   27.6280   22.0180   17.1000 C   0  0  0  0  0  0
   27.3550   21.2490   18.2450 C   0  0  0  0  0  0
   26.0690   20.8920   18.3000 N   0  0  0  0  0  0
   28.3020   20.8050   19.2980 C   0  0  0  0  0  0
   28.7950   21.6670   19.7580 H   0  0  0  0  0  0
   29.0700   20.1530   18.8700 H   0  0  0  0  0  0
   27.7900   20.2490   20.0900 H   0  0  0  0  0  0
   29.1600   22.6040   16.6440 Cl  0  0  0  0  0  0
   19.4920   21.0320   16.8000 S   0  0  0  0  0  0
   18.9330   22.2870   16.3290 O   0  0  0  0  0  0
   18.9770   20.4000   18.0010 O   0  0  0  0  0  0
   19.3310   19.9310   15.5470 N   0  0  0  0  0  0
   18.8460   20.3490   14.7490 H   0  0  0  0  0  0
   18.8630   19.0780   15.8630 H   0  0  0  0  0  0
  1  2  1  0  0  0
  1  9  2  0  0  0
  1 32  1  0  0  0
  2  3  1  0  0  0
  2  4  2  0  0  0
  4  5  1  0  0  0
  4  6  1  0  0  0
  6  7  2  0  0  0
  6 11  1  0  0  0
  7  8  1  0  0  0
  7  9  1  0  0  0
  9 10  1  0  0  0
 11 12  1  0  0  0
 11 26  1  0  0  0
 12 13  1  0  0  0
 12 24  2  0  0  0
 13 14  1  0  0  0
 13 22  2  0  0  0
 14 15  1  0  0  0
 14 16  2  0  0  0
 16 17  1  0  0  0
 16 18  1  0  0  0
 18 19  1  0  0  0
 18 20  2  0  0  0
 20 21  1  0  0  0
 20 22  1  0  0  0
 22 23  1  0  0  0
 24 25  1  0  0  0
 24 31  1  0  0  0
 25 26  2  0  0  0
 25 27  1  0  0  0
 27 28  1  0  0  0
 27 29  1  0  0  0
 27 30  1  0  0  0
 32 33  2  0  0  0
 32 34  2  0  0  0
 32 35  1  0  0  0
 35 36  1  0  0  0
 35 37  1  0  0  0
M  END
>  <ACTIVITY>
7.55

>  <SET>
1

>  <Min_dist>
999.9

>  <Avg_dist>
999.9

$$$$
8-20c
  Cerius2 12110214053D 1   1.00000                          
Structure written by Cerius2 SD Exporter
 38 40  0  0  0  0  0  0  0  0999 V2000
   21.2520   21.1840   16.9390 C   0  0  0  0  0  0
   21.9690   20.3240   17.7680 C   0  0  0  0  0  0
   21.4630   19.5590   18.3540 H   0  0  0  0  0  0
   23.3610   20.4460   17.8530 C   0  0  0  0  0  0
   23.8940   19.7580   18.5080 H   0  0  0  0  0  0
   24.0510   21.4160   17.0990 C   0  0  0  0  0  0
   23.3110   22.2790   16.2800 C   0  0  0  0  0  0
   23.7670   23.0870   15.7180 H   0  0  0  0  0  0
   21.9180   22.1600   16.1930 C   0  0  0  0  0  0
   21.3610   22.8410   15.5530 H   0  0  0  0  0  0
   25.4780   21.5030   17.2230 N   0  0  0  0  0  0
   26.4280   22.1420   16.4210 C   0  0  0  0  0  0
   26.2090   22.7320   15.1020 C   0  0  0  0  0  0
   26.4630   24.0930   14.8840 C   0  0  0  0  0  0
   26.8050   24.7300   15.6980 H   0  0  0  0  0  0
   26.2750   24.6520   13.6170 C   0  0  0  0  0  0
   26.4710   25.7110   13.4640 H   0  0  0  0  0  0
   25.8400   23.8510   12.5630 C   0  0  0  0  0  0
   25.5960   22.4940   12.7640 C   0  0  0  0  0  0
   25.2610   21.8640   11.9440 H   0  0  0  0  0  0
   25.7840   21.9330   14.0310 C   0  0  0  0  0  0
   25.5970   20.8700   14.1710 H   0  0  0  0  0  0
   25.6090   24.5410   11.0040 Cl  0  0  0  0  0  0
   27.6300   22.0140   17.0960 C   0  0  0  0  0  0
   27.3600   21.2430   18.2420 C   0  0  0  0  0  0
   26.0690   20.8930   18.3000 N   0  0  0  0  0  0
   28.3180   20.7900   19.2970 C   0  0  0  0  0  0
   29.3180   20.6560   18.8680 H   0  0  0  0  0  0
   28.0050   19.8320   19.7230 H   0  0  0  0  0  0
   28.4190   21.7440   20.3620 O   0  0  0  0  0  0
   29.0880   21.3670   20.9700 H   0  0  0  0  0  0
   29.1570   22.6000   16.6240 Cl  0  0  0  0  0  0
   19.4930   21.0300   16.7950 S   0  0  0  0  0  0
   18.9330   22.2850   16.3230 O   0  0  0  0  0  0
   18.9760   20.3980   17.9960 O   0  0  0  0  0  0
   19.3370   19.9280   15.5430 N   0  0  0  0  0  0
   18.8510   20.3450   14.7450 H   0  0  0  0  0  0
   18.8700   19.0740   15.8590 H   0  0  0  0  0  0
  1  2  1  0  0  0
  1  9  2  0  0  0
  1 33  1  0  0  0
  2  3  1  0  0  0
  2  4  2  0  0  0
  4  5  1  0  0  0
  4  6  1  0  0  0
  6  7  2  0  0  0
  6 11  1  0  0  0
  7  8  1  0  0  0
  7  9  1  0  0  0
  9 10  1  0  0  0
 11 12  1  0  0  0
 11 26  1  0  0  0
 12 13  1  0  0  0
 12 24  2  0  0  0
 13 14  1  0  0  0
 13 21  2  0  0  0
 14 15  1  0  0  0
 14 16  2  0  0  0
 16 17  1  0  0  0
 16 18  1  0  0  0
 18 19  2  0  0  0
 18 23  1  0  0  0
 19 20  1  0  0  0
 19 21  1  0  0  0
 21 22  1  0  0  0
 24 25  1  0  0  0
 24 32  1  0  0  0
 25 26  2  0  0  0
 25 27  1  0  0  0
 27 28  1  0  0  0
 27 29  1  0  0  0
 27 30  1  0  0  0
 30 31  1  0  0  0
 33 34  2  0  0  0
 33 35  2  0  0  0
 33 36  1  0  0  0
 36 37  1  0  0  0
 36 38  1  0  0  0
M  END
>  <ACTIVITY>
6.47

>  <SET>
1

>  <Min_dist>
999.9

>  <Avg_dist>
999.9

$$$$
8-20d
  Cerius2 12110214053D 1   1.00000                          
Structure written by Cerius2 SD Exporter
 35 37  0  0  0  0  0  0  0  0999 V2000
   21.2530   21.1940   16.9290 C   0  0  0  0  0  0
   21.9660   20.3290   17.7600 C   0  0  0  0  0  0
   21.4510   19.5690   18.3440 H   0  0  0  0  0  0
   23.3580   20.4450   17.8480 C   0  0  0  0  0  0
   23.8870   19.7550   18.5040 H   0  0  0  0  0  0
   24.0510   21.4130   17.0940 C   0  0  0  0  0  0
   23.3160   22.2790   16.2740 C   0  0  0  0  0  0
   23.7770   23.0850   15.7150 H   0  0  0  0  0  0
   21.9220   22.1660   16.1860 C   0  0  0  0  0  0
   21.3720   22.8530   15.5440 H   0  0  0  0  0  0
   25.4770   21.4980   17.2220 N   0  0  0  0  0  0
   26.4280   22.1460   16.4240 C   0  0  0  0  0  0
   26.2090   22.7330   15.1030 C   0  0  0  0  0  0
   26.4620   24.0940   14.8810 C   0  0  0  0  0  0
   26.8000   24.7350   15.6940 H   0  0  0  0  0  0
   26.2750   24.6490   13.6120 C   0  0  0  0  0  0
   26.4700   25.7070   13.4560 H   0  0  0  0  0  0
   25.8430   23.8430   12.5600 C   0  0  0  0  0  0
   25.6000   22.4870   12.7650 C   0  0  0  0  0  0
   25.2680   21.8540   11.9450 H   0  0  0  0  0  0
   25.7870   21.9310   14.0330 C   0  0  0  0  0  0
   25.6010   20.8670   14.1760 H   0  0  0  0  0  0
   25.6140   24.5280   10.9980 Cl  0  0  0  0  0  0
   27.6280   22.0290   17.1060 C   0  0  0  0  0  0
   27.3500   21.2500   18.2350 C   0  0  0  0  0  0
   26.0670   20.8780   18.2940 N   0  0  0  0  0  0
   28.2580   20.8110   19.2560 C   0  0  0  0  0  0
   28.9910   20.4520   20.0870 N   0  0  0  0  0  0
   29.1550   22.6290   16.6510 Cl  0  0  0  0  0  0
   19.4930   21.0260   16.8110 S   0  0  0  0  0  0
   18.9310   22.2870   16.3580 O   0  0  0  0  0  0
   18.9860   20.3790   18.0080 O   0  0  0  0  0  0
   19.3260   19.9250   15.5610 N   0  0  0  0  0  0
   18.8260   20.3370   14.7690 H   0  0  0  0  0  0
   18.8710   19.0670   15.8830 H   0  0  0  0  0  0
  1  2  1  0  0  0
  1  9  2  0  0  0
  1 30  1  0  0  0
  2  3  1  0  0  0
  2  4  2  0  0  0
  4  5  1  0  0  0
  4  6  1  0  0  0
  6  7  2  0  0  0
  6 11  1  0  0  0
  7  8  1  0  0  0
  7  9  1  0  0  0
  9 10  1  0  0  0
 11 12  1  0  0  0
 11 26  1  0  0  0
 12 13  1  0  0  0
 12 24  2  0  0  0
 13 14  1  0  0  0
 13 21  2  0  0  0
 14 15  1  0  0  0
 14 16  2  0  0  0
 16 17  1  0  0  0
 16 18  1  0  0  0
 18 19  2  0  0  0
 18 23  1  0  0  0
 19 20  1  0  0  0
 19 21  1  0  0  0
 21 22  1  0  0  0
 24 25  1  0  0  0
 24 29  1  0  0  0
 25 26  2  0  0  0
 25 27  1  0  0  0
 27 28  3  0  0  0
 30 31  2  0  0  0
 30 32  2  0  0  0
 30 33  1  0  0  0
 33 34  1  0  0  0
 33 35  1  0  0  0
M  END
>  <ACTIVITY>
8

>  <SET>
1

>  <Min_dist>
999.9

>  <Avg_dist>
999.9

$$$$
8-20e
  Cerius2 12110214053D 1   1.00000                          
Structure written by Cerius2 SD Exporter
 36 38  0  0  0  0  0  0  0  0999 V2000
   21.2530   21.1850   16.9380 C   0  0  0  0  0  0
   21.9700   20.3240   17.7670 C   0  0  0  0  0  0
   21.4650   19.5590   18.3530 H   0  0  0  0  0  0
   23.3620   20.4460   17.8520 C   0  0  0  0  0  0
   23.8950   19.7580   18.5070 H   0  0  0  0  0  0
   24.0520   21.4160   17.0980 C   0  0  0  0  0  0
   23.3120   22.2800   16.2790 C   0  0  0  0  0  0
   23.7680   23.0880   15.7180 H   0  0  0  0  0  0
   21.9190   22.1600   16.1920 C   0  0  0  0  0  0
   21.3620   22.8410   15.5520 H   0  0  0  0  0  0
   25.4800   21.5030   17.2230 N   0  0  0  0  0  0
   26.4280   22.1410   16.4230 C   0  0  0  0  0  0
   26.2090   22.7310   15.1030 C   0  0  0  0  0  0
   26.4620   24.0920   14.8840 C   0  0  0  0  0  0
   26.8050   24.7300   15.6970 H   0  0  0  0  0  0
   26.2720   24.6510   13.6170 C   0  0  0  0  0  0
   26.4680   25.7090   13.4630 H   0  0  0  0  0  0
   25.8360   23.8490   12.5640 C   0  0  0  0  0  0
   25.5920   22.4920   12.7660 C   0  0  0  0  0  0
   25.2570   21.8610   11.9460 H   0  0  0  0  0  0
   25.7820   21.9320   14.0330 C   0  0  0  0  0  0
   25.5960   20.8680   14.1740 H   0  0  0  0  0  0
   25.6020   24.5370   11.0040 Cl  0  0  0  0  0  0
   27.6290   22.0180   17.1010 C   0  0  0  0  0  0
   27.3660   21.2430   18.2530 C   0  0  0  0  0  0
   26.0680   20.8900   18.2940 N   0  0  0  0  0  0
   28.3180   20.8170   19.2860 C   0  0  0  0  0  0
   28.0570   20.1220   20.2630 O   0  0  0  0  0  0
   29.5910   21.2580   19.0950 O   0  5  0  0  0  0
   29.1450   22.6230   16.6090 Cl  0  0  0  0  0  0
   19.4940   21.0320   16.7960 S   0  0  0  0  0  0
   18.9350   22.2870   16.3240 O   0  0  0  0  0  0
   18.9780   20.4000   17.9970 O   0  0  0  0  0  0
   19.3350   19.9310   15.5430 N   0  0  0  0  0  0
   18.8520   20.3500   14.7440 H   0  0  0  0  0  0
   18.8660   19.0790   15.8580 H   0  0  0  0  0  0
  1  2  1  0  0  0
  1  9  2  0  0  0
  1 31  1  0  0  0
  2  3  1  0  0  0
  2  4  2  0  0  0
  4  5  1  0  0  0
  4  6  1  0  0  0
  6  7  2  0  0  0
  6 11  1  0  0  0
  7  8  1  0  0  0
  7  9  1  0  0  0
  9 10  1  0  0  0
 11 12  1  0  0  0
 11 26  1  0  0  0
 12 13  1  0  0  0
 12 24  2  0  0  0
 13 14  1  0  0  0
 13 21  2  0  0  0
 14 15  1  0  0  0
 14 16  2  0  0  0
 16 17  1  0  0  0
 16 18  1  0  0  0
 18 19  2  0  0  0
 18 23  1  0  0  0
 19 20  1  0  0  0
 19 21  1  0  0  0
 21 22  1  0  0  0
 24 25  1  0  0  0
 24 30  1  0  0  0
 25 26  2  0  0  0
 25 27  1  0  0  0
 27 28  2  0  0  0
 27 29  1  0  0  0
 31 32  2  0  0  0
 31 33  2  0  0  0
 31 34  1  0  0  0
 34 35  1  0  0  0
 34 36  1  0  0  0
M  CHG  1  29  -1
M  END
>  <ACTIVITY>
4.15

>  <SET>
2

>  <Min_dist>
0.1

>  <Avg_dist>
0.57

$$$$
8-20f
  Cerius2 12110214053D 1   1.00000                          
Structure written by Cerius2 SD Exporter
 40 42  0  0  0  0  0  0  0  0999 V2000
   21.2510   21.1810   16.9400 C   0  0  0  0  0  0
   21.9690   20.3220   17.7700 C   0  0  0  0  0  0
   21.4650   19.5570   18.3560 H   0  0  0  0  0  0
   23.3610   20.4460   17.8530 C   0  0  0  0  0  0
   23.8940   19.7570   18.5080 H   0  0  0  0  0  0
   24.0500   21.4170   17.0990 C   0  0  0  0  0  0
   23.3090   22.2790   16.2800 C   0  0  0  0  0  0
   23.7620   23.0860   15.7170 H   0  0  0  0  0  0
   21.9150   22.1570   16.1950 C   0  0  0  0  0  0
   21.3570   22.8380   15.5550 H   0  0  0  0  0  0
   25.4770   21.5040   17.2230 N   0  0  0  0  0  0
   26.4280   22.1360   16.4180 C   0  0  0  0  0  0
   26.2100   22.7310   15.1010 C   0  0  0  0  0  0
   26.4660   24.0930   14.8870 C   0  0  0  0  0  0
   26.8060   24.7280   15.7030 H   0  0  0  0  0  0
   26.2800   24.6550   13.6210 C   0  0  0  0  0  0
   26.4760   25.7140   13.4700 H   0  0  0  0  0  0
   25.8470   23.8560   12.5640 C   0  0  0  0  0  0
   25.6020   22.4990   12.7620 C   0  0  0  0  0  0
   25.2690   21.8700   11.9390 H   0  0  0  0  0  0
   25.7870   21.9350   14.0270 C   0  0  0  0  0  0
   25.5990   20.8710   14.1640 H   0  0  0  0  0  0
   25.6190   24.5490   11.0050 Cl  0  0  0  0  0  0
   27.6290   22.0120   17.0940 C   0  0  0  0  0  0
   27.3660   21.2270   18.2330 C   0  0  0  0  0  0
   26.0660   20.9000   18.3020 N   0  0  0  0  0  0
   28.3120   20.7940   19.2650 C   0  0  0  0  0  0
   27.9680   20.1170   20.2350 O   0  0  0  0  0  0
   29.6210   21.1910   19.1440 O   0  0  0  0  0  0
   30.0560   22.4260   19.7400 C   0  0  0  0  0  0
   29.9230   23.2480   19.0340 H   0  0  0  0  0  0
   31.0920   22.3670   20.0880 H   0  0  0  0  0  0
   29.4190   22.6140   20.6090 H   0  0  0  0  0  0
   29.1470   22.6400   16.6420 Cl  0  0  0  0  0  0
   19.4920   21.0290   16.7980 S   0  0  0  0  0  0
   18.9320   22.2840   16.3260 O   0  0  0  0  0  0
   18.9770   20.3960   17.9990 O   0  0  0  0  0  0
   19.3320   19.9290   15.5450 N   0  0  0  0  0  0
   18.8460   20.3470   14.7470 H   0  0  0  0  0  0
   18.8650   19.0750   15.8610 H   0  0  0  0  0  0
  1  2  1  0  0  0
  1  9  2  0  0  0
  1 35  1  0  0  0
  2  3  1  0  0  0
  2  4  2  0  0  0
  4  5  1  0  0  0
  4  6  1  0  0  0
  6  7  2  0  0  0
  6 11  1  0  0  0
  7  8  1  0  0  0
  7  9  1  0  0  0
  9 10  1  0  0  0
 11 12  1  0  0  0
 11 26  1  0  0  0
 12 13  1  0  0  0
 12 24  2  0  0  0
 13 14  1  0  0  0
 13 21  2  0  0  0
 14 15  1  0  0  0
 14 16  2  0  0  0
 16 17  1  0  0  0
 16 18  1  0  0  0
 18 19  2  0  0  0
 18 23  1  0  0  0
 19 20  1  0  0  0
 19 21  1  0  0  0
 21 22  1  0  0  0
 24 25  1  0  0  0
 24 34  1  0  0  0
 25 26  2  0  0  0
 25 27  1  0  0  0
 27 28  2  0  0  0
 27 29  1  0  0  0
 29 30  1  0  0  0
 30 31  1  0  0  0
 30 32  1  0  0  0
 30 33  1  0  0  0
 35 36  2  0  0  0
 35 37  2  0  0  0
 35 38  1  0  0  0
 38 39  1  0  0  0
 38 40  1  0  0  0
M  END
>  <ACTIVITY>
6.8

>  <SET>
2

>  <Min_dist>
0.2

>  <Avg_dist>
0.6

$$$$
8-20g
  Cerius2 12110214053D 1   1.00000                          
Structure written by Cerius2 SD Exporter
 38 40  0  0  0  0  0  0  0  0999 V2000
   21.2540   21.1950   16.9310 C   0  0  0  0  0  0
   21.9690   20.3320   17.7620 C   0  0  0  0  0  0
   21.4560   19.5710   18.3460 H   0  0  0  0  0  0
   23.3600   20.4510   17.8500 C   0  0  0  0  0  0
   23.8900   19.7610   18.5060 H   0  0  0  0  0  0
   24.0530   21.4180   17.0960 C   0  0  0  0  0  0
   23.3160   22.2840   16.2760 C   0  0  0  0  0  0
   23.7750   23.0900   15.7150 H   0  0  0  0  0  0
   21.9220   22.1680   16.1870 C   0  0  0  0  0  0
   21.3720   22.8530   15.5450 H   0  0  0  0  0  0
   25.4800   21.5030   17.2220 N   0  0  0  0  0  0
   26.4280   22.1420   16.4250 C   0  0  0  0  0  0
   26.2090   22.7300   15.1040 C   0  0  0  0  0  0
   26.4610   24.0910   14.8840 C   0  0  0  0  0  0
   26.8030   24.7300   15.6970 H   0  0  0  0  0  0
   26.2720   24.6490   13.6170 C   0  0  0  0  0  0
   26.4670   25.7080   13.4620 H   0  0  0  0  0  0
   25.8370   23.8460   12.5640 C   0  0  0  0  0  0
   25.5930   22.4890   12.7670 C   0  0  0  0  0  0
   25.2580   21.8580   11.9480 H   0  0  0  0  0  0
   25.7830   21.9310   14.0340 C   0  0  0  0  0  0
   25.5960   20.8670   14.1760 H   0  0  0  0  0  0
   25.6030   24.5330   11.0040 Cl  0  0  0  0  0  0
   27.6280   22.0170   17.1050 C   0  0  0  0  0  0
   27.3640   21.2400   18.2590 C   0  0  0  0  0  0
   26.0660   20.8860   18.2890 N   0  0  0  0  0  0
   28.2670   20.7820   19.3340 C   0  0  0  0  0  0
   27.8960   20.0700   20.2720 O   0  0  0  0  0  0
   29.5710   21.1800   19.2740 N   0  0  0  0  0  0
   30.2240   20.8910   19.9920 H   0  0  0  0  0  0
   29.9370   21.7640   18.5310 H   0  0  0  0  0  0
   29.1390   22.6310   16.5970 Cl  0  0  0  0  0  0
   19.4950   21.0210   16.8050 S   0  0  0  0  0  0
   18.9300   22.2770   16.3440 O   0  0  0  0  0  0
   18.9850   20.3770   18.0020 O   0  0  0  0  0  0
   19.3390   19.9150   15.5570 N   0  0  0  0  0  0
   18.8400   20.3230   14.7620 H   0  0  0  0  0  0
   18.8850   19.0560   15.8800 H   0  0  0  0  0  0
  1  2  1  0  0  0
  1  9  2  0  0  0
  1 33  1  0  0  0
  2  3  1  0  0  0
  2  4  2  0  0  0
  4  5  1  0  0  0
  4  6  1  0  0  0
  6  7  2  0  0  0
  6 11  1  0  0  0
  7  8  1  0  0  0
  7  9  1  0  0  0
  9 10  1  0  0  0
 11 12  1  0  0  0
 11 26  1  0  0  0
 12 13  1  0  0  0
 12 24  2  0  0  0
 13 14  1  0  0  0
 13 21  2  0  0  0
 14 15  1  0  0  0
 14 16  2  0  0  0
 16 17  1  0  0  0
 16 18  1  0  0  0
 18 19  2  0  0  0
 18 23  1  0  0  0
 19 20  1  0  0  0
 19 21  1  0  0  0
 21 22  1  0  0  0
 24 25  1  0  0  0
 24 32  1  0  0  0
 25 26  2  0  0  0
 25 27  1  0  0  0
 27 28  2  0  0  0
 27 29  1  0  0  0
 29 30  1  0  0  0
 29 31  1  0  0  0
 33 34  2  0  0  0
 33 35  2  0  0  0
 33 36  1  0  0  0
 36 37  1  0  0  0
 36 38  1  0  0  0
M  END
>  <ACTIVITY>
5.96

>  <SET>
2

>  <Min_dist>
0.2

>  <Avg_dist>
0.6

$$$$
8-21b
  Cerius2 12110214053D 1   1.00000                          
Structure written by Cerius2 SD Exporter
 34 36  0  0  0  0  0  0  0  0999 V2000
   21.2490   21.1810   16.9410 C   0  0  0  0  0  0
   21.9680   20.3220   17.7700 C   0  0  0  0  0  0
   21.4640   19.5570   18.3560 H   0  0  0  0  0  0
   23.3600   20.4450   17.8530 C   0  0  0  0  0  0
   23.8940   19.7570   18.5080 H   0  0  0  0  0  0
   24.0480   21.4170   17.0990 C   0  0  0  0  0  0
   23.3070   22.2790   16.2810 C   0  0  0  0  0  0
   23.7610   23.0860   15.7170 H   0  0  0  0  0  0
   21.9140   22.1570   16.1950 C   0  0  0  0  0  0
   21.3550   22.8380   15.5550 H   0  0  0  0  0  0
   25.4750   21.5050   17.2230 N   0  0  0  0  0  0
   26.4290   22.1420   16.4160 C   0  0  0  0  0  0
   26.2140   22.7330   15.0990 C   0  0  0  0  0  0
   26.4680   24.0950   14.8830 C   0  0  0  0  0  0
   26.8070   24.7310   15.6990 H   0  0  0  0  0  0
   26.2820   24.6560   13.6170 C   0  0  0  0  0  0
   26.4780   25.7150   13.4650 H   0  0  0  0  0  0
   25.8490   23.8560   12.5610 C   0  0  0  0  0  0
   25.6040   22.4990   12.7600 C   0  0  0  0  0  0
   25.2710   21.8700   11.9380 H   0  0  0  0  0  0
   25.7900   21.9370   14.0260 C   0  0  0  0  0  0
   25.6030   20.8730   14.1650 H   0  0  0  0  0  0
   25.6210   24.5480   11.0020 Cl  0  0  0  0  0  0
   27.6220   22.0040   17.0960 C   0  0  0  0  0  0
   27.3550   21.2450   18.2310 C   0  0  0  0  0  0
   28.0410   20.9100   19.0000 H   0  0  0  0  0  0
   26.0710   20.8980   18.3060 N   0  0  0  0  0  0
   29.3290   22.6100   16.6160 Br  0  0  0  0  0  0
   19.4900   21.0260   16.8010 S   0  0  0  0  0  0
   18.9290   22.2800   16.3290 O   0  0  0  0  0  0
   18.9760   20.3930   18.0020 O   0  0  0  0  0  0
   19.3330   19.9240   15.5490 N   0  0  0  0  0  0
   18.8480   20.3410   14.7500 H   0  0  0  0  0  0
   18.8660   19.0710   15.8650 H   0  0  0  0  0  0
  1  2  1  0  0  0
  1  9  2  0  0  0
  1 29  1  0  0  0
  2  3  1  0  0  0
  2  4  2  0  0  0
  4  5  1  0  0  0
  4  6  1  0  0  0
  6  7  2  0  0  0
  6 11  1  0  0  0
  7  8  1  0  0  0
  7  9  1  0  0  0
  9 10  1  0  0  0
 11 12  1  0  0  0
 11 27  1  0  0  0
 12 13  1  0  0  0
 12 24  2  0  0  0
 13 14  1  0  0  0
 13 21  2  0  0  0
 14 15  1  0  0  0
 14 16  2  0  0  0
 16 17  1  0  0  0
 16 18  1  0  0  0
 18 19  2  0  0  0
 18 23  1  0  0  0
 19 20  1  0  0  0
 19 21  1  0  0  0
 21 22  1  0  0  0
 24 25  1  0  0  0
 24 28  1  0  0  0
 25 26  1  0  0  0
 25 27  2  0  0  0
 29 30  2  0  0  0
 29 31  2  0  0  0
 29 32  1  0  0  0
 32 33  1  0  0  0
 32 34  1  0  0  0
M  END
>  <ACTIVITY>
7.51

>  <SET>
2

>  <Min_dist>
0.09

>  <Avg_dist>
0.51

$$$$
8-22a
  Cerius2 12110214053D 1   1.00000                          
Structure written by Cerius2 SD Exporter
 34 36  0  0  0  0  0  0  0  0999 V2000
   21.2470   21.1850   16.9480 C   0  0  0  0  0  0
   21.9630   20.3200   17.7750 C   0  0  0  0  0  0
   21.4560   19.5580   18.3620 H   0  0  0  0  0  0
   23.3560   20.4360   17.8550 C   0  0  0  0  0  0
   23.8900   19.7460   18.5080 H   0  0  0  0  0  0
   24.0450   21.4030   17.0980 C   0  0  0  0  0  0
   23.3080   22.2720   16.2830 C   0  0  0  0  0  0
   23.7700   23.0790   15.7240 H   0  0  0  0  0  0
   21.9140   22.1590   16.2010 C   0  0  0  0  0  0
   21.3570   22.8440   15.5640 H   0  0  0  0  0  0
   25.4700   21.4900   17.2170 N   0  0  0  0  0  0
   26.4160   22.1470   16.4220 C   0  0  0  0  0  0
   26.2120   22.7320   15.0980 C   0  0  0  0  0  0
   26.4700   24.0930   14.8820 C   0  0  0  0  0  0
   26.7990   24.7320   15.7000 H   0  0  0  0  0  0
   26.2990   24.6500   13.6120 C   0  0  0  0  0  0
   26.4910   25.7060   13.4430 H   0  0  0  0  0  0
   25.8810   23.8440   12.5600 C   0  0  0  0  0  0
   25.6350   22.4900   12.7510 C   0  0  0  0  0  0
   25.3160   21.8730   11.9160 H   0  0  0  0  0  0
   25.8060   21.9310   14.0200 C   0  0  0  0  0  0
   25.6220   20.8660   14.1570 H   0  0  0  0  0  0
   25.7180   24.3790   11.3430 F   0  0  0  0  0  0
   27.6140   22.0580   17.1100 C   0  0  0  0  0  0
   28.5680   22.4660   16.8050 H   0  0  0  0  0  0
   27.3490   21.2640   18.2280 C   0  0  0  0  0  0
   28.0420   20.9370   18.9960 H   0  0  0  0  0  0
   26.0780   20.8720   18.2820 N   0  0  0  0  0  0
   19.4870   21.0380   16.8120 S   0  0  0  0  0  0
   18.9300   22.2940   16.3420 O   0  0  0  0  0  0
   18.9710   20.4060   18.0140 O   0  0  0  0  0  0
   19.3210   19.9370   15.5590 N   0  0  0  0  0  0
   18.8350   20.3570   14.7630 H   0  0  0  0  0  0
   18.8510   19.0850   15.8760 H   0  0  0  0  0  0
  1  2  1  0  0  0
  1  9  2  0  0  0
  1 29  1  0  0  0
  2  3  1  0  0  0
  2  4  2  0  0  0
  4  5  1  0  0  0
  4  6  1  0  0  0
  6  7  2  0  0  0
  6 11  1  0  0  0
  7  8  1  0  0  0
  7  9  1  0  0  0
  9 10  1  0  0  0
 11 12  1  0  0  0
 11 28  1  0  0  0
 12 13  1  0  0  0
 12 24  2  0  0  0
 13 14  1  0  0  0
 13 21  2  0  0  0
 14 15  1  0  0  0
 14 16  2  0  0  0
 16 17  1  0  0  0
 16 18  1  0  0  0
 18 19  2  0  0  0
 18 23  1  0  0  0
 19 20  1  0  0  0
 19 21  1  0  0  0
 21 22  1  0  0  0
 24 25  1  0  0  0
 24 26  1  0  0  0
 26 27  1  0  0  0
 26 28  2  0  0  0
 29 30  2  0  0  0
 29 31  2  0  0  0
 29 32  1  0  0  0
 32 33  1  0  0  0
 32 34  1  0  0  0
M  END
>  <ACTIVITY>
4

>  <SET>
3

>  <Min_dist>
0.22

>  <Avg_dist>
0.54

$$$$
8-22c
  Cerius2 12110214053D 1   1.00000                          
Structure written by Cerius2 SD Exporter
 37 39  0  0  0  0  0  0  0  0999 V2000
   21.2460   21.1820   16.9410 C   0  0  0  0  0  0
   21.9640   20.3210   17.7690 C   0  0  0  0  0  0
   21.4600   19.5560   18.3560 H   0  0  0  0  0  0
   23.3560   20.4440   17.8520 C   0  0  0  0  0  0
   23.8910   19.7560   18.5070 H   0  0  0  0  0  0
   24.0450   21.4150   17.0980 C   0  0  0  0  0  0
   23.3030   22.2770   16.2790 C   0  0  0  0  0  0
   23.7590   23.0830   15.7150 H   0  0  0  0  0  0
   21.9100   22.1570   16.1950 C   0  0  0  0  0  0
   21.3520   22.8380   15.5550 H   0  0  0  0  0  0
   25.4710   21.5020   17.2210 N   0  0  0  0  0  0
   26.4280   22.1390   16.4210 C   0  0  0  0  0  0
   26.2130   22.7310   15.1010 C   0  0  0  0  0  0
   26.4690   24.0920   14.8860 C   0  0  0  0  0  0
   26.8090   24.7260   15.7030 H   0  0  0  0  0  0
   26.2840   24.6530   13.6210 C   0  0  0  0  0  0
   26.4790   25.7120   13.4620 H   0  0  0  0  0  0
   25.8510   23.8570   12.5610 C   0  0  0  0  0  0
   25.7070   24.2950   11.5750 H   0  0  0  0  0  0
   25.6070   22.4990   12.7630 C   0  0  0  0  0  0
   25.2740   21.8770   11.9340 H   0  0  0  0  0  0
   25.7920   21.9360   14.0270 C   0  0  0  0  0  0
   25.6050   20.8720   14.1660 H   0  0  0  0  0  0
   27.6410   22.0190   17.0930 C   0  0  0  0  0  0
   27.3480   21.2530   18.2310 C   0  0  0  0  0  0
   28.0310   20.9220   19.0060 H   0  0  0  0  0  0
   26.0690   20.8980   18.2990 N   0  0  0  0  0  0
   28.9730   22.5360   16.6860 C   0  0  0  0  0  0
   29.7600   22.1660   17.3510 H   0  0  0  0  0  0
   28.9870   23.6290   16.7230 H   0  0  0  0  0  0
   29.2180   22.2170   15.6680 H   0  0  0  0  0  0
   19.4860   21.0280   16.8030 S   0  0  0  0  0  0
   18.9260   22.2820   16.3310 O   0  0  0  0  0  0
   18.9730   20.3960   18.0050 O   0  0  0  0  0  0
   19.3260   19.9260   15.5510 N   0  0  0  0  0  0
   18.8400   20.3440   14.7530 H   0  0  0  0  0  0
   18.8580   19.0730   15.8670 H   0  0  0  0  0  0
  1  2  1  0  0  0
  1  9  2  0  0  0
  1 32  1  0  0  0
  2  3  1  0  0  0
  2  4  2  0  0  0
  4  5  1  0  0  0
  4  6  1  0  0  0
  6  7  2  0  0  0
  6 11  1  0  0  0
  7  8  1  0  0  0
  7  9  1  0  0  0
  9 10  1  0  0  0
 11 12  1  0  0  0
 11 27  1  0  0  0
 12 13  1  0  0  0
 12 24  2  0  0  0
 13 14  1  0  0  0
 13 22  2  0  0  0
 14 15  1  0  0  0
 14 16  2  0  0  0
 16 17  1  0  0  0
 16 18  1  0  0  0
 18 19  1  0  0  0
 18 20  2  0  0  0
 20 21  1  0  0  0
 20 22  1  0  0  0
 22 23  1  0  0  0
 24 25  1  0  0  0
 24 28  1  0  0  0
 25 26  1  0  0  0
 25 27  2  0  0  0
 28 29  1  0  0  0
 28 30  1  0  0  0
 28 31  1  0  0  0
 32 33  2  0  0  0
 32 34  2  0  0  0
 32 35  1  0  0  0
 35 36  1  0  0  0
 35 37  1  0  0  0
M  END
>  <ACTIVITY>
4.33

>  <SET>
2

>  <Min_dist>
0.21

>  <Avg_dist>
0.51

$$$$
8-22d
  Cerius2 12110214053D 1   1.00000                          
Structure written by Cerius2 SD Exporter
 38 40  0  0  0  0  0  0  0  0999 V2000
   21.2480   21.1800   16.9410 C   0  0  0  0  0  0
   21.9670   20.3200   17.7700 C   0  0  0  0  0  0
   21.4630   19.5550   18.3560 H   0  0  0  0  0  0
   23.3580   20.4450   17.8530 C   0  0  0  0  0  0
   23.8930   19.7570   18.5080 H   0  0  0  0  0  0
   24.0470   21.4170   17.0990 C   0  0  0  0  0  0
   23.3050   22.2780   16.2800 C   0  0  0  0  0  0
   23.7580   23.0850   15.7160 H   0  0  0  0  0  0
   21.9110   22.1560   16.1950 C   0  0  0  0  0  0
   21.3520   22.8360   15.5540 H   0  0  0  0  0  0
   25.4740   21.5050   17.2230 N   0  0  0  0  0  0
   26.4290   22.1390   16.4170 C   0  0  0  0  0  0
   26.2130   22.7330   15.0990 C   0  0  0  0  0  0
   26.4710   24.0910   14.8840 C   0  0  0  0  0  0
   26.8140   24.7270   15.6990 H   0  0  0  0  0  0
   26.2820   24.6540   13.6190 C   0  0  0  0  0  0
   26.4890   25.7140   13.4730 H   0  0  0  0  0  0
   25.8320   23.8680   12.5520 C   0  0  0  0  0  0
   25.6020   22.5040   12.7610 C   0  0  0  0  0  0
   25.2740   21.8680   11.9400 H   0  0  0  0  0  0
   25.7900   21.9390   14.0260 C   0  0  0  0  0  0
   25.6050   20.8750   14.1620 H   0  0  0  0  0  0
   25.6610   24.4670   11.1860 C   0  0  0  0  0  0
   24.8760   23.9460   10.6270 H   0  0  0  0  0  0
   26.5990   24.3980   10.6280 H   0  0  0  0  0  0
   25.3650   25.5190   11.2560 H   0  0  0  0  0  0
   27.6330   22.0070   17.0930 C   0  0  0  0  0  0
   27.3520   21.2480   18.2310 C   0  0  0  0  0  0
   28.0370   20.9160   19.0030 H   0  0  0  0  0  0
   26.0690   20.9010   18.3060 N   0  0  0  0  0  0
   28.9120   22.4940   16.6890 C   0  0  0  0  0  0
   29.9580   22.8890   16.3660 N   0  0  0  0  0  0
   19.4890   21.0270   16.8000 S   0  0  0  0  0  0
   18.9280   22.2810   16.3290 O   0  0  0  0  0  0
   18.9750   20.3940   18.0020 O   0  0  0  0  0  0
   19.3290   19.9270   15.5470 N   0  0  0  0  0  0
   18.8430   20.3450   14.7490 H   0  0  0  0  0  0
   18.8610   19.0730   15.8630 H   0  0  0  0  0  0
  1  2  1  0  0  0
  1  9  2  0  0  0
  1 33  1  0  0  0
  2  3  1  0  0  0
  2  4  2  0  0  0
  4  5  1  0  0  0
  4  6  1  0  0  0
  6  7  2  0  0  0
  6 11  1  0  0  0
  7  8  1  0  0  0
  7  9  1  0  0  0
  9 10  1  0  0  0
 11 12  1  0  0  0
 11 30  1  0  0  0
 12 13  1  0  0  0
 12 27  2  0  0  0
 13 14  1  0  0  0
 13 21  2  0  0  0
 14 15  1  0  0  0
 14 16  2  0  0  0
 16 17  1  0  0  0
 16 18  1  0  0  0
 18 19  2  0  0  0
 18 23  1  0  0  0
 19 20  1  0  0  0
 19 21  1  0  0  0
 21 22  1  0  0  0
 23 24  1  0  0  0
 23 25  1  0  0  0
 23 26  1  0  0  0
 27 28  1  0  0  0
 27 31  1  0  0  0
 28 29  1  0  0  0
 28 30  2  0  0  0
 31 32  3  0  0  0
 33 34  2  0  0  0
 33 35  2  0  0  0
 33 36  1  0  0  0
 36 37  1  0  0  0
 36 38  1  0  0  0
M  END
>  <ACTIVITY>
7.12

>  <SET>
2

>  <Min_dist>
0.3

>  <Avg_dist>
0.56

$$$$
8-22e
  Cerius2 12110214053D 1   1.00000                          
Structure written by Cerius2 SD Exporter
 36 38  0  0  0  0  0  0  0  0999 V2000
   21.2500   21.1800   16.9300 C   0  0  0  0  0  0
   21.9710   20.3250   17.7610 C   0  0  0  0  0  0
   21.4700   19.5580   18.3480 H   0  0  0  0  0  0
   23.3620   20.4560   17.8470 C   0  0  0  0  0  0
   23.8950   19.7700   18.5050 H   0  0  0  0  0  0
   24.0520   21.4300   17.0950 C   0  0  0  0  0  0
   23.3060   22.2840   16.2730 C   0  0  0  0  0  0
   23.7520   23.0900   15.7030 H   0  0  0  0  0  0
   21.9130   22.1560   16.1840 C   0  0  0  0  0  0
   21.3540   22.8330   15.5400 H   0  0  0  0  0  0
   25.4810   21.5190   17.2260 N   0  0  0  0  0  0
   26.4520   22.1240   16.4100 C   0  0  0  0  0  0
   26.2170   22.7270   15.0990 C   0  0  0  0  0  0
   26.4720   24.0890   14.8890 C   0  0  0  0  0  0
   26.8370   24.7160   15.7010 H   0  0  0  0  0  0
   26.2530   24.6610   13.6340 C   0  0  0  0  0  0
   26.4480   25.7210   13.4790 H   0  0  0  0  0  0
   25.7860   23.8760   12.5810 C   0  0  0  0  0  0
   25.6170   24.3230   11.6030 H   0  0  0  0  0  0
   25.5410   22.5170   12.7780 C   0  0  0  0  0  0
   25.1800   21.9040   11.9540 H   0  0  0  0  0  0
   25.7580   21.9420   14.0320 C   0  0  0  0  0  0
   25.5650   20.8790   14.1680 H   0  0  0  0  0  0
   27.6580   21.9600   17.0880 C   0  0  0  0  0  0
   27.3480   21.2430   18.2470 C   0  0  0  0  0  0
   28.0210   20.9110   19.0290 H   0  0  0  0  0  0
   26.0560   20.9360   18.3300 N   0  0  0  0  0  0
   28.9760   22.3830   16.7070 N   0  3  0  0  0  0
   29.1600   22.7900   15.5480 O   0  0  0  0  0  0
   29.8670   22.3030   17.5730 O   0  5  0  0  0  0
   19.4920   21.0170   16.7870 S   0  0  0  0  0  0
   18.9270   22.2680   16.3120 O   0  0  0  0  0  0
   18.9780   20.3850   17.9890 O   0  0  0  0  0  0
   19.3410   19.9120   15.5370 N   0  0  0  0  0  0
   18.8560   20.3250   14.7360 H   0  0  0  0  0  0
   18.8770   19.0570   15.8540 H   0  0  0  0  0  0
  1  2  1  0  0  0
  1  9  2  0  0  0
  1 31  1  0  0  0
  2  3  1  0  0  0
  2  4  2  0  0  0
  4  5  1  0  0  0
  4  6  1  0  0  0
  6  7  2  0  0  0
  6 11  1  0  0  0
  7  8  1  0  0  0
  7  9  1  0  0  0
  9 10  1  0  0  0
 11 12  1  0  0  0
 11 27  1  0  0  0
 12 13  1  0  0  0
 12 24  2  0  0  0
 13 14  1  0  0  0
 13 22  2  0  0  0
 14 15  1  0  0  0
 14 16  2  0  0  0
 16 17  1  0  0  0
 16 18  1  0  0  0
 18 19  1  0  0  0
 18 20  2  0  0  0
 20 21  1  0  0  0
 20 22  1  0  0  0
 22 23  1  0  0  0
 24 25  1  0  0  0
 24 28  1  0  0  0
 25 26  1  0  0  0
 25 27  2  0  0  0
 28 29  2  0  0  0
 28 30  1  0  0  0
 31 32  2  0  0  0
 31 33  2  0  0  0
 31 34  1  0  0  0
 34 35  1  0  0  0
 34 36  1  0  0  0
M  CHG  2  28   1  30  -1
M  END
>  <ACTIVITY>
6.54

>  <SET>
2

>  <Min_dist>
0.3

>  <Avg_dist>
0.59

$$$$
8-22f
  Cerius2 12110214053D 1   1.00000                          
Structure written by Cerius2 SD Exporter
 40 42  0  0  0  0  0  0  0  0999 V2000
   21.2670   21.0570   16.8540 C   0  0  0  0  0  0
   22.0020   20.2390   17.7100 C   0  0  0  0  0  0
   21.5160   19.4470   18.2730 H   0  0  0  0  0  0
   23.3810   20.4410   17.8430 C   0  0  0  0  0  0
   23.9240   19.7850   18.5230 H   0  0  0  0  0  0
   24.0430   21.4570   17.1240 C   0  0  0  0  0  0
   23.2850   22.2600   16.2610 C   0  0  0  0  0  0
   23.7220   23.0290   15.6370 H   0  0  0  0  0  0
   21.9020   22.0630   16.1270 C   0  0  0  0  0  0
   21.3390   22.6970   15.4440 H   0  0  0  0  0  0
   25.4660   21.5920   17.2650 N   0  0  0  0  0  0
   26.4480   22.0380   16.3650 C   0  0  0  0  0  0
   26.2130   22.7100   15.0900 C   0  0  0  0  0  0
   26.4900   24.0780   14.9550 C   0  0  0  0  0  0
   26.8650   24.6550   15.7980 H   0  0  0  0  0  0
   26.2960   24.7170   13.7270 C   0  0  0  0  0  0
   26.5110   25.7790   13.6360 H   0  0  0  0  0  0
   25.8280   23.9910   12.6330 C   0  0  0  0  0  0
   25.5560   22.6290   12.7560 C   0  0  0  0  0  0
   25.1950   22.0580   11.9050 H   0  0  0  0  0  0
   25.7500   21.9890   13.9820 C   0  0  0  0  0  0
   25.5340   20.9260   14.0620 H   0  0  0  0  0  0
   25.5770   24.7800   11.1240 Cl  0  0  0  0  0  0
   27.6630   21.7460   16.9700 C   0  0  0  0  0  0
   27.3500   21.2440   18.2340 C   0  0  0  0  0  0
   28.0250   20.9220   19.0190 H   0  0  0  0  0  0
   26.0370   21.2010   18.4520 N   0  0  0  0  0  0
   29.2640   21.9570   16.3830 S   0  0  0  0  0  0
   29.3460   21.1010   15.2090 O   0  0  0  0  0  0
   30.1250   21.6980   17.5310 O   0  0  0  0  0  0
   29.4110   23.6580   15.9190 C   0  0  0  0  0  0
   30.4650   23.8520   15.7090 H   0  0  0  0  0  0
   29.0790   24.2860   16.7460 H   0  0  0  0  0  0
   28.8260   23.8490   15.0210 H   0  0  0  0  0  0
   19.5310   20.7740   16.6640 S   0  0  0  0  0  0
   18.9090   21.9910   16.1720 O   0  0  0  0  0  0
   19.0130   20.1040   17.8440 O   0  0  0  0  0  0
   19.4940   19.6510   15.4210 N   0  0  0  0  0  0
   19.0050   20.0190   14.6010 H   0  0  0  0  0  0
   19.0870   18.7670   15.7370 H   0  0  0  0  0  0
  1  2  1  0  0  0
  1  9  2  0  0  0
  1 35  1  0  0  0
  2  3  1  0  0  0
  2  4  2  0  0  0
  4  5  1  0  0  0
  4  6  1  0  0  0
  6  7  2  0  0  0
  6 11  1  0  0  0
  7  8  1  0  0  0
  7  9  1  0  0  0
  9 10  1  0  0  0
 11 12  1  0  0  0
 11 27  1  0  0  0
 12 13  1  0  0  0
 12 24  2  0  0  0
 13 14  1  0  0  0
 13 21  2  0  0  0
 14 15  1  0  0  0
 14 16  2  0  0  0
 16 17  1  0  0  0
 16 18  1  0  0  0
 18 19  2  0  0  0
 18 23  1  0  0  0
 19 20  1  0  0  0
 19 21  1  0  0  0
 21 22  1  0  0  0
 24 25  1  0  0  0
 24 28  1  0  0  0
 25 26  1  0  0  0
 25 27  2  0  0  0
 28 29  2  0  0  0
 28 30  2  0  0  0
 28 31  1  0  0  0
 31 32  1  0  0  0
 31 33  1  0  0  0
 31 34  1  0  0  0
 35 36  2  0  0  0
 35 37  2  0  0  0
 35 38  1  0  0  0
 38 39  1  0  0  0
 38 40  1  0  0  0
M  END
>  <ACTIVITY>
4.7

>  <SET>
2

>  <Min_dist>
0.31

>  <Avg_dist>
0.56

$$$$
8-23
  Cerius2 12110214053D 1   1.00000                          
Structure written by Cerius2 SD Exporter
 36 38  0  0  0  0  0  0  0  0999 V2000
   21.2540   21.1870   16.9360 C   0  0  0  0  0  0
   21.9690   20.3240   17.7650 C   0  0  0  0  0  0
   21.4610   19.5610   18.3500 H   0  0  0  0  0  0
   23.3610   20.4430   17.8500 C   0  0  0  0  0  0
   23.8930   19.7540   18.5050 H   0  0  0  0  0  0
   24.0530   21.4120   17.0960 C   0  0  0  0  0  0
   23.3150   22.2780   16.2770 C   0  0  0  0  0  0
   23.7740   23.0840   15.7170 H   0  0  0  0  0  0
   21.9220   22.1610   16.1900 C   0  0  0  0  0  0
   21.3660   22.8440   15.5500 H   0  0  0  0  0  0
   25.4800   21.4980   17.2220 N   0  0  0  0  0  0
   26.4360   22.1410   16.4210 C   0  0  0  0  0  0
   26.2130   22.7300   15.1000 C   0  0  0  0  0  0
   26.4680   24.0900   14.8770 C   0  0  0  0  0  0
   26.8220   24.7240   15.6880 H   0  0  0  0  0  0
   26.2620   24.6500   13.6140 C   0  0  0  0  0  0
   26.4560   25.7090   13.4510 H   0  0  0  0  0  0
   25.8110   23.8540   12.5620 C   0  0  0  0  0  0
   25.6510   24.2910   11.5780 H   0  0  0  0  0  0
   25.5690   22.4970   12.7700 C   0  0  0  0  0  0
   25.2220   21.8730   11.9480 H   0  0  0  0  0  0
   25.7740   21.9340   14.0320 C   0  0  0  0  0  0
   25.5870   20.8710   14.1750 H   0  0  0  0  0  0
   27.6270   22.0230   17.1100 C   0  0  0  0  0  0
   27.3510   21.2540   18.2440 C   0  0  0  0  0  0
   28.0340   20.9290   19.0200 H   0  0  0  0  0  0
   26.0720   20.8850   18.3020 N   0  0  0  0  0  0
   28.8220   22.5090   16.7400 N   0  0  0  0  0  0
   29.6800   22.3800   17.2780 H   0  0  0  0  0  0
   28.9730   23.0430   15.8840 H   0  0  0  0  0  0
   19.4940   21.0380   16.7940 S   0  0  0  0  0  0
   18.9380   22.2940   16.3230 O   0  0  0  0  0  0
   18.9770   20.4060   17.9950 O   0  0  0  0  0  0
   19.3340   19.9370   15.5410 N   0  0  0  0  0  0
   18.8530   20.3580   14.7420 H   0  0  0  0  0  0
   18.8610   19.0860   15.8560 H   0  0  0  0  0  0
  1  2  1  0  0  0
  1  9  2  0  0  0
  1 31  1  0  0  0
  2  3  1  0  0  0
  2  4  2  0  0  0
  4  5  1  0  0  0
  4  6  1  0  0  0
  6  7  2  0  0  0
  6 11  1  0  0  0
  7  8  1  0  0  0
  7  9  1  0  0  0
  9 10  1  0  0  0
 11 12  1  0  0  0
 11 27  1  0  0  0
 12 13  1  0  0  0
 12 24  2  0  0  0
 13 14  1  0  0  0
 13 22  2  0  0  0
 14 15  1  0  0  0
 14 16  2  0  0  0
 16 17  1  0  0  0
 16 18  1  0  0  0
 18 19  1  0  0  0
 18 20  2  0  0  0
 20 21  1  0  0  0
 20 22  1  0  0  0
 22 23  1  0  0  0
 24 25  1  0  0  0
 24 28  1  0  0  0
 25 26  1  0  0  0
 25 27  2  0  0  0
 28 29  1  0  0  0
 28 30  1  0  0  0
 31 32  2  0  0  0
 31 33  2  0  0  0
 31 34  1  0  0  0
 34 35  1  0  0  0
 34 36  1  0  0  0
M  END
>  <ACTIVITY>
4.53

>  <SET>
2

>  <Min_dist>
0.25

>  <Avg_dist>
0.55

$$$$
8-24
  Cerius2 12110214053D 1   1.00000                          
Structure written by Cerius2 SD Exporter
 37 39  0  0  0  0  0  0  0  0999 V2000
   21.2500   21.1820   16.9490 C   0  0  0  0  0  0
   21.9670   20.3180   17.7760 C   0  0  0  0  0  0
   21.4610   19.5550   18.3630 H   0  0  0  0  0  0
   23.3600   20.4360   17.8560 C   0  0  0  0  0  0
   23.8940   19.7460   18.5080 H   0  0  0  0  0  0
   24.0480   21.4040   17.0990 C   0  0  0  0  0  0
   23.3090   22.2730   16.2840 C   0  0  0  0  0  0
   23.7690   23.0790   15.7230 H   0  0  0  0  0  0
   21.9160   22.1570   16.2020 C   0  0  0  0  0  0
   21.3580   22.8400   15.5640 H   0  0  0  0  0  0
   25.4740   21.4930   17.2170 N   0  0  0  0  0  0
   26.4150   22.1460   16.4150 C   0  0  0  0  0  0
   26.2150   22.7320   15.0940 C   0  0  0  0  0  0
   26.4740   24.0920   14.8790 C   0  0  0  0  0  0
   26.8050   24.7290   15.6980 H   0  0  0  0  0  0
   26.3000   24.6530   13.6110 C   0  0  0  0  0  0
   26.4960   25.7120   13.4540 H   0  0  0  0  0  0
   25.8780   23.8570   12.5480 C   0  0  0  0  0  0
   25.7430   24.2950   11.5600 H   0  0  0  0  0  0
   25.6340   22.4990   12.7480 C   0  0  0  0  0  0
   25.3110   21.8760   11.9150 H   0  0  0  0  0  0
   25.8070   21.9360   14.0140 C   0  0  0  0  0  0
   25.6200   20.8720   14.1480 H   0  0  0  0  0  0
   27.5950   22.0460   17.1150 C   0  0  0  0  0  0
   27.3660   21.2690   18.2510 C   0  0  0  0  0  0
   26.0770   20.8760   18.2910 N   0  0  0  0  0  0
   28.3940   20.8830   19.2640 C   0  0  0  0  0  0
   29.0870   21.9600   19.7400 F   0  0  0  0  0  0
   29.3260   20.0240   18.7550 F   0  0  0  0  0  0
   27.8650   20.2610   20.3600 F   0  0  0  0  0  0
   28.7460   22.5400   16.7410 F   0  0  0  0  0  0
   19.4890   21.0370   16.8130 S   0  0  0  0  0  0
   18.9330   22.2950   16.3460 O   0  0  0  0  0  0
   18.9770   20.4040   18.0150 O   0  0  0  0  0  0
   19.3210   19.9400   15.5590 N   0  0  0  0  0  0
   18.8360   20.3620   14.7630 H   0  0  0  0  0  0
   18.8490   19.0880   15.8750 H   0  0  0  0  0  0
  1  2  1  0  0  0
  1  9  2  0  0  0
  1 32  1  0  0  0
  2  3  1  0  0  0
  2  4  2  0  0  0
  4  5  1  0  0  0
  4  6  1  0  0  0
  6  7  2  0  0  0
  6 11  1  0  0  0
  7  8  1  0  0  0
  7  9  1  0  0  0
  9 10  1  0  0  0
 11 12  1  0  0  0
 11 26  1  0  0  0
 12 13  1  0  0  0
 12 24  2  0  0  0
 13 14  1  0  0  0
 13 22  2  0  0  0
 14 15  1  0  0  0
 14 16  2  0  0  0
 16 17  1  0  0  0
 16 18  1  0  0  0
 18 19  1  0  0  0
 18 20  2  0  0  0
 20 21  1  0  0  0
 20 22  1  0  0  0
 22 23  1  0  0  0
 24 25  1  0  0  0
 24 31  1  0  0  0
 25 26  2  0  0  0
 25 27  1  0  0  0
 27 28  1  0  0  0
 27 29  1  0  0  0
 27 30  1  0  0  0
 32 33  2  0  0  0
 32 34  2  0  0  0
 32 35  1  0  0  0
 35 36  1  0  0  0
 35 37  1  0  0  0
M  END
>  <ACTIVITY>
8.77

>  <SET>
1

>  <Min_dist>
999.9

>  <Avg_dist>
999.9

$$$$
8-25a
  Cerius2 12110214053D 1   1.00000                          
Structure written by Cerius2 SD Exporter
 40 42  0  0  0  0  0  0  0  0999 V2000
   21.2500   21.1830   16.9390 C   0  0  0  0  0  0
   21.9670   20.3230   17.7680 C   0  0  0  0  0  0
   21.4620   19.5580   18.3540 H   0  0  0  0  0  0
   23.3590   20.4460   17.8530 C   0  0  0  0  0  0
   23.8920   19.7570   18.5080 H   0  0  0  0  0  0
   24.0480   21.4160   17.0990 C   0  0  0  0  0  0
   23.3090   22.2790   16.2800 C   0  0  0  0  0  0
   23.7650   23.0870   15.7190 H   0  0  0  0  0  0
   21.9150   22.1590   16.1930 C   0  0  0  0  0  0
   21.3580   22.8400   15.5530 H   0  0  0  0  0  0
   25.4750   21.5030   17.2230 N   0  0  0  0  0  0
   26.4280   22.1380   16.4240 C   0  0  0  0  0  0
   26.2080   22.7300   15.1040 C   0  0  0  0  0  0
   26.4630   24.0900   14.8880 C   0  0  0  0  0  0
   26.8030   24.7260   15.7040 H   0  0  0  0  0  0
   26.2770   24.6510   13.6210 C   0  0  0  0  0  0
   26.4730   25.7100   13.4690 H   0  0  0  0  0  0
   25.8440   23.8510   12.5660 C   0  0  0  0  0  0
   25.5990   22.4940   12.7650 C   0  0  0  0  0  0
   25.2660   21.8640   11.9430 H   0  0  0  0  0  0
   25.7850   21.9320   14.0310 C   0  0  0  0  0  0
   25.5990   20.8690   14.1710 H   0  0  0  0  0  0
   25.6140   24.5420   11.0060 Cl  0  0  0  0  0  0
   27.6420   22.0210   17.0930 C   0  0  0  0  0  0
   27.3630   21.2510   18.2540 C   0  0  0  0  0  0
   26.0680   20.8950   18.2950 N   0  0  0  0  0  0
   28.3520   20.8250   19.3140 C   0  0  0  0  0  0
   29.0540   21.8820   19.8190 F   0  0  0  0  0  0
   29.2780   19.9460   18.8300 F   0  0  0  0  0  0
   27.7670   20.2110   20.3850 F   0  0  0  0  0  0
   28.9650   22.5540   16.6630 C   0  0  0  0  0  0
   29.0120   23.6340   16.8370 H   0  0  0  0  0  0
   29.1350   22.3650   15.5980 H   0  0  0  0  0  0
   29.7860   22.0850   17.2140 H   0  0  0  0  0  0
   19.4910   21.0300   16.7960 S   0  0  0  0  0  0
   18.9310   22.2850   16.3250 O   0  0  0  0  0  0
   18.9750   20.3980   17.9970 O   0  0  0  0  0  0
   19.3320   19.9300   15.5430 N   0  0  0  0  0  0
   18.8480   20.3470   14.7450 H   0  0  0  0  0  0
   18.8650   19.0760   15.8590 H   0  0  0  0  0  0
  1  2  1  0  0  0
  1  9  2  0  0  0
  1 35  1  0  0  0
  2  3  1  0  0  0
  2  4  2  0  0  0
  4  5  1  0  0  0
  4  6  1  0  0  0
  6  7  2  0  0  0
  6 11  1  0  0  0
  7  8  1  0  0  0
  7  9  1  0  0  0
  9 10  1  0  0  0
 11 12  1  0  0  0
 11 26  1  0  0  0
 12 13  1  0  0  0
 12 24  2  0  0  0
 13 14  1  0  0  0
 13 21  2  0  0  0
 14 15  1  0  0  0
 14 16  2  0  0  0
 16 17  1  0  0  0
 16 18  1  0  0  0
 18 19  2  0  0  0
 18 23  1  0  0  0
 19 20  1  0  0  0
 19 21  1  0  0  0
 21 22  1  0  0  0
 24 25  1  0  0  0
 24 31  1  0  0  0
 25 26  2  0  0  0
 25 27  1  0  0  0
 27 28  1  0  0  0
 27 29  1  0  0  0
 27 30  1  0  0  0
 31 32  1  0  0  0
 31 33  1  0  0  0
 31 34  1  0  0  0
 35 36  2  0  0  0
 35 37  2  0  0  0
 35 38  1  0  0  0
 38 39  1  0  0  0
 38 40  1  0  0  0
M  END
>  <ACTIVITY>
7.66

>  <SET>
1

>  <Min_dist>
999.9

>  <Avg_dist>
999.9

$$$$
8-25b
  Cerius2 12110214053D 1   1.00000                          
Structure written by Cerius2 SD Exporter
 43 45  0  0  0  0  0  0  0  0999 V2000
   21.2490   21.1840   16.9370 C   0  0  0  0  0  0
   21.9670   20.3250   17.7670 C   0  0  0  0  0  0
   21.4620   19.5600   18.3530 H   0  0  0  0  0  0
   23.3590   20.4490   17.8520 C   0  0  0  0  0  0
   23.8920   19.7610   18.5080 H   0  0  0  0  0  0
   24.0490   21.4200   17.0990 C   0  0  0  0  0  0
   23.3070   22.2820   16.2790 C   0  0  0  0  0  0
   23.7620   23.0880   15.7150 H   0  0  0  0  0  0
   21.9140   22.1590   16.1920 C   0  0  0  0  0  0
   21.3570   22.8400   15.5500 H   0  0  0  0  0  0
   25.4760   21.5070   17.2240 N   0  0  0  0  0  0
   26.4310   22.1400   16.4250 C   0  0  0  0  0  0
   26.2090   22.7310   15.1060 C   0  0  0  0  0  0
   26.4610   24.0920   14.8880 C   0  0  0  0  0  0
   26.8030   24.7290   15.7030 H   0  0  0  0  0  0
   26.2720   24.6510   13.6210 C   0  0  0  0  0  0
   26.4670   25.7100   13.4670 H   0  0  0  0  0  0
   25.8370   23.8490   12.5680 C   0  0  0  0  0  0
   25.5920   22.4920   12.7700 C   0  0  0  0  0  0
   25.2580   21.8610   11.9490 H   0  0  0  0  0  0
   25.7820   21.9320   14.0360 C   0  0  0  0  0  0
   25.5970   20.8690   14.1790 H   0  0  0  0  0  0
   25.6040   24.5370   11.0070 Cl  0  0  0  0  0  0
   27.6480   22.0080   17.0880 C   0  0  0  0  0  0
   27.3660   21.2330   18.2470 C   0  0  0  0  0  0
   26.0650   20.8980   18.2970 N   0  0  0  0  0  0
   28.3530   20.7920   19.3020 C   0  0  0  0  0  0
   28.8480   21.8460   20.0140 F   0  0  0  0  0  0
   29.4320   20.1520   18.7640 F   0  0  0  0  0  0
   27.8190   19.9310   20.2180 F   0  0  0  0  0  0
   28.9900   22.5230   16.6600 C   0  0  0  0  0  0
   29.6370   22.6400   17.5380 H   0  0  0  0  0  0
   28.8870   23.5250   16.2290 H   0  0  0  0  0  0
   29.6770   21.6090   15.6570 C   0  0  0  0  0  0
   30.6610   22.0090   15.3920 H   0  0  0  0  0  0
   29.0930   21.5140   14.7360 H   0  0  0  0  0  0
   29.8180   20.6040   16.0690 H   0  0  0  0  0  0
   19.4910   21.0250   16.7930 S   0  0  0  0  0  0
   18.9280   22.2780   16.3200 O   0  0  0  0  0  0
   18.9740   20.3930   17.9940 O   0  0  0  0  0  0
   19.3380   19.9220   15.5430 N   0  0  0  0  0  0
   18.8520   20.3360   14.7430 H   0  0  0  0  0  0
   18.8740   19.0670   15.8600 H   0  0  0  0  0  0
  1  2  1  0  0  0
  1  9  2  0  0  0
  1 38  1  0  0  0
  2  3  1  0  0  0
  2  4  2  0  0  0
  4  5  1  0  0  0
  4  6  1  0  0  0
  6  7  2  0  0  0
  6 11  1  0  0  0
  7  8  1  0  0  0
  7  9  1  0  0  0
  9 10  1  0  0  0
 11 12  1  0  0  0
 11 26  1  0  0  0
 12 13  1  0  0  0
 12 24  2  0  0  0
 13 14  1  0  0  0
 13 21  2  0  0  0
 14 15  1  0  0  0
 14 16  2  0  0  0
 16 17  1  0  0  0
 16 18  1  0  0  0
 18 19  2  0  0  0
 18 23  1  0  0  0
 19 20  1  0  0  0
 19 21  1  0  0  0
 21 22  1  0  0  0
 24 25  1  0  0  0
 24 31  1  0  0  0
 25 26  2  0  0  0
 25 27  1  0  0  0
 27 28  1  0  0  0
 27 29  1  0  0  0
 27 30  1  0  0  0
 31 32  1  0  0  0
 31 33  1  0  0  0
 31 34  1  0  0  0
 34 35  1  0  0  0
 34 36  1  0  0  0
 34 37  1  0  0  0
 38 39  2  0  0  0
 38 40  2  0  0  0
 38 41  1  0  0  0
 41 42  1  0  0  0
 41 43  1  0  0  0
M  END
>  <ACTIVITY>
7.55

>  <SET>
2

>  <Min_dist>
0.07

>  <Avg_dist>
0.51

$$$$
8-25d
  Cerius2 12110214053D 1   1.00000                          
Structure written by Cerius2 SD Exporter
 41 43  0  0  0  0  0  0  0  0999 V2000
   21.2540   21.1850   16.9400 C   0  0  0  0  0  0
   21.9700   20.3230   17.7690 C   0  0  0  0  0  0
   21.4630   19.5590   18.3550 H   0  0  0  0  0  0
   23.3620   20.4420   17.8530 C   0  0  0  0  0  0
   23.8950   19.7530   18.5070 H   0  0  0  0  0  0
   24.0520   21.4110   17.0970 C   0  0  0  0  0  0
   23.3140   22.2770   16.2800 C   0  0  0  0  0  0
   23.7730   23.0850   15.7210 H   0  0  0  0  0  0
   21.9200   22.1590   16.1940 C   0  0  0  0  0  0
   21.3640   22.8430   15.5550 H   0  0  0  0  0  0
   25.4790   21.4970   17.2200 N   0  0  0  0  0  0
   26.4300   22.1320   16.4130 C   0  0  0  0  0  0
   26.2080   22.7280   15.0970 C   0  0  0  0  0  0
   26.4660   24.0890   14.8850 C   0  0  0  0  0  0
   26.8130   24.7200   15.7020 H   0  0  0  0  0  0
   26.2770   24.6550   13.6220 C   0  0  0  0  0  0
   26.4730   25.7150   13.4670 H   0  0  0  0  0  0
   25.8380   23.8650   12.5610 C   0  0  0  0  0  0
   25.6910   24.3070   11.5770 H   0  0  0  0  0  0
   25.5930   22.5070   12.7580 C   0  0  0  0  0  0
   25.2570   21.8880   11.9280 H   0  0  0  0  0  0
   25.7820   21.9380   14.0200 C   0  0  0  0  0  0
   25.5940   20.8740   14.1520 H   0  0  0  0  0  0
   27.6210   22.0180   17.1070 C   0  0  0  0  0  0
   27.3570   21.2910   18.2810 C   0  0  0  0  0  0
   26.0690   20.9030   18.3090 N   0  0  0  0  0  0
   28.3460   20.9480   19.3540 C   0  0  0  0  0  0
   28.8520   22.0570   19.9700 F   0  0  0  0  0  0
   29.4210   20.2570   18.8690 F   0  0  0  0  0  0
   27.8180   20.1730   20.3490 F   0  0  0  0  0  0
   28.8020   22.5570   16.7290 O   0  0  0  0  0  0
   29.4630   21.7480   15.7520 C   0  0  0  0  0  0
   30.4590   22.1700   15.5880 H   0  0  0  0  0  0
   28.9280   21.7610   14.7980 H   0  0  0  0  0  0
   29.5830   20.7180   16.1070 H   0  0  0  0  0  0
   19.4940   21.0330   16.7980 S   0  0  0  0  0  0
   18.9370   22.2890   16.3270 O   0  0  0  0  0  0
   18.9780   20.4010   17.9990 O   0  0  0  0  0  0
   19.3350   19.9330   15.5460 N   0  0  0  0  0  0
   18.8500   20.3500   14.7470 H   0  0  0  0  0  0
   18.8670   19.0790   15.8620 H   0  0  0  0  0  0
  1  2  1  0  0  0
  1  9  2  0  0  0
  1 36  1  0  0  0
  2  3  1  0  0  0
  2  4  2  0  0  0
  4  5  1  0  0  0
  4  6  1  0  0  0
  6  7  2  0  0  0
  6 11  1  0  0  0
  7  8  1  0  0  0
  7  9  1  0  0  0
  9 10  1  0  0  0
 11 12  1  0  0  0
 11 26  1  0  0  0
 12 13  1  0  0  0
 12 24  2  0  0  0
 13 14  1  0  0  0
 13 22  2  0  0  0
 14 15  1  0  0  0
 14 16  2  0  0  0
 16 17  1  0  0  0
 16 18  1  0  0  0
 18 19  1  0  0  0
 18 20  2  0  0  0
 20 21  1  0  0  0
 20 22  1  0  0  0
 22 23  1  0  0  0
 24 25  1  0  0  0
 24 31  1  0  0  0
 25 26  2  0  0  0
 25 27  1  0  0  0
 27 28  1  0  0  0
 27 29  1  0  0  0
 27 30  1  0  0  0
 31 32  1  0  0  0
 32 33  1  0  0  0
 32 34  1  0  0  0
 32 35  1  0  0  0
 36 37  2  0  0  0
 36 38  2  0  0  0
 36 39  1  0  0  0
 39 40  1  0  0  0
 39 41  1  0  0  0
M  END
>  <ACTIVITY>
7.1

>  <SET>
2

>  <Min_dist>
0.11

>  <Avg_dist>
0.55

$$$$
8-26
  Cerius2 12110214053D 1   1.00000                          
Structure written by Cerius2 SD Exporter
 38 40  0  0  0  0  0  0  0  0999 V2000
   21.2550   21.1870   16.9390 C   0  0  0  0  0  0
   21.9700   20.3240   17.7680 C   0  0  0  0  0  0
   21.4620   19.5610   18.3540 H   0  0  0  0  0  0
   23.3620   20.4410   17.8520 C   0  0  0  0  0  0
   23.8940   19.7510   18.5060 H   0  0  0  0  0  0
   24.0530   21.4090   17.0960 C   0  0  0  0  0  0
   23.3170   22.2770   16.2790 C   0  0  0  0  0  0
   23.7770   23.0840   15.7200 H   0  0  0  0  0  0
   21.9230   22.1610   16.1940 C   0  0  0  0  0  0
   21.3670   22.8460   15.5550 H   0  0  0  0  0  0
   25.4800   21.4940   17.2190 N   0  0  0  0  0  0
   26.4280   22.1430   16.4220 C   0  0  0  0  0  0
   26.2120   22.7290   15.0990 C   0  0  0  0  0  0
   26.4670   24.0890   14.8770 C   0  0  0  0  0  0
   26.8180   24.7240   15.6890 H   0  0  0  0  0  0
   26.2700   24.6480   13.6120 C   0  0  0  0  0  0
   26.4650   25.7070   13.4500 H   0  0  0  0  0  0
   25.8260   23.8510   12.5580 C   0  0  0  0  0  0
   25.6720   24.2880   11.5730 H   0  0  0  0  0  0
   25.5840   22.4940   12.7650 C   0  0  0  0  0  0
   25.2440   21.8700   11.9400 H   0  0  0  0  0  0
   25.7810   21.9330   14.0290 C   0  0  0  0  0  0
   25.5940   20.8690   14.1690 H   0  0  0  0  0  0
   27.6170   22.0380   17.1180 C   0  0  0  0  0  0
   27.3660   21.2570   18.2630 C   0  0  0  0  0  0
   26.0740   20.8770   18.2910 N   0  0  0  0  0  0
   28.3440   20.8370   19.3210 C   0  0  0  0  0  0
   29.6020   21.3190   19.0830 F   0  0  0  0  0  0
   28.4680   19.4810   19.4160 F   0  0  0  0  0  0
   27.9960   21.2810   20.5640 F   0  0  0  0  0  0
   28.7700   22.5780   16.6770 O   0  0  0  0  0  0
   29.5150   22.3930   17.2870 H   0  0  0  0  0  0
   19.4950   21.0410   16.7980 S   0  0  0  0  0  0
   18.9400   22.2970   16.3270 O   0  0  0  0  0  0
   18.9780   20.4090   17.9990 O   0  0  0  0  0  0
   19.3320   19.9410   15.5440 N   0  0  0  0  0  0
   18.8470   20.3610   14.7470 H   0  0  0  0  0  0
   18.8610   19.0890   15.8600 H   0  0  0  0  0  0
  1  2  1  0  0  0
  1  9  2  0  0  0
  1 33  1  0  0  0
  2  3  1  0  0  0
  2  4  2  0  0  0
  4  5  1  0  0  0
  4  6  1  0  0  0
  6  7  2  0  0  0
  6 11  1  0  0  0
  7  8  1  0  0  0
  7  9  1  0  0  0
  9 10  1  0  0  0
 11 12  1  0  0  0
 11 26  1  0  0  0
 12 13  1  0  0  0
 12 24  2  0  0  0
 13 14  1  0  0  0
 13 22  2  0  0  0
 14 15  1  0  0  0
 14 16  2  0  0  0
 16 17  1  0  0  0
 16 18  1  0  0  0
 18 19  1  0  0  0
 18 20  2  0  0  0
 20 21  1  0  0  0
 20 22  1  0  0  0
 22 23  1  0  0  0
 24 25  1  0  0  0
 24 31  1  0  0  0
 25 26  2  0  0  0
 25 27  1  0  0  0
 27 28  1  0  0  0
 27 29  1  0  0  0
 27 30  1  0  0  0
 31 32  1  0  0  0
 33 34  2  0  0  0
 33 35  2  0  0  0
 33 36  1  0  0  0
 36 37  1  0  0  0
 36 38  1  0  0  0
M  END
>  <ACTIVITY>
5.45

>  <SET>
1

>  <Min_dist>
999.9

>  <Avg_dist>
999.9

$$$$
8-28a
  Cerius2 12110214053D 1   1.00000                          
Structure written by Cerius2 SD Exporter
 37 39  0  0  0  0  0  0  0  0999 V2000
   25.7640   23.8100   12.6160 C   0  0  0  0  0  0
   25.5190   22.4600   12.8230 C   0  0  0  0  0  0
   25.1720   21.8390   12.0020 H   0  0  0  0  0  0
   25.7240   21.9090   14.0910 C   0  0  0  0  0  0
   25.5310   20.8460   14.2260 H   0  0  0  0  0  0
   26.1880   22.7080   15.1550 C   0  0  0  0  0  0
   26.4070   24.0740   14.9270 C   0  0  0  0  0  0
   26.7000   24.7570   15.7170 H   0  0  0  0  0  0
   26.2000   24.6210   13.6550 C   0  0  0  0  0  0
   26.3700   25.6800   13.4800 H   0  0  0  0  0  0
   26.3840   22.1060   16.4400 N   0  0  0  0  0  0
   25.4920   21.4310   17.2760 C   0  0  0  0  0  0
   24.0360   21.3670   17.1590 C   0  0  0  0  0  0
   23.3610   22.2390   16.2930 C   0  0  0  0  0  0
   23.9110   22.9850   15.7200 H   0  0  0  0  0  0
   21.9720   22.1690   16.1580 C   0  0  0  0  0  0
   21.4610   22.8570   15.4880 H   0  0  0  0  0  0
   21.2520   21.2190   16.8890 C   0  0  0  0  0  0
   21.9140   20.3300   17.7390 C   0  0  0  0  0  0
   21.3640   19.5790   18.3020 H   0  0  0  0  0  0
   23.3040   20.4030   17.8680 C   0  0  0  0  0  0
   23.8100   19.6990   18.5280 H   0  0  0  0  0  0
   19.4940   21.1200   16.6890 S   0  0  0  0  0  0
   19.0120   22.3220   16.0320 O   0  0  0  0  0  0
   18.9020   20.6730   17.9370 O   0  0  0  0  0  0
   19.3370   19.8690   15.5860 N   0  0  0  0  0  0
   18.9030   20.1950   14.7190 H   0  0  0  0  0  0
   18.8200   19.0840   15.9890 H   0  0  0  0  0  0
   26.2620   20.8940   18.2910 C   0  0  0  0  0  0
   25.9070   20.2890   19.1170 H   0  0  0  0  0  0
   27.5770   21.3600   18.0860 C   0  0  0  0  0  0
   27.6380   22.1430   16.9930 N   0  0  0  0  0  0
   28.7700   21.0850   18.9620 C   0  0  0  0  0  0
   28.5370   20.1040   19.8830 F   0  0  0  0  0  0
   29.1590   22.1870   19.6700 F   0  0  0  0  0  0
   29.8640   20.6830   18.2490 F   0  0  0  0  0  0
   25.5670   24.3400   11.4010 F   0  0  0  0  0  0
  1  2  1  0  0  0
  1  9  2  0  0  0
  1 37  1  0  0  0
  2  3  1  0  0  0
  2  4  2  0  0  0
  4  5  1  0  0  0
  4  6  1  0  0  0
  6  7  2  0  0  0
  6 11  1  0  0  0
  7  8  1  0  0  0
  7  9  1  0  0  0
  9 10  1  0  0  0
 11 12  1  0  0  0
 11 32  1  0  0  0
 12 13  1  0  0  0
 12 29  2  0  0  0
 13 14  1  0  0  0
 13 21  2  0  0  0
 14 15  1  0  0  0
 14 16  2  0  0  0
 16 17  1  0  0  0
 16 18  1  0  0  0
 18 19  2  0  0  0
 18 23  1  0  0  0
 19 20  1  0  0  0
 19 21  1  0  0  0
 21 22  1  0  0  0
 23 24  2  0  0  0
 23 25  2  0  0  0
 23 26  1  0  0  0
 26 27  1  0  0  0
 26 28  1  0  0  0
 29 30  1  0  0  0
 29 31  1  0  0  0
 31 32  2  0  0  0
 31 33  1  0  0  0
 33 34  1  0  0  0
 33 35  1  0  0  0
 33 36  1  0  0  0
M  END
>  <ACTIVITY>
8

>  <SET>
1

>  <Min_dist>
999.9

>  <Avg_dist>
999.9

$$$$
8-29
  Cerius2 12110214053D 1   1.00000                          
Structure written by Cerius2 SD Exporter
 40 42  0  0  0  0  0  0  0  0999 V2000
   21.2560   21.1740   16.9300 C   0  0  0  0  0  0
   21.9680   20.3170   17.7690 C   0  0  0  0  0  0
   21.4590   19.5560   18.3560 H   0  0  0  0  0  0
   23.3590   20.4360   17.8570 C   0  0  0  0  0  0
   23.8920   19.7490   18.5140 H   0  0  0  0  0  0
   24.0500   21.4010   17.1000 C   0  0  0  0  0  0
   23.3160   22.2720   16.2840 C   0  0  0  0  0  0
   23.7810   23.0810   15.7290 H   0  0  0  0  0  0
   21.9230   22.1570   16.1950 C   0  0  0  0  0  0
   21.3670   22.8410   15.5560 H   0  0  0  0  0  0
   25.4750   21.4870   17.2190 N   0  0  0  0  0  0
   26.4140   22.1480   16.4250 C   0  0  0  0  0  0
   26.2070   22.7290   15.1000 C   0  0  0  0  0  0
   26.4640   24.0900   14.8800 C   0  0  0  0  0  0
   26.7960   24.7300   15.6960 H   0  0  0  0  0  0
   26.2870   24.6460   13.6110 C   0  0  0  0  0  0
   26.4790   25.7010   13.4400 H   0  0  0  0  0  0
   25.8640   23.8380   12.5620 C   0  0  0  0  0  0
   25.6190   22.4840   12.7560 C   0  0  0  0  0  0
   25.2950   21.8670   11.9240 H   0  0  0  0  0  0
   25.7970   21.9270   14.0240 C   0  0  0  0  0  0
   25.6120   20.8630   14.1640 H   0  0  0  0  0  0
   25.6940   24.3720   11.3450 F   0  0  0  0  0  0
   27.6100   22.0700   17.1170 C   0  0  0  0  0  0
   28.5590   22.4920   16.8110 H   0  0  0  0  0  0
   27.3660   21.2670   18.2500 C   0  0  0  0  0  0
   26.0820   20.8620   18.2770 N   0  0  0  0  0  0
   28.3740   20.8550   19.2900 C   0  0  0  0  0  0
   29.5760   21.4880   19.1430 F   0  0  0  0  0  0
   28.6420   19.5160   19.2530 F   0  0  0  0  0  0
   27.9560   21.1280   20.5620 F   0  0  0  0  0  0
   19.4910   21.0520   16.8080 S   0  0  0  0  0  0
   18.9690   22.3450   16.3980 O   0  0  0  0  0  0
   18.9720   20.3950   17.9950 O   0  0  0  0  0  0
   19.3010   19.9710   15.5170 N   0  0  0  0  0  0
   19.8030   19.0990   15.7220 H   0  0  0  0  0  0
   17.9070   19.7060   15.1210 C   0  0  0  0  0  0
   17.9100   19.0450   14.2490 H   0  0  0  0  0  0
   17.3980   20.6330   14.8460 H   0  0  0  0  0  0
   17.3680   19.2010   15.9270 H   0  0  0  0  0  0
  1  2  1  0  0  0
  1  9  2  0  0  0
  1 32  1  0  0  0
  2  3  1  0  0  0
  2  4  2  0  0  0
  4  5  1  0  0  0
  4  6  1  0  0  0
  6  7  2  0  0  0
  6 11  1  0  0  0
  7  8  1  0  0  0
  7  9  1  0  0  0
  9 10  1  0  0  0
 11 12  1  0  0  0
 11 27  1  0  0  0
 12 13  1  0  0  0
 12 24  2  0  0  0
 13 14  1  0  0  0
 13 21  2  0  0  0
 14 15  1  0  0  0
 14 16  2  0  0  0
 16 17  1  0  0  0
 16 18  1  0  0  0
 18 19  2  0  0  0
 18 23  1  0  0  0
 19 20  1  0  0  0
 19 21  1  0  0  0
 21 22  1  0  0  0
 24 25  1  0  0  0
 24 26  1  0  0  0
 26 27  2  0  0  0
 26 28  1  0  0  0
 28 29  1  0  0  0
 28 30  1  0  0  0
 28 31  1  0  0  0
 32 33  2  0  0  0
 32 34  2  0  0  0
 32 35  1  0  0  0
 35 36  1  0  0  0
 35 37  1  0  0  0
 37 38  1  0  0  0
 37 39  1  0  0  0
 37 40  1  0  0  0
M  END
>  <ACTIVITY>
4

>  <SET>
3

>  <Min_dist>
0.15

>  <Avg_dist>
0.54

$$$$
8-2a
  Cerius2 12110214053D 1   1.00000                          
Structure written by Cerius2 SD Exporter
 37 39  0  0  0  0  0  0  0  0999 V2000
   21.2470   21.1930   16.9440 C   0  0  0  0  0  0
   21.9630   20.3260   17.7710 C   0  0  0  0  0  0
   21.4500   19.5660   18.3570 H   0  0  0  0  0  0
   23.3550   20.4390   17.8530 C   0  0  0  0  0  0
   23.8880   19.7480   18.5060 H   0  0  0  0  0  0
   24.0450   21.4050   17.0960 C   0  0  0  0  0  0
   23.3090   22.2750   16.2800 C   0  0  0  0  0  0
   23.7740   23.0810   15.7210 H   0  0  0  0  0  0
   21.9150   22.1650   16.1970 C   0  0  0  0  0  0
   21.3640   22.8520   15.5590 H   0  0  0  0  0  0
   25.4710   21.4890   17.2160 N   0  0  0  0  0  0
   26.4150   22.1450   16.4220 C   0  0  0  0  0  0
   26.2130   22.7300   15.0980 C   0  0  0  0  0  0
   26.4710   24.0900   14.8830 C   0  0  0  0  0  0
   26.8000   24.7270   15.7020 H   0  0  0  0  0  0
   26.3010   24.6500   13.6130 C   0  0  0  0  0  0
   26.4980   25.7090   13.4630 H   0  0  0  0  0  0
   25.8830   23.8480   12.5530 C   0  0  0  0  0  0
   25.6380   22.4910   12.7500 C   0  0  0  0  0  0
   25.3180   21.8600   11.9240 H   0  0  0  0  0  0
   25.8090   21.9310   14.0190 C   0  0  0  0  0  0
   25.6240   20.8670   14.1550 H   0  0  0  0  0  0
   25.6730   24.5380   10.9890 Cl  0  0  0  0  0  0
   27.6100   22.0600   17.1140 C   0  0  0  0  0  0
   28.5620   22.4750   16.8040 H   0  0  0  0  0  0
   27.3580   21.2630   18.2460 C   0  0  0  0  0  0
   26.0750   20.8690   18.2790 N   0  0  0  0  0  0
   28.3520   20.8460   19.2910 C   0  0  0  0  0  0
   29.3440   21.2690   19.1090 H   0  0  0  0  0  0
   28.4710   19.4830   19.3480 F   0  0  0  0  0  0
   27.9470   21.2260   20.5420 F   0  0  0  0  0  0
   19.4870   21.0290   16.8210 S   0  0  0  0  0  0
   18.9240   22.2860   16.3610 O   0  0  0  0  0  0
   18.9770   20.3890   18.0210 O   0  0  0  0  0  0
   19.3240   19.9240   15.5730 N   0  0  0  0  0  0
   18.8270   20.3350   14.7780 H   0  0  0  0  0  0
   18.8670   19.0670   15.8960 H   0  0  0  0  0  0
  1  2  1  0  0  0
  1  9  2  0  0  0
  1 32  1  0  0  0
  2  3  1  0  0  0
  2  4  2  0  0  0
  4  5  1  0  0  0
  4  6  1  0  0  0
  6  7  2  0  0  0
  6 11  1  0  0  0
  7  8  1  0  0  0
  7  9  1  0  0  0
  9 10  1  0  0  0
 11 12  1  0  0  0
 11 27  1  0  0  0
 12 13  1  0  0  0
 12 24  2  0  0  0
 13 14  1  0  0  0
 13 21  2  0  0  0
 14 15  1  0  0  0
 14 16  2  0  0  0
 16 17  1  0  0  0
 16 18  1  0  0  0
 18 19  2  0  0  0
 18 23  1  0  0  0
 19 20  1  0  0  0
 19 21  1  0  0  0
 21 22  1  0  0  0
 24 25  1  0  0  0
 24 26  1  0  0  0
 26 27  2  0  0  0
 26 28  1  0  0  0
 28 29  1  0  0  0
 28 30  1  0  0  0
 28 31  1  0  0  0
 32 33  2  0  0  0
 32 34  2  0  0  0
 32 35  1  0  0  0
 35 36  1  0  0  0
 35 37  1  0  0  0
M  END
>  <ACTIVITY>
8

>  <SET>
1

>  <Min_dist>
999.9

>  <Avg_dist>
999.9

$$$$
8-2c
  Cerius2 12110214053D 1   1.00000                          
Structure written by Cerius2 SD Exporter
 38 40  0  0  0  0  0  0  0  0999 V2000
   21.2480   21.1940   16.9410 C   0  0  0  0  0  0
   21.9630   20.3280   17.7700 C   0  0  0  0  0  0
   21.4480   19.5690   18.3540 H   0  0  0  0  0  0
   23.3550   20.4410   17.8540 C   0  0  0  0  0  0
   23.8870   19.7510   18.5080 H   0  0  0  0  0  0
   24.0460   21.4060   17.0970 C   0  0  0  0  0  0
   23.3110   22.2770   16.2810 C   0  0  0  0  0  0
   23.7770   23.0820   15.7220 H   0  0  0  0  0  0
   21.9170   22.1670   16.1960 C   0  0  0  0  0  0
   21.3670   22.8550   15.5560 H   0  0  0  0  0  0
   25.4710   21.4900   17.2160 N   0  0  0  0  0  0
   26.4150   22.1450   16.4230 C   0  0  0  0  0  0
   26.2120   22.7290   15.0990 C   0  0  0  0  0  0
   26.4700   24.0890   14.8820 C   0  0  0  0  0  0
   26.7990   24.7270   15.7010 H   0  0  0  0  0  0
   26.2980   24.6490   13.6120 C   0  0  0  0  0  0
   26.4970   25.7100   13.4680 H   0  0  0  0  0  0
   25.8770   23.8520   12.5420 C   0  0  0  0  0  0
   25.6340   22.4910   12.7510 C   0  0  0  0  0  0
   25.3130   21.8540   11.9280 H   0  0  0  0  0  0
   25.8060   21.9310   14.0210 C   0  0  0  0  0  0
   25.6220   20.8670   14.1570 H   0  0  0  0  0  0
   25.7020   24.4270   11.2390 C   0  0  0  0  0  0
   25.5590   24.8930   10.1820 N   0  0  0  0  0  0
   27.6110   22.0590   17.1140 C   0  0  0  0  0  0
   28.5640   22.4710   16.8070 H   0  0  0  0  0  0
   27.3580   21.2590   18.2440 C   0  0  0  0  0  0
   26.0760   20.8670   18.2790 N   0  0  0  0  0  0
   28.3540   20.8370   19.2820 C   0  0  0  0  0  0
   27.9000   20.2410   20.0790 H   0  0  0  0  0  0
   28.9630   21.9230   19.8510 F   0  0  0  0  0  0
   29.3680   20.1060   18.7230 F   0  0  0  0  0  0
   19.4890   21.0260   16.8200 S   0  0  0  0  0  0
   18.9270   22.2850   16.3640 O   0  0  0  0  0  0
   18.9800   20.3810   18.0170 O   0  0  0  0  0  0
   19.3230   19.9220   15.5700 N   0  0  0  0  0  0
   18.8200   20.3330   14.7790 H   0  0  0  0  0  0
   18.8700   19.0640   15.8950 H   0  0  0  0  0  0
  1  2  1  0  0  0
  1  9  2  0  0  0
  1 33  1  0  0  0
  2  3  1  0  0  0
  2  4  2  0  0  0
  4  5  1  0  0  0
  4  6  1  0  0  0
  6  7  2  0  0  0
  6 11  1  0  0  0
  7  8  1  0  0  0
  7  9  1  0  0  0
  9 10  1  0  0  0
 11 12  1  0  0  0
 11 28  1  0  0  0
 12 13  1  0  0  0
 12 25  2  0  0  0
 13 14  1  0  0  0
 13 21  2  0  0  0
 14 15  1  0  0  0
 14 16  2  0  0  0
 16 17  1  0  0  0
 16 18  1  0  0  0
 18 19  2  0  0  0
 18 23  1  0  0  0
 19 20  1  0  0  0
 19 21  1  0  0  0
 21 22  1  0  0  0
 23 24  3  0  0  0
 25 26  1  0  0  0
 25 27  1  0  0  0
 27 28  2  0  0  0
 27 29  1  0  0  0
 29 30  1  0  0  0
 29 31  1  0  0  0
 29 32  1  0  0  0
 33 34  2  0  0  0
 33 35  2  0  0  0
 33 36  1  0  0  0
 36 37  1  0  0  0
 36 38  1  0  0  0
M  END
>  <ACTIVITY>
4.53

>  <SET>
2

>  <Min_dist>
0.09

>  <Avg_dist>
0.53

$$$$
8-2d
  Cerius2 12110214053D 1   1.00000                          
Structure written by Cerius2 SD Exporter
 43 45  0  0  0  0  0  0  0  0999 V2000
   21.2480   21.1920   16.9460 C   0  0  0  0  0  0
   21.9640   20.3250   17.7730 C   0  0  0  0  0  0
   21.4530   19.5640   18.3590 H   0  0  0  0  0  0
   23.3560   20.4390   17.8550 C   0  0  0  0  0  0
   23.8890   19.7480   18.5080 H   0  0  0  0  0  0
   24.0460   21.4050   17.0980 C   0  0  0  0  0  0
   23.3100   22.2750   16.2820 C   0  0  0  0  0  0
   23.7750   23.0810   15.7240 H   0  0  0  0  0  0
   21.9160   22.1640   16.1990 C   0  0  0  0  0  0
   21.3640   22.8510   15.5610 H   0  0  0  0  0  0
   25.4710   21.4900   17.2160 N   0  0  0  0  0  0
   26.4150   22.1450   16.4220 C   0  0  0  0  0  0
   26.2110   22.7290   15.0980 C   0  0  0  0  0  0
   26.4710   24.0900   14.8820 C   0  0  0  0  0  0
   26.8030   24.7260   15.7000 H   0  0  0  0  0  0
   26.2980   24.6510   13.6130 C   0  0  0  0  0  0
   26.4990   25.7100   13.4660 H   0  0  0  0  0  0
   25.8670   23.8460   12.5550 C   0  0  0  0  0  0
   25.6300   22.4840   12.7500 C   0  0  0  0  0  0
   25.3110   21.8470   11.9280 H   0  0  0  0  0  0
   25.8050   21.9280   14.0210 C   0  0  0  0  0  0
   25.6230   20.8630   14.1600 H   0  0  0  0  0  0
   25.6660   24.5550   10.9360 S   0  0  0  0  0  0
   25.3690   25.9750   11.1000 O   0  0  0  0  0  0
   24.7150   23.7280   10.2000 O   0  0  0  0  0  0
   27.2700   24.3840   10.2010 C   0  0  0  0  0  0
   27.2280   24.8020    9.1930 H   0  0  0  0  0  0
   27.5280   23.3240   10.1520 H   0  0  0  0  0  0
   27.9970   24.9330   10.8010 H   0  0  0  0  0  0
   27.6110   22.0600   17.1130 C   0  0  0  0  0  0
   28.5640   22.4740   16.8060 H   0  0  0  0  0  0
   27.3590   21.2610   18.2440 C   0  0  0  0  0  0
   26.0770   20.8680   18.2790 N   0  0  0  0  0  0
   28.3550   20.8440   19.2830 C   0  0  0  0  0  0
   27.9060   20.2340   20.0720 H   0  0  0  0  0  0
   28.9450   21.9330   19.8650 F   0  0  0  0  0  0
   29.3830   20.1340   18.7230 F   0  0  0  0  0  0
   19.4880   21.0320   16.8140 S   0  0  0  0  0  0
   18.9270   22.2870   16.3470 O   0  0  0  0  0  0
   18.9730   20.3970   18.0140 O   0  0  0  0  0  0
   19.3310   19.9260   15.5650 N   0  0  0  0  0  0
   18.8380   20.3380   14.7680 H   0  0  0  0  0  0
   18.8710   19.0700   15.8870 H   0  0  0  0  0  0
  1  2  1  0  0  0
  1  9  2  0  0  0
  1 38  1  0  0  0
  2  3  1  0  0  0
  2  4  2  0  0  0
  4  5  1  0  0  0
  4  6  1  0  0  0
  6  7  2  0  0  0
  6 11  1  0  0  0
  7  8  1  0  0  0
  7  9  1  0  0  0
  9 10  1  0  0  0
 11 12  1  0  0  0
 11 33  1  0  0  0
 12 13  1  0  0  0
 12 30  2  0  0  0
 13 14  1  0  0  0
 13 21  2  0  0  0
 14 15  1  0  0  0
 14 16  2  0  0  0
 16 17  1  0  0  0
 16 18  1  0  0  0
 18 19  2  0  0  0
 18 23  1  0  0  0
 19 20  1  0  0  0
 19 21  1  0  0  0
 21 22  1  0  0  0
 23 24  2  0  0  0
 23 25  2  0  0  0
 23 26  1  0  0  0
 26 27  1  0  0  0
 26 28  1  0  0  0
 26 29  1  0  0  0
 30 31  1  0  0  0
 30 32  1  0  0  0
 32 33  2  0  0  0
 32 34  1  0  0  0
 34 35  1  0  0  0
 34 36  1  0  0  0
 34 37  1  0  0  0
 38 39  2  0  0  0
 38 40  2  0  0  0
 38 41  1  0  0  0
 41 42  1  0  0  0
 41 43  1  0  0  0
M  END
>  <ACTIVITY>
4

>  <SET>
3

>  <Min_dist>
0.08

>  <Avg_dist>
0.48

$$$$
8-2e
  Cerius2 12110214053D 1   1.00000                          
Structure written by Cerius2 SD Exporter
 41 43  0  0  0  0  0  0  0  0999 V2000
   21.2480   21.1850   16.9480 C   0  0  0  0  0  0
   21.9650   20.3200   17.7750 C   0  0  0  0  0  0
   21.4570   19.5580   18.3610 H   0  0  0  0  0  0
   23.3570   20.4360   17.8560 C   0  0  0  0  0  0
   23.8910   19.7460   18.5080 H   0  0  0  0  0  0
   24.0460   21.4030   17.0990 C   0  0  0  0  0  0
   23.3090   22.2730   16.2840 C   0  0  0  0  0  0
   23.7710   23.0800   15.7250 H   0  0  0  0  0  0
   21.9150   22.1590   16.2010 C   0  0  0  0  0  0
   21.3580   22.8440   15.5640 H   0  0  0  0  0  0
   25.4710   21.4900   17.2170 N   0  0  0  0  0  0
   26.4150   22.1440   16.4220 C   0  0  0  0  0  0
   26.2120   22.7280   15.0980 C   0  0  0  0  0  0
   26.4670   24.0880   14.8810 C   0  0  0  0  0  0
   26.7900   24.7270   15.7030 H   0  0  0  0  0  0
   26.2970   24.6520   13.6110 C   0  0  0  0  0  0
   26.4760   25.7170   13.4920 H   0  0  0  0  0  0
   25.8850   23.8550   12.5350 C   0  0  0  0  0  0
   25.6350   22.4940   12.7510 C   0  0  0  0  0  0
   25.3130   21.8550   11.9300 H   0  0  0  0  0  0
   25.8060   21.9320   14.0210 C   0  0  0  0  0  0
   25.6190   20.8680   14.1560 H   0  0  0  0  0  0
   25.6820   24.4050   11.1630 C   0  0  0  0  0  0
   25.3230   23.6880   10.2320 O   0  0  0  0  0  0
   25.9290   25.7320   10.9660 N   0  0  0  0  0  0
   25.8060   26.1400   10.0450 H   0  0  0  0  0  0
   26.2890   26.3580   11.6760 H   0  0  0  0  0  0
   27.6110   22.0600   17.1110 C   0  0  0  0  0  0
   28.5640   22.4720   16.8030 H   0  0  0  0  0  0
   27.3590   21.2630   18.2450 C   0  0  0  0  0  0
   26.0770   20.8710   18.2810 N   0  0  0  0  0  0
   28.3560   20.8460   19.2840 C   0  0  0  0  0  0
   27.9050   20.2450   20.0780 H   0  0  0  0  0  0
   28.9540   21.9360   19.8570 F   0  0  0  0  0  0
   29.3780   20.1270   18.7250 F   0  0  0  0  0  0
   19.4880   21.0380   16.8110 S   0  0  0  0  0  0
   18.9320   22.2960   16.3420 O   0  0  0  0  0  0
   18.9730   20.4070   18.0120 O   0  0  0  0  0  0
   19.3220   19.9390   15.5580 N   0  0  0  0  0  0
   18.8360   20.3590   14.7610 H   0  0  0  0  0  0
   18.8520   19.0870   15.8740 H   0  0  0  0  0  0
  1  2  1  0  0  0
  1  9  2  0  0  0
  1 36  1  0  0  0
  2  3  1  0  0  0
  2  4  2  0  0  0
  4  5  1  0  0  0
  4  6  1  0  0  0
  6  7  2  0  0  0
  6 11  1  0  0  0
  7  8  1  0  0  0
  7  9  1  0  0  0
  9 10  1  0  0  0
 11 12  1  0  0  0
 11 31  1  0  0  0
 12 13  1  0  0  0
 12 28  2  0  0  0
 13 14  1  0  0  0
 13 21  2  0  0  0
 14 15  1  0  0  0
 14 16  2  0  0  0
 16 17  1  0  0  0
 16 18  1  0  0  0
 18 19  2  0  0  0
 18 23  1  0  0  0
 19 20  1  0  0  0
 19 21  1  0  0  0
 21 22  1  0  0  0
 23 24  2  0  0  0
 23 25  1  0  0  0
 25 26  1  0  0  0
 25 27  1  0  0  0
 28 29  1  0  0  0
 28 30  1  0  0  0
 30 31  2  0  0  0
 30 32  1  0  0  0
 32 33  1  0  0  0
 32 34  1  0  0  0
 32 35  1  0  0  0
 36 37  2  0  0  0
 36 38  2  0  0  0
 36 39  1  0  0  0
 39 40  1  0  0  0
 39 41  1  0  0  0
M  END
>  <ACTIVITY>
4

>  <SET>
3

>  <Min_dist>
0.08

>  <Avg_dist>
0.54

$$$$
8-2f
  Cerius2 12110214053D 1   1.00000                          
Structure written by Cerius2 SD Exporter
 39 41  0  0  0  0  0  0  0  0999 V2000
   21.2480   21.1840   16.9480 C   0  0  0  0  0  0
   21.9650   20.3200   17.7750 C   0  0  0  0  0  0
   21.4570   19.5570   18.3620 H   0  0  0  0  0  0
   23.3570   20.4360   17.8560 C   0  0  0  0  0  0
   23.8910   19.7460   18.5080 H   0  0  0  0  0  0
   24.0460   21.4040   17.0990 C   0  0  0  0  0  0
   23.3080   22.2730   16.2840 C   0  0  0  0  0  0
   23.7700   23.0800   15.7250 H   0  0  0  0  0  0
   21.9150   22.1580   16.2010 C   0  0  0  0  0  0
   21.3570   22.8430   15.5650 H   0  0  0  0  0  0
   25.4710   21.4900   17.2170 N   0  0  0  0  0  0
   26.4150   22.1450   16.4220 C   0  0  0  0  0  0
   26.2110   22.7300   15.0980 C   0  0  0  0  0  0
   26.4690   24.0890   14.8810 C   0  0  0  0  0  0
   26.7980   24.7270   15.7010 H   0  0  0  0  0  0
   26.2980   24.6510   13.6110 C   0  0  0  0  0  0
   26.4990   25.7110   13.4750 H   0  0  0  0  0  0
   25.8790   23.8540   12.5380 C   0  0  0  0  0  0
   25.6360   22.4910   12.7500 C   0  0  0  0  0  0
   25.3160   21.8530   11.9280 H   0  0  0  0  0  0
   25.8070   21.9320   14.0200 C   0  0  0  0  0  0
   25.6220   20.8670   14.1570 H   0  0  0  0  0  0
   25.6860   24.4050   11.1710 C   0  0  0  0  0  0
   25.3350   23.7690   10.1910 O   0  0  0  0  0  0
   25.9430   25.7260   11.1080 O   0  5  0  0  0  0
   27.6110   22.0590   17.1110 C   0  0  0  0  0  0
   28.5640   22.4710   16.8020 H   0  0  0  0  0  0
   27.3600   21.2620   18.2430 C   0  0  0  0  0  0
   26.0770   20.8710   18.2810 N   0  0  0  0  0  0
   28.3570   20.8430   19.2810 C   0  0  0  0  0  0
   27.9060   20.2420   20.0760 H   0  0  0  0  0  0
   28.9590   21.9310   19.8530 F   0  0  0  0  0  0
   29.3760   20.1200   18.7200 F   0  0  0  0  0  0
   19.4880   21.0390   16.8110 S   0  0  0  0  0  0
   18.9320   22.2960   16.3420 O   0  0  0  0  0  0
   18.9740   20.4060   18.0130 O   0  0  0  0  0  0
   19.3210   19.9400   15.5570 N   0  0  0  0  0  0
   18.8360   20.3620   14.7610 H   0  0  0  0  0  0
   18.8490   19.0890   15.8730 H   0  0  0  0  0  0
  1  2  1  0  0  0
  1  9  2  0  0  0
  1 34  1  0  0  0
  2  3  1  0  0  0
  2  4  2  0  0  0
  4  5  1  0  0  0
  4  6  1  0  0  0
  6  7  2  0  0  0
  6 11  1  0  0  0
  7  8  1  0  0  0
  7  9  1  0  0  0
  9 10  1  0  0  0
 11 12  1  0  0  0
 11 29  1  0  0  0
 12 13  1  0  0  0
 12 26  2  0  0  0
 13 14  1  0  0  0
 13 21  2  0  0  0
 14 15  1  0  0  0
 14 16  2  0  0  0
 16 17  1  0  0  0
 16 18  1  0  0  0
 18 19  2  0  0  0
 18 23  1  0  0  0
 19 20  1  0  0  0
 19 21  1  0  0  0
 21 22  1  0  0  0
 23 24  2  0  0  0
 23 25  1  0  0  0
 26 27  1  0  0  0
 26 28  1  0  0  0
 28 29  2  0  0  0
 28 30  1  0  0  0
 30 31  1  0  0  0
 30 32  1  0  0  0
 30 33  1  0  0  0
 34 35  2  0  0  0
 34 36  2  0  0  0
 34 37  1  0  0  0
 37 38  1  0  0  0
 37 39  1  0  0  0
M  CHG  1  25  -1
M  END
>  <ACTIVITY>
4.33

>  <SET>
2

>  <Min_dist>
0.03

>  <Avg_dist>
0.53

$$$$
8-2g
  Cerius2 12110214053D 1   1.00000                          
Structure written by Cerius2 SD Exporter
 41 43  0  0  0  0  0  0  0  0999 V2000
   21.2480   21.1850   16.9480 C   0  0  0  0  0  0
   21.9640   20.3200   17.7750 C   0  0  0  0  0  0
   21.4570   19.5570   18.3610 H   0  0  0  0  0  0
   23.3570   20.4360   17.8550 C   0  0  0  0  0  0
   23.8910   19.7460   18.5080 H   0  0  0  0  0  0
   24.0460   21.4030   17.0990 C   0  0  0  0  0  0
   23.3080   22.2720   16.2830 C   0  0  0  0  0  0
   23.7710   23.0790   15.7240 H   0  0  0  0  0  0
   21.9150   22.1580   16.2010 C   0  0  0  0  0  0
   21.3580   22.8430   15.5640 H   0  0  0  0  0  0
   25.4710   21.4890   17.2170 N   0  0  0  0  0  0
   26.4150   22.1440   16.4220 C   0  0  0  0  0  0
   26.2120   22.7290   15.0980 C   0  0  0  0  0  0
   26.4690   24.0870   14.8790 C   0  0  0  0  0  0
   26.8000   24.7250   15.6980 H   0  0  0  0  0  0
   26.2980   24.6510   13.6090 C   0  0  0  0  0  0
   26.5040   25.7120   13.4940 H   0  0  0  0  0  0
   25.8780   23.8600   12.5400 C   0  0  0  0  0  0
   25.6370   22.5000   12.7530 C   0  0  0  0  0  0
   25.3140   21.8680   11.9270 H   0  0  0  0  0  0
   25.8070   21.9340   14.0200 C   0  0  0  0  0  0
   25.6210   20.8700   14.1520 H   0  0  0  0  0  0
   25.6720   24.2850   11.2570 O   0  0  0  0  0  0
   25.8980   25.6700   10.9970 C   0  0  0  0  0  0
   25.6840   25.8480    9.9380 H   0  0  0  0  0  0
   26.9450   25.9380   11.1760 H   0  0  0  0  0  0
   25.2200   26.2970   11.5850 H   0  0  0  0  0  0
   27.6110   22.0590   17.1120 C   0  0  0  0  0  0
   28.5640   22.4710   16.8040 H   0  0  0  0  0  0
   27.3590   21.2630   18.2450 C   0  0  0  0  0  0
   26.0760   20.8710   18.2820 N   0  0  0  0  0  0
   28.3550   20.8460   19.2840 C   0  0  0  0  0  0
   27.9040   20.2410   20.0760 H   0  0  0  0  0  0
   28.9500   21.9350   19.8610 F   0  0  0  0  0  0
   29.3790   20.1300   18.7250 F   0  0  0  0  0  0
   19.4880   21.0380   16.8120 S   0  0  0  0  0  0
   18.9310   22.2960   16.3440 O   0  0  0  0  0  0
   18.9730   20.4060   18.0140 O   0  0  0  0  0  0
   19.3210   19.9390   15.5590 N   0  0  0  0  0  0
   18.8350   20.3590   14.7620 H   0  0  0  0  0  0
   18.8520   19.0870   15.8750 H   0  0  0  0  0  0
  1  2  1  0  0  0
  1  9  2  0  0  0
  1 36  1  0  0  0
  2  3  1  0  0  0
  2  4  2  0  0  0
  4  5  1  0  0  0
  4  6  1  0  0  0
  6  7  2  0  0  0
  6 11  1  0  0  0
  7  8  1  0  0  0
  7  9  1  0  0  0
  9 10  1  0  0  0
 11 12  1  0  0  0
 11 31  1  0  0  0
 12 13  1  0  0  0
 12 28  2  0  0  0
 13 14  1  0  0  0
 13 21  2  0  0  0
 14 15  1  0  0  0
 14 16  2  0  0  0
 16 17  1  0  0  0
 16 18  1  0  0  0
 18 19  2  0  0  0
 18 23  1  0  0  0
 19 20  1  0  0  0
 19 21  1  0  0  0
 21 22  1  0  0  0
 23 24  1  0  0  0
 24 25  1  0  0  0
 24 26  1  0  0  0
 24 27  1  0  0  0
 28 29  1  0  0  0
 28 30  1  0  0  0
 30 31  2  0  0  0
 30 32  1  0  0  0
 32 33  1  0  0  0
 32 34  1  0  0  0
 32 35  1  0  0  0
 36 37  2  0  0  0
 36 38  2  0  0  0
 36 39  1  0  0  0
 39 40  1  0  0  0
 39 41  1  0  0  0
M  END
>  <ACTIVITY>
7.82

>  <SET>
1

>  <Min_dist>
999.9

>  <Avg_dist>
999.9

$$$$
8-2h
  Cerius2 12110214053D 1   1.00000                          
Structure written by Cerius2 SD Exporter
 41 43  0  0  0  0  0  0  0  0999 V2000
   21.2480   21.1850   16.9490 C   0  0  0  0  0  0
   21.9650   20.3200   17.7760 C   0  0  0  0  0  0
   21.4570   19.5580   18.3630 H   0  0  0  0  0  0
   23.3570   20.4360   17.8560 C   0  0  0  0  0  0
   23.8910   19.7460   18.5080 H   0  0  0  0  0  0
   24.0460   21.4030   17.0990 C   0  0  0  0  0  0
   23.3080   22.2730   16.2840 C   0  0  0  0  0  0
   23.7710   23.0800   15.7260 H   0  0  0  0  0  0
   21.9150   22.1590   16.2020 C   0  0  0  0  0  0
   21.3580   22.8440   15.5660 H   0  0  0  0  0  0
   25.4710   21.4890   17.2160 N   0  0  0  0  0  0
   26.4130   22.1470   16.4230 C   0  0  0  0  0  0
   26.2110   22.7320   15.0990 C   0  0  0  0  0  0
   26.4680   24.0900   14.8810 C   0  0  0  0  0  0
   26.7950   24.7340   15.6930 H   0  0  0  0  0  0
   26.2990   24.6430   13.6100 C   0  0  0  0  0  0
   25.8820   23.8590   12.5310 C   0  0  0  0  0  0
   25.6420   22.5000   12.7480 C   0  0  0  0  0  0
   25.3240   21.8640   11.9240 H   0  0  0  0  0  0
   25.8100   21.9370   14.0190 C   0  0  0  0  0  0
   25.6250   20.8720   14.1510 H   0  0  0  0  0  0
   25.6760   24.2660   11.2400 O   0  0  0  0  0  0
   25.8900   25.6440   10.9490 C   0  0  0  0  0  0
   25.6730   25.7960    9.8870 H   0  0  0  0  0  0
   26.9350   25.9240   11.1170 H   0  0  0  0  0  0
   25.2060   26.2790   11.5210 H   0  0  0  0  0  0
   26.5530   25.9520   13.4680 F   0  0  0  0  0  0
   27.6100   22.0620   17.1130 C   0  0  0  0  0  0
   28.5620   22.4760   16.8070 H   0  0  0  0  0  0
   27.3590   21.2610   18.2430 C   0  0  0  0  0  0
   26.0770   20.8670   18.2780 N   0  0  0  0  0  0
   28.3550   20.8420   19.2820 C   0  0  0  0  0  0
   27.9050   20.2340   20.0710 H   0  0  0  0  0  0
   28.9480   21.9310   19.8620 F   0  0  0  0  0  0
   29.3810   20.1300   18.7200 F   0  0  0  0  0  0
   19.4880   21.0390   16.8120 S   0  0  0  0  0  0
   18.9320   22.2960   16.3430 O   0  0  0  0  0  0
   18.9740   20.4070   18.0140 O   0  0  0  0  0  0
   19.3210   19.9400   15.5590 N   0  0  0  0  0  0
   18.8360   20.3610   14.7620 H   0  0  0  0  0  0
   18.8500   19.0880   15.8750 H   0  0  0  0  0  0
  1  2  1  0  0  0
  1  9  2  0  0  0
  1 36  1  0  0  0
  2  3  1  0  0  0
  2  4  2  0  0  0
  4  5  1  0  0  0
  4  6  1  0  0  0
  6  7  2  0  0  0
  6 11  1  0  0  0
  7  8  1  0  0  0
  7  9  1  0  0  0
  9 10  1  0  0  0
 11 12  1  0  0  0
 11 31  1  0  0  0
 12 13  1  0  0  0
 12 28  2  0  0  0
 13 14  1  0  0  0
 13 20  2  0  0  0
 14 15  1  0  0  0
 14 16  2  0  0  0
 16 17  1  0  0  0
 16 27  1  0  0  0
 17 18  2  0  0  0
 17 22  1  0  0  0
 18 19  1  0  0  0
 18 20  1  0  0  0
 20 21  1  0  0  0
 22 23  1  0  0  0
 23 24  1  0  0  0
 23 25  1  0  0  0
 23 26  1  0  0  0
 28 29  1  0  0  0
 28 30  1  0  0  0
 30 31  2  0  0  0
 30 32  1  0  0  0
 32 33  1  0  0  0
 32 34  1  0  0  0
 32 35  1  0  0  0
 36 37  2  0  0  0
 36 38  2  0  0  0
 36 39  1  0  0  0
 39 40  1  0  0  0
 39 41  1  0  0  0
M  END
>  <ACTIVITY>
7.3

>  <SET>
1

>  <Min_dist>
999.9

>  <Avg_dist>
999.9

$$$$
8-2l
  Cerius2 12110214053D 1   1.00000                          
Structure written by Cerius2 SD Exporter
 43 45  0  0  0  0  0  0  0  0999 V2000
   21.2370   21.1850   16.9420 C   0  0  0  0  0  0
   21.9600   20.3280   17.7700 C   0  0  0  0  0  0
   21.4550   19.5650   18.3590 H   0  0  0  0  0  0
   23.3520   20.4520   17.8500 C   0  0  0  0  0  0
   23.8850   19.7640   18.5070 H   0  0  0  0  0  0
   24.0390   21.4240   17.0970 C   0  0  0  0  0  0
   23.2930   22.2830   16.2790 C   0  0  0  0  0  0
   23.7420   23.0830   15.7020 H   0  0  0  0  0  0
   21.8980   22.1600   16.1950 C   0  0  0  0  0  0
   21.3420   22.8390   15.5510 H   0  0  0  0  0  0
   25.4680   21.5110   17.2210 N   0  0  0  0  0  0
   26.4270   22.1410   16.4230 C   0  0  0  0  0  0
   26.2310   22.7600   15.1110 C   0  0  0  0  0  0
   26.4790   24.1290   14.8860 C   0  0  0  0  0  0
   26.2920   24.6510   13.5950 C   0  0  0  0  0  0
   26.4750   25.7070   13.3970 H   0  0  0  0  0  0
   25.8580   23.8360   12.5470 C   0  0  0  0  0  0
   25.7100   24.2750   11.5600 H   0  0  0  0  0  0
   25.6300   22.4740   12.7570 C   0  0  0  0  0  0
   25.8130   21.9480   14.0420 C   0  0  0  0  0  0
   25.6310   20.8870   14.2130 H   0  0  0  0  0  0
   25.1360   21.5970   11.6440 C   0  0  0  0  0  0
   25.5090   20.5760   11.7640 H   0  0  0  0  0  0
   25.4910   21.9580   10.6730 H   0  0  0  0  0  0
   24.0420   21.5780   11.6370 H   0  0  0  0  0  0
   26.9450   25.0450   15.9840 C   0  0  0  0  0  0
   27.9700   24.7980   16.2760 H   0  0  0  0  0  0
   26.2870   24.9680   16.8550 H   0  0  0  0  0  0
   26.9310   26.0920   15.6640 H   0  0  0  0  0  0
   27.6340   21.9740   17.0770 C   0  0  0  0  0  0
   28.6010   22.3320   16.7440 H   0  0  0  0  0  0
   27.3650   21.1980   18.2190 C   0  0  0  0  0  0
   26.0600   20.9020   18.2990 N   0  0  0  0  0  0
   28.3500   20.7070   19.2390 C   0  0  0  0  0  0
   27.8640   20.1060   20.0130 H   0  0  0  0  0  0
   29.0080   21.7410   19.8480 F   0  0  0  0  0  0
   29.3340   19.9550   18.6550 F   0  0  0  0  0  0
   19.4800   20.9980   16.8180 S   0  0  0  0  0  0
   18.9020   22.2470   16.3540 O   0  0  0  0  0  0
   18.9770   20.3560   18.0200 O   0  0  0  0  0  0
   19.3340   19.8860   15.5730 N   0  0  0  0  0  0
   18.8280   20.2860   14.7780 H   0  0  0  0  0  0
   18.8900   19.0240   15.9000 H   0  0  0  0  0  0
  1  2  1  0  0  0
  1  9  2  0  0  0
  1 38  1  0  0  0
  2  3  1  0  0  0
  2  4  2  0  0  0
  4  5  1  0  0  0
  4  6  1  0  0  0
  6  7  2  0  0  0
  6 11  1  0  0  0
  7  8  1  0  0  0
  7  9  1  0  0  0
  9 10  1  0  0  0
 11 12  1  0  0  0
 11 33  1  0  0  0
 12 13  1  0  0  0
 12 30  2  0  0  0
 13 14  1  0  0  0
 13 20  2  0  0  0
 14 15  2  0  0  0
 14 26  1  0  0  0
 15 16  1  0  0  0
 15 17  1  0  0  0
 17 18  1  0  0  0
 17 19  2  0  0  0
 19 20  1  0  0  0
 19 22  1  0  0  0
 20 21  1  0  0  0
 22 23  1  0  0  0
 22 24  1  0  0  0
 22 25  1  0  0  0
 26 27  1  0  0  0
 26 28  1  0  0  0
 26 29  1  0  0  0
 30 31  1  0  0  0
 30 32  1  0  0  0
 32 33  2  0  0  0
 32 34  1  0  0  0
 34 35  1  0  0  0
 34 36  1  0  0  0
 34 37  1  0  0  0
 38 39  2  0  0  0
 38 40  2  0  0  0
 38 41  1  0  0  0
 41 42  1  0  0  0
 41 43  1  0  0  0
M  END
>  <ACTIVITY>
4

>  <SET>
3

>  <Min_dist>
0.06

>  <Avg_dist>
0.51

$$$$
8-2m
  Cerius2 12110214053D 1   1.00000                          
Structure written by Cerius2 SD Exporter
 37 39  0  0  0  0  0  0  0  0999 V2000
   21.2560   21.1770   16.9270 C   0  0  0  0  0  0
   21.9660   20.3140   17.7630 C   0  0  0  0  0  0
   21.4530   19.5570   18.3510 H   0  0  0  0  0  0
   23.3590   20.4200   17.8430 C   0  0  0  0  0  0
   23.8920   19.7290   18.4950 H   0  0  0  0  0  0
   24.0510   21.3800   17.0820 C   0  0  0  0  0  0
   23.3200   22.2610   16.2730 C   0  0  0  0  0  0
   23.7940   23.0710   15.7250 H   0  0  0  0  0  0
   21.9260   22.1580   16.1920 C   0  0  0  0  0  0
   21.3740   22.8520   15.5610 H   0  0  0  0  0  0
   25.4740   21.4650   17.1980 N   0  0  0  0  0  0
   26.4050   22.1710   16.4450 C   0  0  0  0  0  0
   26.2230   22.7670   15.1570 C   0  0  0  0  0  0
   26.4780   24.0950   14.9270 O   0  0  0  0  0  0
   26.2420   24.3480   13.6110 C   0  0  0  0  0  0
   25.8570   23.1930   12.9710 C   0  0  0  0  0  0
   25.6140   23.0910   11.9210 H   0  0  0  0  0  0
   25.8580   22.1770   13.9580 C   0  0  0  0  0  0
   25.6210   21.1310   13.8090 H   0  0  0  0  0  0
   26.4470   25.7400   13.1610 C   0  0  0  0  0  0
   26.2150   25.8470   12.0970 H   0  0  0  0  0  0
   27.4870   26.0430   13.3170 H   0  0  0  0  0  0
   25.8000   26.4210   13.7210 H   0  0  0  0  0  0
   27.5830   22.1380   17.1650 C   0  0  0  0  0  0
   28.5160   22.6160   16.8960 H   0  0  0  0  0  0
   27.3480   21.2710   18.2520 C   0  0  0  0  0  0
   26.0880   20.8030   18.2310 N   0  0  0  0  0  0
   28.3410   20.8540   19.2980 C   0  0  0  0  0  0
   29.3060   21.3530   19.1740 H   0  0  0  0  0  0
   28.5500   19.5010   19.2720 F   0  0  0  0  0  0
   27.8780   21.1240   20.5580 F   0  0  0  0  0  0
   19.4880   21.0770   16.8450 S   0  0  0  0  0  0
   18.9560   22.3670   16.4430 O   0  0  0  0  0  0
   18.9870   20.4130   18.0360 O   0  0  0  0  0  0
   19.2560   20.0230   15.5650 N   0  0  0  0  0  0
   18.7530   20.4780   14.7990 H   0  0  0  0  0  0
   18.7800   19.1700   15.8700 H   0  0  0  0  0  0
  1  2  1  0  0  0
  1  9  2  0  0  0
  1 32  1  0  0  0
  2  3  1  0  0  0
  2  4  2  0  0  0
  4  5  1  0  0  0
  4  6  1  0  0  0
  6  7  2  0  0  0
  6 11  1  0  0  0
  7  8  1  0  0  0
  7  9  1  0  0  0
  9 10  1  0  0  0
 11 12  1  0  0  0
 11 27  1  0  0  0
 12 13  1  0  0  0
 12 24  2  0  0  0
 13 14  1  0  0  0
 13 18  2  0  0  0
 14 15  1  0  0  0
 15 16  2  0  0  0
 15 20  1  0  0  0
 16 17  1  0  0  0
 16 18  1  0  0  0
 18 19  1  0  0  0
 20 21  1  0  0  0
 20 22  1  0  0  0
 20 23  1  0  0  0
 24 25  1  0  0  0
 24 26  1  0  0  0
 26 27  2  0  0  0
 26 28  1  0  0  0
 28 29  1  0  0  0
 28 30  1  0  0  0
 28 31  1  0  0  0
 32 33  2  0  0  0
 32 34  2  0  0  0
 32 35  1  0  0  0
 35 36  1  0  0  0
 35 37  1  0  0  0
M  END
>  <ACTIVITY>
5.48

>  <SET>
1

>  <Min_dist>
999.9

>  <Avg_dist>
999.9

$$$$
8-2n
  Cerius2 12110214053D 1   1.00000                          
Structure written by Cerius2 SD Exporter
 40 43  0  0  0  0  0  0  0  0999 V2000
   21.2620   21.1760   16.9060 C   0  0  0  0  0  0
   21.9720   20.3200   17.7480 C   0  0  0  0  0  0
   21.4590   19.5590   18.3320 H   0  0  0  0  0  0
   23.3630   20.4370   17.8410 C   0  0  0  0  0  0
   23.8930   19.7490   18.4990 H   0  0  0  0  0  0
   24.0580   21.4040   17.0880 C   0  0  0  0  0  0
   23.3260   22.2740   16.2690 C   0  0  0  0  0  0
   23.7930   23.0840   15.7180 H   0  0  0  0  0  0
   21.9330   22.1600   16.1760 C   0  0  0  0  0  0
   21.3830   22.8470   15.5360 H   0  0  0  0  0  0
   25.4820   21.4910   17.2170 N   0  0  0  0  0  0
   26.4290   22.1490   16.4290 C   0  0  0  0  0  0
   26.2320   22.7360   15.1050 C   0  0  0  0  0  0
   25.7590   21.9330   14.0430 C   0  0  0  0  0  0
   25.5640   20.8730   14.2030 H   0  0  0  0  0  0
   25.5400   22.4760   12.7720 C   0  0  0  0  0  0
   25.1820   21.8570   11.9550 H   0  0  0  0  0  0
   25.7910   23.8190   12.5980 C   0  0  0  0  0  0
   26.2380   24.6110   13.6290 C   0  0  0  0  0  0
   26.4640   24.1050   14.8930 C   0  0  0  0  0  0
   26.8080   24.7540   15.6920 H   0  0  0  0  0  0
   26.4160   25.9050   13.2500 O   0  0  0  0  0  0
   26.0330   25.8410   11.8560 C   0  0  0  0  0  0
   25.1960   26.5290   11.6900 H   0  0  0  0  0  0
   26.8840   26.1600   11.2430 H   0  0  0  0  0  0
   25.6330   24.5140   11.4400 O   0  0  0  0  0  0
   27.6210   22.0630   17.1250 C   0  0  0  0  0  0
   28.5740   22.4790   16.8210 H   0  0  0  0  0  0
   27.3650   21.2610   18.2540 C   0  0  0  0  0  0
   26.0820   20.8670   18.2800 N   0  0  0  0  0  0
   28.3550   20.8390   19.2990 C   0  0  0  0  0  0
   29.3480   21.2620   19.1230 H   0  0  0  0  0  0
   28.4740   19.4760   19.3500 F   0  0  0  0  0  0
   27.9470   21.2130   20.5510 F   0  0  0  0  0  0
   19.4970   21.0630   16.8060 S   0  0  0  0  0  0
   18.9610   22.3480   16.3920 O   0  0  0  0  0  0
   18.9880   20.4020   17.9940 O   0  0  0  0  0  0
   19.2860   20.0010   15.5280 N   0  0  0  0  0  0
   18.7870   20.4490   14.7540 H   0  0  0  0  0  0
   18.8120   19.1470   15.8330 H   0  0  0  0  0  0
  1  2  1  0  0  0
  1  9  2  0  0  0
  1 35  1  0  0  0
  2  3  1  0  0  0
  2  4  2  0  0  0
  4  5  1  0  0  0
  4  6  1  0  0  0
  6  7  2  0  0  0
  6 11  1  0  0  0
  7  8  1  0  0  0
  7  9  1  0  0  0
  9 10  1  0  0  0
 11 12  1  0  0  0
 11 30  1  0  0  0
 12 13  1  0  0  0
 12 27  2  0  0  0
 13 14  1  0  0  0
 13 20  2  0  0  0
 14 15  1  0  0  0
 14 16  2  0  0  0
 16 17  1  0  0  0
 16 18  1  0  0  0
 18 19  2  0  0  0
 18 26  1  0  0  0
 19 20  1  0  0  0
 19 22  1  0  0  0
 20 21  1  0  0  0
 22 23  1  0  0  0
 23 24  1  0  0  0
 23 25  1  0  0  0
 23 26  1  0  0  0
 27 28  1  0  0  0
 27 29  1  0  0  0
 29 30  2  0  0  0
 29 31  1  0  0  0
 31 32  1  0  0  0
 31 33  1  0  0  0
 31 34  1  0  0  0
 35 36  2  0  0  0
 35 37  2  0  0  0
 35 38  1  0  0  0
 38 39  1  0  0  0
 38 40  1  0  0  0
M  END
>  <ACTIVITY>
7.62

>  <SET>
2

>  <Min_dist>
0.06

>  <Avg_dist>
0.58

$$$$
8-2o
  Cerius2 12110214053D 1   1.00000                          
Structure written by Cerius2 SD Exporter
 37 39  0  0  0  0  0  0  0  0999 V2000
   21.2470   21.1930   16.9430 C   0  0  0  0  0  0
   21.9620   20.3260   17.7700 C   0  0  0  0  0  0
   21.4490   19.5660   18.3560 H   0  0  0  0  0  0
   23.3540   20.4400   17.8530 C   0  0  0  0  0  0
   23.8870   19.7500   18.5070 H   0  0  0  0  0  0
   24.0450   21.4060   17.0960 C   0  0  0  0  0  0
   23.3090   22.2760   16.2810 C   0  0  0  0  0  0
   23.7730   23.0810   15.7200 H   0  0  0  0  0  0
   21.9140   22.1650   16.1970 C   0  0  0  0  0  0
   21.3640   22.8520   15.5570 H   0  0  0  0  0  0
   25.4710   21.4910   17.2160 N   0  0  0  0  0  0
   26.4160   22.1430   16.4220 C   0  0  0  0  0  0
   26.2140   22.7290   15.0980 C   0  0  0  0  0  0
   26.4730   24.0890   14.8820 C   0  0  0  0  0  0
   26.8030   24.7260   15.7020 H   0  0  0  0  0  0
   26.3000   24.6490   13.6150 C   0  0  0  0  0  0
   26.4960   25.7090   13.4570 H   0  0  0  0  0  0
   25.8800   23.8530   12.5510 C   0  0  0  0  0  0
   25.7460   24.2900   11.5630 H   0  0  0  0  0  0
   25.6360   22.4950   12.7510 C   0  0  0  0  0  0
   25.3150   21.8710   11.9190 H   0  0  0  0  0  0
   25.8080   21.9330   14.0180 C   0  0  0  0  0  0
   25.6220   20.8690   14.1530 H   0  0  0  0  0  0
   27.6120   22.0570   17.1120 C   0  0  0  0  0  0
   28.5640   22.4700   16.8020 H   0  0  0  0  0  0
   27.3580   21.2620   18.2460 C   0  0  0  0  0  0
   26.0740   20.8720   18.2810 N   0  0  0  0  0  0
   28.3520   20.8440   19.2900 C   0  0  0  0  0  0
   27.9040   20.2020   20.0530 H   0  0  0  0  0  0
   28.9050   21.9300   19.9140 F   0  0  0  0  0  0
   29.4070   20.1720   18.7320 F   0  0  0  0  0  0
   19.4870   21.0260   16.8220 S   0  0  0  0  0  0
   18.9240   22.2840   16.3640 O   0  0  0  0  0  0
   18.9770   20.3840   18.0210 O   0  0  0  0  0  0
   19.3220   19.9220   15.5730 N   0  0  0  0  0  0
   18.8230   20.3330   14.7800 H   0  0  0  0  0  0
   18.8670   19.0650   15.8960 H   0  0  0  0  0  0
  1  2  1  0  0  0
  1  9  2  0  0  0
  1 32  1  0  0  0
  2  3  1  0  0  0
  2  4  2  0  0  0
  4  5  1  0  0  0
  4  6  1  0  0  0
  6  7  2  0  0  0
  6 11  1  0  0  0
  7  8  1  0  0  0
  7  9  1  0  0  0
  9 10  1  0  0  0
 11 12  1  0  0  0
 11 27  1  0  0  0
 12 13  1  0  0  0
 12 24  2  0  0  0
 13 14  1  0  0  0
 13 22  2  0  0  0
 14 15  1  0  0  0
 14 16  2  0  0  0
 16 17  1  0  0  0
 16 18  1  0  0  0
 18 19  1  0  0  0
 18 20  2  0  0  0
 20 21  1  0  0  0
 20 22  1  0  0  0
 22 23  1  0  0  0
 24 25  1  0  0  0
 24 26  1  0  0  0
 26 27  2  0  0  0
 26 28  1  0  0  0
 28 29  1  0  0  0
 28 30  1  0  0  0
 28 31  1  0  0  0
 32 33  2  0  0  0
 32 34  2  0  0  0
 32 35  1  0  0  0
 35 36  1  0  0  0
 35 37  1  0  0  0
M  END
>  <ACTIVITY>
6.89

>  <SET>
1

>  <Min_dist>
999.9

>  <Avg_dist>
999.9

$$$$
8-30
  Cerius2 12110214053D 1   1.00000                          
Structure written by Cerius2 SD Exporter
 43 45  0  0  0  0  0  0  0  0999 V2000
   21.2590   21.1780   16.9310 C   0  0  0  0  0  0
   21.9680   20.3210   17.7720 C   0  0  0  0  0  0
   21.4590   19.5590   18.3580 H   0  0  0  0  0  0
   23.3590   20.4390   17.8620 C   0  0  0  0  0  0
   23.8920   19.7530   18.5190 H   0  0  0  0  0  0
   24.0510   21.4040   17.1040 C   0  0  0  0  0  0
   23.3180   22.2750   16.2870 C   0  0  0  0  0  0
   23.7850   23.0830   15.7330 H   0  0  0  0  0  0
   21.9260   22.1610   16.1970 C   0  0  0  0  0  0
   21.3710   22.8450   15.5570 H   0  0  0  0  0  0
   25.4760   21.4880   17.2210 N   0  0  0  0  0  0
   26.4150   22.1470   16.4260 C   0  0  0  0  0  0
   26.2050   22.7290   15.1010 C   0  0  0  0  0  0
   26.4620   24.0900   14.8800 C   0  0  0  0  0  0
   26.7960   24.7300   15.6960 H   0  0  0  0  0  0
   26.2820   24.6450   13.6110 C   0  0  0  0  0  0
   26.4740   25.7010   13.4400 H   0  0  0  0  0  0
   25.8570   23.8380   12.5630 C   0  0  0  0  0  0
   25.6120   22.4840   12.7580 C   0  0  0  0  0  0
   25.2870   21.8660   11.9250 H   0  0  0  0  0  0
   25.7920   21.9260   14.0260 C   0  0  0  0  0  0
   25.6080   20.8620   14.1650 H   0  0  0  0  0  0
   25.6850   24.3720   11.3470 F   0  0  0  0  0  0
   27.6110   22.0660   17.1140 C   0  0  0  0  0  0
   28.5620   22.4840   16.8050 H   0  0  0  0  0  0
   27.3690   21.2620   18.2470 C   0  0  0  0  0  0
   26.0840   20.8610   18.2770 N   0  0  0  0  0  0
   28.3800   20.8450   19.2810 C   0  0  0  0  0  0
   29.5650   21.5150   19.1640 F   0  0  0  0  0  0
   28.6850   19.5150   19.2030 F   0  0  0  0  0  0
   27.9460   21.0640   20.5580 F   0  0  0  0  0  0
   19.4940   21.0490   16.7970 S   0  0  0  0  0  0
   18.9890   22.3520   16.3940 O   0  0  0  0  0  0
   18.9650   20.4080   17.9890 O   0  0  0  0  0  0
   19.2690   19.9640   15.4860 N   0  0  0  0  0  0
   17.8610   19.8920   15.0130 C   0  0  0  0  0  0
   17.8030   19.2700   14.1130 H   0  0  0  0  0  0
   17.4990   20.8870   14.7400 H   0  0  0  0  0  0
   17.2120   19.4610   15.7810 H   0  0  0  0  0  0
   19.8270   18.6010   15.6950 C   0  0  0  0  0  0
   19.7070   18.0090   14.7820 H   0  0  0  0  0  0
   19.3110   18.0870   16.5120 H   0  0  0  0  0  0
   20.8980   18.6450   15.9060 H   0  0  0  0  0  0
  1  2  1  0  0  0
  1  9  2  0  0  0
  1 32  1  0  0  0
  2  3  1  0  0  0
  2  4  2  0  0  0
  4  5  1  0  0  0
  4  6  1  0  0  0
  6  7  2  0  0  0
  6 11  1  0  0  0
  7  8  1  0  0  0
  7  9  1  0  0  0
  9 10  1  0  0  0
 11 12  1  0  0  0
 11 27  1  0  0  0
 12 13  1  0  0  0
 12 24  2  0  0  0
 13 14  1  0  0  0
 13 21  2  0  0  0
 14 15  1  0  0  0
 14 16  2  0  0  0
 16 17  1  0  0  0
 16 18  1  0  0  0
 18 19  2  0  0  0
 18 23  1  0  0  0
 19 20  1  0  0  0
 19 21  1  0  0  0
 21 22  1  0  0  0
 24 25  1  0  0  0
 24 26  1  0  0  0
 26 27  2  0  0  0
 26 28  1  0  0  0
 28 29  1  0  0  0
 28 30  1  0  0  0
 28 31  1  0  0  0
 32 33  2  0  0  0
 32 34  2  0  0  0
 32 35  1  0  0  0
 35 36  1  0  0  0
 35 40  1  0  0  0
 36 37  1  0  0  0
 36 38  1  0  0  0
 36 39  1  0  0  0
 40 41  1  0  0  0
 40 42  1  0  0  0
 40 43  1  0  0  0
M  END
>  <ACTIVITY>
4

>  <SET>
3

>  <Min_dist>
0.15

>  <Avg_dist>
0.54

$$$$
8-31
  Cerius2 12110214053D 1   1.00000                          
Structure written by Cerius2 SD Exporter
 40 42  0  0  0  0  0  0  0  0999 V2000
   21.2060   21.1310   16.9000 C   0  0  0  0  0  0
   21.9320   20.3040   17.7530 C   0  0  0  0  0  0
   21.4450   19.5500   18.3650 H   0  0  0  0  0  0
   23.3260   20.4280   17.8470 C   0  0  0  0  0  0
   23.8550   19.7480   18.5130 H   0  0  0  0  0  0
   24.0170   21.3930   17.0950 C   0  0  0  0  0  0
   23.2770   22.2580   16.2840 C   0  0  0  0  0  0
   23.7320   23.0760   15.7350 H   0  0  0  0  0  0
   21.8830   22.1290   16.1950 C   0  0  0  0  0  0
   21.3360   22.8270   15.5630 H   0  0  0  0  0  0
   25.4410   21.4870   17.2200 N   0  0  0  0  0  0
   26.3850   22.1420   16.4260 C   0  0  0  0  0  0
   26.1840   22.7270   15.1020 C   0  0  0  0  0  0
   26.4420   24.0880   14.8860 C   0  0  0  0  0  0
   26.7700   24.7270   15.7050 H   0  0  0  0  0  0
   26.2740   24.6460   13.6160 C   0  0  0  0  0  0
   26.4660   25.7020   13.4480 H   0  0  0  0  0  0
   25.8590   23.8400   12.5630 C   0  0  0  0  0  0
   25.6140   22.4850   12.7530 C   0  0  0  0  0  0
   25.2970   21.8690   11.9170 H   0  0  0  0  0  0
   25.7810   21.9260   14.0220 C   0  0  0  0  0  0
   25.5960   20.8610   14.1590 H   0  0  0  0  0  0
   25.6980   24.3760   11.3450 F   0  0  0  0  0  0
   27.5800   22.0610   17.1180 C   0  0  0  0  0  0
   28.5310   22.4750   16.8080 H   0  0  0  0  0  0
   27.3310   21.2660   18.2560 C   0  0  0  0  0  0
   26.0440   20.8740   18.2880 N   0  0  0  0  0  0
   28.3370   20.8550   19.2970 C   0  0  0  0  0  0
   29.5690   21.4090   19.0950 F   0  0  0  0  0  0
   28.5300   19.5020   19.3300 F   0  0  0  0  0  0
   27.9600   21.2180   20.5600 F   0  0  0  0  0  0
   19.7820   21.1090   16.8120 N   0  0  0  0  0  0
   19.2890   21.9770   17.0440 H   0  0  0  0  0  0
   18.9490   20.1920   15.6800 S   0  0  0  0  0  0
   19.8270   19.8280   14.5800 O   0  0  0  0  0  0
   17.7180   20.9180   15.3960 O   0  0  0  0  0  0
   18.5170   18.7420   16.6190 C   0  0  0  0  0  0
   17.9100   18.0980   15.9790 H   0  0  0  0  0  0
   17.9370   19.0470   17.4920 H   0  0  0  0  0  0
   19.4240   18.2160   16.9160 H   0  0  0  0  0  0
  1  2  1  0  0  0
  1  9  2  0  0  0
  1 32  1  0  0  0
  2  3  1  0  0  0
  2  4  2  0  0  0
  4  5  1  0  0  0
  4  6  1  0  0  0
  6  7  2  0  0  0
  6 11  1  0  0  0
  7  8  1  0  0  0
  7  9  1  0  0  0
  9 10  1  0  0  0
 11 12  1  0  0  0
 11 27  1  0  0  0
 12 13  1  0  0  0
 12 24  2  0  0  0
 13 14  1  0  0  0
 13 21  2  0  0  0
 14 15  1  0  0  0
 14 16  2  0  0  0
 16 17  1  0  0  0
 16 18  1  0  0  0
 18 19  2  0  0  0
 18 23  1  0  0  0
 19 20  1  0  0  0
 19 21  1  0  0  0
 21 22  1  0  0  0
 24 25  1  0  0  0
 24 26  1  0  0  0
 26 27  2  0  0  0
 26 28  1  0  0  0
 28 29  1  0  0  0
 28 30  1  0  0  0
 28 31  1  0  0  0
 32 33  1  0  0  0
 32 34  1  0  0  0
 34 35  2  0  0  0
 34 36  2  0  0  0
 34 37  1  0  0  0
 37 38  1  0  0  0
 37 39  1  0  0  0
 37 40  1  0  0  0
M  END
>  <ACTIVITY>
4

>  <SET>
3

>  <Min_dist>
0.29

>  <Avg_dist>
0.61

$$$$
8-32
  Cerius2 12110214053D 1   1.00000                          
Structure written by Cerius2 SD Exporter
 34 36  0  0  0  0  0  0  0  0999 V2000
   21.2170   21.1830   16.9220 C   0  0  0  0  0  0
   21.9310   20.3190   17.7580 C   0  0  0  0  0  0
   21.4280   19.5540   18.3460 H   0  0  0  0  0  0
   23.3240   20.4340   17.8450 C   0  0  0  0  0  0
   23.8540   19.7440   18.5000 H   0  0  0  0  0  0
   24.0180   21.4000   17.0910 C   0  0  0  0  0  0
   23.2850   22.2710   16.2730 C   0  0  0  0  0  0
   23.7520   23.0780   15.7190 H   0  0  0  0  0  0
   21.8900   22.1620   16.1830 C   0  0  0  0  0  0
   21.3520   22.8550   15.5400 H   0  0  0  0  0  0
   25.4420   21.4850   17.2160 N   0  0  0  0  0  0
   26.3880   22.1420   16.4270 C   0  0  0  0  0  0
   26.1900   22.7260   15.1010 C   0  0  0  0  0  0
   26.4480   24.0870   14.8860 C   0  0  0  0  0  0
   26.7770   24.7250   15.7050 H   0  0  0  0  0  0
   26.2780   24.6450   13.6160 C   0  0  0  0  0  0
   26.4710   25.7000   13.4480 H   0  0  0  0  0  0
   25.8620   23.8390   12.5640 C   0  0  0  0  0  0
   25.6170   22.4840   12.7540 C   0  0  0  0  0  0
   25.2990   21.8670   11.9180 H   0  0  0  0  0  0
   25.7860   21.9250   14.0220 C   0  0  0  0  0  0
   25.6020   20.8600   14.1590 H   0  0  0  0  0  0
   25.6990   24.3740   11.3470 F   0  0  0  0  0  0
   27.5800   22.0610   17.1240 C   0  0  0  0  0  0
   28.5330   22.4770   16.8200 H   0  0  0  0  0  0
   27.3280   21.2640   18.2590 C   0  0  0  0  0  0
   26.0430   20.8640   18.2810 N   0  0  0  0  0  0
   28.3300   20.8500   19.3030 C   0  0  0  0  0  0
   29.4840   21.5800   19.2470 F   0  0  0  0  0  0
   28.7010   19.5410   19.1770 F   0  0  0  0  0  0
   27.8540   20.9930   20.5760 F   0  0  0  0  0  0
   19.7560   21.0700   16.8280 N   0  3  0  0  0  0
   19.1850   20.1970   17.5090 O   0  0  0  0  0  0
   19.1500   21.8520   16.0710 O   0  5  0  0  0  0
  1  2  1  0  0  0
  1  9  2  0  0  0
  1 32  1  0  0  0
  2  3  1  0  0  0
  2  4  2  0  0  0
  4  5  1  0  0  0
  4  6  1  0  0  0
  6  7  2  0  0  0
  6 11  1  0  0  0
  7  8  1  0  0  0
  7  9  1  0  0  0
  9 10  1  0  0  0
 11 12  1  0  0  0
 11 27  1  0  0  0
 12 13  1  0  0  0
 12 24  2  0  0  0
 13 14  1  0  0  0
 13 21  2  0  0  0
 14 15  1  0  0  0
 14 16  2  0  0  0
 16 17  1  0  0  0
 16 18  1  0  0  0
 18 19  2  0  0  0
 18 23  1  0  0  0
 19 20  1  0  0  0
 19 21  1  0  0  0
 21 22  1  0  0  0
 24 25  1  0  0  0
 24 26  1  0  0  0
 26 27  2  0  0  0
 26 28  1  0  0  0
 28 29  1  0  0  0
 28 30  1  0  0  0
 28 31  1  0  0  0
 32 33  2  0  0  0
 32 34  1  0  0  0
M  CHG  2  32   1  34  -1
M  END
>  <ACTIVITY>
4

>  <SET>
3

>  <Min_dist>
0.16

>  <Avg_dist>
0.59

$$$$
8-33
  Cerius2 12110214053D 1   1.00000                          
Structure written by Cerius2 SD Exporter
 37 39  0  0  0  0  0  0  0  0999 V2000
   21.2030   21.1650   16.9360 C   0  0  0  0  0  0
   21.9380   20.3120   17.7650 C   0  0  0  0  0  0
   21.4660   19.5380   18.3660 H   0  0  0  0  0  0
   23.3330   20.4320   17.8490 C   0  0  0  0  0  0
   23.8660   19.7440   18.5040 H   0  0  0  0  0  0
   24.0250   21.3970   17.0960 C   0  0  0  0  0  0
   23.2870   22.2620   16.2830 C   0  0  0  0  0  0
   23.7450   23.0710   15.7250 H   0  0  0  0  0  0
   21.8920   22.1420   16.2010 C   0  0  0  0  0  0
   21.3500   22.8350   15.5580 H   0  0  0  0  0  0
   25.4490   21.4870   17.2180 N   0  0  0  0  0  0
   26.3920   22.1450   16.4260 C   0  0  0  0  0  0
   26.1900   22.7280   15.1010 C   0  0  0  0  0  0
   26.4470   24.0900   14.8840 C   0  0  0  0  0  0
   26.7740   24.7290   15.7030 H   0  0  0  0  0  0
   26.2790   24.6450   13.6140 C   0  0  0  0  0  0
   26.4710   25.7010   13.4440 H   0  0  0  0  0  0
   25.8650   23.8380   12.5610 C   0  0  0  0  0  0
   25.6190   22.4830   12.7530 C   0  0  0  0  0  0
   25.3030   21.8660   11.9170 H   0  0  0  0  0  0
   25.7870   21.9260   14.0220 C   0  0  0  0  0  0
   25.6030   20.8610   14.1600 H   0  0  0  0  0  0
   25.7040   24.3720   11.3430 F   0  0  0  0  0  0
   27.5860   22.0640   17.1190 C   0  0  0  0  0  0
   28.5380   22.4800   16.8110 H   0  0  0  0  0  0
   27.3380   21.2630   18.2520 C   0  0  0  0  0  0
   26.0530   20.8660   18.2810 N   0  0  0  0  0  0
   28.3440   20.8460   19.2920 C   0  0  0  0  0  0
   29.5460   21.4820   19.1520 F   0  0  0  0  0  0
   28.6140   19.5080   19.2470 F   0  0  0  0  0  0
   27.9220   21.1100   20.5650 F   0  0  0  0  0  0
   19.7140   21.0860   16.8050 C   0  0  0  0  0  0
   19.1380   21.8830   16.0500 O   0  0  0  0  0  0
   18.9750   20.0270   17.6100 C   0  0  0  0  0  0
   19.3620   18.7500   17.3070 F   0  0  0  0  0  0
   17.6200   20.0550   17.4040 F   0  0  0  0  0  0
   19.1400   20.1620   18.9620 F   0  0  0  0  0  0
  1  2  1  0  0  0
  1  9  2  0  0  0
  1 32  1  0  0  0
  2  3  1  0  0  0
  2  4  2  0  0  0
  4  5  1  0  0  0
  4  6  1  0  0  0
  6  7  2  0  0  0
  6 11  1  0  0  0
  7  8  1  0  0  0
  7  9  1  0  0  0
  9 10  1  0  0  0
 11 12  1  0  0  0
 11 27  1  0  0  0
 12 13  1  0  0  0
 12 24  2  0  0  0
 13 14  1  0  0  0
 13 21  2  0  0  0
 14 15  1  0  0  0
 14 16  2  0  0  0
 16 17  1  0  0  0
 16 18  1  0  0  0
 18 19  2  0  0  0
 18 23  1  0  0  0
 19 20  1  0  0  0
 19 21  1  0  0  0
 21 22  1  0  0  0
 24 25  1  0  0  0
 24 26  1  0  0  0
 26 27  2  0  0  0
 26 28  1  0  0  0
 28 29  1  0  0  0
 28 30  1  0  0  0
 28 31  1  0  0  0
 32 33  2  0  0  0
 32 34  1  0  0  0
 34 35  1  0  0  0
 34 36  1  0  0  0
 34 37  1  0  0  0
M  END
>  <ACTIVITY>
4

>  <SET>
3

>  <Min_dist>
0.24

>  <Avg_dist>
0.6

$$$$
8-34
  Cerius2 12110214053D 1   1.00000                          
Structure written by Cerius2 SD Exporter
 32 34  0  0  0  0  0  0  0  0999 V2000
   21.1770   21.1840   16.9100 C   0  0  0  0  0  0
   20.0940   21.1020   16.8380 H   0  0  0  0  0  0
   21.8890   20.3250   17.7420 C   0  0  0  0  0  0
   21.3630   19.5680   18.3220 H   0  0  0  0  0  0
   23.2790   20.4340   17.8360 C   0  0  0  0  0  0
   23.8050   19.7420   18.4930 H   0  0  0  0  0  0
   23.9770   21.3990   17.0860 C   0  0  0  0  0  0
   23.2460   22.2690   16.2670 C   0  0  0  0  0  0
   23.7130   23.0740   15.7100 H   0  0  0  0  0  0
   21.8540   22.1560   16.1780 C   0  0  0  0  0  0
   21.2960   22.8400   15.5400 H   0  0  0  0  0  0
   25.4010   21.4830   17.2150 N   0  0  0  0  0  0
   26.3530   22.1360   16.4290 C   0  0  0  0  0  0
   26.1630   22.7210   15.1040 C   0  0  0  0  0  0
   26.4210   24.0820   14.8910 C   0  0  0  0  0  0
   26.7410   24.7200   15.7130 H   0  0  0  0  0  0
   26.2630   24.6410   13.6200 C   0  0  0  0  0  0
   26.4590   25.7000   13.4650 H   0  0  0  0  0  0
   25.8560   23.8430   12.5520 C   0  0  0  0  0  0
   25.7330   24.2790   11.5620 H   0  0  0  0  0  0
   25.6130   22.4850   12.7510 C   0  0  0  0  0  0
   25.3020   21.8600   11.9150 H   0  0  0  0  0  0
   25.7700   21.9240   14.0200 C   0  0  0  0  0  0
   25.5850   20.8590   14.1530 H   0  0  0  0  0  0
   27.5430   22.0500   17.1290 C   0  0  0  0  0  0
   28.4980   22.4620   16.8270 H   0  0  0  0  0  0
   27.2840   21.2540   18.2630 C   0  0  0  0  0  0
   25.9970   20.8620   18.2840 N   0  0  0  0  0  0
   28.2820   20.8370   19.3110 C   0  0  0  0  0  0
   29.4780   21.4860   19.1920 F   0  0  0  0  0  0
   28.5670   19.5020   19.2540 F   0  0  0  0  0  0
   27.8430   21.0810   20.5810 F   0  0  0  0  0  0
  1  2  1  0  0  0
  1  3  1  0  0  0
  1 10  2  0  0  0
  3  4  1  0  0  0
  3  5  2  0  0  0
  5  6  1  0  0  0
  5  7  1  0  0  0
  7  8  2  0  0  0
  7 12  1  0  0  0
  8  9  1  0  0  0
  8 10  1  0  0  0
 10 11  1  0  0  0
 12 13  1  0  0  0
 12 28  1  0  0  0
 13 14  1  0  0  0
 13 25  2  0  0  0
 14 15  1  0  0  0
 14 23  2  0  0  0
 15 16  1  0  0  0
 15 17  2  0  0  0
 17 18  1  0  0  0
 17 19  1  0  0  0
 19 20  1  0  0  0
 19 21  2  0  0  0
 21 22  1  0  0  0
 21 23  1  0  0  0
 23 24  1  0  0  0
 25 26  1  0  0  0
 25 27  1  0  0  0
 27 28  2  0  0  0
 27 29  1  0  0  0
 29 30  1  0  0  0
 29 31  1  0  0  0
 29 32  1  0  0  0
M  END
>  <ACTIVITY>
4

>  <SET>
3

>  <Min_dist>
0.06

>  <Avg_dist>
0.59

$$$$
8-35
  Cerius2 12110214053D 1   1.00000                          
Structure written by Cerius2 SD Exporter
 32 34  0  0  0  0  0  0  0  0999 V2000
   21.2450   21.1810   16.9320 C   0  0  0  0  0  0
   21.9580   20.3230   17.7630 C   0  0  0  0  0  0
   21.4450   19.5630   18.3470 H   0  0  0  0  0  0
   23.3500   20.4370   17.8500 C   0  0  0  0  0  0
   23.8810   19.7470   18.5050 H   0  0  0  0  0  0
   24.0420   21.4030   17.0960 C   0  0  0  0  0  0
   23.3050   22.2720   16.2800 C   0  0  0  0  0  0
   23.7670   23.0790   15.7230 H   0  0  0  0  0  0
   21.9120   22.1560   16.1950 C   0  0  0  0  0  0
   21.3580   22.8410   15.5570 H   0  0  0  0  0  0
   25.4660   21.4890   17.2170 N   0  0  0  0  0  0
   26.4100   22.1460   16.4240 C   0  0  0  0  0  0
   26.2080   22.7290   15.1000 C   0  0  0  0  0  0
   26.4660   24.0900   14.8820 C   0  0  0  0  0  0
   26.7950   24.7280   15.7010 H   0  0  0  0  0  0
   26.2950   24.6480   13.6120 C   0  0  0  0  0  0
   26.4910   25.7070   13.4610 H   0  0  0  0  0  0
   25.8760   23.8450   12.5530 C   0  0  0  0  0  0
   25.6320   22.4880   12.7520 C   0  0  0  0  0  0
   25.3120   21.8560   11.9270 H   0  0  0  0  0  0
   25.8030   21.9300   14.0220 C   0  0  0  0  0  0
   25.6180   20.8650   14.1590 H   0  0  0  0  0  0
   25.6650   24.5330   10.9890 Cl  0  0  0  0  0  0
   27.6050   22.0620   17.1160 C   0  0  0  0  0  0
   28.5570   22.4770   16.8080 H   0  0  0  0  0  0
   27.3560   21.2620   18.2500 C   0  0  0  0  0  0
   26.0700   20.8680   18.2790 N   0  0  0  0  0  0
   28.3620   20.8440   19.2890 C   0  0  0  0  0  0
   29.5610   21.4860   19.1560 F   0  0  0  0  0  0
   28.6390   19.5080   19.2360 F   0  0  0  0  0  0
   27.9370   21.0970   20.5630 F   0  0  0  0  0  0
   19.5330   21.0440   16.8240 Cl  0  0  0  0  0  0
  1  2  1  0  0  0
  1  9  2  0  0  0
  1 32  1  0  0  0
  2  3  1  0  0  0
  2  4  2  0  0  0
  4  5  1  0  0  0
  4  6  1  0  0  0
  6  7  2  0  0  0
  6 11  1  0  0  0
  7  8  1  0  0  0
  7  9  1  0  0  0
  9 10  1  0  0  0
 11 12  1  0  0  0
 11 27  1  0  0  0
 12 13  1  0  0  0
 12 24  2  0  0  0
 13 14  1  0  0  0
 13 21  2  0  0  0
 14 15  1  0  0  0
 14 16  2  0  0  0
 16 17  1  0  0  0
 16 18  1  0  0  0
 18 19  2  0  0  0
 18 23  1  0  0  0
 19 20  1  0  0  0
 19 21  1  0  0  0
 21 22  1  0  0  0
 24 25  1  0  0  0
 24 26  1  0  0  0
 26 27  2  0  0  0
 26 28  1  0  0  0
 28 29  1  0  0  0
 28 30  1  0  0  0
 28 31  1  0  0  0
M  END
>  <ACTIVITY>
5.32

>  <SET>
1

>  <Min_dist>
999.9

>  <Avg_dist>
999.9

$$$$
8-36
  Cerius2 12110214053D 1   1.00000                          
Structure written by Cerius2 SD Exporter
 40 42  0  0  0  0  0  0  0  0999 V2000
   21.2010   21.1480   16.9450 C   0  0  0  0  0  0
   21.9320   20.2980   17.7710 C   0  0  0  0  0  0
   21.4560   19.5250   18.3690 H   0  0  0  0  0  0
   23.3260   20.4210   17.8540 C   0  0  0  0  0  0
   23.8610   19.7330   18.5080 H   0  0  0  0  0  0
   24.0130   21.3880   17.1000 C   0  0  0  0  0  0
   23.2710   22.2510   16.2890 C   0  0  0  0  0  0
   23.7240   23.0610   15.7280 H   0  0  0  0  0  0
   21.8780   22.1240   16.2110 C   0  0  0  0  0  0
   21.3190   22.8080   15.5740 H   0  0  0  0  0  0
   25.4380   21.4820   17.2200 N   0  0  0  0  0  0
   26.3780   22.1420   16.4270 C   0  0  0  0  0  0
   26.1740   22.7240   15.1030 C   0  0  0  0  0  0
   26.4300   24.0820   14.8810 C   0  0  0  0  0  0
   26.7590   24.7220   15.6990 H   0  0  0  0  0  0
   26.2590   24.6440   13.6100 C   0  0  0  0  0  0
   26.4650   25.7050   13.4930 H   0  0  0  0  0  0
   25.8410   23.8500   12.5420 C   0  0  0  0  0  0
   25.6000   22.4910   12.7570 C   0  0  0  0  0  0
   25.2800   21.8560   11.9320 H   0  0  0  0  0  0
   25.7700   21.9270   14.0260 C   0  0  0  0  0  0
   25.5850   20.8630   14.1600 H   0  0  0  0  0  0
   25.6370   24.2720   11.2580 O   0  0  0  0  0  0
   25.8640   25.6560   10.9940 C   0  0  0  0  0  0
   25.6540   25.8320    9.9350 H   0  0  0  0  0  0
   26.9100   25.9250   11.1760 H   0  0  0  0  0  0
   25.1840   26.2850   11.5790 H   0  0  0  0  0  0
   27.5730   22.0660   17.1190 C   0  0  0  0  0  0
   28.5230   22.4860   16.8110 H   0  0  0  0  0  0
   27.3280   21.2680   18.2560 C   0  0  0  0  0  0
   26.0440   20.8660   18.2850 N   0  0  0  0  0  0
   28.3360   20.8600   19.2970 C   0  0  0  0  0  0
   29.5390   21.4890   19.1460 F   0  0  0  0  0  0
   28.6010   19.5200   19.2680 F   0  0  0  0  0  0
   27.9190   21.1410   20.5680 F   0  0  0  0  0  0
   19.8450   21.1350   16.7750 O   0  0  0  0  0  0
   19.1170   20.1470   17.5020 C   0  0  0  0  0  0
   18.0580   20.2650   17.2540 H   0  0  0  0  0  0
   19.2250   20.2950   18.5820 H   0  0  0  0  0  0
   19.4190   19.1370   17.2060 H   0  0  0  0  0  0
  1  2  1  0  0  0
  1  9  2  0  0  0
  1 36  1  0  0  0
  2  3  1  0  0  0
  2  4  2  0  0  0
  4  5  1  0  0  0
  4  6  1  0  0  0
  6  7  2  0  0  0
  6 11  1  0  0  0
  7  8  1  0  0  0
  7  9  1  0  0  0
  9 10  1  0  0  0
 11 12  1  0  0  0
 11 31  1  0  0  0
 12 13  1  0  0  0
 12 28  2  0  0  0
 13 14  1  0  0  0
 13 21  2  0  0  0
 14 15  1  0  0  0
 14 16  2  0  0  0
 16 17  1  0  0  0
 16 18  1  0  0  0
 18 19  2  0  0  0
 18 23  1  0  0  0
 19 20  1  0  0  0
 19 21  1  0  0  0
 21 22  1  0  0  0
 23 24  1  0  0  0
 24 25  1  0  0  0
 24 26  1  0  0  0
 24 27  1  0  0  0
 28 29  1  0  0  0
 28 30  1  0  0  0
 30 31  2  0  0  0
 30 32  1  0  0  0
 32 33  1  0  0  0
 32 34  1  0  0  0
 32 35  1  0  0  0
 36 37  1  0  0  0
 37 38  1  0  0  0
 37 39  1  0  0  0
 37 40  1  0  0  0
M  END
>  <ACTIVITY>
6.12

>  <SET>
1

>  <Min_dist>
999.9

>  <Avg_dist>
999.9

$$$$
8-37
  Cerius2 12110214053D 1   1.00000                          
Structure written by Cerius2 SD Exporter
 36 38  0  0  0  0  0  0  0  0999 V2000
   21.2440   21.1810   16.9330 C   0  0  0  0  0  0
   21.9580   20.3230   17.7640 C   0  0  0  0  0  0
   21.4440   19.5630   18.3480 H   0  0  0  0  0  0
   23.3490   20.4380   17.8520 C   0  0  0  0  0  0
   23.8800   19.7480   18.5080 H   0  0  0  0  0  0
   24.0410   21.4040   17.0970 C   0  0  0  0  0  0
   23.3050   22.2730   16.2820 C   0  0  0  0  0  0
   23.7670   23.0800   15.7240 H   0  0  0  0  0  0
   21.9120   22.1560   16.1960 C   0  0  0  0  0  0
   21.3570   22.8410   15.5580 H   0  0  0  0  0  0
   25.4660   21.4900   17.2180 N   0  0  0  0  0  0
   26.4100   22.1460   16.4250 C   0  0  0  0  0  0
   26.2080   22.7290   15.1000 C   0  0  0  0  0  0
   26.4650   24.0870   14.8800 C   0  0  0  0  0  0
   26.7940   24.7260   15.6980 H   0  0  0  0  0  0
   26.2950   24.6490   13.6080 C   0  0  0  0  0  0
   26.5000   25.7100   13.4920 H   0  0  0  0  0  0
   25.8760   23.8550   12.5400 C   0  0  0  0  0  0
   25.6350   22.4960   12.7550 C   0  0  0  0  0  0
   25.3150   21.8620   11.9290 H   0  0  0  0  0  0
   25.8050   21.9320   14.0230 C   0  0  0  0  0  0
   25.6200   20.8680   14.1560 H   0  0  0  0  0  0
   25.6720   24.2780   11.2560 O   0  0  0  0  0  0
   25.9060   25.6610   10.9910 C   0  0  0  0  0  0
   25.6960   25.8370    9.9320 H   0  0  0  0  0  0
   26.9530   25.9240   11.1730 H   0  0  0  0  0  0
   25.2290   26.2930   11.5760 H   0  0  0  0  0  0
   27.6050   22.0610   17.1160 C   0  0  0  0  0  0
   28.5570   22.4740   16.8070 H   0  0  0  0  0  0
   27.3570   21.2600   18.2490 C   0  0  0  0  0  0
   26.0700   20.8660   18.2790 N   0  0  0  0  0  0
   28.3660   20.8380   19.2830 C   0  0  0  0  0  0
   29.5060   21.5910   19.2490 F   0  0  0  0  0  0
   28.7620   19.5410   19.1210 F   0  0  0  0  0  0
   27.8870   20.9360   20.5590 F   0  0  0  0  0  0
   19.5330   21.0430   16.8220 Cl  0  0  0  0  0  0
  1  2  1  0  0  0
  1  9  2  0  0  0
  1 36  1  0  0  0
  2  3  1  0  0  0
  2  4  2  0  0  0
  4  5  1  0  0  0
  4  6  1  0  0  0
  6  7  2  0  0  0
  6 11  1  0  0  0
  7  8  1  0  0  0
  7  9  1  0  0  0
  9 10  1  0  0  0
 11 12  1  0  0  0
 11 31  1  0  0  0
 12 13  1  0  0  0
 12 28  2  0  0  0
 13 14  1  0  0  0
 13 21  2  0  0  0
 14 15  1  0  0  0
 14 16  2  0  0  0
 16 17  1  0  0  0
 16 18  1  0  0  0
 18 19  2  0  0  0
 18 23  1  0  0  0
 19 20  1  0  0  0
 19 21  1  0  0  0
 21 22  1  0  0  0
 23 24  1  0  0  0
 24 25  1  0  0  0
 24 26  1  0  0  0
 24 27  1  0  0  0
 28 29  1  0  0  0
 28 30  1  0  0  0
 30 31  2  0  0  0
 30 32  1  0  0  0
 32 33  1  0  0  0
 32 34  1  0  0  0
 32 35  1  0  0  0
M  END
>  <ACTIVITY>
6.12

>  <SET>
2

>  <Min_dist>
0.07

>  <Avg_dist>
0.56

$$$$
8-38
  Cerius2 12110214053D 1   1.00000                          
Structure written by Cerius2 SD Exporter
 36 38  0  0  0  0  0  0  0  0999 V2000
   21.2020   21.1480   16.9440 C   0  0  0  0  0  0
   21.9320   20.2980   17.7710 C   0  0  0  0  0  0
   21.4560   19.5250   18.3690 H   0  0  0  0  0  0
   23.3260   20.4220   17.8540 C   0  0  0  0  0  0
   23.8610   19.7340   18.5080 H   0  0  0  0  0  0
   24.0140   21.3890   17.1010 C   0  0  0  0  0  0
   23.2710   22.2520   16.2890 C   0  0  0  0  0  0
   23.7250   23.0630   15.7290 H   0  0  0  0  0  0
   21.8780   22.1240   16.2110 C   0  0  0  0  0  0
   21.3190   22.8080   15.5730 H   0  0  0  0  0  0
   25.4380   21.4830   17.2210 N   0  0  0  0  0  0
   26.3780   22.1430   16.4270 C   0  0  0  0  0  0
   26.1730   22.7250   15.1030 C   0  0  0  0  0  0
   26.4300   24.0860   14.8840 C   0  0  0  0  0  0
   26.7590   24.7250   15.7010 H   0  0  0  0  0  0
   26.2580   24.6430   13.6130 C   0  0  0  0  0  0
   26.4550   25.7010   13.4610 H   0  0  0  0  0  0
   25.8400   23.8390   12.5550 C   0  0  0  0  0  0
   25.5960   22.4820   12.7550 C   0  0  0  0  0  0
   25.2760   21.8490   11.9310 H   0  0  0  0  0  0
   25.7680   21.9240   14.0250 C   0  0  0  0  0  0
   25.5840   20.8600   14.1640 H   0  0  0  0  0  0
   25.6280   24.5250   10.9900 Cl  0  0  0  0  0  0
   27.5740   22.0660   17.1180 C   0  0  0  0  0  0
   28.5240   22.4850   16.8100 H   0  0  0  0  0  0
   27.3290   21.2680   18.2550 C   0  0  0  0  0  0
   26.0450   20.8670   18.2840 N   0  0  0  0  0  0
   28.3360   20.8580   19.2950 C   0  0  0  0  0  0
   29.5410   21.4850   19.1440 F   0  0  0  0  0  0
   28.5990   19.5180   19.2660 F   0  0  0  0  0  0
   27.9200   21.1400   20.5660 F   0  0  0  0  0  0
   19.8460   21.1350   16.7730 O   0  0  0  0  0  0
   19.1170   20.1500   17.5050 C   0  0  0  0  0  0
   18.0580   20.2690   17.2580 H   0  0  0  0  0  0
   19.2270   20.3020   18.5840 H   0  0  0  0  0  0
   19.4180   19.1390   17.2120 H   0  0  0  0  0  0
  1  2  1  0  0  0
  1  9  2  0  0  0
  1 32  1  0  0  0
  2  3  1  0  0  0
  2  4  2  0  0  0
  4  5  1  0  0  0
  4  6  1  0  0  0
  6  7  2  0  0  0
  6 11  1  0  0  0
  7  8  1  0  0  0
  7  9  1  0  0  0
  9 10  1  0  0  0
 11 12  1  0  0  0
 11 27  1  0  0  0
 12 13  1  0  0  0
 12 24  2  0  0  0
 13 14  1  0  0  0
 13 21  2  0  0  0
 14 15  1  0  0  0
 14 16  2  0  0  0
 16 17  1  0  0  0
 16 18  1  0  0  0
 18 19  2  0  0  0
 18 23  1  0  0  0
 19 20  1  0  0  0
 19 21  1  0  0  0
 21 22  1  0  0  0
 24 25  1  0  0  0
 24 26  1  0  0  0
 26 27  2  0  0  0
 26 28  1  0  0  0
 28 29  1  0  0  0
 28 30  1  0  0  0
 28 31  1  0  0  0
 32 33  1  0  0  0
 33 34  1  0  0  0
 33 35  1  0  0  0
 33 36  1  0  0  0
M  END
>  <ACTIVITY>
4.13

>  <SET>
2

>  <Min_dist>
0.07

>  <Avg_dist>
0.55

$$$$
8-39
  Cerius2 12110214053D 1   1.00000                          
Structure written by Cerius2 SD Exporter
 38 40  0  0  0  0  0  0  0  0999 V2000
   21.2500   21.1880   16.9450 C   0  0  0  0  0  0
   21.9650   20.3210   17.7710 C   0  0  0  0  0  0
   21.4570   19.5570   18.3560 H   0  0  0  0  0  0
   23.3570   20.4360   17.8540 C   0  0  0  0  0  0
   23.8900   19.7450   18.5060 H   0  0  0  0  0  0
   24.0470   21.4030   17.0980 C   0  0  0  0  0  0
   23.3110   22.2730   16.2820 C   0  0  0  0  0  0
   23.7750   23.0790   15.7230 H   0  0  0  0  0  0
   21.9170   22.1600   16.1980 C   0  0  0  0  0  0
   21.3660   22.8460   15.5570 H   0  0  0  0  0  0
   25.4720   21.4900   17.2170 N   0  0  0  0  0  0
   26.4140   22.1470   16.4230 C   0  0  0  0  0  0
   26.2110   22.7300   15.0990 C   0  0  0  0  0  0
   26.4690   24.0920   14.8830 C   0  0  0  0  0  0
   26.7970   24.7300   15.7010 H   0  0  0  0  0  0
   26.3000   24.6490   13.6130 C   0  0  0  0  0  0
   26.4920   25.7050   13.4440 H   0  0  0  0  0  0
   25.8840   23.8430   12.5600 C   0  0  0  0  0  0
   25.6390   22.4880   12.7510 C   0  0  0  0  0  0
   25.3210   21.8710   11.9150 H   0  0  0  0  0  0
   25.8070   21.9290   14.0200 C   0  0  0  0  0  0
   25.6230   20.8650   14.1560 H   0  0  0  0  0  0
   25.7240   24.3770   11.3420 F   0  0  0  0  0  0
   27.6100   22.0640   17.1130 C   0  0  0  0  0  0
   28.5610   22.4800   16.8040 H   0  0  0  0  0  0
   27.3640   21.2640   18.2480 C   0  0  0  0  0  0
   26.0780   20.8680   18.2780 N   0  0  0  0  0  0
   28.3710   20.8480   19.2860 C   0  0  0  0  0  0
   29.5840   21.4570   19.1230 F   0  0  0  0  0  0
   28.6150   19.5040   19.2670 F   0  0  0  0  0  0
   27.9660   21.1460   20.5570 F   0  0  0  0  0  0
   19.4830   21.0370   16.8170 S   0  0  0  0  0  0
   18.9480   22.3320   16.4090 O   0  0  0  0  0  0
   18.9940   20.4450   18.0590 O   0  0  0  0  0  0
   19.2530   19.8780   15.4950 C   0  0  0  0  0  0
   18.1800   19.7330   15.3540 H   0  0  0  0  0  0
   19.7240   18.9310   15.7660 H   0  0  0  0  0  0
   19.6960   20.2860   14.5840 H   0  0  0  0  0  0
  1  2  1  0  0  0
  1  9  2  0  0  0
  1 32  1  0  0  0
  2  3  1  0  0  0
  2  4  2  0  0  0
  4  5  1  0  0  0
  4  6  1  0  0  0
  6  7  2  0  0  0
  6 11  1  0  0  0
  7  8  1  0  0  0
  7  9  1  0  0  0
  9 10  1  0  0  0
 11 12  1  0  0  0
 11 27  1  0  0  0
 12 13  1  0  0  0
 12 24  2  0  0  0
 13 14  1  0  0  0
 13 21  2  0  0  0
 14 15  1  0  0  0
 14 16  2  0  0  0
 16 17  1  0  0  0
 16 18  1  0  0  0
 18 19  2  0  0  0
 18 23  1  0  0  0
 19 20  1  0  0  0
 19 21  1  0  0  0
 21 22  1  0  0  0
 24 25  1  0  0  0
 24 26  1  0  0  0
 26 27  2  0  0  0
 26 28  1  0  0  0
 28 29  1  0  0  0
 28 30  1  0  0  0
 28 31  1  0  0  0
 32 33  2  0  0  0
 32 34  2  0  0  0
 32 35  1  0  0  0
 35 36  1  0  0  0
 35 37  1  0  0  0
 35 38  1  0  0  0
M  END
>  <ACTIVITY>
7

>  <SET>
2

>  <Min_dist>
0.13

>  <Avg_dist>
0.48

$$$$
8-3a
  Cerius2 12110214053D 1   1.00000                          
Structure written by Cerius2 SD Exporter
 40 42  0  0  0  0  0  0  0  0999 V2000
   21.2490   21.1850   16.9490 C   0  0  0  0  0  0
   21.9650   20.3210   17.7760 C   0  0  0  0  0  0
   21.4580   19.5580   18.3630 H   0  0  0  0  0  0
   23.3580   20.4380   17.8570 C   0  0  0  0  0  0
   23.8920   19.7480   18.5100 H   0  0  0  0  0  0
   24.0470   21.4050   17.1000 C   0  0  0  0  0  0
   23.3090   22.2740   16.2860 C   0  0  0  0  0  0
   23.7710   23.0820   15.7270 H   0  0  0  0  0  0
   21.9150   22.1590   16.2030 C   0  0  0  0  0  0
   21.3580   22.8440   15.5660 H   0  0  0  0  0  0
   25.4720   21.4910   17.2170 N   0  0  0  0  0  0
   26.4130   22.1460   16.4220 C   0  0  0  0  0  0
   26.2110   22.7300   15.0980 C   0  0  0  0  0  0
   26.4690   24.0920   14.8830 C   0  0  0  0  0  0
   26.7960   24.7300   15.7020 H   0  0  0  0  0  0
   26.3000   24.6500   13.6130 C   0  0  0  0  0  0
   26.4930   25.7050   13.4450 H   0  0  0  0  0  0
   25.8850   23.8430   12.5600 C   0  0  0  0  0  0
   25.6390   22.4890   12.7500 C   0  0  0  0  0  0
   25.3220   21.8720   11.9140 H   0  0  0  0  0  0
   25.8070   21.9300   14.0190 C   0  0  0  0  0  0
   25.6230   20.8650   14.1550 H   0  0  0  0  0  0
   25.7240   24.3790   11.3420 F   0  0  0  0  0  0
   27.6080   22.0600   17.1120 C   0  0  0  0  0  0
   28.5610   22.4730   16.8040 H   0  0  0  0  0  0
   27.3620   21.2580   18.2460 C   0  0  0  0  0  0
   26.0760   20.8690   18.2770 N   0  0  0  0  0  0
   28.3520   20.8550   19.2570 C   0  0  0  0  0  0
   28.0840   20.1300   20.2140 O   0  0  0  0  0  0
   29.5990   21.3720   19.0200 O   0  0  0  0  0  0
   30.5860   21.0030   19.9860 C   0  0  0  0  0  0
   31.5320   21.4700   19.6980 H   0  0  0  0  0  0
   30.7230   19.9180   19.9970 H   0  0  0  0  0  0
   30.3060   21.3700   20.9780 H   0  0  0  0  0  0
   19.4890   21.0370   16.8100 S   0  0  0  0  0  0
   18.9320   22.2940   16.3410 O   0  0  0  0  0  0
   18.9740   20.4040   18.0120 O   0  0  0  0  0  0
   19.3250   19.9380   15.5570 N   0  0  0  0  0  0
   18.8390   20.3580   14.7600 H   0  0  0  0  0  0
   18.8560   19.0850   15.8730 H   0  0  0  0  0  0
  1  2  1  0  0  0
  1  9  2  0  0  0
  1 35  1  0  0  0
  2  3  1  0  0  0
  2  4  2  0  0  0
  4  5  1  0  0  0
  4  6  1  0  0  0
  6  7  2  0  0  0
  6 11  1  0  0  0
  7  8  1  0  0  0
  7  9  1  0  0  0
  9 10  1  0  0  0
 11 12  1  0  0  0
 11 27  1  0  0  0
 12 13  1  0  0  0
 12 24  2  0  0  0
 13 14  1  0  0  0
 13 21  2  0  0  0
 14 15  1  0  0  0
 14 16  2  0  0  0
 16 17  1  0  0  0
 16 18  1  0  0  0
 18 19  2  0  0  0
 18 23  1  0  0  0
 19 20  1  0  0  0
 19 21  1  0  0  0
 21 22  1  0  0  0
 24 25  1  0  0  0
 24 26  1  0  0  0
 26 27  2  0  0  0
 26 28  1  0  0  0
 28 29  2  0  0  0
 28 30  1  0  0  0
 30 31  1  0  0  0
 31 32  1  0  0  0
 31 33  1  0  0  0
 31 34  1  0  0  0
 35 36  2  0  0  0
 35 37  2  0  0  0
 35 38  1  0  0  0
 38 39  1  0  0  0
 38 40  1  0  0  0
M  END
>  <ACTIVITY>
4

>  <SET>
3

>  <Min_dist>
0.27

>  <Avg_dist>
0.58

$$$$
8-8a
  Cerius2 12110214053D 1   1.00000                          
Structure written by Cerius2 SD Exporter
 37 39  0  0  0  0  0  0  0  0999 V2000
   21.2460   21.1840   16.9500 C   0  0  0  0  0  0
   21.9640   20.3190   17.7750 C   0  0  0  0  0  0
   21.4570   19.5570   18.3630 H   0  0  0  0  0  0
   23.3560   20.4360   17.8540 C   0  0  0  0  0  0
   23.8920   19.7460   18.5060 H   0  0  0  0  0  0
   24.0440   21.4040   17.0970 C   0  0  0  0  0  0
   23.3050   22.2720   16.2820 C   0  0  0  0  0  0
   23.7670   23.0780   15.7210 H   0  0  0  0  0  0
   21.9120   22.1580   16.2020 C   0  0  0  0  0  0
   21.3540   22.8420   15.5650 H   0  0  0  0  0  0
   25.4700   21.4910   17.2150 N   0  0  0  0  0  0
   26.4160   22.1440   16.4210 C   0  0  0  0  0  0
   26.2150   22.7300   15.0970 C   0  0  0  0  0  0
   26.4730   24.0900   14.8820 C   0  0  0  0  0  0
   26.8030   24.7270   15.7010 H   0  0  0  0  0  0
   26.3010   24.6500   13.6140 C   0  0  0  0  0  0
   26.4970   25.7090   13.4560 H   0  0  0  0  0  0
   25.8820   23.8530   12.5500 C   0  0  0  0  0  0
   25.7490   24.2900   11.5620 H   0  0  0  0  0  0
   25.6380   22.4950   12.7500 C   0  0  0  0  0  0
   25.3170   21.8710   11.9180 H   0  0  0  0  0  0
   25.8090   21.9340   14.0180 C   0  0  0  0  0  0
   25.6230   20.8690   14.1530 H   0  0  0  0  0  0
   27.6120   22.0570   17.1110 C   0  0  0  0  0  0
   28.5650   22.4670   16.8020 H   0  0  0  0  0  0
   27.3510   21.2660   18.2400 C   0  0  0  0  0  0
   26.0760   20.8750   18.2820 N   0  0  0  0  0  0
   28.3070   20.8310   19.2880 C   0  0  0  0  0  0
   28.5390   19.7670   19.1730 H   0  0  0  0  0  0
   27.8860   20.9880   20.2860 H   0  0  0  0  0  0
   29.2440   21.3930   19.2240 H   0  0  0  0  0  0
   19.4850   21.0360   16.8150 S   0  0  0  0  0  0
   18.9410   22.2470   16.2280 O   0  0  0  0  0  0
   18.9590   20.5220   18.0670 O   0  0  0  0  0  0
   19.3210   19.8250   15.6690 N   0  0  0  0  0  0
   18.8430   20.1720   14.8340 H   0  0  0  0  0  0
   18.8430   19.0090   16.0610 H   0  0  0  0  0  0
  1  2  1  0  0  0
  1  9  2  0  0  0
  1 32  1  0  0  0
  2  3  1  0  0  0
  2  4  2  0  0  0
  4  5  1  0  0  0
  4  6  1  0  0  0
  6  7  2  0  0  0
  6 11  1  0  0  0
  7  8  1  0  0  0
  7  9  1  0  0  0
  9 10  1  0  0  0
 11 12  1  0  0  0
 11 27  1  0  0  0
 12 13  1  0  0  0
 12 24  2  0  0  0
 13 14  1  0  0  0
 13 22  2  0  0  0
 14 15  1  0  0  0
 14 16  2  0  0  0
 16 17  1  0  0  0
 16 18  1  0  0  0
 18 19  1  0  0  0
 18 20  2  0  0  0
 20 21  1  0  0  0
 20 22  1  0  0  0
 22 23  1  0  0  0
 24 25  1  0  0  0
 24 26  1  0  0  0
 26 27  2  0  0  0
 26 28  1  0  0  0
 28 29  1  0  0  0
 28 30  1  0  0  0
 28 31  1  0  0  0
 32 33  2  0  0  0
 32 34  2  0  0  0
 32 35  1  0  0  0
 35 36  1  0  0  0
 35 37  1  0  0  0
M  END
>  <ACTIVITY>
4.2

>  <SET>
2

>  <Min_dist>
0.11

>  <Avg_dist>
0.52

$$$$
8-9b
  Cerius2 12110214053D 1   1.00000                          
Structure written by Cerius2 SD Exporter
 41 44  0  0  0  0  0  0  0  0999 V2000
   21.2470   21.1880   16.9490 C   0  0  0  0  0  0
   21.9650   20.3220   17.7750 C   0  0  0  0  0  0
   21.4560   19.5600   18.3620 H   0  0  0  0  0  0
   23.3570   20.4380   17.8560 C   0  0  0  0  0  0
   23.8910   19.7480   18.5080 H   0  0  0  0  0  0
   24.0460   21.4050   17.0980 C   0  0  0  0  0  0
   23.3080   22.2740   16.2830 C   0  0  0  0  0  0
   23.7700   23.0810   15.7240 H   0  0  0  0  0  0
   21.9140   22.1610   16.2020 C   0  0  0  0  0  0
   21.3590   22.8460   15.5640 H   0  0  0  0  0  0
   25.4710   21.4910   17.2160 N   0  0  0  0  0  0
   26.4140   22.1450   16.4210 C   0  0  0  0  0  0
   26.2120   22.7300   15.0980 C   0  0  0  0  0  0
   26.4710   24.0910   14.8830 C   0  0  0  0  0  0
   26.7990   24.7280   15.7020 H   0  0  0  0  0  0
   26.3010   24.6500   13.6130 C   0  0  0  0  0  0
   26.4990   25.7090   13.4630 H   0  0  0  0  0  0
   25.8850   23.8490   12.5520 C   0  0  0  0  0  0
   25.6400   22.4910   12.7490 C   0  0  0  0  0  0
   25.3210   21.8600   11.9230 H   0  0  0  0  0  0
   25.8090   21.9310   14.0180 C   0  0  0  0  0  0
   25.6240   20.8670   14.1540 H   0  0  0  0  0  0
   25.6770   24.5380   10.9890 Cl  0  0  0  0  0  0
   27.6090   22.0580   17.1130 C   0  0  0  0  0  0
   28.5570   22.4740   16.7960 H   0  0  0  0  0  0
   27.3510   21.2620   18.2410 C   0  0  0  0  0  0
   26.0740   20.8720   18.2770 N   0  0  0  0  0  0
   28.3390   20.8450   19.2770 C   0  0  0  0  0  0
   29.9880   21.3230   19.2680 S   0  0  0  0  0  0
   30.3010   20.4560   20.6850 C   0  0  0  0  0  0
   29.2030   19.8050   21.1820 C   0  0  0  0  0  0
   29.2080   19.2000   22.0810 H   0  0  0  0  0  0
   28.0560   20.0320   20.3600 C   0  0  0  0  0  0
   27.0790   19.6100   20.5680 H   0  0  0  0  0  0
   31.8840   20.4580   21.3530 Cl  0  0  0  0  0  0
   19.4880   21.0330   16.8150 S   0  0  0  0  0  0
   18.9210   22.3080   16.4110 O   0  0  0  0  0  0
   18.9800   20.3400   17.9860 O   0  0  0  0  0  0
   19.3260   19.9910   15.5130 N   0  0  0  0  0  0
   18.8320   20.4430   14.7390 H   0  0  0  0  0  0
   18.8660   19.1200   15.7920 H   0  0  0  0  0  0
  1  2  1  0  0  0
  1  9  2  0  0  0
  1 36  1  0  0  0
  2  3  1  0  0  0
  2  4  2  0  0  0
  4  5  1  0  0  0
  4  6  1  0  0  0
  6  7  2  0  0  0
  6 11  1  0  0  0
  7  8  1  0  0  0
  7  9  1  0  0  0
  9 10  1  0  0  0
 11 12  1  0  0  0
 11 27  1  0  0  0
 12 13  1  0  0  0
 12 24  2  0  0  0
 13 14  1  0  0  0
 13 21  2  0  0  0
 14 15  1  0  0  0
 14 16  2  0  0  0
 16 17  1  0  0  0
 16 18  1  0  0  0
 18 19  2  0  0  0
 18 23  1  0  0  0
 19 20  1  0  0  0
 19 21  1  0  0  0
 21 22  1  0  0  0
 24 25  1  0  0  0
 24 26  1  0  0  0
 26 27  2  0  0  0
 26 28  1  0  0  0
 28 29  1  0  0  0
 28 33  2  0  0  0
 29 30  1  0  0  0
 30 31  2  0  0  0
 30 35  1  0  0  0
 31 32  1  0  0  0
 31 33  1  0  0  0
 33 34  1  0  0  0
 36 37  2  0  0  0
 36 38  2  0  0  0
 36 39  1  0  0  0
 39 40  1  0  0  0
 39 41  1  0  0  0
M  END
>  <ACTIVITY>
7.28

>  <SET>
2

>  <Min_dist>
0.11

>  <Avg_dist>
0.55

$$$$
8-celecoxib
  Cerius2 12110214053D 1   1.00000                          
Structure written by Cerius2 SD Exporter
 40 42  0  0  0  0  0  0  0  0999 V2000
   21.2500   21.1690   16.9240 C   0  0  0  0  0  0
   21.9650   20.3140   17.7630 C   0  0  0  0  0  0
   21.4550   19.5520   18.3500 H   0  0  0  0  0  0
   23.3560   20.4330   17.8490 C   0  0  0  0  0  0
   23.8890   19.7450   18.5050 H   0  0  0  0  0  0
   24.0460   21.4000   17.0930 C   0  0  0  0  0  0
   23.3080   22.2690   16.2770 C   0  0  0  0  0  0
   23.7710   23.0770   15.7200 H   0  0  0  0  0  0
   21.9150   22.1530   16.1910 C   0  0  0  0  0  0
   21.3610   22.8400   15.5530 H   0  0  0  0  0  0
   25.4710   21.4900   17.2150 N   0  0  0  0  0  0
   26.4150   22.1460   16.4230 C   0  0  0  0  0  0
   26.2130   22.7310   15.0990 C   0  0  0  0  0  0
   26.4730   24.0890   14.8810 C   0  0  0  0  0  0
   26.8070   24.7260   15.6990 H   0  0  0  0  0  0
   26.3020   24.6480   13.6110 C   0  0  0  0  0  0
   26.5100   25.7080   13.4660 H   0  0  0  0  0  0
   25.8700   23.8580   12.5400 C   0  0  0  0  0  0
   25.6400   22.4940   12.7510 C   0  0  0  0  0  0
   25.3280   21.8540   11.9260 H   0  0  0  0  0  0
   25.8110   21.9340   14.0200 C   0  0  0  0  0  0
   25.6300   20.8680   14.1550 H   0  0  0  0  0  0
   25.7180   24.4510   11.1700 C   0  0  0  0  0  0
   24.9340   23.9360   10.6060 H   0  0  0  0  0  0
   26.6620   24.3690   10.6210 H   0  0  0  0  0  0
   25.4340   25.5070   11.2310 H   0  0  0  0  0  0
   27.6090   22.0640   17.1160 C   0  0  0  0  0  0
   28.5610   22.4800   16.8090 H   0  0  0  0  0  0
   27.3600   21.2670   18.2520 C   0  0  0  0  0  0
   26.0740   20.8720   18.2810 N   0  0  0  0  0  0
   28.3640   20.8550   19.2950 C   0  0  0  0  0  0
   29.5920   21.4240   19.1050 F   0  0  0  0  0  0
   28.5710   19.5050   19.3140 F   0  0  0  0  0  0
   27.9780   21.2020   20.5590 F   0  0  0  0  0  0
   19.4840   21.0450   16.8340 S   0  0  0  0  0  0
   18.9310   22.3250   16.4250 O   0  0  0  0  0  0
   18.9880   20.3870   18.0310 O   0  0  0  0  0  0
   19.2480   19.9800   15.5520 N   0  0  0  0  0  0
   18.2510   19.8770   15.3340 H   0  0  0  0  0  0
   19.6040   19.0540   15.8140 H   0  0  0  0  0  0
  1  2  1  0  0  0
  1  9  2  0  0  0
  1 35  1  0  0  0
  2  3  1  0  0  0
  2  4  2  0  0  0
  4  5  1  0  0  0
  4  6  1  0  0  0
  6  7  2  0  0  0
  6 11  1  0  0  0
  7  8  1  0  0  0
  7  9  1  0  0  0
  9 10  1  0  0  0
 11 12  1  0  0  0
 11 30  1  0  0  0
 12 13  1  0  0  0
 12 27  2  0  0  0
 13 14  1  0  0  0
 13 21  2  0  0  0
 14 15  1  0  0  0
 14 16  2  0  0  0
 16 17  1  0  0  0
 16 18  1  0  0  0
 18 19  2  0  0  0
 18 23  1  0  0  0
 19 20  1  0  0  0
 19 21  1  0  0  0
 21 22  1  0  0  0
 23 24  1  0  0  0
 23 25  1  0  0  0
 23 26  1  0  0  0
 27 28  1  0  0  0
 27 29  1  0  0  0
 29 30  2  0  0  0
 29 31  1  0  0  0
 31 32  1  0  0  0
 31 33  1  0  0  0
 31 34  1  0  0  0
 35 36  2  0  0  0
 35 37  2  0  0  0
 35 38  1  0  0  0
 38 39  1  0  0  0
 38 40  1  0  0  0
M  END
>  <ACTIVITY>
7.4

>  <SET>
1

>  <Min_dist>
999.9

>  <Avg_dist>
999.9

$$$$
9-19
  Cerius2 12110214053D 1   1.00000                          
Structure written by Cerius2 SD Exporter
 41 44  0  0  0  0  0  0  0  0999 V2000
   26.4510   22.1000   16.4010 C   0  0  0  0  0  0
   25.4750   21.4720   17.3110 C   0  0  0  0  0  0
   26.1630   21.0050   18.3780 C   0  0  0  0  0  0
   25.7260   20.5040   19.2330 H   0  0  0  0  0  0
   27.5940   21.2830   18.2550 C   0  0  0  0  0  0
   27.6710   21.9790   16.9710 C   0  0  0  0  0  0
   28.6000   22.3290   16.5380 H   0  0  0  0  0  0
   28.6420   20.3300   18.7180 C   0  0  0  0  0  0
   29.5350   20.2060   18.1170 H   0  0  0  0  0  0
   28.3350   19.4300   19.2380 H   0  0  0  0  0  0
   28.4450   21.6520   19.4220 C   0  0  0  0  0  0
   28.0070   21.6360   20.4130 H   0  0  0  0  0  0
   29.2080   22.4110   19.2910 H   0  0  0  0  0  0
   24.0190   21.3720   17.1730 C   0  0  0  0  0  0
   23.3260   22.2450   16.3220 C   0  0  0  0  0  0
   23.8610   23.0090   15.7610 H   0  0  0  0  0  0
   21.9380   22.1530   16.1820 C   0  0  0  0  0  0
   21.4210   22.8390   15.5140 H   0  0  0  0  0  0
   21.2340   21.1870   16.9050 C   0  0  0  0  0  0
   21.9090   20.3040   17.7520 C   0  0  0  0  0  0
   21.3710   19.5420   18.3110 H   0  0  0  0  0  0
   23.2970   20.4020   17.8850 C   0  0  0  0  0  0
   23.8130   19.7060   18.5460 H   0  0  0  0  0  0
   19.4710   21.0560   16.7140 S   0  0  0  0  0  0
   18.9390   22.3990   16.5070 O   0  0  0  0  0  0
   18.9560   20.2710   17.8320 O   0  0  0  0  0  0
   19.2780   20.1250   15.2170 C   0  0  0  0  0  0
   18.2090   20.0050   15.0290 H   0  0  0  0  0  0
   19.7450   19.1470   15.3430 H   0  0  0  0  0  0
   19.7400   20.6740   14.3950 H   0  0  0  0  0  0
   26.2210   22.7210   15.0940 C   0  0  0  0  0  0
   26.4720   24.0880   14.8970 C   0  0  0  0  0  0
   26.8380   24.7070   15.7150 H   0  0  0  0  0  0
   26.2440   24.6790   13.6520 C   0  0  0  0  0  0
   26.4360   25.7370   13.5000 H   0  0  0  0  0  0
   25.7670   23.9020   12.6030 C   0  0  0  0  0  0
   25.5140   22.5470   12.7740 C   0  0  0  0  0  0
   25.1420   21.9550   11.9440 H   0  0  0  0  0  0
   25.7410   21.9570   14.0200 C   0  0  0  0  0  0
   25.5430   20.8930   14.1430 H   0  0  0  0  0  0
   25.5480   24.4690   11.4080 F   0  0  0  0  0  0
  1  2  1  0  0  0
  1  6  2  0  0  0
  1 31  1  0  0  0
  2  3  2  0  0  0
  2 14  1  0  0  0
  3  4  1  0  0  0
  3  5  1  0  0  0
  5  6  1  0  0  0
  5  8  1  0  0  0
  5 11  1  0  0  0
  6  7  1  0  0  0
  8  9  1  0  0  0
  8 10  1  0  0  0
  8 11  1  0  0  0
 11 12  1  0  0  0
 11 13  1  0  0  0
 14 15  1  0  0  0
 14 22  2  0  0  0
 15 16  1  0  0  0
 15 17  2  0  0  0
 17 18  1  0  0  0
 17 19  1  0  0  0
 19 20  2  0  0  0
 19 24  1  0  0  0
 20 21  1  0  0  0
 20 22  1  0  0  0
 22 23  1  0  0  0
 24 25  2  0  0  0
 24 26  2  0  0  0
 24 27  1  0  0  0
 27 28  1  0  0  0
 27 29  1  0  0  0
 27 30  1  0  0  0
 31 32  1  0  0  0
 31 39  2  0  0  0
 32 33  1  0  0  0
 32 34  2  0  0  0
 34 35  1  0  0  0
 34 36  1  0  0  0
 36 37  2  0  0  0
 36 41  1  0  0  0
 37 38  1  0  0  0
 37 39  1  0  0  0
 39 40  1  0  0  0
M  END
>  <ACTIVITY>
7.59

>  <SET>
2

>  <Min_dist>
0.19

>  <Avg_dist>
0.64

$$$$
9-20
  Cerius2 12110214053D 1   1.00000                          
Structure written by Cerius2 SD Exporter
 47 50  0  0  0  0  0  0  0  0999 V2000
   26.3890   22.0790   16.4220 C   0  0  0  0  0  0
   25.4980   21.5010   17.2580 C   0  0  0  0  0  0
   26.1860   20.9280   18.4790 C   0  0  0  0  0  0
   26.0580   19.8420   18.5350 H   0  0  0  0  0  0
   25.7850   21.3860   19.3910 H   0  0  0  0  0  0
   27.6480   21.2770   18.3000 C   0  0  0  0  0  0
   27.7910   22.0220   16.9900 C   0  0  0  0  0  0
   28.1900   23.0260   17.1660 H   0  0  0  0  0  0
   28.4580   21.4830   16.3080 H   0  0  0  0  0  0
   28.7350   20.3350   18.7730 C   0  0  0  0  0  0
   29.6330   20.2370   18.1720 H   0  0  0  0  0  0
   28.4460   19.4200   19.2780 H   0  0  0  0  0  0
   28.5110   21.6330   19.4920 C   0  0  0  0  0  0
   28.0730   21.5920   20.4840 H   0  0  0  0  0  0
   29.2580   22.4110   19.3780 H   0  0  0  0  0  0
   24.0410   21.3910   17.1170 C   0  0  0  0  0  0
   23.3350   22.2670   16.2780 C   0  0  0  0  0  0
   23.8610   23.0390   15.7200 H   0  0  0  0  0  0
   21.9450   22.1740   16.1490 C   0  0  0  0  0  0
   21.4250   22.8640   15.4880 H   0  0  0  0  0  0
   21.2500   21.2070   16.8750 C   0  0  0  0  0  0
   21.9330   20.3250   17.7140 C   0  0  0  0  0  0
   21.4010   19.5610   18.2760 H   0  0  0  0  0  0
   23.3230   20.4260   17.8390 C   0  0  0  0  0  0
   23.8380   19.7260   18.4950 H   0  0  0  0  0  0
   19.4850   21.0730   16.7020 S   0  0  0  0  0  0
   18.9500   22.4180   16.5070 O   0  0  0  0  0  0
   18.9810   20.2810   17.8200 O   0  0  0  0  0  0
   19.2800   20.1480   15.2030 C   0  0  0  0  0  0
   18.2100   20.0290   15.0200 H   0  0  0  0  0  0
   19.7460   19.1680   15.3240 H   0  0  0  0  0  0
   19.7380   20.6980   14.3790 H   0  0  0  0  0  0
   26.1530   22.7050   15.1160 C   0  0  0  0  0  0
   26.4120   24.0650   14.9160 C   0  0  0  0  0  0
   26.7690   24.6810   15.7380 H   0  0  0  0  0  0
   26.1900   24.6520   13.6650 C   0  0  0  0  0  0
   25.7140   23.8940   12.5830 C   0  0  0  0  0  0
   25.4690   22.5340   12.7800 C   0  0  0  0  0  0
   25.1060   21.8900   11.9840 H   0  0  0  0  0  0
   25.6920   21.9470   14.0330 C   0  0  0  0  0  0
   25.5020   20.8800   14.1480 H   0  0  0  0  0  0
   25.5240   24.5560   11.3980 O   0  0  0  0  0  0
   25.0360   23.7950   10.2950 C   0  0  0  0  0  0
   24.9470   24.4710    9.4390 H   0  0  0  0  0  0
   24.0410   23.3900   10.5050 H   0  0  0  0  0  0
   25.7400   23.0030   10.0220 H   0  0  0  0  0  0
   26.5190   26.3450   13.4960 Cl  0  0  0  0  0  0
  1  2  2  0  0  0
  1  7  1  0  0  0
  1 33  1  0  0  0
  2  3  1  0  0  0
  2 16  1  0  0  0
  3  4  1  0  0  0
  3  5  1  0  0  0
  3  6  1  0  0  0
  6  7  1  0  0  0
  6 10  1  0  0  0
  6 13  1  0  0  0
  7  8  1  0  0  0
  7  9  1  0  0  0
 10 11  1  0  0  0
 10 12  1  0  0  0
 10 13  1  0  0  0
 13 14  1  0  0  0
 13 15  1  0  0  0
 16 17  1  0  0  0
 16 24  2  0  0  0
 17 18  1  0  0  0
 17 19  2  0  0  0
 19 20  1  0  0  0
 19 21  1  0  0  0
 21 22  2  0  0  0
 21 26  1  0  0  0
 22 23  1  0  0  0
 22 24  1  0  0  0
 24 25  1  0  0  0
 26 27  2  0  0  0
 26 28  2  0  0  0
 26 29  1  0  0  0
 29 30  1  0  0  0
 29 31  1  0  0  0
 29 32  1  0  0  0
 33 34  1  0  0  0
 33 40  2  0  0  0
 34 35  1  0  0  0
 34 36  2  0  0  0
 36 37  1  0  0  0
 36 47  1  0  0  0
 37 38  2  0  0  0
 37 42  1  0  0  0
 38 39  1  0  0  0
 38 40  1  0  0  0
 40 41  1  0  0  0
 42 43  1  0  0  0
 43 44  1  0  0  0
 43 45  1  0  0  0
 43 46  1  0  0  0
M  END
>  <ACTIVITY>
7.77

>  <SET>
2

>  <Min_dist>
0.07

>  <Avg_dist>
0.6

$$$$
9-24
  Cerius2 12110214053D 1   1.00000                          
Structure written by Cerius2 SD Exporter
 46 49  0  0  0  0  0  0  0  0999 V2000
   26.3870   22.0830   16.4240 C   0  0  0  0  0  0
   25.4960   21.5020   17.2570 C   0  0  0  0  0  0
   26.1830   20.9210   18.4750 C   0  0  0  0  0  0
   26.0550   19.8340   18.5210 H   0  0  0  0  0  0
   25.7820   21.3690   19.3910 H   0  0  0  0  0  0
   27.6450   21.2710   18.2970 C   0  0  0  0  0  0
   27.7890   22.0250   16.9920 C   0  0  0  0  0  0
   28.1850   23.0290   17.1730 H   0  0  0  0  0  0
   28.4570   21.4930   16.3060 H   0  0  0  0  0  0
   28.7300   20.3240   18.7660 C   0  0  0  0  0  0
   29.6290   20.2290   18.1670 H   0  0  0  0  0  0
   28.4380   19.4060   19.2630 H   0  0  0  0  0  0
   28.5060   21.6170   19.4940 C   0  0  0  0  0  0
   28.0620   21.5700   20.4820 H   0  0  0  0  0  0
   29.2530   22.3950   19.3870 H   0  0  0  0  0  0
   24.0390   21.3900   17.1150 C   0  0  0  0  0  0
   23.3320   22.2680   16.2790 C   0  0  0  0  0  0
   23.8560   23.0420   15.7200 H   0  0  0  0  0  0
   21.9420   22.1760   16.1530 C   0  0  0  0  0  0
   21.4160   22.8660   15.4980 H   0  0  0  0  0  0
   21.2460   21.2080   16.8800 C   0  0  0  0  0  0
   21.9330   20.3260   17.7170 C   0  0  0  0  0  0
   21.4000   19.5640   18.2830 H   0  0  0  0  0  0
   23.3230   20.4240   17.8370 C   0  0  0  0  0  0
   23.8390   19.7240   18.4920 H   0  0  0  0  0  0
   19.4880   21.0700   16.7050 S   0  0  0  0  0  0
   18.9300   22.3810   16.4190 O   0  0  0  0  0  0
   18.9600   20.2670   17.7930 O   0  0  0  0  0  0
   19.3470   20.1610   15.3060 N   0  0  0  0  0  0
   18.8740   20.6880   14.5670 H   0  0  0  0  0  0
   18.8780   19.2700   15.4890 H   0  0  0  0  0  0
   26.1520   22.7070   15.1160 C   0  0  0  0  0  0
   26.4060   24.0670   14.9160 C   0  0  0  0  0  0
   26.7550   24.6870   15.7390 H   0  0  0  0  0  0
   26.1970   24.6510   13.6610 C   0  0  0  0  0  0
   25.7350   23.8890   12.5760 C   0  0  0  0  0  0
   25.4880   22.5290   12.7750 C   0  0  0  0  0  0
   25.1320   21.8830   11.9770 H   0  0  0  0  0  0
   25.6990   21.9460   14.0320 C   0  0  0  0  0  0
   25.5090   20.8800   14.1480 H   0  0  0  0  0  0
   25.5610   24.5450   11.3850 O   0  0  0  0  0  0
   25.0940   23.7760   10.2780 C   0  0  0  0  0  0
   25.0130   24.4470    9.4180 H   0  0  0  0  0  0
   24.0980   23.3670   10.4770 H   0  0  0  0  0  0
   25.8060   22.9860   10.0190 H   0  0  0  0  0  0
   26.5250   26.3440   13.4920 Cl  0  0  0  0  0  0
  1  2  2  0  0  0
  1  7  1  0  0  0
  1 32  1  0  0  0
  2  3  1  0  0  0
  2 16  1  0  0  0
  3  4  1  0  0  0
  3  5  1  0  0  0
  3  6  1  0  0  0
  6  7  1  0  0  0
  6 10  1  0  0  0
  6 13  1  0  0  0
  7  8  1  0  0  0
  7  9  1  0  0  0
 10 11  1  0  0  0
 10 12  1  0  0  0
 10 13  1  0  0  0
 13 14  1  0  0  0
 13 15  1  0  0  0
 16 17  1  0  0  0
 16 24  2  0  0  0
 17 18  1  0  0  0
 17 19  2  0  0  0
 19 20  1  0  0  0
 19 21  1  0  0  0
 21 22  2  0  0  0
 21 26  1  0  0  0
 22 23  1  0  0  0
 22 24  1  0  0  0
 24 25  1  0  0  0
 26 27  2  0  0  0
 26 28  2  0  0  0
 26 29  1  0  0  0
 29 30  1  0  0  0
 29 31  1  0  0  0
 32 33  1  0  0  0
 32 39  2  0  0  0
 33 34  1  0  0  0
 33 35  2  0  0  0
 35 36  1  0  0  0
 35 46  1  0  0  0
 36 37  2  0  0  0
 36 41  1  0  0  0
 37 38  1  0  0  0
 37 39  1  0  0  0
 39 40  1  0  0  0
 41 42  1  0  0  0
 42 43  1  0  0  0
 42 44  1  0  0  0
 42 45  1  0  0  0
M  END
>  <ACTIVITY>
8.7

>  <SET>
1

>  <Min_dist>
999.9

>  <Avg_dist>
999.9

$$$$
9-29
  Cerius2 12110214053D 1   1.00000                          
Structure written by Cerius2 SD Exporter
 45 48  0  0  0  0  0  0  0  0999 V2000
   26.4530   22.0980   16.4030 C   0  0  0  0  0  0
   25.4790   21.4720   17.3140 C   0  0  0  0  0  0
   26.1660   21.0020   18.3790 C   0  0  0  0  0  0
   25.7290   20.5000   19.2340 H   0  0  0  0  0  0
   27.5970   21.2780   18.2550 C   0  0  0  0  0  0
   27.6740   21.9740   16.9700 C   0  0  0  0  0  0
   28.6040   22.3220   16.5370 H   0  0  0  0  0  0
   28.6430   20.3220   18.7180 C   0  0  0  0  0  0
   29.5350   20.1940   18.1160 H   0  0  0  0  0  0
   28.3330   19.4240   19.2390 H   0  0  0  0  0  0
   28.4500   21.6460   19.4210 C   0  0  0  0  0  0
   28.0110   21.6330   20.4120 H   0  0  0  0  0  0
   29.2140   22.4030   19.2900 H   0  0  0  0  0  0
   24.0230   21.3750   17.1770 C   0  0  0  0  0  0
   23.3340   22.2490   16.3230 C   0  0  0  0  0  0
   23.8720   23.0130   15.7640 H   0  0  0  0  0  0
   21.9470   22.1570   16.1790 C   0  0  0  0  0  0
   21.4330   22.8430   15.5090 H   0  0  0  0  0  0
   21.2410   21.1910   16.8990 C   0  0  0  0  0  0
   21.9110   20.3090   17.7490 C   0  0  0  0  0  0
   21.3700   19.5470   18.3070 H   0  0  0  0  0  0
   23.2990   20.4060   17.8880 C   0  0  0  0  0  0
   23.8130   19.7100   18.5510 H   0  0  0  0  0  0
   19.4790   21.0580   16.7000 S   0  0  0  0  0  0
   18.9480   22.4000   16.4810 O   0  0  0  0  0  0
   18.9580   20.2800   17.8200 O   0  0  0  0  0  0
   19.2940   20.1160   15.2090 C   0  0  0  0  0  0
   18.2260   19.9880   15.0200 H   0  0  0  0  0  0
   19.7670   19.1420   15.3430 H   0  0  0  0  0  0
   19.7550   20.6620   14.3830 H   0  0  0  0  0  0
   26.2170   22.7210   15.0980 C   0  0  0  0  0  0
   26.4660   24.0830   14.8980 C   0  0  0  0  0  0
   26.8390   24.6950   15.7170 H   0  0  0  0  0  0
   26.2260   24.6690   13.6500 C   0  0  0  0  0  0
   25.7350   23.9090   12.5760 C   0  0  0  0  0  0
   25.4890   22.5490   12.7790 C   0  0  0  0  0  0
   25.1090   21.9070   11.9890 H   0  0  0  0  0  0
   25.7290   21.9620   14.0280 C   0  0  0  0  0  0
   25.5300   20.8990   14.1550 H   0  0  0  0  0  0
   25.5290   24.5690   11.3910 O   0  0  0  0  0  0
   25.0480   23.8010   10.2900 C   0  0  0  0  0  0
   24.9450   24.4750    9.4340 H   0  0  0  0  0  0
   24.0600   23.3810   10.5040 H   0  0  0  0  0  0
   25.7630   23.0190   10.0130 H   0  0  0  0  0  0
   26.5490   26.3620   13.4760 Cl  0  0  0  0  0  0
  1  2  1  0  0  0
  1  6  2  0  0  0
  1 31  1  0  0  0
  2  3  2  0  0  0
  2 14  1  0  0  0
  3  4  1  0  0  0
  3  5  1  0  0  0
  5  6  1  0  0  0
  5  8  1  0  0  0
  5 11  1  0  0  0
  6  7  1  0  0  0
  8  9  1  0  0  0
  8 10  1  0  0  0
  8 11  1  0  0  0
 11 12  1  0  0  0
 11 13  1  0  0  0
 14 15  1  0  0  0
 14 22  2  0  0  0
 15 16  1  0  0  0
 15 17  2  0  0  0
 17 18  1  0  0  0
 17 19  1  0  0  0
 19 20  2  0  0  0
 19 24  1  0  0  0
 20 21  1  0  0  0
 20 22  1  0  0  0
 22 23  1  0  0  0
 24 25  2  0  0  0
 24 26  2  0  0  0
 24 27  1  0  0  0
 27 28  1  0  0  0
 27 29  1  0  0  0
 27 30  1  0  0  0
 31 32  1  0  0  0
 31 38  2  0  0  0
 32 33  1  0  0  0
 32 34  2  0  0  0
 34 35  1  0  0  0
 34 45  1  0  0  0
 35 36  2  0  0  0
 35 40  1  0  0  0
 36 37  1  0  0  0
 36 38  1  0  0  0
 38 39  1  0  0  0
 40 41  1  0  0  0
 41 42  1  0  0  0
 41 43  1  0  0  0
 41 44  1  0  0  0
M  END
>  <ACTIVITY>
7.57

>  <SET>
1

>  <Min_dist>
999.9

>  <Avg_dist>
999.9

$$$$
9-3
  Cerius2 12110214053D 1   1.00000                          
Structure written by Cerius2 SD Exporter
 43 46  0  0  0  0  0  0  0  0999 V2000
   26.3850   22.0830   16.4210 C   0  0  0  0  0  0
   25.4940   21.5020   17.2540 C   0  0  0  0  0  0
   26.1800   20.9250   18.4740 C   0  0  0  0  0  0
   26.0540   19.8390   18.5220 H   0  0  0  0  0  0
   25.7770   21.3750   19.3890 H   0  0  0  0  0  0
   27.6420   21.2770   18.3000 C   0  0  0  0  0  0
   27.7860   22.0290   16.9940 C   0  0  0  0  0  0
   28.1770   23.0350   17.1760 H   0  0  0  0  0  0
   28.4590   21.4990   16.3100 H   0  0  0  0  0  0
   28.7270   20.3330   18.7720 C   0  0  0  0  0  0
   29.6270   20.2360   18.1740 H   0  0  0  0  0  0
   28.4360   19.4170   19.2740 H   0  0  0  0  0  0
   28.5030   21.6290   19.4940 C   0  0  0  0  0  0
   28.0600   21.5860   20.4830 H   0  0  0  0  0  0
   29.2520   22.4050   19.3840 H   0  0  0  0  0  0
   24.0360   21.3880   17.1140 C   0  0  0  0  0  0
   23.3260   22.2650   16.2790 C   0  0  0  0  0  0
   23.8480   23.0390   15.7190 H   0  0  0  0  0  0
   21.9360   22.1710   16.1560 C   0  0  0  0  0  0
   21.4100   22.8600   15.4990 H   0  0  0  0  0  0
   21.2440   21.2030   16.8850 C   0  0  0  0  0  0
   21.9310   20.3220   17.7210 C   0  0  0  0  0  0
   21.4030   19.5580   18.2870 H   0  0  0  0  0  0
   23.3220   20.4220   17.8370 C   0  0  0  0  0  0
   23.8400   19.7220   18.4910 H   0  0  0  0  0  0
   19.4790   21.0680   16.7150 S   0  0  0  0  0  0
   18.9410   22.4120   16.5220 O   0  0  0  0  0  0
   18.9800   20.2760   17.8350 O   0  0  0  0  0  0
   19.2690   20.1450   15.2160 C   0  0  0  0  0  0
   18.1980   20.0230   15.0400 H   0  0  0  0  0  0
   19.7400   19.1680   15.3300 H   0  0  0  0  0  0
   19.7190   20.7000   14.3910 H   0  0  0  0  0  0
   26.1560   22.7060   15.1110 C   0  0  0  0  0  0
   26.4150   24.0710   14.9150 C   0  0  0  0  0  0
   26.7620   24.6960   15.7350 H   0  0  0  0  0  0
   26.2130   24.6610   13.6640 C   0  0  0  0  0  0
   26.4070   25.7200   13.5170 H   0  0  0  0  0  0
   25.7590   23.8860   12.6050 C   0  0  0  0  0  0
   25.5050   22.5310   12.7720 C   0  0  0  0  0  0
   25.1560   21.9360   11.9330 H   0  0  0  0  0  0
   25.7070   21.9420   14.0230 C   0  0  0  0  0  0
   25.5170   20.8750   14.1360 H   0  0  0  0  0  0
   25.5650   24.4520   11.4060 F   0  0  0  0  0  0
  1  2  2  0  0  0
  1  7  1  0  0  0
  1 33  1  0  0  0
  2  3  1  0  0  0
  2 16  1  0  0  0
  3  4  1  0  0  0
  3  5  1  0  0  0
  3  6  1  0  0  0
  6  7  1  0  0  0
  6 10  1  0  0  0
  6 13  1  0  0  0
  7  8  1  0  0  0
  7  9  1  0  0  0
 10 11  1  0  0  0
 10 12  1  0  0  0
 10 13  1  0  0  0
 13 14  1  0  0  0
 13 15  1  0  0  0
 16 17  1  0  0  0
 16 24  2  0  0  0
 17 18  1  0  0  0
 17 19  2  0  0  0
 19 20  1  0  0  0
 19 21  1  0  0  0
 21 22  2  0  0  0
 21 26  1  0  0  0
 22 23  1  0  0  0
 22 24  1  0  0  0
 24 25  1  0  0  0
 26 27  2  0  0  0
 26 28  2  0  0  0
 26 29  1  0  0  0
 29 30  1  0  0  0
 29 31  1  0  0  0
 29 32  1  0  0  0
 33 34  1  0  0  0
 33 41  2  0  0  0
 34 35  1  0  0  0
 34 36  2  0  0  0
 36 37  1  0  0  0
 36 38  1  0  0  0
 38 39  2  0  0  0
 38 43  1  0  0  0
 39 40  1  0  0  0
 39 41  1  0  0  0
 41 42  1  0  0  0
M  END
>  <ACTIVITY>
8.12

>  <SET>
1

>  <Min_dist>
999.9

>  <Avg_dist>
999.9

$$$$
9-32
  Cerius2 12110214053D 1   1.00000                          
Structure written by Cerius2 SD Exporter
 42 45  0  0  0  0  0  0  0  0999 V2000
   26.3850   22.0820   16.4210 C   0  0  0  0  0  0
   25.4940   21.5010   17.2540 C   0  0  0  0  0  0
   26.1800   20.9250   18.4740 C   0  0  0  0  0  0
   26.0580   19.8380   18.5210 H   0  0  0  0  0  0
   25.7740   21.3730   19.3890 H   0  0  0  0  0  0
   27.6420   21.2820   18.3020 C   0  0  0  0  0  0
   27.7860   22.0300   16.9930 C   0  0  0  0  0  0
   28.1780   23.0370   17.1720 H   0  0  0  0  0  0
   28.4580   21.4980   16.3110 H   0  0  0  0  0  0
   28.7290   20.3450   18.7820 C   0  0  0  0  0  0
   29.6300   20.2490   18.1860 H   0  0  0  0  0  0
   28.4410   19.4300   19.2870 H   0  0  0  0  0  0
   28.4970   21.6430   19.4970 C   0  0  0  0  0  0
   28.0500   21.6040   20.4850 H   0  0  0  0  0  0
   29.2420   22.4230   19.3860 H   0  0  0  0  0  0
   24.0360   21.3870   17.1130 C   0  0  0  0  0  0
   23.3250   22.2650   16.2800 C   0  0  0  0  0  0
   23.8470   23.0390   15.7190 H   0  0  0  0  0  0
   21.9350   22.1710   16.1590 C   0  0  0  0  0  0
   21.4050   22.8600   15.5050 H   0  0  0  0  0  0
   21.2420   21.2020   16.8880 C   0  0  0  0  0  0
   21.9310   20.3220   17.7230 C   0  0  0  0  0  0
   21.4020   19.5590   18.2900 H   0  0  0  0  0  0
   23.3220   20.4210   17.8380 C   0  0  0  0  0  0
   23.8410   19.7210   18.4910 H   0  0  0  0  0  0
   19.4840   21.0710   16.7100 S   0  0  0  0  0  0
   18.9270   22.3810   16.4220 O   0  0  0  0  0  0
   18.9570   20.2700   17.8010 O   0  0  0  0  0  0
   19.3390   20.1630   15.3100 N   0  0  0  0  0  0
   18.8610   20.6920   14.5760 H   0  0  0  0  0  0
   18.8700   19.2720   15.4950 H   0  0  0  0  0  0
   26.1550   22.7060   15.1110 C   0  0  0  0  0  0
   26.4140   24.0710   14.9150 C   0  0  0  0  0  0
   26.7620   24.6960   15.7360 H   0  0  0  0  0  0
   26.2110   24.6610   13.6640 C   0  0  0  0  0  0
   26.4060   25.7190   13.5170 H   0  0  0  0  0  0
   25.7570   23.8850   12.6050 C   0  0  0  0  0  0
   25.5030   22.5300   12.7720 C   0  0  0  0  0  0
   25.1530   21.9360   11.9340 H   0  0  0  0  0  0
   25.7060   21.9410   14.0230 C   0  0  0  0  0  0
   25.5160   20.8750   14.1370 H   0  0  0  0  0  0
   25.5640   24.4510   11.4070 F   0  0  0  0  0  0
  1  2  2  0  0  0
  1  7  1  0  0  0
  1 32  1  0  0  0
  2  3  1  0  0  0
  2 16  1  0  0  0
  3  4  1  0  0  0
  3  5  1  0  0  0
  3  6  1  0  0  0
  6  7  1  0  0  0
  6 10  1  0  0  0
  6 13  1  0  0  0
  7  8  1  0  0  0
  7  9  1  0  0  0
 10 11  1  0  0  0
 10 12  1  0  0  0
 10 13  1  0  0  0
 13 14  1  0  0  0
 13 15  1  0  0  0
 16 17  1  0  0  0
 16 24  2  0  0  0
 17 18  1  0  0  0
 17 19  2  0  0  0
 19 20  1  0  0  0
 19 21  1  0  0  0
 21 22  2  0  0  0
 21 26  1  0  0  0
 22 23  1  0  0  0
 22 24  1  0  0  0
 24 25  1  0  0  0
 26 27  2  0  0  0
 26 28  2  0  0  0
 26 29  1  0  0  0
 29 30  1  0  0  0
 29 31  1  0  0  0
 32 33  1  0  0  0
 32 40  2  0  0  0
 33 34  1  0  0  0
 33 35  2  0  0  0
 35 36  1  0  0  0
 35 37  1  0  0  0
 37 38  2  0  0  0
 37 42  1  0  0  0
 38 39  1  0  0  0
 38 40  1  0  0  0
 40 41  1  0  0  0
M  END
>  <ACTIVITY>
8.52

>  <SET>
2

>  <Min_dist>
0.09

>  <Avg_dist>
0.63

$$$$
9-35
  Cerius2 12110214053D 1   1.00000                          
Structure written by Cerius2 SD Exporter
 46 49  0  0  0  0  0  0  0  0999 V2000
   26.3840   22.0820   16.4200 C   0  0  0  0  0  0
   25.4920   21.5020   17.2530 C   0  0  0  0  0  0
   26.1770   20.9260   18.4750 C   0  0  0  0  0  0
   26.0510   19.8400   18.5240 H   0  0  0  0  0  0
   25.7740   21.3780   19.3880 H   0  0  0  0  0  0
   27.6400   21.2770   18.3010 C   0  0  0  0  0  0
   27.7850   22.0290   16.9950 C   0  0  0  0  0  0
   28.1760   23.0350   17.1770 H   0  0  0  0  0  0
   28.4580   21.4990   16.3120 H   0  0  0  0  0  0
   28.7240   20.3330   18.7750 C   0  0  0  0  0  0
   29.6240   20.2360   18.1770 H   0  0  0  0  0  0
   28.4320   19.4170   19.2760 H   0  0  0  0  0  0
   28.4990   21.6290   19.4960 C   0  0  0  0  0  0
   28.0550   21.5880   20.4850 H   0  0  0  0  0  0
   29.2470   22.4060   19.3860 H   0  0  0  0  0  0
   24.0340   21.3870   17.1130 C   0  0  0  0  0  0
   23.3230   22.2630   16.2800 C   0  0  0  0  0  0
   23.8450   23.0360   15.7170 H   0  0  0  0  0  0
   21.9320   22.1690   16.1580 C   0  0  0  0  0  0
   21.4060   22.8580   15.5010 H   0  0  0  0  0  0
   21.2410   21.2010   16.8880 C   0  0  0  0  0  0
   21.9300   20.3200   17.7230 C   0  0  0  0  0  0
   21.4020   19.5560   18.2900 H   0  0  0  0  0  0
   23.3210   20.4210   17.8380 C   0  0  0  0  0  0
   23.8400   19.7210   18.4910 H   0  0  0  0  0  0
   19.4760   21.0670   16.7200 S   0  0  0  0  0  0
   18.9370   22.4110   16.5410 O   0  0  0  0  0  0
   18.9810   20.2640   17.8340 O   0  0  0  0  0  0
   19.2650   20.1570   15.2130 C   0  0  0  0  0  0
   18.1930   20.0350   15.0390 H   0  0  0  0  0  0
   19.7380   19.1800   15.3170 H   0  0  0  0  0  0
   19.7130   20.7210   14.3920 H   0  0  0  0  0  0
   26.1590   22.7060   15.1100 C   0  0  0  0  0  0
   26.4160   24.0690   14.9130 C   0  0  0  0  0  0
   26.7550   24.6950   15.7360 H   0  0  0  0  0  0
   26.2190   24.6610   13.6600 C   0  0  0  0  0  0
   26.4130   25.7270   13.5420 H   0  0  0  0  0  0
   25.7790   23.8980   12.5750 C   0  0  0  0  0  0
   25.5170   22.5380   12.7670 C   0  0  0  0  0  0
   25.1600   21.9230   11.9410 H   0  0  0  0  0  0
   25.7140   21.9480   14.0190 C   0  0  0  0  0  0
   25.5200   20.8820   14.1310 H   0  0  0  0  0  0
   25.5340   24.5400   11.2410 C   0  0  0  0  0  0
   25.7000   23.8260   10.4270 H   0  0  0  0  0  0
   26.2190   25.3790   11.0810 H   0  0  0  0  0  0
   24.5050   24.9070   11.1860 H   0  0  0  0  0  0
  1  2  2  0  0  0
  1  7  1  0  0  0
  1 33  1  0  0  0
  2  3  1  0  0  0
  2 16  1  0  0  0
  3  4  1  0  0  0
  3  5  1  0  0  0
  3  6  1  0  0  0
  6  7  1  0  0  0
  6 10  1  0  0  0
  6 13  1  0  0  0
  7  8  1  0  0  0
  7  9  1  0  0  0
 10 11  1  0  0  0
 10 12  1  0  0  0
 10 13  1  0  0  0
 13 14  1  0  0  0
 13 15  1  0  0  0
 16 17  1  0  0  0
 16 24  2  0  0  0
 17 18  1  0  0  0
 17 19  2  0  0  0
 19 20  1  0  0  0
 19 21  1  0  0  0
 21 22  2  0  0  0
 21 26  1  0  0  0
 22 23  1  0  0  0
 22 24  1  0  0  0
 24 25  1  0  0  0
 26 27  2  0  0  0
 26 28  2  0  0  0
 26 29  1  0  0  0
 29 30  1  0  0  0
 29 31  1  0  0  0
 29 32  1  0  0  0
 33 34  1  0  0  0
 33 41  2  0  0  0
 34 35  1  0  0  0
 34 36  2  0  0  0
 36 37  1  0  0  0
 36 38  1  0  0  0
 38 39  2  0  0  0
 38 43  1  0  0  0
 39 40  1  0  0  0
 39 41  1  0  0  0
 41 42  1  0  0  0
 43 44  1  0  0  0
 43 45  1  0  0  0
 43 46  1  0  0  0
M  END
>  <ACTIVITY>
8.82

>  <SET>
1

>  <Min_dist>
999.9

>  <Avg_dist>
999.9

$$$$
9-36
  Cerius2 12110214053D 1   1.00000                          
Structure written by Cerius2 SD Exporter
 47 50  0  0  0  0  0  0  0  0999 V2000
   26.3840   22.0820   16.4210 C   0  0  0  0  0  0
   25.4930   21.5020   17.2540 C   0  0  0  0  0  0
   26.1790   20.9250   18.4750 C   0  0  0  0  0  0
   26.0530   19.8380   18.5230 H   0  0  0  0  0  0
   25.7760   21.3750   19.3890 H   0  0  0  0  0  0
   27.6410   21.2770   18.3010 C   0  0  0  0  0  0
   27.7850   22.0280   16.9940 C   0  0  0  0  0  0
   28.1770   23.0340   17.1750 H   0  0  0  0  0  0
   28.4580   21.4970   16.3110 H   0  0  0  0  0  0
   28.7260   20.3340   18.7750 C   0  0  0  0  0  0
   29.6250   20.2360   18.1770 H   0  0  0  0  0  0
   28.4350   19.4180   19.2780 H   0  0  0  0  0  0
   28.5010   21.6310   19.4960 C   0  0  0  0  0  0
   28.0570   21.5900   20.4840 H   0  0  0  0  0  0
   29.2490   22.4070   19.3850 H   0  0  0  0  0  0
   24.0350   21.3870   17.1150 C   0  0  0  0  0  0
   23.3240   22.2650   16.2810 C   0  0  0  0  0  0
   23.8470   23.0380   15.7200 H   0  0  0  0  0  0
   21.9340   22.1700   16.1580 C   0  0  0  0  0  0
   21.4080   22.8590   15.5010 H   0  0  0  0  0  0
   21.2430   21.2010   16.8870 C   0  0  0  0  0  0
   21.9310   20.3210   17.7230 C   0  0  0  0  0  0
   21.4030   19.5570   18.2900 H   0  0  0  0  0  0
   23.3210   20.4220   17.8390 C   0  0  0  0  0  0
   23.8400   19.7220   18.4930 H   0  0  0  0  0  0
   19.4780   21.0680   16.7160 S   0  0  0  0  0  0
   18.9400   22.4100   16.5200 O   0  0  0  0  0  0
   18.9800   20.2770   17.8370 O   0  0  0  0  0  0
   19.2690   20.1430   15.2170 C   0  0  0  0  0  0
   18.1980   20.0220   15.0410 H   0  0  0  0  0  0
   19.7390   19.1650   15.3330 H   0  0  0  0  0  0
   19.7210   20.6980   14.3930 H   0  0  0  0  0  0
   26.1570   22.7050   15.1110 C   0  0  0  0  0  0
   26.4140   24.0670   14.9110 C   0  0  0  0  0  0
   26.7600   24.6930   15.7320 H   0  0  0  0  0  0
   26.2150   24.6630   13.6580 C   0  0  0  0  0  0
   26.4250   25.7250   13.5650 H   0  0  0  0  0  0
   25.7640   23.9010   12.5820 C   0  0  0  0  0  0
   25.5140   22.5410   12.7710 C   0  0  0  0  0  0
   25.1660   21.9300   11.9410 H   0  0  0  0  0  0
   25.7120   21.9470   14.0220 C   0  0  0  0  0  0
   25.5200   20.8810   14.1300 H   0  0  0  0  0  0
   25.5320   24.3580   11.3140 O   0  0  0  0  0  0
   25.7780   25.7430   11.0760 C   0  0  0  0  0  0
   25.5510   25.9450   10.0250 H   0  0  0  0  0  0
   26.8310   25.9890   11.2430 H   0  0  0  0  0  0
   25.1200   26.3690   11.6870 H   0  0  0  0  0  0
  1  2  2  0  0  0
  1  7  1  0  0  0
  1 33  1  0  0  0
  2  3  1  0  0  0
  2 16  1  0  0  0
  3  4  1  0  0  0
  3  5  1  0  0  0
  3  6  1  0  0  0
  6  7  1  0  0  0
  6 10  1  0  0  0
  6 13  1  0  0  0
  7  8  1  0  0  0
  7  9  1  0  0  0
 10 11  1  0  0  0
 10 12  1  0  0  0
 10 13  1  0  0  0
 13 14  1  0  0  0
 13 15  1  0  0  0
 16 17  1  0  0  0
 16 24  2  0  0  0
 17 18  1  0  0  0
 17 19  2  0  0  0
 19 20  1  0  0  0
 19 21  1  0  0  0
 21 22  2  0  0  0
 21 26  1  0  0  0
 22 23  1  0  0  0
 22 24  1  0  0  0
 24 25  1  0  0  0
 26 27  2  0  0  0
 26 28  2  0  0  0
 26 29  1  0  0  0
 29 30  1  0  0  0
 29 31  1  0  0  0
 29 32  1  0  0  0
 33 34  1  0  0  0
 33 41  2  0  0  0
 34 35  1  0  0  0
 34 36  2  0  0  0
 36 37  1  0  0  0
 36 38  1  0  0  0
 38 39  2  0  0  0
 38 43  1  0  0  0
 39 40  1  0  0  0
 39 41  1  0  0  0
 41 42  1  0  0  0
 43 44  1  0  0  0
 44 45  1  0  0  0
 44 46  1  0  0  0
 44 47  1  0  0  0
M  END
>  <ACTIVITY>
8.3

>  <SET>
1

>  <Min_dist>
999.9

>  <Avg_dist>
999.9

$$$$
9-37
  Cerius2 12110214053D 1   1.00000                          
Structure written by Cerius2 SD Exporter
 46 49  0  0  0  0  0  0  0  0999 V2000
   26.3850   22.0810   16.4200 C   0  0  0  0  0  0
   25.4930   21.5000   17.2540 C   0  0  0  0  0  0
   26.1800   20.9260   18.4750 C   0  0  0  0  0  0
   26.0580   19.8390   18.5230 H   0  0  0  0  0  0
   25.7750   21.3750   19.3890 H   0  0  0  0  0  0
   27.6420   21.2820   18.3020 C   0  0  0  0  0  0
   27.7850   22.0290   16.9930 C   0  0  0  0  0  0
   28.1770   23.0360   17.1710 H   0  0  0  0  0  0
   28.4570   21.4960   16.3120 H   0  0  0  0  0  0
   28.7300   20.3450   18.7820 C   0  0  0  0  0  0
   29.6310   20.2500   18.1860 H   0  0  0  0  0  0
   28.4410   19.4300   19.2860 H   0  0  0  0  0  0
   28.4970   21.6430   19.4970 C   0  0  0  0  0  0
   28.0500   21.6040   20.4850 H   0  0  0  0  0  0
   29.2420   22.4230   19.3860 H   0  0  0  0  0  0
   24.0350   21.3860   17.1150 C   0  0  0  0  0  0
   23.3240   22.2640   16.2820 C   0  0  0  0  0  0
   23.8460   23.0380   15.7220 H   0  0  0  0  0  0
   21.9340   22.1710   16.1610 C   0  0  0  0  0  0
   21.4040   22.8600   15.5080 H   0  0  0  0  0  0
   21.2410   21.2010   16.8890 C   0  0  0  0  0  0
   21.9300   20.3220   17.7260 C   0  0  0  0  0  0
   21.4000   19.5600   18.2930 H   0  0  0  0  0  0
   23.3210   20.4220   17.8410 C   0  0  0  0  0  0
   23.8390   19.7220   18.4950 H   0  0  0  0  0  0
   19.4830   21.0690   16.7090 S   0  0  0  0  0  0
   18.9260   22.3780   16.4190 O   0  0  0  0  0  0
   18.9550   20.2680   17.7990 O   0  0  0  0  0  0
   19.3400   20.1610   15.3090 N   0  0  0  0  0  0
   18.8630   20.6900   14.5740 H   0  0  0  0  0  0
   18.8720   19.2700   15.4920 H   0  0  0  0  0  0
   26.1560   22.7040   15.1110 C   0  0  0  0  0  0
   26.4130   24.0660   14.9110 C   0  0  0  0  0  0
   26.7610   24.6910   15.7330 H   0  0  0  0  0  0
   26.2130   24.6630   13.6590 C   0  0  0  0  0  0
   26.4230   25.7250   13.5660 H   0  0  0  0  0  0
   25.7590   23.9020   12.5830 C   0  0  0  0  0  0
   25.5090   22.5420   12.7720 C   0  0  0  0  0  0
   25.1590   21.9310   11.9420 H   0  0  0  0  0  0
   25.7090   21.9470   14.0220 C   0  0  0  0  0  0
   25.5170   20.8800   14.1300 H   0  0  0  0  0  0
   25.5240   24.3610   11.3170 O   0  0  0  0  0  0
   25.7710   25.7460   11.0810 C   0  0  0  0  0  0
   25.5420   25.9510   10.0310 H   0  0  0  0  0  0
   26.8260   25.9910   11.2460 H   0  0  0  0  0  0
   25.1160   26.3730   11.6940 H   0  0  0  0  0  0
  1  2  2  0  0  0
  1  7  1  0  0  0
  1 32  1  0  0  0
  2  3  1  0  0  0
  2 16  1  0  0  0
  3  4  1  0  0  0
  3  5  1  0  0  0
  3  6  1  0  0  0
  6  7  1  0  0  0
  6 10  1  0  0  0
  6 13  1  0  0  0
  7  8  1  0  0  0
  7  9  1  0  0  0
 10 11  1  0  0  0
 10 12  1  0  0  0
 10 13  1  0  0  0
 13 14  1  0  0  0
 13 15  1  0  0  0
 16 17  1  0  0  0
 16 24  2  0  0  0
 17 18  1  0  0  0
 17 19  2  0  0  0
 19 20  1  0  0  0
 19 21  1  0  0  0
 21 22  2  0  0  0
 21 26  1  0  0  0
 22 23  1  0  0  0
 22 24  1  0  0  0
 24 25  1  0  0  0
 26 27  2  0  0  0
 26 28  2  0  0  0
 26 29  1  0  0  0
 29 30  1  0  0  0
 29 31  1  0  0  0
 32 33  1  0  0  0
 32 40  2  0  0  0
 33 34  1  0  0  0
 33 35  2  0  0  0
 35 36  1  0  0  0
 35 37  1  0  0  0
 37 38  2  0  0  0
 37 42  1  0  0  0
 38 39  1  0  0  0
 38 40  1  0  0  0
 40 41  1  0  0  0
 42 43  1  0  0  0
 43 44  1  0  0  0
 43 45  1  0  0  0
 43 46  1  0  0  0
M  END
>  <ACTIVITY>
9

>  <SET>
1

>  <Min_dist>
999.9

>  <Avg_dist>
999.9

$$$$
9-38
  Cerius2 12110214053D 1   1.00000                          
Structure written by Cerius2 SD Exporter
 47 50  0  0  0  0  0  0  0  0999 V2000
   26.3840   22.0820   16.4210 C   0  0  0  0  0  0
   25.4930   21.5010   17.2540 C   0  0  0  0  0  0
   26.1790   20.9240   18.4750 C   0  0  0  0  0  0
   26.0540   19.8370   18.5210 H   0  0  0  0  0  0
   25.7740   21.3720   19.3890 H   0  0  0  0  0  0
   27.6410   21.2770   18.3010 C   0  0  0  0  0  0
   27.7850   22.0290   16.9950 C   0  0  0  0  0  0
   28.1750   23.0360   17.1780 H   0  0  0  0  0  0
   28.4580   21.5000   16.3120 H   0  0  0  0  0  0
   28.7260   20.3360   18.7760 C   0  0  0  0  0  0
   29.6270   20.2400   18.1780 H   0  0  0  0  0  0
   28.4360   19.4190   19.2770 H   0  0  0  0  0  0
   28.4980   21.6310   19.4970 C   0  0  0  0  0  0
   28.0540   21.5890   20.4850 H   0  0  0  0  0  0
   29.2460   22.4090   19.3880 H   0  0  0  0  0  0
   24.0350   21.3870   17.1140 C   0  0  0  0  0  0
   23.3250   22.2640   16.2800 C   0  0  0  0  0  0
   23.8480   23.0370   15.7190 H   0  0  0  0  0  0
   21.9350   22.1700   16.1570 C   0  0  0  0  0  0
   21.4090   22.8590   15.5000 H   0  0  0  0  0  0
   21.2430   21.2010   16.8860 C   0  0  0  0  0  0
   21.9310   20.3200   17.7220 C   0  0  0  0  0  0
   21.4030   19.5560   18.2880 H   0  0  0  0  0  0
   23.3220   20.4200   17.8380 C   0  0  0  0  0  0
   23.8400   19.7200   18.4910 H   0  0  0  0  0  0
   19.4780   21.0700   16.7170 S   0  0  0  0  0  0
   18.9410   22.4130   16.5240 O   0  0  0  0  0  0
   18.9800   20.2780   17.8380 O   0  0  0  0  0  0
   19.2670   20.1470   15.2180 C   0  0  0  0  0  0
   18.1960   20.0240   15.0430 H   0  0  0  0  0  0
   19.7380   19.1690   15.3320 H   0  0  0  0  0  0
   19.7170   20.7010   14.3930 H   0  0  0  0  0  0
   26.1560   22.7050   15.1110 C   0  0  0  0  0  0
   26.4130   24.0660   14.9100 C   0  0  0  0  0  0
   26.7580   24.6930   15.7310 H   0  0  0  0  0  0
   26.2150   24.6630   13.6560 C   0  0  0  0  0  0
   26.4270   25.7260   13.5730 H   0  0  0  0  0  0
   25.7640   23.9020   12.5790 C   0  0  0  0  0  0
   25.5150   22.5410   12.7720 C   0  0  0  0  0  0
   25.1660   21.9260   11.9440 H   0  0  0  0  0  0
   25.7120   21.9470   14.0230 C   0  0  0  0  0  0
   25.5210   20.8800   14.1310 H   0  0  0  0  0  0
   25.5300   24.3480   11.3110 O   0  0  0  0  0  0
   25.7700   25.7210   11.0390 C   0  0  0  0  0  0
   25.4850   25.9610    9.7340 F   0  0  0  0  0  0
   27.0680   26.0440   11.2450 F   0  0  0  0  0  0
   24.9750   26.5180   11.7900 F   0  0  0  0  0  0
  1  2  2  0  0  0
  1  7  1  0  0  0
  1 33  1  0  0  0
  2  3  1  0  0  0
  2 16  1  0  0  0
  3  4  1  0  0  0
  3  5  1  0  0  0
  3  6  1  0  0  0
  6  7  1  0  0  0
  6 10  1  0  0  0
  6 13  1  0  0  0
  7  8  1  0  0  0
  7  9  1  0  0  0
 10 11  1  0  0  0
 10 12  1  0  0  0
 10 13  1  0  0  0
 13 14  1  0  0  0
 13 15  1  0  0  0
 16 17  1  0  0  0
 16 24  2  0  0  0
 17 18  1  0  0  0
 17 19  2  0  0  0
 19 20  1  0  0  0
 19 21  1  0  0  0
 21 22  2  0  0  0
 21 26  1  0  0  0
 22 23  1  0  0  0
 22 24  1  0  0  0
 24 25  1  0  0  0
 26 27  2  0  0  0
 26 28  2  0  0  0
 26 29  1  0  0  0
 29 30  1  0  0  0
 29 31  1  0  0  0
 29 32  1  0  0  0
 33 34  1  0  0  0
 33 41  2  0  0  0
 34 35  1  0  0  0
 34 36  2  0  0  0
 36 37  1  0  0  0
 36 38  1  0  0  0
 38 39  2  0  0  0
 38 43  1  0  0  0
 39 40  1  0  0  0
 39 41  1  0  0  0
 41 42  1  0  0  0
 43 44  1  0  0  0
 44 45  1  0  0  0
 44 46  1  0  0  0
 44 47  1  0  0  0
M  END
>  <ACTIVITY>
6.87

>  <SET>
1

>  <Min_dist>
999.9

>  <Avg_dist>
999.9

$$$$
9-39
  Cerius2 12110214053D 1   1.00000                          
Structure written by Cerius2 SD Exporter
 46 49  0  0  0  0  0  0  0  0999 V2000
   26.3850   22.0810   16.4200 C   0  0  0  0  0  0
   25.4930   21.5010   17.2540 C   0  0  0  0  0  0
   26.1790   20.9250   18.4750 C   0  0  0  0  0  0
   26.0560   19.8380   18.5220 H   0  0  0  0  0  0
   25.7730   21.3740   19.3890 H   0  0  0  0  0  0
   27.6410   21.2810   18.3020 C   0  0  0  0  0  0
   27.7850   22.0280   16.9940 C   0  0  0  0  0  0
   28.1770   23.0350   17.1720 H   0  0  0  0  0  0
   28.4570   21.4950   16.3120 H   0  0  0  0  0  0
   28.7280   20.3440   18.7830 C   0  0  0  0  0  0
   29.6290   20.2470   18.1870 H   0  0  0  0  0  0
   28.4380   19.4290   19.2880 H   0  0  0  0  0  0
   28.4960   21.6420   19.4980 C   0  0  0  0  0  0
   28.0490   21.6030   20.4850 H   0  0  0  0  0  0
   29.2410   22.4220   19.3860 H   0  0  0  0  0  0
   24.0350   21.3870   17.1150 C   0  0  0  0  0  0
   23.3230   22.2650   16.2820 C   0  0  0  0  0  0
   23.8450   23.0390   15.7220 H   0  0  0  0  0  0
   21.9330   22.1710   16.1620 C   0  0  0  0  0  0
   21.4030   22.8600   15.5090 H   0  0  0  0  0  0
   21.2400   21.2020   16.8900 C   0  0  0  0  0  0
   21.9300   20.3220   17.7270 C   0  0  0  0  0  0
   21.4010   19.5600   18.2950 H   0  0  0  0  0  0
   23.3210   20.4220   17.8410 C   0  0  0  0  0  0
   23.8400   19.7220   18.4950 H   0  0  0  0  0  0
   19.4830   21.0670   16.7090 S   0  0  0  0  0  0
   18.9250   22.3760   16.4180 O   0  0  0  0  0  0
   18.9560   20.2670   17.8000 O   0  0  0  0  0  0
   19.3400   20.1580   15.3100 N   0  0  0  0  0  0
   18.8620   20.6860   14.5750 H   0  0  0  0  0  0
   18.8710   19.2680   15.4950 H   0  0  0  0  0  0
   26.1560   22.7040   15.1110 C   0  0  0  0  0  0
   26.4140   24.0650   14.9100 C   0  0  0  0  0  0
   26.7610   24.6900   15.7320 H   0  0  0  0  0  0
   26.2140   24.6640   13.6580 C   0  0  0  0  0  0
   26.4270   25.7270   13.5750 H   0  0  0  0  0  0
   25.7600   23.9050   12.5810 C   0  0  0  0  0  0
   25.5110   22.5430   12.7730 C   0  0  0  0  0  0
   25.1600   21.9300   11.9440 H   0  0  0  0  0  0
   25.7100   21.9470   14.0220 C   0  0  0  0  0  0
   25.5180   20.8810   14.1300 H   0  0  0  0  0  0
   25.5220   24.3520   11.3140 O   0  0  0  0  0  0
   25.7570   25.7260   11.0440 C   0  0  0  0  0  0
   25.4650   25.9680    9.7410 F   0  0  0  0  0  0
   27.0560   26.0530   11.2440 F   0  0  0  0  0  0
   24.9650   26.5200   11.8010 F   0  0  0  0  0  0
  1  2  2  0  0  0
  1  7  1  0  0  0
  1 32  1  0  0  0
  2  3  1  0  0  0
  2 16  1  0  0  0
  3  4  1  0  0  0
  3  5  1  0  0  0
  3  6  1  0  0  0
  6  7  1  0  0  0
  6 10  1  0  0  0
  6 13  1  0  0  0
  7  8  1  0  0  0
  7  9  1  0  0  0
 10 11  1  0  0  0
 10 12  1  0  0  0
 10 13  1  0  0  0
 13 14  1  0  0  0
 13 15  1  0  0  0
 16 17  1  0  0  0
 16 24  2  0  0  0
 17 18  1  0  0  0
 17 19  2  0  0  0
 19 20  1  0  0  0
 19 21  1  0  0  0
 21 22  2  0  0  0
 21 26  1  0  0  0
 22 23  1  0  0  0
 22 24  1  0  0  0
 24 25  1  0  0  0
 26 27  2  0  0  0
 26 28  2  0  0  0
 26 29  1  0  0  0
 29 30  1  0  0  0
 29 31  1  0  0  0
 32 33  1  0  0  0
 32 40  2  0  0  0
 33 34  1  0  0  0
 33 35  2  0  0  0
 35 36  1  0  0  0
 35 37  1  0  0  0
 37 38  2  0  0  0
 37 42  1  0  0  0
 38 39  1  0  0  0
 38 40  1  0  0  0
 40 41  1  0  0  0
 42 43  1  0  0  0
 43 44  1  0  0  0
 43 45  1  0  0  0
 43 46  1  0  0  0
M  END
>  <ACTIVITY>
6.89

>  <SET>
1

>  <Min_dist>
999.9

>  <Avg_dist>
999.9

$$$$
9-40
  Cerius2 12110214053D 1   1.00000                          
Structure written by Cerius2 SD Exporter
 46 49  0  0  0  0  0  0  0  0999 V2000
   26.3850   22.0820   16.4210 C   0  0  0  0  0  0
   25.4930   21.5010   17.2530 C   0  0  0  0  0  0
   26.1790   20.9260   18.4750 C   0  0  0  0  0  0
   26.0550   19.8390   18.5230 H   0  0  0  0  0  0
   25.7740   21.3750   19.3880 H   0  0  0  0  0  0
   27.6410   21.2800   18.3020 C   0  0  0  0  0  0
   27.7850   22.0290   16.9950 C   0  0  0  0  0  0
   28.1770   23.0360   17.1750 H   0  0  0  0  0  0
   28.4580   21.4980   16.3130 H   0  0  0  0  0  0
   28.7270   20.3390   18.7790 C   0  0  0  0  0  0
   29.6280   20.2430   18.1830 H   0  0  0  0  0  0
   28.4360   19.4240   19.2820 H   0  0  0  0  0  0
   28.4970   21.6360   19.4980 C   0  0  0  0  0  0
   28.0520   21.5950   20.4860 H   0  0  0  0  0  0
   29.2450   22.4140   19.3870 H   0  0  0  0  0  0
   24.0350   21.3870   17.1130 C   0  0  0  0  0  0
   23.3250   22.2640   16.2790 C   0  0  0  0  0  0
   23.8470   23.0370   15.7180 H   0  0  0  0  0  0
   21.9350   22.1700   16.1570 C   0  0  0  0  0  0
   21.4080   22.8590   15.5000 H   0  0  0  0  0  0
   21.2430   21.2010   16.8860 C   0  0  0  0  0  0
   21.9310   20.3200   17.7210 C   0  0  0  0  0  0
   21.4030   19.5560   18.2880 H   0  0  0  0  0  0
   23.3220   20.4210   17.8370 C   0  0  0  0  0  0
   23.8400   19.7210   18.4900 H   0  0  0  0  0  0
   19.4780   21.0690   16.7180 S   0  0  0  0  0  0
   18.9410   22.4130   16.5240 O   0  0  0  0  0  0
   18.9800   20.2770   17.8380 O   0  0  0  0  0  0
   19.2660   20.1470   15.2180 C   0  0  0  0  0  0
   18.1950   20.0230   15.0450 H   0  0  0  0  0  0
   19.7390   19.1700   15.3310 H   0  0  0  0  0  0
   19.7130   20.7030   14.3920 H   0  0  0  0  0  0
   26.1570   22.7060   15.1110 C   0  0  0  0  0  0
   26.4140   24.0680   14.9140 C   0  0  0  0  0  0
   26.7560   24.6940   15.7360 H   0  0  0  0  0  0
   26.2150   24.6600   13.6610 C   0  0  0  0  0  0
   26.4110   25.7260   13.5420 H   0  0  0  0  0  0
   25.7680   23.8990   12.5720 C   0  0  0  0  0  0
   25.5110   22.5360   12.7690 C   0  0  0  0  0  0
   25.1570   21.9190   11.9430 H   0  0  0  0  0  0
   25.7100   21.9460   14.0220 C   0  0  0  0  0  0
   25.5170   20.8800   14.1340 H   0  0  0  0  0  0
   25.5340   24.5420   11.2290 C   0  0  0  0  0  0
   24.2640   25.0300   11.0900 F   0  0  0  0  0  0
   25.7150   23.6900   10.1740 F   0  0  0  0  0  0
   26.3610   25.6030   10.9770 F   0  0  0  0  0  0
  1  2  2  0  0  0
  1  7  1  0  0  0
  1 33  1  0  0  0
  2  3  1  0  0  0
  2 16  1  0  0  0
  3  4  1  0  0  0
  3  5  1  0  0  0
  3  6  1  0  0  0
  6  7  1  0  0  0
  6 10  1  0  0  0
  6 13  1  0  0  0
  7  8  1  0  0  0
  7  9  1  0  0  0
 10 11  1  0  0  0
 10 12  1  0  0  0
 10 13  1  0  0  0
 13 14  1  0  0  0
 13 15  1  0  0  0
 16 17  1  0  0  0
 16 24  2  0  0  0
 17 18  1  0  0  0
 17 19  2  0  0  0
 19 20  1  0  0  0
 19 21  1  0  0  0
 21 22  2  0  0  0
 21 26  1  0  0  0
 22 23  1  0  0  0
 22 24  1  0  0  0
 24 25  1  0  0  0
 26 27  2  0  0  0
 26 28  2  0  0  0
 26 29  1  0  0  0
 29 30  1  0  0  0
 29 31  1  0  0  0
 29 32  1  0  0  0
 33 34  1  0  0  0
 33 41  2  0  0  0
 34 35  1  0  0  0
 34 36  2  0  0  0
 36 37  1  0  0  0
 36 38  1  0  0  0
 38 39  2  0  0  0
 38 43  1  0  0  0
 39 40  1  0  0  0
 39 41  1  0  0  0
 41 42  1  0  0  0
 43 44  1  0  0  0
 43 45  1  0  0  0
 43 46  1  0  0  0
M  END
>  <ACTIVITY>
8.7

>  <SET>
2

>  <Min_dist>
0.06

>  <Avg_dist>
0.62

$$$$
9-41
  Cerius2 12110214053D 1   1.00000                          
Structure written by Cerius2 SD Exporter
 45 48  0  0  0  0  0  0  0  0999 V2000
   26.3850   22.0820   16.4200 C   0  0  0  0  0  0
   25.4930   21.5020   17.2530 C   0  0  0  0  0  0
   26.1790   20.9260   18.4750 C   0  0  0  0  0  0
   26.0540   19.8390   18.5220 H   0  0  0  0  0  0
   25.7740   21.3760   19.3880 H   0  0  0  0  0  0
   27.6410   21.2790   18.3010 C   0  0  0  0  0  0
   27.7850   22.0290   16.9940 C   0  0  0  0  0  0
   28.1780   23.0360   17.1740 H   0  0  0  0  0  0
   28.4580   21.4980   16.3110 H   0  0  0  0  0  0
   28.7260   20.3360   18.7750 C   0  0  0  0  0  0
   29.6260   20.2390   18.1780 H   0  0  0  0  0  0
   28.4340   19.4200   19.2770 H   0  0  0  0  0  0
   28.5000   21.6310   19.4970 C   0  0  0  0  0  0
   28.0560   21.5880   20.4850 H   0  0  0  0  0  0
   29.2480   22.4080   19.3870 H   0  0  0  0  0  0
   24.0350   21.3870   17.1130 C   0  0  0  0  0  0
   23.3240   22.2640   16.2800 C   0  0  0  0  0  0
   23.8450   23.0390   15.7200 H   0  0  0  0  0  0
   21.9340   22.1690   16.1600 C   0  0  0  0  0  0
   21.4020   22.8590   15.5070 H   0  0  0  0  0  0
   21.2410   21.2000   16.8880 C   0  0  0  0  0  0
   21.9310   20.3200   17.7240 C   0  0  0  0  0  0
   21.4030   19.5570   18.2920 H   0  0  0  0  0  0
   23.3220   20.4200   17.8380 C   0  0  0  0  0  0
   23.8410   19.7200   18.4910 H   0  0  0  0  0  0
   19.4840   21.0720   16.7110 S   0  0  0  0  0  0
   18.9280   22.3830   16.4240 O   0  0  0  0  0  0
   18.9560   20.2710   17.8020 O   0  0  0  0  0  0
   19.3340   20.1660   15.3100 N   0  0  0  0  0  0
   18.8560   20.6970   14.5770 H   0  0  0  0  0  0
   18.8610   19.2770   15.4940 H   0  0  0  0  0  0
   26.1570   22.7050   15.1110 C   0  0  0  0  0  0
   26.4140   24.0670   14.9140 C   0  0  0  0  0  0
   26.7590   24.6940   15.7350 H   0  0  0  0  0  0
   26.2120   24.6600   13.6620 C   0  0  0  0  0  0
   26.4090   25.7250   13.5420 H   0  0  0  0  0  0
   25.7620   23.8990   12.5740 C   0  0  0  0  0  0
   25.5060   22.5350   12.7710 C   0  0  0  0  0  0
   25.1490   21.9190   11.9460 H   0  0  0  0  0  0
   25.7080   21.9450   14.0230 C   0  0  0  0  0  0
   25.5150   20.8790   14.1360 H   0  0  0  0  0  0
   25.5220   24.5420   11.2320 C   0  0  0  0  0  0
   24.2500   25.0260   11.0970 F   0  0  0  0  0  0
   25.7030   23.6910   10.1760 F   0  0  0  0  0  0
   26.3450   25.6060   10.9790 F   0  0  0  0  0  0
  1  2  2  0  0  0
  1  7  1  0  0  0
  1 32  1  0  0  0
  2  3  1  0  0  0
  2 16  1  0  0  0
  3  4  1  0  0  0
  3  5  1  0  0  0
  3  6  1  0  0  0
  6  7  1  0  0  0
  6 10  1  0  0  0
  6 13  1  0  0  0
  7  8  1  0  0  0
  7  9  1  0  0  0
 10 11  1  0  0  0
 10 12  1  0  0  0
 10 13  1  0  0  0
 13 14  1  0  0  0
 13 15  1  0  0  0
 16 17  1  0  0  0
 16 24  2  0  0  0
 17 18  1  0  0  0
 17 19  2  0  0  0
 19 20  1  0  0  0
 19 21  1  0  0  0
 21 22  2  0  0  0
 21 26  1  0  0  0
 22 23  1  0  0  0
 22 24  1  0  0  0
 24 25  1  0  0  0
 26 27  2  0  0  0
 26 28  2  0  0  0
 26 29  1  0  0  0
 29 30  1  0  0  0
 29 31  1  0  0  0
 32 33  1  0  0  0
 32 40  2  0  0  0
 33 34  1  0  0  0
 33 35  2  0  0  0
 35 36  1  0  0  0
 35 37  1  0  0  0
 37 38  2  0  0  0
 37 42  1  0  0  0
 38 39  1  0  0  0
 38 40  1  0  0  0
 40 41  1  0  0  0
 42 43  1  0  0  0
 42 44  1  0  0  0
 42 45  1  0  0  0
M  END
>  <ACTIVITY>
9

>  <SET>
1

>  <Min_dist>
999.9

>  <Avg_dist>
999.9

$$$$
9-46
  Cerius2 12110214053D 1   1.00000                          
Structure written by Cerius2 SD Exporter
 46 50  0  0  0  0  0  0  0  0999 V2000
   26.3880   22.0870   16.4220 C   0  0  0  0  0  0
   25.4960   21.5040   17.2530 C   0  0  0  0  0  0
   26.1820   20.9220   18.4700 C   0  0  0  0  0  0
   26.0550   19.8350   18.5140 H   0  0  0  0  0  0
   25.7800   21.3680   19.3860 H   0  0  0  0  0  0
   27.6450   21.2730   18.2960 C   0  0  0  0  0  0
   27.7890   22.0300   16.9930 C   0  0  0  0  0  0
   28.1810   23.0350   17.1780 H   0  0  0  0  0  0
   28.4600   21.5020   16.3070 H   0  0  0  0  0  0
   28.7290   20.3260   18.7650 C   0  0  0  0  0  0
   29.6280   20.2320   18.1650 H   0  0  0  0  0  0
   28.4380   19.4080   19.2620 H   0  0  0  0  0  0
   28.5060   21.6190   19.4920 C   0  0  0  0  0  0
   28.0630   21.5730   20.4810 H   0  0  0  0  0  0
   29.2550   22.3960   19.3850 H   0  0  0  0  0  0
   24.0380   21.3910   17.1120 C   0  0  0  0  0  0
   23.3280   22.2680   16.2770 C   0  0  0  0  0  0
   23.8510   23.0420   15.7170 H   0  0  0  0  0  0
   21.9380   22.1740   16.1530 C   0  0  0  0  0  0
   21.4130   22.8630   15.4950 H   0  0  0  0  0  0
   21.2460   21.2050   16.8820 C   0  0  0  0  0  0
   21.9330   20.3250   17.7180 C   0  0  0  0  0  0
   21.4050   19.5610   18.2840 H   0  0  0  0  0  0
   23.3240   20.4250   17.8350 C   0  0  0  0  0  0
   23.8420   19.7250   18.4890 H   0  0  0  0  0  0
   19.4810   21.0700   16.7100 S   0  0  0  0  0  0
   18.9420   22.4130   16.5150 O   0  0  0  0  0  0
   18.9820   20.2780   17.8300 O   0  0  0  0  0  0
   19.2730   20.1460   15.2120 C   0  0  0  0  0  0
   18.2020   20.0230   15.0350 H   0  0  0  0  0  0
   19.7450   19.1680   15.3280 H   0  0  0  0  0  0
   19.7240   20.7000   14.3860 H   0  0  0  0  0  0
   26.1570   22.7180   15.1150 C   0  0  0  0  0  0
   26.4170   24.0840   14.9300 C   0  0  0  0  0  0
   26.7660   24.7150   15.7420 H   0  0  0  0  0  0
   26.1980   24.6280   13.6800 C   0  0  0  0  0  0
   25.7470   23.8710   12.6260 C   0  0  0  0  0  0
   25.4900   22.5260   12.7620 C   0  0  0  0  0  0
   25.1390   21.9290   11.9270 H   0  0  0  0  0  0
   25.7020   21.9480   14.0190 C   0  0  0  0  0  0
   25.5160   20.8810   14.1400 H   0  0  0  0  0  0
   25.5990   24.5990   11.4880 O   0  0  0  0  0  0
   26.0080   25.9110   11.9430 C   0  0  0  0  0  0
   26.8600   26.2420   11.3390 H   0  0  0  0  0  0
   25.1750   26.6080   11.7970 H   0  0  0  0  0  0
   26.3910   25.9310   13.3380 O   0  0  0  0  0  0
  1  2  2  0  0  0
  1  7  1  0  0  0
  1 33  1  0  0  0
  2  3  1  0  0  0
  2 16  1  0  0  0
  3  4  1  0  0  0
  3  5  1  0  0  0
  3  6  1  0  0  0
  6  7  1  0  0  0
  6 10  1  0  0  0
  6 13  1  0  0  0
  7  8  1  0  0  0
  7  9  1  0  0  0
 10 11  1  0  0  0
 10 12  1  0  0  0
 10 13  1  0  0  0
 13 14  1  0  0  0
 13 15  1  0  0  0
 16 17  1  0  0  0
 16 24  2  0  0  0
 17 18  1  0  0  0
 17 19  2  0  0  0
 19 20  1  0  0  0
 19 21  1  0  0  0
 21 22  2  0  0  0
 21 26  1  0  0  0
 22 23  1  0  0  0
 22 24  1  0  0  0
 24 25  1  0  0  0
 26 27  2  0  0  0
 26 28  2  0  0  0
 26 29  1  0  0  0
 29 30  1  0  0  0
 29 31  1  0  0  0
 29 32  1  0  0  0
 33 34  1  0  0  0
 33 40  2  0  0  0
 34 35  1  0  0  0
 34 36  2  0  0  0
 36 37  1  0  0  0
 36 46  1  0  0  0
 37 38  2  0  0  0
 37 42  1  0  0  0
 38 39  1  0  0  0
 38 40  1  0  0  0
 40 41  1  0  0  0
 42 43  1  0  0  0
 43 44  1  0  0  0
 43 45  1  0  0  0
 43 46  1  0  0  0
M  END
>  <ACTIVITY>
8.6

>  <SET>
1

>  <Min_dist>
999.9

>  <Avg_dist>
999.9

$$$$
9-47
  Cerius2 12110214053D 1   1.00000                          
Structure written by Cerius2 SD Exporter
 43 46  0  0  0  0  0  0  0  0999 V2000
   26.3870   22.0840   16.4220 C   0  0  0  0  0  0
   25.4950   21.5030   17.2540 C   0  0  0  0  0  0
   26.1810   20.9240   18.4740 C   0  0  0  0  0  0
   26.0550   19.8370   18.5200 H   0  0  0  0  0  0
   25.7780   21.3730   19.3880 H   0  0  0  0  0  0
   27.6430   21.2760   18.2990 C   0  0  0  0  0  0
   27.7880   22.0290   16.9940 C   0  0  0  0  0  0
   28.1800   23.0350   17.1760 H   0  0  0  0  0  0
   28.4600   21.4980   16.3100 H   0  0  0  0  0  0
   28.7280   20.3320   18.7720 C   0  0  0  0  0  0
   29.6280   20.2360   18.1750 H   0  0  0  0  0  0
   28.4370   19.4160   19.2730 H   0  0  0  0  0  0
   28.5030   21.6270   19.4950 C   0  0  0  0  0  0
   28.0600   21.5840   20.4840 H   0  0  0  0  0  0
   29.2520   22.4040   19.3860 H   0  0  0  0  0  0
   24.0380   21.3900   17.1130 C   0  0  0  0  0  0
   23.3290   22.2670   16.2780 C   0  0  0  0  0  0
   23.8520   23.0410   15.7180 H   0  0  0  0  0  0
   21.9390   22.1730   16.1540 C   0  0  0  0  0  0
   21.4140   22.8620   15.4960 H   0  0  0  0  0  0
   21.2460   21.2040   16.8810 C   0  0  0  0  0  0
   21.9330   20.3230   17.7180 C   0  0  0  0  0  0
   21.4040   19.5590   18.2840 H   0  0  0  0  0  0
   23.3240   20.4240   17.8360 C   0  0  0  0  0  0
   23.8410   19.7240   18.4900 H   0  0  0  0  0  0
   19.4820   21.0700   16.7110 S   0  0  0  0  0  0
   18.9450   22.4130   16.5100 O   0  0  0  0  0  0
   18.9820   20.2840   17.8350 O   0  0  0  0  0  0
   19.2730   20.1390   15.2170 C   0  0  0  0  0  0
   18.2020   20.0160   15.0410 H   0  0  0  0  0  0
   19.7440   19.1620   15.3370 H   0  0  0  0  0  0
   19.7240   20.6890   14.3890 H   0  0  0  0  0  0
   26.1550   22.7090   15.1140 C   0  0  0  0  0  0
   26.4140   24.0720   14.9190 C   0  0  0  0  0  0
   26.7650   24.7030   15.7310 H   0  0  0  0  0  0
   26.2030   24.6490   13.6690 C   0  0  0  0  0  0
   25.7440   23.8850   12.6040 C   0  0  0  0  0  0
   25.4920   22.5310   12.7730 C   0  0  0  0  0  0
   25.1390   21.9340   11.9360 H   0  0  0  0  0  0
   25.7010   21.9440   14.0240 C   0  0  0  0  0  0
   25.5120   20.8770   14.1390 H   0  0  0  0  0  0
   25.5460   24.4530   11.4060 F   0  0  0  0  0  0
   26.4460   25.9570   13.4980 F   0  0  0  0  0  0
  1  2  2  0  0  0
  1  7  1  0  0  0
  1 33  1  0  0  0
  2  3  1  0  0  0
  2 16  1  0  0  0
  3  4  1  0  0  0
  3  5  1  0  0  0
  3  6  1  0  0  0
  6  7  1  0  0  0
  6 10  1  0  0  0
  6 13  1  0  0  0
  7  8  1  0  0  0
  7  9  1  0  0  0
 10 11  1  0  0  0
 10 12  1  0  0  0
 10 13  1  0  0  0
 13 14  1  0  0  0
 13 15  1  0  0  0
 16 17  1  0  0  0
 16 24  2  0  0  0
 17 18  1  0  0  0
 17 19  2  0  0  0
 19 20  1  0  0  0
 19 21  1  0  0  0
 21 22  2  0  0  0
 21 26  1  0  0  0
 22 23  1  0  0  0
 22 24  1  0  0  0
 24 25  1  0  0  0
 26 27  2  0  0  0
 26 28  2  0  0  0
 26 29  1  0  0  0
 29 30  1  0  0  0
 29 31  1  0  0  0
 29 32  1  0  0  0
 33 34  1  0  0  0
 33 40  2  0  0  0
 34 35  1  0  0  0
 34 36  2  0  0  0
 36 37  1  0  0  0
 36 43  1  0  0  0
 37 38  2  0  0  0
 37 42  1  0  0  0
 38 39  1  0  0  0
 38 40  1  0  0  0
 40 41  1  0  0  0
M  END
>  <ACTIVITY>
8.48

>  <SET>
1

>  <Min_dist>
999.9

>  <Avg_dist>
999.9

$$$$
9-48
  Cerius2 12110214053D 1   1.00000                          
Structure written by Cerius2 SD Exporter
 42 45  0  0  0  0  0  0  0  0999 V2000
   26.3870   22.0820   16.4210 C   0  0  0  0  0  0
   25.4960   21.5020   17.2550 C   0  0  0  0  0  0
   26.1820   20.9250   18.4750 C   0  0  0  0  0  0
   26.0560   19.8390   18.5240 H   0  0  0  0  0  0
   25.7800   21.3760   19.3890 H   0  0  0  0  0  0
   27.6450   21.2770   18.2990 C   0  0  0  0  0  0
   27.7880   22.0280   16.9920 C   0  0  0  0  0  0
   28.1800   23.0340   17.1720 H   0  0  0  0  0  0
   28.4590   21.4960   16.3080 H   0  0  0  0  0  0
   28.7310   20.3360   18.7730 C   0  0  0  0  0  0
   29.6310   20.2390   18.1760 H   0  0  0  0  0  0
   28.4410   19.4200   19.2770 H   0  0  0  0  0  0
   28.5040   21.6330   19.4930 C   0  0  0  0  0  0
   28.0610   21.5920   20.4820 H   0  0  0  0  0  0
   29.2520   22.4100   19.3820 H   0  0  0  0  0  0
   24.0380   21.3890   17.1140 C   0  0  0  0  0  0
   23.3290   22.2670   16.2800 C   0  0  0  0  0  0
   23.8520   23.0420   15.7210 H   0  0  0  0  0  0
   21.9390   22.1740   16.1570 C   0  0  0  0  0  0
   21.4100   22.8630   15.5020 H   0  0  0  0  0  0
   21.2450   21.2040   16.8840 C   0  0  0  0  0  0
   21.9330   20.3240   17.7210 C   0  0  0  0  0  0
   21.4030   19.5620   18.2880 H   0  0  0  0  0  0
   23.3240   20.4240   17.8380 C   0  0  0  0  0  0
   23.8420   19.7240   18.4920 H   0  0  0  0  0  0
   19.4880   21.0720   16.7030 S   0  0  0  0  0  0
   18.9310   22.3820   16.4140 O   0  0  0  0  0  0
   18.9580   20.2710   17.7920 O   0  0  0  0  0  0
   19.3460   20.1640   15.3030 N   0  0  0  0  0  0
   18.8660   20.6910   14.5690 H   0  0  0  0  0  0
   18.8800   19.2720   15.4870 H   0  0  0  0  0  0
   26.1540   22.7080   15.1140 C   0  0  0  0  0  0
   26.4120   24.0710   14.9190 C   0  0  0  0  0  0
   26.7640   24.7010   15.7320 H   0  0  0  0  0  0
   26.2000   24.6490   13.6710 C   0  0  0  0  0  0
   25.7410   23.8860   12.6060 C   0  0  0  0  0  0
   25.4890   22.5310   12.7730 C   0  0  0  0  0  0
   25.1350   21.9350   11.9370 H   0  0  0  0  0  0
   25.6980   21.9440   14.0250 C   0  0  0  0  0  0
   25.5090   20.8770   14.1390 H   0  0  0  0  0  0
   25.5420   24.4540   11.4080 F   0  0  0  0  0  0
   26.4440   25.9570   13.5000 F   0  0  0  0  0  0
  1  2  2  0  0  0
  1  7  1  0  0  0
  1 32  1  0  0  0
  2  3  1  0  0  0
  2 16  1  0  0  0
  3  4  1  0  0  0
  3  5  1  0  0  0
  3  6  1  0  0  0
  6  7  1  0  0  0
  6 10  1  0  0  0
  6 13  1  0  0  0
  7  8  1  0  0  0
  7  9  1  0  0  0
 10 11  1  0  0  0
 10 12  1  0  0  0
 10 13  1  0  0  0
 13 14  1  0  0  0
 13 15  1  0  0  0
 16 17  1  0  0  0
 16 24  2  0  0  0
 17 18  1  0  0  0
 17 19  2  0  0  0
 19 20  1  0  0  0
 19 21  1  0  0  0
 21 22  2  0  0  0
 21 26  1  0  0  0
 22 23  1  0  0  0
 22 24  1  0  0  0
 24 25  1  0  0  0
 26 27  2  0  0  0
 26 28  2  0  0  0
 26 29  1  0  0  0
 29 30  1  0  0  0
 29 31  1  0  0  0
 32 33  1  0  0  0
 32 39  2  0  0  0
 33 34  1  0  0  0
 33 35  2  0  0  0
 35 36  1  0  0  0
 35 42  1  0  0  0
 36 37  2  0  0  0
 36 41  1  0  0  0
 37 38  1  0  0  0
 37 39  1  0  0  0
 39 40  1  0  0  0
M  END
>  <ACTIVITY>
8.52

>  <SET>
1

>  <Min_dist>
999.9

>  <Avg_dist>
999.9

$$$$
9-53
  Cerius2 12110214053D 1   1.00000                          
Structure written by Cerius2 SD Exporter
 43 46  0  0  0  0  0  0  0  0999 V2000
   26.3880   22.0870   16.4270 C   0  0  0  0  0  0
   25.4970   21.5030   17.2590 C   0  0  0  0  0  0
   26.1850   20.9150   18.4720 C   0  0  0  0  0  0
   26.0530   19.8290   18.5150 H   0  0  0  0  0  0
   25.7880   21.3620   19.3910 H   0  0  0  0  0  0
   27.6490   21.2590   18.2920 C   0  0  0  0  0  0
   27.7910   22.0220   16.9920 C   0  0  0  0  0  0
   28.1910   23.0230   17.1820 H   0  0  0  0  0  0
   28.4570   21.4940   16.3010 H   0  0  0  0  0  0
   28.7310   20.3060   18.7520 C   0  0  0  0  0  0
   29.6280   20.2100   18.1490 H   0  0  0  0  0  0
   28.4380   19.3870   19.2470 H   0  0  0  0  0  0
   28.5160   21.5960   19.4860 C   0  0  0  0  0  0
   28.0770   21.5490   20.4760 H   0  0  0  0  0  0
   29.2660   22.3720   19.3780 H   0  0  0  0  0  0
   24.0400   21.3910   17.1150 C   0  0  0  0  0  0
   23.3330   22.2680   16.2780 C   0  0  0  0  0  0
   23.8560   23.0440   15.7210 H   0  0  0  0  0  0
   21.9430   22.1750   16.1510 C   0  0  0  0  0  0
   21.4190   22.8640   15.4920 H   0  0  0  0  0  0
   21.2490   21.2060   16.8770 C   0  0  0  0  0  0
   21.9330   20.3250   17.7150 C   0  0  0  0  0  0
   21.4030   19.5610   18.2790 H   0  0  0  0  0  0
   23.3240   20.4250   17.8360 C   0  0  0  0  0  0
   23.8400   19.7240   18.4900 H   0  0  0  0  0  0
   19.4840   21.0730   16.7050 S   0  0  0  0  0  0
   18.9490   22.4150   16.4950 O   0  0  0  0  0  0
   18.9810   20.2940   17.8320 O   0  0  0  0  0  0
   19.2770   20.1330   15.2150 C   0  0  0  0  0  0
   18.2060   20.0110   15.0380 H   0  0  0  0  0  0
   19.7460   19.1560   15.3430 H   0  0  0  0  0  0
   19.7310   20.6770   14.3850 H   0  0  0  0  0  0
   26.1520   22.7100   15.1190 C   0  0  0  0  0  0
   26.4000   24.0740   14.8980 C   0  0  0  0  0  0
   26.1930   24.6600   13.6520 C   0  0  0  0  0  0
   26.3840   25.7160   13.5050 H   0  0  0  0  0  0
   25.7350   23.8730   12.6060 C   0  0  0  0  0  0
   25.4860   22.5180   12.7860 C   0  0  0  0  0  0
   25.1320   21.9160   11.9540 H   0  0  0  0  0  0
   25.6970   21.9360   14.0400 C   0  0  0  0  0  0
   25.5090   20.8710   14.1620 H   0  0  0  0  0  0
   25.5320   24.4270   11.4030 F   0  0  0  0  0  0
   26.8280   24.8570   15.9000 F   0  0  0  0  0  0
  1  2  2  0  0  0
  1  7  1  0  0  0
  1 33  1  0  0  0
  2  3  1  0  0  0
  2 16  1  0  0  0
  3  4  1  0  0  0
  3  5  1  0  0  0
  3  6  1  0  0  0
  6  7  1  0  0  0
  6 10  1  0  0  0
  6 13  1  0  0  0
  7  8  1  0  0  0
  7  9  1  0  0  0
 10 11  1  0  0  0
 10 12  1  0  0  0
 10 13  1  0  0  0
 13 14  1  0  0  0
 13 15  1  0  0  0
 16 17  1  0  0  0
 16 24  2  0  0  0
 17 18  1  0  0  0
 17 19  2  0  0  0
 19 20  1  0  0  0
 19 21  1  0  0  0
 21 22  2  0  0  0
 21 26  1  0  0  0
 22 23  1  0  0  0
 22 24  1  0  0  0
 24 25  1  0  0  0
 26 27  2  0  0  0
 26 28  2  0  0  0
 26 29  1  0  0  0
 29 30  1  0  0  0
 29 31  1  0  0  0
 29 32  1  0  0  0
 33 34  1  0  0  0
 33 40  2  0  0  0
 34 35  2  0  0  0
 34 43  1  0  0  0
 35 36  1  0  0  0
 35 37  1  0  0  0
 37 38  2  0  0  0
 37 42  1  0  0  0
 38 39  1  0  0  0
 38 40  1  0  0  0
 40 41  1  0  0  0
M  END
>  <ACTIVITY>
7.66

>  <SET>
1

>  <Min_dist>
999.9

>  <Avg_dist>
999.9

$$$$
