1-107146
  Cerius2 12110214133D 1   1.00000                          
Structure written by Cerius2 SD Exporter
 53 55  0  0  0  0  0  0  0  0999 V2000
   12.2000    3.8600   13.2730 C   0  0  0  0  0  0
   10.8450    3.4660   13.6300 C   0  0  0  0  0  0
   10.1440    2.5940   12.8960 N   0  0  0  0  0  0
   10.6980    1.9790   11.8240 C   0  0  0  0  0  0
   12.0400    2.1470   11.5440 N   0  0  0  0  0  0
   12.7710    3.0540   12.3160 C   0  0  0  0  0  0
   14.0870    3.0620   11.9480 N   0  0  0  0  0  0
   14.8420    3.9790   12.6210 C   0  0  0  0  0  0
   15.7750    3.9430   12.4450 H   0  0  0  0  0  0
   14.3310    4.9350   13.5230 C   0  0  0  0  0  0
   12.9740    4.8700   13.8600 N   0  0  0  0  0  0
   15.2830    5.9410   14.2710 C   0  0  0  0  0  0
   14.7820    6.6920   14.5650 H   0  0  0  0  0  0
   15.6790    5.5090   15.0190 H   0  0  0  0  0  0
   16.3690    6.3880   13.3050 N   0  0  0  0  0  0
   16.0360    7.0980   12.2490 C   0  0  0  0  0  0
   14.7390    7.6590   12.0820 C   0  0  0  0  0  0
   13.9100    7.4950   12.7940 H   0  0  0  0  0  0
   14.4550    8.4760   10.9900 C   0  0  0  0  0  0
   13.4480    8.9260   10.8660 H   0  0  0  0  0  0
   15.4170    8.7250   10.0190 C   0  0  0  0  0  0
   16.6720    8.2010   10.0950 C   0  0  0  0  0  0
   17.3870    8.3670    9.2780 H   0  0  0  0  0  0
   17.0030    7.4330   11.2800 C   0  0  0  0  0  0
   18.3090    7.0610   11.2290 F   0  0  0  0  0  0
   15.0380    9.1920    8.7060 C   0  0  0  0  0  0
   13.8760    9.2150    7.9330 N   0  0  0  0  0  0
   13.0080    8.9740    8.3740 H   0  0  0  0  0  0
   13.6680    9.7480    6.7720 C   0  0  0  0  0  0
   14.0430    9.2000    6.0930 H   0  0  0  0  0  0
   12.0670    9.8420    6.6200 C   0  0  0  0  0  0
   11.6420   10.6180    5.7560 O   0  5  0  0  0  0
   11.4120    9.1540    7.4150 O   0  0  0  0  0  0
   14.1010   10.7610    6.7440 C   0  0  0  0  0  0
   13.4580   11.3700    6.4000 H   0  0  0  0  0  0
   14.5350   11.0380    7.5420 H   0  0  0  0  0  0
   15.4140   11.0060    5.8750 C   0  0  0  0  0  0
   15.9350   11.8570    6.3560 H   0  0  0  0  0  0
   16.0910   10.1460    6.0580 H   0  0  0  0  0  0
   15.5840   11.2440    4.3480 C   0  0  0  0  0  0
   15.5110   10.3210    3.5400 O   0  0  0  0  0  0
   15.8050   12.4480    4.1270 O   0  5  0  0  0  0
   16.0900    9.5300    8.2300 O   0  0  0  0  0  0
   17.6630    6.0650   13.5210 C   0  0  0  0  0  0
   17.7440    5.4790   14.4370 H   0  0  0  0  0  0
   18.0360    5.4790   12.6800 H   0  0  0  0  0  0
   18.2530    6.9760   13.6190 H   0  0  0  0  0  0
   10.0000    1.2030   11.0730 N   0  0  0  0  0  0
    9.1310    1.0630   11.2570 H   0  0  0  0  0  0
   10.3810    0.8010   10.3640 H   0  0  0  0  0  0
   10.1820    3.9600   14.7110 N   0  0  0  0  0  0
   10.5820    4.5620   15.2480 H   0  0  0  0  0  0
    9.3440    3.6840   14.8900 H   0  0  0  0  0  0
  1  2  1  0  0  0
  1  6  2  0  0  0
  1 11  1  0  0  0
  2  3  2  0  0  0
  2 51  1  0  0  0
  3  4  1  0  0  0
  4  5  2  0  0  0
  4 48  1  0  0  0
  5  6  1  0  0  0
  6  7  1  0  0  0
  7  8  2  0  0  0
  8  9  1  0  0  0
  8 10  1  0  0  0
 10 11  2  0  0  0
 10 12  1  0  0  0
 12 13  1  0  0  0
 12 14  1  0  0  0
 12 15  1  0  0  0
 15 16  1  0  0  0
 15 44  1  0  0  0
 16 17  1  0  0  0
 16 24  2  0  0  0
 17 18  1  0  0  0
 17 19  2  0  0  0
 19 20  1  0  0  0
 19 21  1  0  0  0
 21 22  2  0  0  0
 21 26  1  0  0  0
 22 23  1  0  0  0
 22 24  1  0  0  0
 24 25  1  0  0  0
 26 27  1  0  0  0
 26 43  2  0  0  0
 27 28  1  0  0  0
 27 29  1  0  0  0
 29 30  1  0  0  0
 29 31  1  0  0  0
 29 34  1  0  0  0
 31 32  1  0  0  0
 31 33  2  0  0  0
 34 35  1  0  0  0
 34 36  1  0  0  0
 34 37  1  0  0  0
 37 38  1  0  0  0
 37 39  1  0  0  0
 37 40  1  0  0  0
 40 41  2  0  0  0
 40 42  1  0  0  0
 44 45  1  0  0  0
 44 46  1  0  0  0
 44 47  1  0  0  0
 48 49  1  0  0  0
 48 50  1  0  0  0
 51 52  1  0  0  0
 51 53  1  0  0  0
M  CHG  2  32  -1  42  -1
M  END
>  <ACTIVITY>
9.44

>  <SET>
1

>  <Min_dist>
999.9

>  <Avg_dist>
999.9

$$$$
1-117356
  Cerius2 12110214133D 1   1.00000                          
Structure written by Cerius2 SD Exporter
 53 55  0  0  0  0  0  0  0  0999 V2000
   12.2000    3.8600   13.2730 C   0  0  0  0  0  0
   10.8450    3.4660   13.6300 C   0  0  0  0  0  0
   10.1440    2.5940   12.8960 N   0  0  0  0  0  0
   10.6980    1.9790   11.8240 C   0  0  0  0  0  0
   12.0400    2.1470   11.5440 N   0  0  0  0  0  0
   12.7710    3.0540   12.3160 C   0  0  0  0  0  0
   14.0870    3.0620   11.9480 N   0  0  0  0  0  0
   14.8420    3.9790   12.6210 C   0  0  0  0  0  0
   15.7750    3.9430   12.4450 H   0  0  0  0  0  0
   14.3310    4.9350   13.5230 C   0  0  0  0  0  0
   12.9740    4.8700   13.8600 N   0  0  0  0  0  0
   15.2830    5.9410   14.2710 C   0  0  0  0  0  0
   14.7820    6.6920   14.5650 H   0  0  0  0  0  0
   15.6790    5.5090   15.0190 H   0  0  0  0  0  0
   16.3690    6.3880   13.3050 N   0  0  0  0  0  0
   16.0360    7.0980   12.2490 C   0  0  0  0  0  0
   14.7390    7.6590   12.0820 C   0  0  0  0  0  0
   13.9100    7.4950   12.7940 H   0  0  0  0  0  0
   14.4550    8.4760   10.9900 C   0  0  0  0  0  0
   13.4480    8.9260   10.8660 H   0  0  0  0  0  0
   15.4170    8.7250   10.0190 C   0  0  0  0  0  0
   16.6720    8.2010   10.0950 C   0  0  0  0  0  0
   17.3870    8.3670    9.2780 H   0  0  0  0  0  0
   17.0030    7.4330   11.2800 C   0  0  0  0  0  0
   18.0420    7.0620   11.3100 H   0  0  0  0  0  0
   15.0380    9.1920    8.7060 C   0  0  0  0  0  0
   13.8760    9.2150    7.9330 N   0  0  0  0  0  0
   13.0080    8.9740    8.3740 H   0  0  0  0  0  0
   13.6680    9.7480    6.7720 C   0  0  0  0  0  0
   14.0430    9.2000    6.0930 H   0  0  0  0  0  0
   12.0670    9.8420    6.6200 C   0  0  0  0  0  0
   11.6420   10.6180    5.7560 O   0  5  0  0  0  0
   11.4120    9.1540    7.4150 O   0  0  0  0  0  0
   14.1010   10.7610    6.7440 C   0  0  0  0  0  0
   13.4580   11.3700    6.4000 H   0  0  0  0  0  0
   14.5350   11.0380    7.5420 H   0  0  0  0  0  0
   15.4140   11.0060    5.8750 C   0  0  0  0  0  0
   15.9350   11.8570    6.3560 H   0  0  0  0  0  0
   16.0910   10.1460    6.0580 H   0  0  0  0  0  0
   15.5840   11.2440    4.3480 C   0  0  0  0  0  0
   15.5110   10.3210    3.5400 O   0  0  0  0  0  0
   15.8050   12.4480    4.1270 O   0  5  0  0  0  0
   16.0900    9.5300    8.2300 O   0  0  0  0  0  0
   17.6630    6.0650   13.5210 C   0  0  0  0  0  0
   17.7440    5.4790   14.4370 H   0  0  0  0  0  0
   18.0360    5.4790   12.6800 H   0  0  0  0  0  0
   18.2530    6.9760   13.6190 H   0  0  0  0  0  0
   10.0000    1.2030   11.0730 N   0  0  0  0  0  0
    9.1310    1.0630   11.2570 H   0  0  0  0  0  0
   10.3810    0.8010   10.3640 H   0  0  0  0  0  0
   10.1820    3.9600   14.7110 N   0  0  0  0  0  0
   10.5820    4.5620   15.2480 H   0  0  0  0  0  0
    9.3440    3.6840   14.8900 H   0  0  0  0  0  0
  1  2  1  0  0  0
  1  6  2  0  0  0
  1 11  1  0  0  0
  2  3  2  0  0  0
  2 51  1  0  0  0
  3  4  1  0  0  0
  4  5  2  0  0  0
  4 48  1  0  0  0
  5  6  1  0  0  0
  6  7  1  0  0  0
  7  8  2  0  0  0
  8  9  1  0  0  0
  8 10  1  0  0  0
 10 11  2  0  0  0
 10 12  1  0  0  0
 12 13  1  0  0  0
 12 14  1  0  0  0
 12 15  1  0  0  0
 15 16  1  0  0  0
 15 44  1  0  0  0
 16 17  1  0  0  0
 16 24  2  0  0  0
 17 18  1  0  0  0
 17 19  2  0  0  0
 19 20  1  0  0  0
 19 21  1  0  0  0
 21 22  2  0  0  0
 21 26  1  0  0  0
 22 23  1  0  0  0
 22 24  1  0  0  0
 24 25  1  0  0  0
 26 27  1  0  0  0
 26 43  2  0  0  0
 27 28  1  0  0  0
 27 29  1  0  0  0
 29 30  1  0  0  0
 29 31  1  0  0  0
 29 34  1  0  0  0
 31 32  1  0  0  0
 31 33  2  0  0  0
 34 35  1  0  0  0
 34 36  1  0  0  0
 34 37  1  0  0  0
 37 38  1  0  0  0
 37 39  1  0  0  0
 37 40  1  0  0  0
 40 41  2  0  0  0
 40 42  1  0  0  0
 44 45  1  0  0  0
 44 46  1  0  0  0
 44 47  1  0  0  0
 48 49  1  0  0  0
 48 50  1  0  0  0
 51 52  1  0  0  0
 51 53  1  0  0  0
M  CHG  2  32  -1  42  -1
M  END
>  <ACTIVITY>
8.21

>  <SET>
1

>  <Min_dist>
999.9

>  <Avg_dist>
999.9

$$$$
1-122870
  Cerius2 12110214133D 1   1.00000                          
Structure written by Cerius2 SD Exporter
 55 57  0  0  0  0  0  0  0  0999 V2000
   10.0850    2.6690   12.7770 N   0  0  0  0  0  0
   10.7380    1.9670   11.8620 C   0  0  0  0  0  0
   12.0300    2.1130   11.5980 N   0  0  0  0  0  0
   12.7200    3.0130   12.3070 C   0  0  0  0  0  0
   12.1740    3.8080   13.3270 C   0  0  0  0  0  0
   10.7820    3.5790   13.4850 C   0  0  0  0  0  0
    9.9940    4.2720   14.3940 N   0  0  0  0  0  0
   10.1460    4.0220   15.3680 H   0  0  0  0  0  0
    9.9960    5.2820   14.2770 H   0  0  0  0  0  0
   13.0530    4.7260   14.0440 C   0  0  0  0  0  0
   14.3980    4.9020   13.6240 C   0  0  0  0  0  0
   14.8860    4.0630   12.6160 C   0  0  0  0  0  0
   15.9300    4.1220   12.3050 H   0  0  0  0  0  0
   14.0570    3.1400   11.9850 C   0  0  0  0  0  0
   14.4800    2.5130   11.2000 H   0  0  0  0  0  0
   15.3550    5.9040   14.2600 C   0  0  0  0  0  0
   15.8600    5.3960   15.0900 H   0  0  0  0  0  0
   14.8190    6.7740   14.6480 H   0  0  0  0  0  0
   16.3190    6.4070   13.2870 N   0  0  0  0  0  0
   17.2400    5.9710   13.3020 H   0  0  0  0  0  0
   15.9870    7.1680   12.1840 C   0  0  0  0  0  0
   16.9770    7.4410   11.2300 C   0  0  0  0  0  0
   17.9800    7.0330   11.3530 H   0  0  0  0  0  0
   16.7120    8.2340   10.1060 C   0  0  0  0  0  0
   17.5090    8.4150    9.3870 H   0  0  0  0  0  0
   15.4410    8.7800    9.9110 C   0  0  0  0  0  0
   14.4500    8.5400   10.8670 C   0  0  0  0  0  0
   13.4590    8.9780   10.7810 H   0  0  0  0  0  0
   14.7270    7.7440   11.9900 C   0  0  0  0  0  0
   13.9250    7.5910   12.7090 H   0  0  0  0  0  0
   15.0380    9.1920    8.7060 C   0  0  0  0  0  0
   13.8760    9.2150    7.9330 N   0  0  0  0  0  0
   13.0080    8.9740    8.3740 H   0  0  0  0  0  0
   13.6680    9.7480    6.7720 C   0  0  0  0  0  0
   14.1010   10.7610    6.7440 H   0  0  0  0  0  0
   12.0670    9.8420    6.6200 C   0  0  0  0  0  0
   11.6420   10.6180    5.7560 O   0  5  0  0  0  0
   11.4120    9.1540    7.4150 O   0  0  0  0  0  0
   14.2170    8.8600    5.6160 C   0  0  0  0  0  0
   13.9330    7.8190    5.8640 H   0  0  0  0  0  0
   13.5680    9.1110    4.7520 H   0  0  0  0  0  0
   15.6610    8.7540    5.0390 C   0  0  0  0  0  0
   16.0230    9.7290    4.6810 H   0  0  0  0  0  0
   16.3450    8.4010    5.8260 H   0  0  0  0  0  0
   15.6370    7.7060    3.8700 C   0  0  0  0  0  0
   14.7190    7.8220    3.0510 O   0  0  0  0  0  0
   16.5520    6.8750    3.8960 O   0  5  0  0  0  0
   16.0900    9.5300    8.2300 O   0  0  0  0  0  0
   12.5380    5.4970   15.2380 C   0  0  0  0  0  0
   11.9530    4.8500   15.8950 H   0  0  0  0  0  0
   11.9420    6.3540   14.9110 H   0  0  0  0  0  0
   13.3390    5.8580   15.8880 H   0  0  0  0  0  0
   10.0430    1.0430   11.1460 N   0  0  0  0  0  0
   10.5150    0.4950   10.4430 H   0  0  0  0  0  0
    9.0580    0.9100   11.3240 H   0  0  0  0  0  0
  1  2  1  0  0  0
  1  6  2  0  0  0
  2  3  2  0  0  0
  2 53  1  0  0  0
  3  4  1  0  0  0
  4  5  2  0  0  0
  4 14  1  0  0  0
  5  6  1  0  0  0
  5 10  1  0  0  0
  6  7  1  0  0  0
  7  8  1  0  0  0
  7  9  1  0  0  0
 10 11  2  0  0  0
 10 49  1  0  0  0
 11 12  1  0  0  0
 11 16  1  0  0  0
 12 13  1  0  0  0
 12 14  2  0  0  0
 14 15  1  0  0  0
 16 17  1  0  0  0
 16 18  1  0  0  0
 16 19  1  0  0  0
 19 20  1  0  0  0
 19 21  1  0  0  0
 21 22  1  0  0  0
 21 29  2  0  0  0
 22 23  1  0  0  0
 22 24  2  0  0  0
 24 25  1  0  0  0
 24 26  1  0  0  0
 26 27  2  0  0  0
 26 31  1  0  0  0
 27 28  1  0  0  0
 27 29  1  0  0  0
 29 30  1  0  0  0
 31 32  1  0  0  0
 31 48  2  0  0  0
 32 33  1  0  0  0
 32 34  1  0  0  0
 34 35  1  0  0  0
 34 36  1  0  0  0
 34 39  1  0  0  0
 36 37  1  0  0  0
 36 38  2  0  0  0
 39 40  1  0  0  0
 39 41  1  0  0  0
 39 42  1  0  0  0
 42 43  1  0  0  0
 42 44  1  0  0  0
 42 45  1  0  0  0
 45 46  2  0  0  0
 45 47  1  0  0  0
 49 50  1  0  0  0
 49 51  1  0  0  0
 49 52  1  0  0  0
 53 54  1  0  0  0
 53 55  1  0  0  0
M  CHG  2  37  -1  47  -1
M  END
>  <ACTIVITY>
9.81

>  <SET>
1

>  <Min_dist>
999.9

>  <Avg_dist>
999.9

$$$$
1-127977
  Cerius2 12110214133D 1   1.00000                          
Structure written by Cerius2 SD Exporter
 60 62  0  0  0  0  0  0  0  0999 V2000
   12.2000    3.8600   13.2730 C   0  0  0  0  0  0
   10.8450    3.4660   13.6300 C   0  0  0  0  0  0
   10.1440    2.5940   12.8960 N   0  0  0  0  0  0
   10.6980    1.9790   11.8240 C   0  0  0  0  0  0
   12.0400    2.1470   11.5440 N   0  0  0  0  0  0
   12.7710    3.0540   12.3160 C   0  0  0  0  0  0
   14.0870    3.0620   11.9480 N   0  0  0  0  0  0
   14.8420    3.9790   12.6210 C   0  0  0  0  0  0
   15.7750    3.9430   12.4450 H   0  0  0  0  0  0
   14.3310    4.9350   13.5230 C   0  0  0  0  0  0
   12.9740    4.8700   13.8600 N   0  0  0  0  0  0
   15.2830    5.9410   14.2710 C   0  0  0  0  0  0
   14.7820    6.6920   14.5650 H   0  0  0  0  0  0
   15.6790    5.5090   15.0190 H   0  0  0  0  0  0
   16.3690    6.3880   13.3050 N   0  0  0  0  0  0
   16.0360    7.0980   12.2490 C   0  0  0  0  0  0
   14.7390    7.6590   12.0820 C   0  0  0  0  0  0
   13.9100    7.4950   12.7940 H   0  0  0  0  0  0
   14.4550    8.4760   10.9900 C   0  0  0  0  0  0
   13.4480    8.9260   10.8660 H   0  0  0  0  0  0
   15.4170    8.7250   10.0190 C   0  0  0  0  0  0
   16.6720    8.2010   10.0950 C   0  0  0  0  0  0
   17.3870    8.3670    9.2780 H   0  0  0  0  0  0
   17.0030    7.4330   11.2800 C   0  0  0  0  0  0
   18.0420    7.0620   11.3100 H   0  0  0  0  0  0
   15.0380    9.1920    8.7060 C   0  0  0  0  0  0
   13.8760    9.2150    7.9330 N   0  0  0  0  0  0
   13.0080    8.9740    8.3740 H   0  0  0  0  0  0
   13.6680    9.7480    6.7720 C   0  0  0  0  0  0
   14.0430    9.2000    6.0930 H   0  0  0  0  0  0
   12.0670    9.8420    6.6200 C   0  0  0  0  0  0
   11.6420   10.6180    5.7560 O   0  5  0  0  0  0
   11.4120    9.1540    7.4150 O   0  0  0  0  0  0
   14.1010   10.7610    6.7440 C   0  0  0  0  0  0
   13.4580   11.3700    6.4000 H   0  0  0  0  0  0
   14.5350   11.0380    7.5420 H   0  0  0  0  0  0
   15.4140   11.0060    5.8750 C   0  0  0  0  0  0
   15.9350   11.8570    6.3560 H   0  0  0  0  0  0
   16.0910   10.1460    6.0580 H   0  0  0  0  0  0
   15.5840   11.2440    4.3480 C   0  0  0  0  0  0
   14.9160   11.8480    4.0450 H   0  0  0  0  0  0
   16.5830   11.6890    4.1920 H   0  0  0  0  0  0
   15.4610    9.9490    3.5270 C   0  0  0  0  0  0
   16.2600    9.2530    3.8330 H   0  0  0  0  0  0
   14.5020    9.4560    3.7760 H   0  0  0  0  0  0
   15.6000   10.2310    2.0980 N   0  3  0  0  0  0
   15.5140    9.3770    1.5720 H   0  0  0  0  0  0
   14.8260   10.8130    1.8150 H   0  0  0  0  0  0
   16.3860   10.6360    1.9260 H   0  0  0  0  0  0
   16.0900    9.5300    8.2300 O   0  0  0  0  0  0
   17.6630    6.0650   13.5210 C   0  0  0  0  0  0
   17.7440    5.4790   14.4370 H   0  0  0  0  0  0
   18.0360    5.4790   12.6800 H   0  0  0  0  0  0
   18.2530    6.9760   13.6190 H   0  0  0  0  0  0
   10.0000    1.2030   11.0730 N   0  0  0  0  0  0
    9.1310    1.0630   11.2570 H   0  0  0  0  0  0
   10.3810    0.8010   10.3640 H   0  0  0  0  0  0
   10.1820    3.9600   14.7110 N   0  0  0  0  0  0
   10.5820    4.5620   15.2480 H   0  0  0  0  0  0
    9.3440    3.6840   14.8900 H   0  0  0  0  0  0
  1  2  1  0  0  0
  1  6  2  0  0  0
  1 11  1  0  0  0
  2  3  2  0  0  0
  2 58  1  0  0  0
  3  4  1  0  0  0
  4  5  2  0  0  0
  4 55  1  0  0  0
  5  6  1  0  0  0
  6  7  1  0  0  0
  7  8  2  0  0  0
  8  9  1  0  0  0
  8 10  1  0  0  0
 10 11  2  0  0  0
 10 12  1  0  0  0
 12 13  1  0  0  0
 12 14  1  0  0  0
 12 15  1  0  0  0
 15 16  1  0  0  0
 15 51  1  0  0  0
 16 17  1  0  0  0
 16 24  2  0  0  0
 17 18  1  0  0  0
 17 19  2  0  0  0
 19 20  1  0  0  0
 19 21  1  0  0  0
 21 22  2  0  0  0
 21 26  1  0  0  0
 22 23  1  0  0  0
 22 24  1  0  0  0
 24 25  1  0  0  0
 26 27  1  0  0  0
 26 50  2  0  0  0
 27 28  1  0  0  0
 27 29  1  0  0  0
 29 30  1  0  0  0
 29 31  1  0  0  0
 29 34  1  0  0  0
 31 32  1  0  0  0
 31 33  2  0  0  0
 34 35  1  0  0  0
 34 36  1  0  0  0
 34 37  1  0  0  0
 37 38  1  0  0  0
 37 39  1  0  0  0
 37 40  1  0  0  0
 40 41  1  0  0  0
 40 42  1  0  0  0
 40 43  1  0  0  0
 43 44  1  0  0  0
 43 45  1  0  0  0
 43 46  1  0  0  0
 46 47  1  0  0  0
 46 48  1  0  0  0
 46 49  1  0  0  0
 51 52  1  0  0  0
 51 53  1  0  0  0
 51 54  1  0  0  0
 55 56  1  0  0  0
 55 57  1  0  0  0
 58 59  1  0  0  0
 58 60  1  0  0  0
M  CHG  2  32  -1  46   1
M  END
>  <ACTIVITY>
3.3

>  <SET>
3

>  <Min_dist>
0.04

>  <Avg_dist>
0.6

$$$$
1-131463
  Cerius2 12110214133D 1   1.00000                          
Structure written by Cerius2 SD Exporter
 38 40  0  0  0  0  0  0  0  0999 V2000
   12.2000    3.8600   13.2730 C   0  0  0  0  0  0
   10.8450    3.4660   13.6300 C   0  0  0  0  0  0
   10.1440    2.5940   12.8960 N   0  0  0  0  0  0
   10.6980    1.9790   11.8240 C   0  0  0  0  0  0
   12.0400    2.1470   11.5440 N   0  0  0  0  0  0
   12.7710    3.0540   12.3160 C   0  0  0  0  0  0
   14.0870    3.0620   11.9480 N   0  0  0  0  0  0
   14.8420    3.9790   12.6210 C   0  0  0  0  0  0
   15.7750    3.9430   12.4450 H   0  0  0  0  0  0
   14.3310    4.9350   13.5230 C   0  0  0  0  0  0
   12.9740    4.8700   13.8600 N   0  0  0  0  0  0
   15.2830    5.9410   14.2710 C   0  0  0  0  0  0
   14.7820    6.6920   14.5650 H   0  0  0  0  0  0
   15.6790    5.5090   15.0190 H   0  0  0  0  0  0
   16.3690    6.3880   13.3050 N   0  0  0  0  0  0
   16.0360    7.0980   12.2490 C   0  0  0  0  0  0
   14.7390    7.6590   12.0820 C   0  0  0  0  0  0
   13.9100    7.4950   12.7940 H   0  0  0  0  0  0
   14.4550    8.4760   10.9900 C   0  0  0  0  0  0
   13.4480    8.9260   10.8660 H   0  0  0  0  0  0
   15.4170    8.7250   10.0190 C   0  0  0  0  0  0
   16.6720    8.2010   10.0950 C   0  0  0  0  0  0
   17.3870    8.3670    9.2780 H   0  0  0  0  0  0
   17.0030    7.4330   11.2800 C   0  0  0  0  0  0
   18.0420    7.0620   11.3100 H   0  0  0  0  0  0
   14.9540    9.6510    8.9170 C   0  0  0  0  0  0
   13.6850   10.2100    9.0760 O   0  5  0  0  0  0
   15.7300    9.9330    8.0140 O   0  0  0  0  0  0
   17.6630    6.0650   13.5210 C   0  0  0  0  0  0
   17.7440    5.4790   14.4370 H   0  0  0  0  0  0
   18.0360    5.4790   12.6800 H   0  0  0  0  0  0
   18.2530    6.9760   13.6190 H   0  0  0  0  0  0
   10.0000    1.2030   11.0730 N   0  0  0  0  0  0
    9.1310    1.0630   11.2570 H   0  0  0  0  0  0
   10.3810    0.8010   10.3640 H   0  0  0  0  0  0
   10.1820    3.9600   14.7110 N   0  0  0  0  0  0
   10.5820    4.5620   15.2480 H   0  0  0  0  0  0
    9.3440    3.6840   14.8900 H   0  0  0  0  0  0
  1  2  1  0  0  0
  1  6  2  0  0  0
  1 11  1  0  0  0
  2  3  2  0  0  0
  2 36  1  0  0  0
  3  4  1  0  0  0
  4  5  2  0  0  0
  4 33  1  0  0  0
  5  6  1  0  0  0
  6  7  1  0  0  0
  7  8  2  0  0  0
  8  9  1  0  0  0
  8 10  1  0  0  0
 10 11  2  0  0  0
 10 12  1  0  0  0
 12 13  1  0  0  0
 12 14  1  0  0  0
 12 15  1  0  0  0
 15 16  1  0  0  0
 15 29  1  0  0  0
 16 17  1  0  0  0
 16 24  2  0  0  0
 17 18  1  0  0  0
 17 19  2  0  0  0
 19 20  1  0  0  0
 19 21  1  0  0  0
 21 22  2  0  0  0
 21 26  1  0  0  0
 22 23  1  0  0  0
 22 24  1  0  0  0
 24 25  1  0  0  0
 26 27  1  0  0  0
 26 28  2  0  0  0
 29 30  1  0  0  0
 29 31  1  0  0  0
 29 32  1  0  0  0
 33 34  1  0  0  0
 33 35  1  0  0  0
 36 37  1  0  0  0
 36 38  1  0  0  0
M  CHG  1  27  -1
M  END
>  <ACTIVITY>
6.96

>  <SET>
1

>  <Min_dist>
999.9

>  <Avg_dist>
999.9

$$$$
1-137545
  Cerius2 12110214133D 1   1.00000                          
Structure written by Cerius2 SD Exporter
 44 46  0  0  0  0  0  0  0  0999 V2000
   12.2000    3.8600   13.2730 C   0  0  0  0  0  0
   10.8450    3.4660   13.6300 C   0  0  0  0  0  0
   10.1440    2.5940   12.8960 N   0  0  0  0  0  0
   10.6980    1.9790   11.8240 C   0  0  0  0  0  0
   12.0400    2.1470   11.5440 N   0  0  0  0  0  0
   12.7710    3.0540   12.3160 C   0  0  0  0  0  0
   14.0870    3.0620   11.9480 N   0  0  0  0  0  0
   14.8420    3.9790   12.6210 C   0  0  0  0  0  0
   15.7750    3.9430   12.4450 H   0  0  0  0  0  0
   14.3310    4.9350   13.5230 C   0  0  0  0  0  0
   12.9740    4.8700   13.8600 N   0  0  0  0  0  0
   15.2830    5.9410   14.2710 C   0  0  0  0  0  0
   14.7820    6.6920   14.5650 H   0  0  0  0  0  0
   15.6790    5.5090   15.0190 H   0  0  0  0  0  0
   16.3690    6.3880   13.3050 N   0  0  0  0  0  0
   16.0360    7.0980   12.2490 C   0  0  0  0  0  0
   14.7390    7.6590   12.0820 C   0  0  0  0  0  0
   14.4550    8.4760   10.9900 C   0  0  0  0  0  0
   13.4480    8.9260   10.8660 H   0  0  0  0  0  0
   15.4170    8.7250   10.0190 C   0  0  0  0  0  0
   16.6720    8.2010   10.0950 C   0  0  0  0  0  0
   17.3870    8.3670    9.2780 H   0  0  0  0  0  0
   17.0030    7.4330   11.2800 C   0  0  0  0  0  0
   18.4870    7.0180   11.1140 C   0  0  0  0  0  0
   18.9280    7.5500   10.2540 H   0  0  0  0  0  0
   19.1600    7.2810   11.9380 H   0  0  0  0  0  0
   18.6030    5.9500   10.8690 H   0  0  0  0  0  0
   14.9540    9.6510    8.9170 C   0  0  0  0  0  0
   13.6850   10.2100    9.0760 O   0  5  0  0  0  0
   15.7300    9.9330    8.0140 O   0  0  0  0  0  0
   13.6190    7.9290   13.1180 C   0  0  0  0  0  0
   12.9480    8.7270   12.7570 H   0  0  0  0  0  0
   12.9480    7.0940   13.3110 H   0  0  0  0  0  0
   13.9980    8.3430   14.0640 H   0  0  0  0  0  0
   17.6630    6.0650   13.5210 C   0  0  0  0  0  0
   17.7440    5.4790   14.4370 H   0  0  0  0  0  0
   18.0360    5.4790   12.6800 H   0  0  0  0  0  0
   18.2530    6.9760   13.6190 H   0  0  0  0  0  0
   10.0000    1.2030   11.0730 N   0  0  0  0  0  0
    9.1310    1.0630   11.2570 H   0  0  0  0  0  0
   10.3810    0.8010   10.3640 H   0  0  0  0  0  0
   10.1820    3.9600   14.7110 N   0  0  0  0  0  0
   10.5820    4.5620   15.2480 H   0  0  0  0  0  0
    9.3440    3.6840   14.8900 H   0  0  0  0  0  0
  1  2  1  0  0  0
  1  6  2  0  0  0
  1 11  1  0  0  0
  2  3  2  0  0  0
  2 42  1  0  0  0
  3  4  1  0  0  0
  4  5  2  0  0  0
  4 39  1  0  0  0
  5  6  1  0  0  0
  6  7  1  0  0  0
  7  8  2  0  0  0
  8  9  1  0  0  0
  8 10  1  0  0  0
 10 11  2  0  0  0
 10 12  1  0  0  0
 12 13  1  0  0  0
 12 14  1  0  0  0
 12 15  1  0  0  0
 15 16  1  0  0  0
 15 35  1  0  0  0
 16 17  1  0  0  0
 16 23  2  0  0  0
 17 18  2  0  0  0
 17 31  1  0  0  0
 18 19  1  0  0  0
 18 20  1  0  0  0
 20 21  2  0  0  0
 20 28  1  0  0  0
 21 22  1  0  0  0
 21 23  1  0  0  0
 23 24  1  0  0  0
 24 25  1  0  0  0
 24 26  1  0  0  0
 24 27  1  0  0  0
 28 29  1  0  0  0
 28 30  2  0  0  0
 31 32  1  0  0  0
 31 33  1  0  0  0
 31 34  1  0  0  0
 35 36  1  0  0  0
 35 37  1  0  0  0
 35 38  1  0  0  0
 39 40  1  0  0  0
 39 41  1  0  0  0
 42 43  1  0  0  0
 42 44  1  0  0  0
M  CHG  1  29  -1
M  END
>  <ACTIVITY>
7.42

>  <SET>
2

>  <Min_dist>
0.11

>  <Avg_dist>
0.52

$$$$
1-144698
  Cerius2 12110214133D 1   1.00000                          
Structure written by Cerius2 SD Exporter
 56 58  0  0  0  0  0  0  0  0999 V2000
   12.2000    3.8600   13.2730 C   0  0  0  0  0  0
   10.8450    3.4660   13.6300 C   0  0  0  0  0  0
   10.1440    2.5940   12.8960 N   0  0  0  0  0  0
   10.6980    1.9790   11.8240 C   0  0  0  0  0  0
   12.0400    2.1470   11.5440 N   0  0  0  0  0  0
   12.7710    3.0540   12.3160 C   0  0  0  0  0  0
   14.0870    3.0620   11.9480 N   0  0  0  0  0  0
   14.8420    3.9790   12.6210 C   0  0  0  0  0  0
   15.7750    3.9430   12.4450 H   0  0  0  0  0  0
   14.3310    4.9350   13.5230 C   0  0  0  0  0  0
   12.9740    4.8700   13.8600 N   0  0  0  0  0  0
   15.2830    5.9410   14.2710 C   0  0  0  0  0  0
   14.7820    6.6920   14.5650 H   0  0  0  0  0  0
   15.6790    5.5090   15.0190 H   0  0  0  0  0  0
   16.3690    6.3880   13.3050 N   0  0  0  0  0  0
   16.0360    7.0980   12.2490 C   0  0  0  0  0  0
   14.7390    7.6590   12.0820 C   0  0  0  0  0  0
   13.9100    7.4950   12.7940 H   0  0  0  0  0  0
   14.4550    8.4760   10.9900 C   0  0  0  0  0  0
   13.4480    8.9260   10.8660 H   0  0  0  0  0  0
   15.4170    8.7250   10.0190 C   0  0  0  0  0  0
   16.6720    8.2010   10.0950 C   0  0  0  0  0  0
   17.3870    8.3670    9.2780 H   0  0  0  0  0  0
   17.0030    7.4330   11.2800 C   0  0  0  0  0  0
   18.4860    6.8740   10.9850 C   0  0  0  0  0  0
   19.0730    7.4610    9.9360 F   0  0  0  0  0  0
   19.4240    7.0430   11.9020 F   0  0  0  0  0  0
   18.5000    5.5890   10.6410 F   0  0  0  0  0  0
   15.0380    9.1920    8.7060 C   0  0  0  0  0  0
   13.8760    9.2150    7.9330 N   0  0  0  0  0  0
   13.0080    8.9740    8.3740 H   0  0  0  0  0  0
   13.6680    9.7480    6.7720 C   0  0  0  0  0  0
   14.0430    9.2000    6.0930 H   0  0  0  0  0  0
   12.0670    9.8420    6.6200 C   0  0  0  0  0  0
   11.6420   10.6180    5.7560 O   0  5  0  0  0  0
   11.4120    9.1540    7.4150 O   0  0  0  0  0  0
   14.1010   10.7610    6.7440 C   0  0  0  0  0  0
   13.4580   11.3700    6.4000 H   0  0  0  0  0  0
   14.5350   11.0380    7.5420 H   0  0  0  0  0  0
   15.4140   11.0060    5.8750 C   0  0  0  0  0  0
   15.9350   11.8570    6.3560 H   0  0  0  0  0  0
   16.0910   10.1460    6.0580 H   0  0  0  0  0  0
   15.5840   11.2440    4.3480 C   0  0  0  0  0  0
   15.5110   10.3210    3.5400 O   0  0  0  0  0  0
   15.8050   12.4480    4.1270 O   0  5  0  0  0  0
   16.0900    9.5300    8.2300 O   0  0  0  0  0  0
   17.6630    6.0650   13.5210 C   0  0  0  0  0  0
   17.7440    5.4790   14.4370 H   0  0  0  0  0  0
   18.0360    5.4790   12.6800 H   0  0  0  0  0  0
   18.2530    6.9760   13.6190 H   0  0  0  0  0  0
   10.0000    1.2030   11.0730 N   0  0  0  0  0  0
    9.1310    1.0630   11.2570 H   0  0  0  0  0  0
   10.3810    0.8010   10.3640 H   0  0  0  0  0  0
   10.1820    3.9600   14.7110 N   0  0  0  0  0  0
   10.5820    4.5620   15.2480 H   0  0  0  0  0  0
    9.3440    3.6840   14.8900 H   0  0  0  0  0  0
  1  2  1  0  0  0
  1  6  2  0  0  0
  1 11  1  0  0  0
  2  3  2  0  0  0
  2 54  1  0  0  0
  3  4  1  0  0  0
  4  5  2  0  0  0
  4 51  1  0  0  0
  5  6  1  0  0  0
  6  7  1  0  0  0
  7  8  2  0  0  0
  8  9  1  0  0  0
  8 10  1  0  0  0
 10 11  2  0  0  0
 10 12  1  0  0  0
 12 13  1  0  0  0
 12 14  1  0  0  0
 12 15  1  0  0  0
 15 16  1  0  0  0
 15 47  1  0  0  0
 16 17  1  0  0  0
 16 24  2  0  0  0
 17 18  1  0  0  0
 17 19  2  0  0  0
 19 20  1  0  0  0
 19 21  1  0  0  0
 21 22  2  0  0  0
 21 29  1  0  0  0
 22 23  1  0  0  0
 22 24  1  0  0  0
 24 25  1  0  0  0
 25 26  1  0  0  0
 25 27  1  0  0  0
 25 28  1  0  0  0
 29 30  1  0  0  0
 29 46  2  0  0  0
 30 31  1  0  0  0
 30 32  1  0  0  0
 32 33  1  0  0  0
 32 34  1  0  0  0
 32 37  1  0  0  0
 34 35  1  0  0  0
 34 36  2  0  0  0
 37 38  1  0  0  0
 37 39  1  0  0  0
 37 40  1  0  0  0
 40 41  1  0  0  0
 40 42  1  0  0  0
 40 43  1  0  0  0
 43 44  2  0  0  0
 43 45  1  0  0  0
 47 48  1  0  0  0
 47 49  1  0  0  0
 47 50  1  0  0  0
 51 52  1  0  0  0
 51 53  1  0  0  0
 54 55  1  0  0  0
 54 56  1  0  0  0
M  CHG  2  35  -1  45  -1
M  END
>  <ACTIVITY>
8.81

>  <SET>
1

>  <Min_dist>
999.9

>  <Avg_dist>
999.9

$$$$
1-152737
  Cerius2 12110214133D 1   1.00000                          
Structure written by Cerius2 SD Exporter
 57 59  0  0  0  0  0  0  0  0999 V2000
   12.2000    3.8600   13.2730 C   0  0  0  0  0  0
   10.8450    3.4660   13.6300 C   0  0  0  0  0  0
   10.1440    2.5940   12.8960 N   0  0  0  0  0  0
   10.6980    1.9790   11.8240 C   0  0  0  0  0  0
   12.0400    2.1470   11.5440 N   0  0  0  0  0  0
   12.7710    3.0540   12.3160 C   0  0  0  0  0  0
   14.0870    3.0620   11.9480 N   0  0  0  0  0  0
   14.8420    3.9790   12.6210 C   0  0  0  0  0  0
   15.7750    3.9430   12.4450 H   0  0  0  0  0  0
   14.3310    4.9350   13.5230 C   0  0  0  0  0  0
   12.9740    4.8700   13.8600 N   0  0  0  0  0  0
   15.2830    5.9410   14.2710 C   0  0  0  0  0  0
   14.7820    6.6920   14.5650 H   0  0  0  0  0  0
   15.6790    5.5090   15.0190 H   0  0  0  0  0  0
   16.3690    6.3880   13.3050 N   0  0  0  0  0  0
   16.0360    7.0980   12.2490 C   0  0  0  0  0  0
   14.7390    7.6590   12.0820 C   0  0  0  0  0  0
   13.9100    7.4950   12.7940 H   0  0  0  0  0  0
   14.4550    8.4760   10.9900 C   0  0  0  0  0  0
   13.4480    8.9260   10.8660 H   0  0  0  0  0  0
   15.4170    8.7250   10.0190 C   0  0  0  0  0  0
   16.6720    8.2010   10.0950 C   0  0  0  0  0  0
   17.3870    8.3670    9.2780 H   0  0  0  0  0  0
   17.0030    7.4330   11.2800 C   0  0  0  0  0  0
   18.3590    7.0900   11.2230 O   0  0  0  0  0  0
   19.0880    7.5400   10.0770 C   0  0  0  0  0  0
   20.1540    7.3930   10.2970 H   0  0  0  0  0  0
   18.8270    6.9640    9.1760 H   0  0  0  0  0  0
   18.9020    8.6060    9.8780 H   0  0  0  0  0  0
   15.0380    9.1920    8.7060 C   0  0  0  0  0  0
   13.8760    9.2150    7.9330 N   0  0  0  0  0  0
   13.0080    8.9740    8.3740 H   0  0  0  0  0  0
   13.6680    9.7480    6.7720 C   0  0  0  0  0  0
   14.0430    9.2000    6.0930 H   0  0  0  0  0  0
   12.0670    9.8420    6.6200 C   0  0  0  0  0  0
   11.6420   10.6180    5.7560 O   0  5  0  0  0  0
   11.4120    9.1540    7.4150 O   0  0  0  0  0  0
   14.1010   10.7610    6.7440 C   0  0  0  0  0  0
   13.4580   11.3700    6.4000 H   0  0  0  0  0  0
   14.5350   11.0380    7.5420 H   0  0  0  0  0  0
   15.4140   11.0060    5.8750 C   0  0  0  0  0  0
   15.9350   11.8570    6.3560 H   0  0  0  0  0  0
   16.0910   10.1460    6.0580 H   0  0  0  0  0  0
   15.5840   11.2440    4.3480 C   0  0  0  0  0  0
   15.5110   10.3210    3.5400 O   0  0  0  0  0  0
   15.8050   12.4480    4.1270 O   0  5  0  0  0  0
   16.0900    9.5300    8.2300 O   0  0  0  0  0  0
   17.6630    6.0650   13.5210 C   0  0  0  0  0  0
   17.7440    5.4790   14.4370 H   0  0  0  0  0  0
   18.0360    5.4790   12.6800 H   0  0  0  0  0  0
   18.2530    6.9760   13.6190 H   0  0  0  0  0  0
   10.0000    1.2030   11.0730 N   0  0  0  0  0  0
    9.1310    1.0630   11.2570 H   0  0  0  0  0  0
   10.3810    0.8010   10.3640 H   0  0  0  0  0  0
   10.1820    3.9600   14.7110 N   0  0  0  0  0  0
   10.5820    4.5620   15.2480 H   0  0  0  0  0  0
    9.3440    3.6840   14.8900 H   0  0  0  0  0  0
  1  2  1  0  0  0
  1  6  2  0  0  0
  1 11  1  0  0  0
  2  3  2  0  0  0
  2 55  1  0  0  0
  3  4  1  0  0  0
  4  5  2  0  0  0
  4 52  1  0  0  0
  5  6  1  0  0  0
  6  7  1  0  0  0
  7  8  2  0  0  0
  8  9  1  0  0  0
  8 10  1  0  0  0
 10 11  2  0  0  0
 10 12  1  0  0  0
 12 13  1  0  0  0
 12 14  1  0  0  0
 12 15  1  0  0  0
 15 16  1  0  0  0
 15 48  1  0  0  0
 16 17  1  0  0  0
 16 24  2  0  0  0
 17 18  1  0  0  0
 17 19  2  0  0  0
 19 20  1  0  0  0
 19 21  1  0  0  0
 21 22  2  0  0  0
 21 30  1  0  0  0
 22 23  1  0  0  0
 22 24  1  0  0  0
 24 25  1  0  0  0
 25 26  1  0  0  0
 26 27  1  0  0  0
 26 28  1  0  0  0
 26 29  1  0  0  0
 30 31  1  0  0  0
 30 47  2  0  0  0
 31 32  1  0  0  0
 31 33  1  0  0  0
 33 34  1  0  0  0
 33 35  1  0  0  0
 33 38  1  0  0  0
 35 36  1  0  0  0
 35 37  2  0  0  0
 38 39  1  0  0  0
 38 40  1  0  0  0
 38 41  1  0  0  0
 41 42  1  0  0  0
 41 43  1  0  0  0
 41 44  1  0  0  0
 44 45  2  0  0  0
 44 46  1  0  0  0
 48 49  1  0  0  0
 48 50  1  0  0  0
 48 51  1  0  0  0
 52 53  1  0  0  0
 52 54  1  0  0  0
 55 56  1  0  0  0
 55 57  1  0  0  0
M  CHG  2  36  -1  46  -1
M  END
>  <ACTIVITY>
8.96

>  <SET>
2

>  <Min_dist>
0.15

>  <Avg_dist>
0.59

$$$$
1-184692
  Cerius2 12110214133D 1   1.00000                          
Structure written by Cerius2 SD Exporter
 58 60  0  0  0  0  0  0  0  0999 V2000
   10.0980    2.6230   12.8040 N   0  0  0  0  0  0
   10.7470    1.9780   11.8460 C   0  0  0  0  0  0
   12.0370    2.1410   11.5860 N   0  0  0  0  0  0
   12.7150    3.0400   12.3060 C   0  0  0  0  0  0
   12.1590    3.8290   13.3280 C   0  0  0  0  0  0
   10.7960    3.5000   13.5500 C   0  0  0  0  0  0
   10.0290    4.0440   14.5640 N   0  0  0  0  0  0
   10.4270    4.0290   15.4960 H   0  0  0  0  0  0
    9.0630    3.7280   14.5510 H   0  0  0  0  0  0
   13.0080    4.8290   13.9760 C   0  0  0  0  0  0
   14.3850    4.9200   13.6320 C   0  0  0  0  0  0
   14.8830    4.0820   12.6300 C   0  0  0  0  0  0
   15.9280    4.1420   12.3260 H   0  0  0  0  0  0
   14.0510    3.1750   11.9820 C   0  0  0  0  0  0
   14.4750    2.5550   11.1920 H   0  0  0  0  0  0
   15.3630    5.9030   14.2570 C   0  0  0  0  0  0
   15.8720    5.4220   15.1030 H   0  0  0  0  0  0
   14.8220    6.7540   14.6820 H   0  0  0  0  0  0
   16.3440    6.3210   13.2730 N   0  0  0  0  0  0
   17.3110    6.0640   13.4560 H   0  0  0  0  0  0
   16.0680    7.1170   12.1820 C   0  0  0  0  0  0
   14.7840    7.6620   12.0490 C   0  0  0  0  0  0
   14.0220    7.4520   12.7980 H   0  0  0  0  0  0
   14.4440    8.4780   10.9620 C   0  0  0  0  0  0
   13.4330    8.8770   10.8950 H   0  0  0  0  0  0
   15.3930    8.7780    9.9820 C   0  0  0  0  0  0
   16.6780    8.2410   10.0980 C   0  0  0  0  0  0
   17.4380    8.4200    9.3420 H   0  0  0  0  0  0
   17.0070    7.4250   11.1910 C   0  0  0  0  0  0
   18.0190    7.0280   11.2380 H   0  0  0  0  0  0
   15.0380    9.1920    8.7060 C   0  0  0  0  0  0
   13.8760    9.2150    7.9330 N   0  0  0  0  0  0
   13.0080    8.9740    8.3740 H   0  0  0  0  0  0
   13.6680    9.7480    6.7720 C   0  0  0  0  0  0
   14.1010   10.7610    6.7440 H   0  0  0  0  0  0
   12.0670    9.8420    6.6200 C   0  0  0  0  0  0
   11.6420   10.6180    5.7560 O   0  5  0  0  0  0
   11.4120    9.1540    7.4150 O   0  0  0  0  0  0
   14.2170    8.8600    5.6160 C   0  0  0  0  0  0
   13.9330    7.8190    5.8640 H   0  0  0  0  0  0
   13.5680    9.1110    4.7520 H   0  0  0  0  0  0
   15.6610    8.7540    5.0390 C   0  0  0  0  0  0
   16.0230    9.7290    4.6810 H   0  0  0  0  0  0
   16.3450    8.4010    5.8260 H   0  0  0  0  0  0
   15.6370    7.7060    3.8700 C   0  0  0  0  0  0
   14.7190    7.8220    3.0510 O   0  0  0  0  0  0
   16.5520    6.8750    3.8960 O   0  5  0  0  0  0
   16.0900    9.5300    8.2300 O   0  0  0  0  0  0
   12.4240    5.8400   14.9540 C   0  0  0  0  0  0
   13.2070    6.3340   15.5360 H   0  0  0  0  0  0
   11.8340    5.3380   15.7220 H   0  0  0  0  0  0
   11.6200    6.9290   14.2530 C   0  0  0  0  0  0
   11.2240    7.6360   14.9890 H   0  0  0  0  0  0
   10.7760    6.5250   13.6870 H   0  0  0  0  0  0
   12.2460    7.4900   13.5510 H   0  0  0  0  0  0
   10.0520    1.0860   11.0890 N   0  0  0  0  0  0
   10.5230    0.5790   10.3540 H   0  0  0  0  0  0
    9.0690    0.9390   11.2650 H   0  0  0  0  0  0
  1  2  1  0  0  0
  1  6  2  0  0  0
  2  3  2  0  0  0
  2 56  1  0  0  0
  3  4  1  0  0  0
  4  5  2  0  0  0
  4 14  1  0  0  0
  5  6  1  0  0  0
  5 10  1  0  0  0
  6  7  1  0  0  0
  7  8  1  0  0  0
  7  9  1  0  0  0
 10 11  2  0  0  0
 10 49  1  0  0  0
 11 12  1  0  0  0
 11 16  1  0  0  0
 12 13  1  0  0  0
 12 14  2  0  0  0
 14 15  1  0  0  0
 16 17  1  0  0  0
 16 18  1  0  0  0
 16 19  1  0  0  0
 19 20  1  0  0  0
 19 21  1  0  0  0
 21 22  1  0  0  0
 21 29  2  0  0  0
 22 23  1  0  0  0
 22 24  2  0  0  0
 24 25  1  0  0  0
 24 26  1  0  0  0
 26 27  2  0  0  0
 26 31  1  0  0  0
 27 28  1  0  0  0
 27 29  1  0  0  0
 29 30  1  0  0  0
 31 32  1  0  0  0
 31 48  2  0  0  0
 32 33  1  0  0  0
 32 34  1  0  0  0
 34 35  1  0  0  0
 34 36  1  0  0  0
 34 39  1  0  0  0
 36 37  1  0  0  0
 36 38  2  0  0  0
 39 40  1  0  0  0
 39 41  1  0  0  0
 39 42  1  0  0  0
 42 43  1  0  0  0
 42 44  1  0  0  0
 42 45  1  0  0  0
 45 46  2  0  0  0
 45 47  1  0  0  0
 49 50  1  0  0  0
 49 51  1  0  0  0
 49 52  1  0  0  0
 52 53  1  0  0  0
 52 54  1  0  0  0
 52 55  1  0  0  0
 56 57  1  0  0  0
 56 58  1  0  0  0
M  CHG  2  37  -1  47  -1
M  END
>  <ACTIVITY>
8.44

>  <SET>
2

>  <Min_dist>
0.06

>  <Avg_dist>
0.59

$$$$
1-232965
  Cerius2 12110214133D 1   1.00000                          
Structure written by Cerius2 SD Exporter
 32 34  0  0  0  0  0  0  0  0999 V2000
   10.1480    2.5940   12.8690 N   0  0  0  0  0  0
   10.7710    1.9560   11.8820 C   0  0  0  0  0  0
   12.0410    2.1540   11.5430 N   0  0  0  0  0  0
   12.7320    3.0540   12.2350 C   0  0  0  0  0  0
   12.1980    3.7920   13.2990 C   0  0  0  0  0  0
   10.8670    3.4890   13.5690 C   0  0  0  0  0  0
   10.1720    4.1700   14.5610 N   0  0  0  0  0  0
   10.7050    4.5080   15.3570 H   0  0  0  0  0  0
    9.2160    3.8780   14.7360 H   0  0  0  0  0  0
   12.9350    4.7130   14.0020 N   0  0  0  0  0  0
   14.2230    4.8880   13.6200 C   0  0  0  0  0  0
   14.7370    4.1540   12.5640 C   0  0  0  0  0  0
   15.7660    4.2770   12.2370 H   0  0  0  0  0  0
   14.0060    3.2400   11.8710 N   0  0  0  0  0  0
   15.0720    5.8870   14.3630 C   0  0  0  0  0  0
   15.2300    5.5340   15.3880 H   0  0  0  0  0  0
   14.5340    6.8400   14.4150 H   0  0  0  0  0  0
   16.6850    6.1580   13.5340 S   0  0  0  0  0  0
   16.1860    7.1690   12.1490 C   0  0  0  0  0  0
   14.8640    7.6300   12.1020 C   0  0  0  0  0  0
   14.1620    7.3820   12.8970 H   0  0  0  0  0  0
   14.4250    8.4200   11.0380 C   0  0  0  0  0  0
   13.3970    8.7790   11.0140 H   0  0  0  0  0  0
   15.3010    8.7500   10.0060 C   0  0  0  0  0  0
   14.9600    9.3670    9.1770 H   0  0  0  0  0  0
   16.6130    8.2810   10.0340 C   0  0  0  0  0  0
   17.2970    8.5310    9.2250 H   0  0  0  0  0  0
   17.0530    7.4890   11.0990 C   0  0  0  0  0  0
   18.0770    7.1220   11.0810 H   0  0  0  0  0  0
   10.0590    1.0420   11.1690 N   0  0  0  0  0  0
   10.5020    0.5400   10.4140 H   0  0  0  0  0  0
    9.0910    0.8730   11.3990 H   0  0  0  0  0  0
  1  2  1  0  0  0
  1  6  2  0  0  0
  2  3  2  0  0  0
  2 30  1  0  0  0
  3  4  1  0  0  0
  4  5  2  0  0  0
  4 14  1  0  0  0
  5  6  1  0  0  0
  5 10  1  0  0  0
  6  7  1  0  0  0
  7  8  1  0  0  0
  7  9  1  0  0  0
 10 11  2  0  0  0
 11 12  1  0  0  0
 11 15  1  0  0  0
 12 13  1  0  0  0
 12 14  2  0  0  0
 15 16  1  0  0  0
 15 17  1  0  0  0
 15 18  1  0  0  0
 18 19  1  0  0  0
 19 20  1  0  0  0
 19 28  2  0  0  0
 20 21  1  0  0  0
 20 22  2  0  0  0
 22 23  1  0  0  0
 22 24  1  0  0  0
 24 25  1  0  0  0
 24 26  2  0  0  0
 26 27  1  0  0  0
 26 28  1  0  0  0
 28 29  1  0  0  0
 30 31  1  0  0  0
 30 32  1  0  0  0
M  END
>  <ACTIVITY>
3.61

>  <SET>
1

>  <Min_dist>
999.9

>  <Avg_dist>
999.9

$$$$
1-233903
  Cerius2 12110214133D 1   1.00000                          
Structure written by Cerius2 SD Exporter
 37 39  0  0  0  0  0  0  0  0999 V2000
   12.2000    3.8600   13.2730 C   0  0  0  0  0  0
   10.8450    3.4660   13.6300 C   0  0  0  0  0  0
   10.1440    2.5940   12.8960 N   0  0  0  0  0  0
   10.6980    1.9790   11.8240 C   0  0  0  0  0  0
   12.0400    2.1470   11.5440 N   0  0  0  0  0  0
   12.7710    3.0540   12.3160 C   0  0  0  0  0  0
   14.0870    3.0620   11.9480 N   0  0  0  0  0  0
   14.8420    3.9790   12.6210 C   0  0  0  0  0  0
   15.7750    3.9430   12.4450 H   0  0  0  0  0  0
   14.3310    4.9350   13.5230 C   0  0  0  0  0  0
   12.9740    4.8700   13.8600 N   0  0  0  0  0  0
   15.2830    5.9410   14.2710 C   0  0  0  0  0  0
   14.7820    6.6920   14.5650 H   0  0  0  0  0  0
   15.6790    5.5090   15.0190 H   0  0  0  0  0  0
   16.3690    6.3880   13.3050 N   0  0  0  0  0  0
   17.2320    6.1730   13.4490 H   0  0  0  0  0  0
   16.0360    7.0980   12.2490 C   0  0  0  0  0  0
   14.7390    7.6590   12.0820 C   0  0  0  0  0  0
   13.9100    7.4950   12.7940 H   0  0  0  0  0  0
   14.4550    8.4760   10.9900 C   0  0  0  0  0  0
   13.4480    8.9260   10.8660 H   0  0  0  0  0  0
   15.4170    8.7250   10.0190 C   0  0  0  0  0  0
   16.6720    8.2010   10.0950 C   0  0  0  0  0  0
   17.3870    8.3670    9.2780 H   0  0  0  0  0  0
   17.0030    7.4330   11.2800 C   0  0  0  0  0  0
   18.0420    7.0620   11.3100 H   0  0  0  0  0  0
   14.9540    9.6510    8.9170 C   0  0  0  0  0  0
   15.8490    9.8450    7.8620 O   0  0  0  0  0  0
   13.8160   10.0970    8.9550 N   0  0  0  0  0  0
   13.2670    9.8720    9.6320 H   0  0  0  0  0  0
   13.5270   10.6490    8.3060 H   0  0  0  0  0  0
   10.0000    1.2030   11.0730 N   0  0  0  0  0  0
    9.1310    1.0630   11.2570 H   0  0  0  0  0  0
   10.3810    0.8010   10.3640 H   0  0  0  0  0  0
   10.1820    3.9600   14.7110 N   0  0  0  0  0  0
   10.5820    4.5620   15.2480 H   0  0  0  0  0  0
    9.3440    3.6840   14.8900 H   0  0  0  0  0  0
  1  2  1  0  0  0
  1  6  2  0  0  0
  1 11  1  0  0  0
  2  3  2  0  0  0
  2 35  1  0  0  0
  3  4  1  0  0  0
  4  5  2  0  0  0
  4 32  1  0  0  0
  5  6  1  0  0  0
  6  7  1  0  0  0
  7  8  2  0  0  0
  8  9  1  0  0  0
  8 10  1  0  0  0
 10 11  2  0  0  0
 10 12  1  0  0  0
 12 13  1  0  0  0
 12 14  1  0  0  0
 12 15  1  0  0  0
 15 16  1  0  0  0
 15 17  1  0  0  0
 17 18  1  0  0  0
 17 25  2  0  0  0
 18 19  1  0  0  0
 18 20  2  0  0  0
 20 21  1  0  0  0
 20 22  1  0  0  0
 22 23  2  0  0  0
 22 27  1  0  0  0
 23 24  1  0  0  0
 23 25  1  0  0  0
 25 26  1  0  0  0
 27 28  2  0  0  0
 27 29  1  0  0  0
 29 30  1  0  0  0
 29 31  1  0  0  0
 32 33  1  0  0  0
 32 34  1  0  0  0
 35 36  1  0  0  0
 35 37  1  0  0  0
M  END
>  <ACTIVITY>
3.66

>  <SET>
1

>  <Min_dist>
999.9

>  <Avg_dist>
999.9

$$$$
1-233904
  Cerius2 12110214133D 1   1.00000                          
Structure written by Cerius2 SD Exporter
 36 38  0  0  0  0  0  0  0  0999 V2000
   12.2000    3.8600   13.2730 C   0  0  0  0  0  0
   10.8450    3.4660   13.6300 C   0  0  0  0  0  0
   10.1440    2.5940   12.8960 N   0  0  0  0  0  0
   10.6980    1.9790   11.8240 C   0  0  0  0  0  0
   12.0400    2.1470   11.5440 N   0  0  0  0  0  0
   12.7710    3.0540   12.3160 C   0  0  0  0  0  0
   14.0870    3.0620   11.9480 N   0  0  0  0  0  0
   14.8420    3.9790   12.6210 C   0  0  0  0  0  0
   15.7750    3.9430   12.4450 H   0  0  0  0  0  0
   14.3310    4.9350   13.5230 C   0  0  0  0  0  0
   12.9740    4.8700   13.8600 N   0  0  0  0  0  0
   15.2830    5.9410   14.2710 C   0  0  0  0  0  0
   14.7820    6.6920   14.5650 H   0  0  0  0  0  0
   15.6790    5.5090   15.0190 H   0  0  0  0  0  0
   16.3690    6.3880   13.3050 N   0  0  0  0  0  0
   16.0360    7.0980   12.2490 C   0  0  0  0  0  0
   14.7390    7.6590   12.0820 C   0  0  0  0  0  0
   13.9100    7.4950   12.7940 H   0  0  0  0  0  0
   14.4550    8.4760   10.9900 C   0  0  0  0  0  0
   13.4480    8.9260   10.8660 H   0  0  0  0  0  0
   15.4170    8.7250   10.0190 C   0  0  0  0  0  0
   15.1350    9.3470    9.1460 H   0  0  0  0  0  0
   16.6720    8.2010   10.0950 C   0  0  0  0  0  0
   17.3870    8.3670    9.2780 H   0  0  0  0  0  0
   17.0030    7.4330   11.2800 C   0  0  0  0  0  0
   18.0420    7.0620   11.3100 H   0  0  0  0  0  0
   17.6630    6.0650   13.5210 C   0  0  0  0  0  0
   17.7440    5.4790   14.4370 H   0  0  0  0  0  0
   18.0360    5.4790   12.6800 H   0  0  0  0  0  0
   18.2530    6.9760   13.6190 H   0  0  0  0  0  0
   10.0000    1.2030   11.0730 N   0  0  0  0  0  0
    9.1310    1.0630   11.2570 H   0  0  0  0  0  0
   10.3810    0.8010   10.3640 H   0  0  0  0  0  0
   10.1820    3.9600   14.7110 N   0  0  0  0  0  0
   10.5820    4.5620   15.2480 H   0  0  0  0  0  0
    9.3440    3.6840   14.8900 H   0  0  0  0  0  0
  1  2  1  0  0  0
  1  6  2  0  0  0
  1 11  1  0  0  0
  2  3  2  0  0  0
  2 34  1  0  0  0
  3  4  1  0  0  0
  4  5  2  0  0  0
  4 31  1  0  0  0
  5  6  1  0  0  0
  6  7  1  0  0  0
  7  8  2  0  0  0
  8  9  1  0  0  0
  8 10  1  0  0  0
 10 11  2  0  0  0
 10 12  1  0  0  0
 12 13  1  0  0  0
 12 14  1  0  0  0
 12 15  1  0  0  0
 15 16  1  0  0  0
 15 27  1  0  0  0
 16 17  1  0  0  0
 16 25  2  0  0  0
 17 18  1  0  0  0
 17 19  2  0  0  0
 19 20  1  0  0  0
 19 21  1  0  0  0
 21 22  1  0  0  0
 21 23  2  0  0  0
 23 24  1  0  0  0
 23 25  1  0  0  0
 25 26  1  0  0  0
 27 28  1  0  0  0
 27 29  1  0  0  0
 27 30  1  0  0  0
 31 32  1  0  0  0
 31 33  1  0  0  0
 34 35  1  0  0  0
 34 36  1  0  0  0
M  END
>  <ACTIVITY>
6.08

>  <SET>
1

>  <Min_dist>
999.9

>  <Avg_dist>
999.9

$$$$
1-233910
  Cerius2 12110214133D 1   1.00000                          
Structure written by Cerius2 SD Exporter
 40 42  0  0  0  0  0  0  0  0999 V2000
   12.2000    3.8600   13.2730 C   0  0  0  0  0  0
   10.8450    3.4660   13.6300 C   0  0  0  0  0  0
   10.1440    2.5940   12.8960 N   0  0  0  0  0  0
   10.6980    1.9790   11.8240 C   0  0  0  0  0  0
   12.0400    2.1470   11.5440 N   0  0  0  0  0  0
   12.7710    3.0540   12.3160 C   0  0  0  0  0  0
   14.0870    3.0620   11.9480 N   0  0  0  0  0  0
   14.8420    3.9790   12.6210 C   0  0  0  0  0  0
   15.7750    3.9430   12.4450 H   0  0  0  0  0  0
   14.3310    4.9350   13.5230 C   0  0  0  0  0  0
   12.9740    4.8700   13.8600 N   0  0  0  0  0  0
   15.2830    5.9410   14.2710 C   0  0  0  0  0  0
   14.7820    6.6920   14.5650 H   0  0  0  0  0  0
   15.6790    5.5090   15.0190 H   0  0  0  0  0  0
   16.3690    6.3880   13.3050 N   0  0  0  0  0  0
   17.2320    6.1730   13.4490 H   0  0  0  0  0  0
   16.0360    7.0980   12.2490 C   0  0  0  0  0  0
   14.7390    7.6590   12.0820 C   0  0  0  0  0  0
   13.9210    7.5220   12.8030 H   0  0  0  0  0  0
   14.4550    8.4760   10.9900 C   0  0  0  0  0  0
   13.4480    8.9260   10.8660 H   0  0  0  0  0  0
   15.4170    8.7250   10.0190 C   0  0  0  0  0  0
   16.6720    8.2010   10.0950 C   0  0  0  0  0  0
   17.4540    8.3830    9.3320 H   0  0  0  0  0  0
   17.0030    7.4330   11.2800 C   0  0  0  0  0  0
   18.0330    7.0340   11.3680 H   0  0  0  0  0  0
   15.1000    9.5730    8.8970 N   0  0  0  0  0  0
   14.1290    9.7890    8.7550 H   0  0  0  0  0  0
   15.9780   10.2770    8.0900 C   0  0  0  0  0  0
   17.1980   10.2400    8.1690 O   0  0  0  0  0  0
   15.2910   11.1410    7.0320 C   0  0  0  0  0  0
   16.0530   11.6560    6.4340 H   0  0  0  0  0  0
   14.6800   10.5180    6.3610 H   0  0  0  0  0  0
   14.6480   11.8980    7.5070 H   0  0  0  0  0  0
   10.0000    1.2030   11.0730 N   0  0  0  0  0  0
    9.1310    1.0630   11.2570 H   0  0  0  0  0  0
   10.3810    0.8010   10.3640 H   0  0  0  0  0  0
   10.1820    3.9600   14.7110 N   0  0  0  0  0  0
   10.5820    4.5620   15.2480 H   0  0  0  0  0  0
    9.3440    3.6840   14.8900 H   0  0  0  0  0  0
  1  2  1  0  0  0
  1  6  2  0  0  0
  1 11  1  0  0  0
  2  3  2  0  0  0
  2 38  1  0  0  0
  3  4  1  0  0  0
  4  5  2  0  0  0
  4 35  1  0  0  0
  5  6  1  0  0  0
  6  7  1  0  0  0
  7  8  2  0  0  0
  8  9  1  0  0  0
  8 10  1  0  0  0
 10 11  2  0  0  0
 10 12  1  0  0  0
 12 13  1  0  0  0
 12 14  1  0  0  0
 12 15  1  0  0  0
 15 16  1  0  0  0
 15 17  1  0  0  0
 17 18  1  0  0  0
 17 25  2  0  0  0
 18 19  1  0  0  0
 18 20  2  0  0  0
 20 21  1  0  0  0
 20 22  1  0  0  0
 22 23  2  0  0  0
 22 27  1  0  0  0
 23 24  1  0  0  0
 23 25  1  0  0  0
 25 26  1  0  0  0
 27 28  1  0  0  0
 27 29  1  0  0  0
 29 30  2  0  0  0
 29 31  1  0  0  0
 31 32  1  0  0  0
 31 33  1  0  0  0
 31 34  1  0  0  0
 35 36  1  0  0  0
 35 37  1  0  0  0
 38 39  1  0  0  0
 38 40  1  0  0  0
M  END
>  <ACTIVITY>
6.77

>  <SET>
2

>  <Min_dist>
0.15

>  <Avg_dist>
0.53

$$$$
1-233912
  Cerius2 12110214133D 1   1.00000                          
Structure written by Cerius2 SD Exporter
 32 34  0  0  0  0  0  0  0  0999 V2000
   10.1940    2.6450   12.9090 N   0  0  0  0  0  0
   10.7830    1.9840   11.9170 C   0  0  0  0  0  0
   12.0470    2.1560   11.5440 N   0  0  0  0  0  0
   12.7700    3.0520   12.2080 C   0  0  0  0  0  0
   12.2750    3.8140   13.2740 C   0  0  0  0  0  0
   10.9450    3.5370   13.5800 C   0  0  0  0  0  0
   10.2840    4.2410   14.5790 N   0  0  0  0  0  0
   10.8410    4.5880   15.3560 H   0  0  0  0  0  0
    9.3290    3.9670   14.7810 H   0  0  0  0  0  0
   13.0440    4.7320   13.9450 N   0  0  0  0  0  0
   14.3250    4.8800   13.5270 C   0  0  0  0  0  0
   14.8010    4.1240   12.4710 C   0  0  0  0  0  0
   15.8220    4.2300   12.1160 H   0  0  0  0  0  0
   14.0380    3.2120   11.8100 N   0  0  0  0  0  0
   15.2130    5.8820   14.2210 C   0  0  0  0  0  0
   15.6300    5.4190   15.1230 H   0  0  0  0  0  0
   14.6150    6.7590   14.4960 H   0  0  0  0  0  0
   16.2570    6.2680   13.3170 O   0  0  0  0  0  0
   15.9050    7.0840   12.2780 C   0  0  0  0  0  0
   16.9260    7.3240   11.3520 C   0  0  0  0  0  0
   17.9070    6.8730   11.4930 H   0  0  0  0  0  0
   16.7030    8.1410   10.2430 C   0  0  0  0  0  0
   17.5050    8.3220    9.5290 H   0  0  0  0  0  0
   15.4530    8.7240   10.0510 C   0  0  0  0  0  0
   15.2750    9.3620    9.1870 H   0  0  0  0  0  0
   14.4310    8.4880   10.9680 C   0  0  0  0  0  0
   13.4520    8.9430   10.8180 H   0  0  0  0  0  0
   14.6540    7.6690   12.0800 C   0  0  0  0  0  0
   13.8260    7.5130   12.7660 H   0  0  0  0  0  0
   10.0400    1.0710   11.2360 N   0  0  0  0  0  0
   10.4540    0.5500   10.4760 H   0  0  0  0  0  0
    9.0760    0.9180   11.4940 H   0  0  0  0  0  0
  1  2  1  0  0  0
  1  6  2  0  0  0
  2  3  2  0  0  0
  2 30  1  0  0  0
  3  4  1  0  0  0
  4  5  2  0  0  0
  4 14  1  0  0  0
  5  6  1  0  0  0
  5 10  1  0  0  0
  6  7  1  0  0  0
  7  8  1  0  0  0
  7  9  1  0  0  0
 10 11  2  0  0  0
 11 12  1  0  0  0
 11 15  1  0  0  0
 12 13  1  0  0  0
 12 14  2  0  0  0
 15 16  1  0  0  0
 15 17  1  0  0  0
 15 18  1  0  0  0
 18 19  1  0  0  0
 19 20  1  0  0  0
 19 28  2  0  0  0
 20 21  1  0  0  0
 20 22  2  0  0  0
 22 23  1  0  0  0
 22 24  1  0  0  0
 24 25  1  0  0  0
 24 26  2  0  0  0
 26 27  1  0  0  0
 26 28  1  0  0  0
 28 29  1  0  0  0
 30 31  1  0  0  0
 30 32  1  0  0  0
M  END
>  <ACTIVITY>
4.89

>  <SET>
2

>  <Min_dist>
0.11

>  <Avg_dist>
0.55

$$$$
1-235776
  Cerius2 12110214133D 1   1.00000                          
Structure written by Cerius2 SD Exporter
 33 35  0  0  0  0  0  0  0  0999 V2000
   10.1760    2.6370   12.8990 N   0  0  0  0  0  0
   10.7680    1.9820   11.9040 C   0  0  0  0  0  0
   12.0350    2.1540   11.5390 N   0  0  0  0  0  0
   12.7570    3.0420   12.2140 C   0  0  0  0  0  0
   12.2580    3.7950   13.2860 C   0  0  0  0  0  0
   10.9260    3.5210   13.5810 C   0  0  0  0  0  0
   10.2610    4.2200   14.5810 N   0  0  0  0  0  0
   10.8150    4.5640   15.3610 H   0  0  0  0  0  0
    9.3040    3.9490   14.7760 H   0  0  0  0  0  0
   13.0270    4.7030   13.9710 N   0  0  0  0  0  0
   14.3140    4.8430   13.5670 C   0  0  0  0  0  0
   14.7900    4.1030   12.4990 C   0  0  0  0  0  0
   15.8110    4.2150   12.1450 H   0  0  0  0  0  0
   14.0270    3.2020   11.8240 N   0  0  0  0  0  0
   15.2010    5.8500   14.2670 C   0  0  0  0  0  0
   15.6350    5.3810   15.1580 H   0  0  0  0  0  0
   14.5820    6.6920   14.6000 H   0  0  0  0  0  0
   16.2470    6.3280   13.3700 N   0  0  0  0  0  0
   17.1540    5.8710   13.4500 H   0  0  0  0  0  0
   16.0180    7.1310   12.2700 C   0  0  0  0  0  0
   14.7400    7.6760   12.0840 C   0  0  0  0  0  0
   13.9550    7.4860   12.8140 H   0  0  0  0  0  0
   14.4370    8.4670   10.9700 C   0  0  0  0  0  0
   13.4360    8.8790   10.8540 H   0  0  0  0  0  0
   15.4130    8.7220   10.0130 C   0  0  0  0  0  0
   15.1820    9.3360    9.1450 H   0  0  0  0  0  0
   16.6860    8.1830   10.1720 C   0  0  0  0  0  0
   17.4550    8.3750    9.4250 H   0  0  0  0  0  0
   16.9810    7.3910   11.2880 C   0  0  0  0  0  0
   17.9880    6.9870   11.3680 H   0  0  0  0  0  0
   10.0260    1.0760   11.2130 N   0  0  0  0  0  0
   10.4410    0.5600   10.4510 H   0  0  0  0  0  0
    9.0620    0.9210   11.4690 H   0  0  0  0  0  0
  1  2  1  0  0  0
  1  6  2  0  0  0
  2  3  2  0  0  0
  2 31  1  0  0  0
  3  4  1  0  0  0
  4  5  2  0  0  0
  4 14  1  0  0  0
  5  6  1  0  0  0
  5 10  1  0  0  0
  6  7  1  0  0  0
  7  8  1  0  0  0
  7  9  1  0  0  0
 10 11  2  0  0  0
 11 12  1  0  0  0
 11 15  1  0  0  0
 12 13  1  0  0  0
 12 14  2  0  0  0
 15 16  1  0  0  0
 15 17  1  0  0  0
 15 18  1  0  0  0
 18 19  1  0  0  0
 18 20  1  0  0  0
 20 21  1  0  0  0
 20 29  2  0  0  0
 21 22  1  0  0  0
 21 23  2  0  0  0
 23 24  1  0  0  0
 23 25  1  0  0  0
 25 26  1  0  0  0
 25 27  2  0  0  0
 27 28  1  0  0  0
 27 29  1  0  0  0
 29 30  1  0  0  0
 31 32  1  0  0  0
 31 33  1  0  0  0
M  END
>  <ACTIVITY>
3.3

>  <SET>
3

>  <Min_dist>
0.03

>  <Avg_dist>
0.49

$$$$
1-235777
  Cerius2 12110214133D 1   1.00000                          
Structure written by Cerius2 SD Exporter
 39 42  0  0  0  0  0  0  0  0999 V2000
   10.1730    2.6450   12.8890 N   0  0  0  0  0  0
   10.7700    1.9910   11.8960 C   0  0  0  0  0  0
   12.0380    2.1620   11.5380 N   0  0  0  0  0  0
   12.7600    3.0430   12.2220 C   0  0  0  0  0  0
   12.2560    3.8000   13.2880 C   0  0  0  0  0  0
   10.9140    3.5450   13.5600 C   0  0  0  0  0  0
   10.2710    4.1750   14.6190 N   0  0  0  0  0  0
   10.5910    5.1050   14.8750 H   0  0  0  0  0  0
    9.2840    3.9760   14.7410 H   0  0  0  0  0  0
   13.0220    4.7060   13.9770 N   0  0  0  0  0  0
   14.3160    4.8400   13.5810 C   0  0  0  0  0  0
   14.8000    4.0860   12.5270 C   0  0  0  0  0  0
   15.8300    4.1780   12.1910 H   0  0  0  0  0  0
   14.0360    3.1920   11.8450 N   0  0  0  0  0  0
   15.2300    5.8210   14.2940 C   0  0  0  0  0  0
   15.7170    5.2960   15.1240 H   0  0  0  0  0  0
   14.6170    6.6400   14.6880 H   0  0  0  0  0  0
   16.2400    6.3530   13.3830 N   0  0  0  0  0  0
   17.1920    6.0990   13.6390 H   0  0  0  0  0  0
   15.9890    7.1290   12.2630 C   0  0  0  0  0  0
   14.7120    7.6740   12.0430 C   0  0  0  0  0  0
   13.8980    7.4980   12.7430 H   0  0  0  0  0  0
   14.4330    8.4600   10.9250 C   0  0  0  0  0  0
   13.4340    8.8670   10.7830 H   0  0  0  0  0  0
   15.4310    8.7210    9.9960 C   0  0  0  0  0  0
   15.1910    9.3370    9.1300 H   0  0  0  0  0  0
   16.7190    8.2020   10.1690 C   0  0  0  0  0  0
   17.0180    7.3990   11.3040 C   0  0  0  0  0  0
   18.3450    6.9100   11.4080 C   0  0  0  0  0  0
   18.6480    6.2890   12.2480 H   0  0  0  0  0  0
   19.3210    7.1980   10.4480 C   0  0  0  0  0  0
   20.3290    6.8040   10.5640 H   0  0  0  0  0  0
   19.0030    7.9840    9.3510 C   0  0  0  0  0  0
   19.7590    8.2110    8.6010 H   0  0  0  0  0  0
   17.7100    8.4830    9.2130 C   0  0  0  0  0  0
   17.4800    9.0990    8.3430 H   0  0  0  0  0  0
   10.0310    1.0860   11.2010 N   0  0  0  0  0  0
   10.4500    0.5700   10.4410 H   0  0  0  0  0  0
    9.0640    0.9330   11.4490 H   0  0  0  0  0  0
  1  2  1  0  0  0
  1  6  2  0  0  0
  2  3  2  0  0  0
  2 37  1  0  0  0
  3  4  1  0  0  0
  4  5  2  0  0  0
  4 14  1  0  0  0
  5  6  1  0  0  0
  5 10  1  0  0  0
  6  7  1  0  0  0
  7  8  1  0  0  0
  7  9  1  0  0  0
 10 11  2  0  0  0
 11 12  1  0  0  0
 11 15  1  0  0  0
 12 13  1  0  0  0
 12 14  2  0  0  0
 15 16  1  0  0  0
 15 17  1  0  0  0
 15 18  1  0  0  0
 18 19  1  0  0  0
 18 20  1  0  0  0
 20 21  2  0  0  0
 20 28  1  0  0  0
 21 22  1  0  0  0
 21 23  1  0  0  0
 23 24  1  0  0  0
 23 25  2  0  0  0
 25 26  1  0  0  0
 25 27  1  0  0  0
 27 28  2  0  0  0
 27 35  1  0  0  0
 28 29  1  0  0  0
 29 30  1  0  0  0
 29 31  2  0  0  0
 31 32  1  0  0  0
 31 33  1  0  0  0
 33 34  1  0  0  0
 33 35  2  0  0  0
 35 36  1  0  0  0
 37 38  1  0  0  0
 37 39  1  0  0  0
M  END
>  <ACTIVITY>
5.9

>  <SET>
1

>  <Min_dist>
999.9

>  <Avg_dist>
999.9

$$$$
1-235791
  Cerius2 12110214133D 1   1.00000                          
Structure written by Cerius2 SD Exporter
 38 40  0  0  0  0  0  0  0  0999 V2000
   12.2000    3.8600   13.2730 C   0  0  0  0  0  0
   10.8450    3.4660   13.6300 C   0  0  0  0  0  0
   10.1440    2.5940   12.8960 N   0  0  0  0  0  0
   10.6980    1.9790   11.8240 C   0  0  0  0  0  0
   12.0400    2.1470   11.5440 N   0  0  0  0  0  0
   12.7710    3.0540   12.3160 C   0  0  0  0  0  0
   14.0870    3.0620   11.9480 N   0  0  0  0  0  0
   14.8420    3.9790   12.6210 C   0  0  0  0  0  0
   15.7750    3.9430   12.4450 H   0  0  0  0  0  0
   14.3310    4.9350   13.5230 C   0  0  0  0  0  0
   12.9740    4.8700   13.8600 N   0  0  0  0  0  0
   15.2830    5.9410   14.2710 C   0  0  0  0  0  0
   14.7820    6.6920   14.5650 H   0  0  0  0  0  0
   15.6790    5.5090   15.0190 H   0  0  0  0  0  0
   16.3690    6.3880   13.3050 N   0  0  0  0  0  0
   17.2320    6.1730   13.4490 H   0  0  0  0  0  0
   16.0360    7.0980   12.2490 C   0  0  0  0  0  0
   14.7390    7.6590   12.0820 C   0  0  0  0  0  0
   14.0580    7.4790   12.7190 H   0  0  0  0  0  0
   14.4550    8.4760   10.9900 C   0  0  0  0  0  0
   13.4480    8.9260   10.8660 H   0  0  0  0  0  0
   15.4170    8.7250   10.0190 C   0  0  0  0  0  0
   16.6720    8.2010   10.0950 C   0  0  0  0  0  0
   17.3870    8.3670    9.2780 H   0  0  0  0  0  0
   17.0030    7.4330   11.2800 C   0  0  0  0  0  0
   17.9040    7.1550   11.3930 H   0  0  0  0  0  0
   14.9540    9.6510    8.9170 C   0  0  0  0  0  0
   13.5720   10.3040    8.7940 C   0  0  0  0  0  0
   13.8270   11.3740    8.7030 H   0  0  0  0  0  0
   13.2450    9.9760    7.7930 H   0  0  0  0  0  0
   12.7170   10.2190    9.4710 H   0  0  0  0  0  0
   15.7300    9.9330    8.0140 O   0  0  0  0  0  0
   10.0000    1.2030   11.0730 N   0  0  0  0  0  0
    9.1310    1.0630   11.2570 H   0  0  0  0  0  0
   10.3810    0.8010   10.3640 H   0  0  0  0  0  0
   10.1820    3.9600   14.7110 N   0  0  0  0  0  0
   10.5820    4.5620   15.2480 H   0  0  0  0  0  0
    9.3440    3.6840   14.8900 H   0  0  0  0  0  0
  1  2  1  0  0  0
  1  6  2  0  0  0
  1 11  1  0  0  0
  2  3  2  0  0  0
  2 36  1  0  0  0
  3  4  1  0  0  0
  4  5  2  0  0  0
  4 33  1  0  0  0
  5  6  1  0  0  0
  6  7  1  0  0  0
  7  8  2  0  0  0
  8  9  1  0  0  0
  8 10  1  0  0  0
 10 11  2  0  0  0
 10 12  1  0  0  0
 12 13  1  0  0  0
 12 14  1  0  0  0
 12 15  1  0  0  0
 15 16  1  0  0  0
 15 17  1  0  0  0
 17 18  1  0  0  0
 17 25  2  0  0  0
 18 19  1  0  0  0
 18 20  2  0  0  0
 20 21  1  0  0  0
 20 22  1  0  0  0
 22 23  2  0  0  0
 22 27  1  0  0  0
 23 24  1  0  0  0
 23 25  1  0  0  0
 25 26  1  0  0  0
 27 28  1  0  0  0
 27 32  2  0  0  0
 28 29  1  0  0  0
 28 30  1  0  0  0
 28 31  1  0  0  0
 33 34  1  0  0  0
 33 35  1  0  0  0
 36 37  1  0  0  0
 36 38  1  0  0  0
M  END
>  <ACTIVITY>
7.12

>  <SET>
1

>  <Min_dist>
999.9

>  <Avg_dist>
999.9

$$$$
1-236642
  Cerius2 12110214133D 1   1.00000                          
Structure written by Cerius2 SD Exporter
 43 45  0  0  0  0  0  0  0  0999 V2000
   12.2000    3.8600   13.2730 C   0  0  0  0  0  0
   10.8450    3.4660   13.6300 C   0  0  0  0  0  0
   10.1440    2.5940   12.8960 N   0  0  0  0  0  0
   10.6980    1.9790   11.8240 C   0  0  0  0  0  0
   12.0400    2.1470   11.5440 N   0  0  0  0  0  0
   12.7710    3.0540   12.3160 C   0  0  0  0  0  0
   14.0870    3.0620   11.9480 N   0  0  0  0  0  0
   14.8420    3.9790   12.6210 C   0  0  0  0  0  0
   15.7750    3.9430   12.4450 H   0  0  0  0  0  0
   14.3310    4.9350   13.5230 C   0  0  0  0  0  0
   12.9740    4.8700   13.8600 N   0  0  0  0  0  0
   15.2830    5.9410   14.2710 C   0  0  0  0  0  0
   14.7820    6.6920   14.5650 H   0  0  0  0  0  0
   15.6790    5.5090   15.0190 H   0  0  0  0  0  0
   16.3690    6.3880   13.3050 N   0  0  0  0  0  0
   17.2320    6.1730   13.4490 H   0  0  0  0  0  0
   16.0360    7.0980   12.2490 C   0  0  0  0  0  0
   14.7390    7.6590   12.0820 C   0  0  0  0  0  0
   13.9100    7.4950   12.7940 H   0  0  0  0  0  0
   14.4550    8.4760   10.9900 C   0  0  0  0  0  0
   13.4480    8.9260   10.8660 H   0  0  0  0  0  0
   15.4170    8.7250   10.0190 C   0  0  0  0  0  0
   16.6720    8.2010   10.0950 C   0  0  0  0  0  0
   17.3870    8.3670    9.2780 H   0  0  0  0  0  0
   17.0030    7.4330   11.2800 C   0  0  0  0  0  0
   18.0420    7.0620   11.3100 H   0  0  0  0  0  0
   14.9540    9.6510    8.9170 C   0  0  0  0  0  0
   15.9590   10.3180    8.2140 O   0  0  0  0  0  0
   13.7630    9.6970    8.6400 N   0  0  0  0  0  0
   12.6510    8.7330    8.7520 C   0  0  0  0  0  0
   12.1960    8.5740    7.7580 H   0  0  0  0  0  0
   12.9940    7.7490    9.0940 H   0  0  0  0  0  0
   11.8660    9.1190    9.4230 H   0  0  0  0  0  0
   13.4130   10.7870    7.6940 C   0  0  0  0  0  0
   12.3420   11.0310    7.7870 H   0  0  0  0  0  0
   13.9720   11.7050    7.9270 H   0  0  0  0  0  0
   13.6180   10.5050    6.6470 H   0  0  0  0  0  0
   10.0000    1.2030   11.0730 N   0  0  0  0  0  0
    9.1310    1.0630   11.2570 H   0  0  0  0  0  0
   10.3810    0.8010   10.3640 H   0  0  0  0  0  0
   10.1820    3.9600   14.7110 N   0  0  0  0  0  0
   10.5820    4.5620   15.2480 H   0  0  0  0  0  0
    9.3440    3.6840   14.8900 H   0  0  0  0  0  0
  1  2  1  0  0  0
  1  6  2  0  0  0
  1 11  1  0  0  0
  2  3  2  0  0  0
  2 41  1  0  0  0
  3  4  1  0  0  0
  4  5  2  0  0  0
  4 38  1  0  0  0
  5  6  1  0  0  0
  6  7  1  0  0  0
  7  8  2  0  0  0
  8  9  1  0  0  0
  8 10  1  0  0  0
 10 11  2  0  0  0
 10 12  1  0  0  0
 12 13  1  0  0  0
 12 14  1  0  0  0
 12 15  1  0  0  0
 15 16  1  0  0  0
 15 17  1  0  0  0
 17 18  1  0  0  0
 17 25  2  0  0  0
 18 19  1  0  0  0
 18 20  2  0  0  0
 20 21  1  0  0  0
 20 22  1  0  0  0
 22 23  2  0  0  0
 22 27  1  0  0  0
 23 24  1  0  0  0
 23 25  1  0  0  0
 25 26  1  0  0  0
 27 28  2  0  0  0
 27 29  1  0  0  0
 29 30  1  0  0  0
 29 34  1  0  0  0
 30 31  1  0  0  0
 30 32  1  0  0  0
 30 33  1  0  0  0
 34 35  1  0  0  0
 34 36  1  0  0  0
 34 37  1  0  0  0
 38 39  1  0  0  0
 38 40  1  0  0  0
 41 42  1  0  0  0
 41 43  1  0  0  0
M  END
>  <ACTIVITY>
3.3

>  <SET>
3

>  <Min_dist>
0.08

>  <Avg_dist>
0.52

$$$$
1-241522
  Cerius2 12110214133D 1   1.00000                          
Structure written by Cerius2 SD Exporter
 46 48  0  0  0  0  0  0  0  0999 V2000
   12.2000    3.8600   13.2730 C   0  0  0  0  0  0
   10.8450    3.4660   13.6300 C   0  0  0  0  0  0
   10.1440    2.5940   12.8960 N   0  0  0  0  0  0
   10.6980    1.9790   11.8240 C   0  0  0  0  0  0
   12.0400    2.1470   11.5440 N   0  0  0  0  0  0
   12.7710    3.0540   12.3160 C   0  0  0  0  0  0
   14.0870    3.0620   11.9480 N   0  0  0  0  0  0
   14.8420    3.9790   12.6210 C   0  0  0  0  0  0
   15.7750    3.9430   12.4450 H   0  0  0  0  0  0
   14.3310    4.9350   13.5230 C   0  0  0  0  0  0
   12.9740    4.8700   13.8600 N   0  0  0  0  0  0
   15.2830    5.9410   14.2710 C   0  0  0  0  0  0
   14.7820    6.6920   14.5650 H   0  0  0  0  0  0
   15.6790    5.5090   15.0190 H   0  0  0  0  0  0
   16.3690    6.3880   13.3050 N   0  0  0  0  0  0
   17.2320    6.1730   13.4490 H   0  0  0  0  0  0
   16.0360    7.0980   12.2490 C   0  0  0  0  0  0
   14.7390    7.6590   12.0820 C   0  0  0  0  0  0
   13.9100    7.4950   12.7940 H   0  0  0  0  0  0
   14.4550    8.4760   10.9900 C   0  0  0  0  0  0
   13.4480    8.9260   10.8660 H   0  0  0  0  0  0
   15.4170    8.7250   10.0190 C   0  0  0  0  0  0
   16.6720    8.2010   10.0950 C   0  0  0  0  0  0
   17.3870    8.3670    9.2780 H   0  0  0  0  0  0
   17.0030    7.4330   11.2800 C   0  0  0  0  0  0
   18.0420    7.0620   11.3100 H   0  0  0  0  0  0
   14.9540    9.6510    8.9170 C   0  0  0  0  0  0
   15.9590   10.3180    8.2140 O   0  0  0  0  0  0
   13.7630    9.6970    8.6400 N   0  0  0  0  0  0
   13.1980    9.0840    8.9810 H   0  0  0  0  0  0
   13.3910   10.8200    7.7290 C   0  0  0  0  0  0
   12.3490   11.1090    7.9630 H   0  0  0  0  0  0
   13.9880   11.7100    7.9940 H   0  0  0  0  0  0
   13.5020   10.5760    6.2080 C   0  0  0  0  0  0
   14.5410   10.3040    5.9500 H   0  0  0  0  0  0
   12.8820    9.7120    5.9180 H   0  0  0  0  0  0
   13.0860   11.7870    5.3590 C   0  0  0  0  0  0
   13.1840   11.5700    4.2830 H   0  0  0  0  0  0
   12.0390   12.0690    5.5510 H   0  0  0  0  0  0
   13.7190   12.6610    5.5830 H   0  0  0  0  0  0
   10.0000    1.2030   11.0730 N   0  0  0  0  0  0
    9.1310    1.0630   11.2570 H   0  0  0  0  0  0
   10.3810    0.8010   10.3640 H   0  0  0  0  0  0
   10.1820    3.9600   14.7110 N   0  0  0  0  0  0
   10.5820    4.5620   15.2480 H   0  0  0  0  0  0
    9.3440    3.6840   14.8900 H   0  0  0  0  0  0
  1  2  1  0  0  0
  1  6  2  0  0  0
  1 11  1  0  0  0
  2  3  2  0  0  0
  2 44  1  0  0  0
  3  4  1  0  0  0
  4  5  2  0  0  0
  4 41  1  0  0  0
  5  6  1  0  0  0
  6  7  1  0  0  0
  7  8  2  0  0  0
  8  9  1  0  0  0
  8 10  1  0  0  0
 10 11  2  0  0  0
 10 12  1  0  0  0
 12 13  1  0  0  0
 12 14  1  0  0  0
 12 15  1  0  0  0
 15 16  1  0  0  0
 15 17  1  0  0  0
 17 18  1  0  0  0
 17 25  2  0  0  0
 18 19  1  0  0  0
 18 20  2  0  0  0
 20 21  1  0  0  0
 20 22  1  0  0  0
 22 23  2  0  0  0
 22 27  1  0  0  0
 23 24  1  0  0  0
 23 25  1  0  0  0
 25 26  1  0  0  0
 27 28  2  0  0  0
 27 29  1  0  0  0
 29 30  1  0  0  0
 29 31  1  0  0  0
 31 32  1  0  0  0
 31 33  1  0  0  0
 31 34  1  0  0  0
 34 35  1  0  0  0
 34 36  1  0  0  0
 34 37  1  0  0  0
 37 38  1  0  0  0
 37 39  1  0  0  0
 37 40  1  0  0  0
 41 42  1  0  0  0
 41 43  1  0  0  0
 44 45  1  0  0  0
 44 46  1  0  0  0
M  END
>  <ACTIVITY>
6.32

>  <SET>
2

>  <Min_dist>
0.13

>  <Avg_dist>
0.55

$$$$
1-351521
  Cerius2 12110214133D 1   1.00000                          
Structure written by Cerius2 SD Exporter
 44 46  0  0  0  0  0  0  0  0999 V2000
   10.1950    2.7520   13.0040 N   0  0  0  0  0  0
   10.6470    1.8240   12.1710 C   0  0  0  0  0  0
   11.8790    1.8050   11.6810 N   0  0  0  0  0  0
   12.7220    2.7730   12.0560 C   0  0  0  0  0  0
   12.3960    3.8070   12.9480 C   0  0  0  0  0  0
   11.0470    3.7250   13.3830 C   0  0  0  0  0  0
   10.4650    4.6460   14.2410 N   0  0  0  0  0  0
   10.8290    4.6330   15.1900 H   0  0  0  0  0  0
   10.4370    5.5970   13.8830 H   0  0  0  0  0  0
   13.4220    4.7850   13.2870 C   0  0  0  0  0  0
   14.6960    4.7240   12.6650 C   0  0  0  0  0  0
   14.9600    3.6740   11.7820 C   0  0  0  0  0  0
   15.9310    3.5880   11.2930 H   0  0  0  0  0  0
   13.9860    2.7200   11.5000 C   0  0  0  0  0  0
   14.2310    1.9150   10.8080 H   0  0  0  0  0  0
   15.8010    5.7480   12.8830 C   0  0  0  0  0  0
   16.7800    5.3050   12.6530 H   0  0  0  0  0  0
   15.8460    5.9810   13.9530 H   0  0  0  0  0  0
   15.6810    7.0150   12.0570 C   0  0  0  0  0  0
   14.4430    7.6450   11.8480 C   0  0  0  0  0  0
   13.5590    7.2170   12.3130 H   0  0  0  0  0  0
   14.3540    8.7970   11.0640 C   0  0  0  0  0  0
   15.5050    9.3140   10.4580 C   0  0  0  0  0  0
   15.4040   10.2100    9.8500 H   0  0  0  0  0  0
   16.7390    8.6900   10.6350 C   0  0  0  0  0  0
   16.8200    7.5440   11.4300 C   0  0  0  0  0  0
   17.7870    7.0600   11.5630 H   0  0  0  0  0  0
   17.9290    9.0930   10.0920 O   0  0  0  0  0  0
   17.8910   10.2180    9.2160 C   0  0  0  0  0  0
   18.9100   10.3950    8.8580 H   0  0  0  0  0  0
   17.5620   11.1180    9.7460 H   0  0  0  0  0  0
   17.2610   10.0170    8.3430 H   0  0  0  0  0  0
   13.2070    9.5010   10.8060 O   0  0  0  0  0  0
   13.3320   10.6550    9.9750 C   0  0  0  0  0  0
   12.3380   11.1000    9.8730 H   0  0  0  0  0  0
   13.6840   10.3820    8.9740 H   0  0  0  0  0  0
   13.9840   11.4040   10.4380 H   0  0  0  0  0  0
   13.1340    5.8770   14.2930 C   0  0  0  0  0  0
   12.7550    5.4450   15.2230 H   0  0  0  0  0  0
   12.4210    6.5950   13.8810 H   0  0  0  0  0  0
   14.0200    6.4380   14.5930 H   0  0  0  0  0  0
    9.7960    0.8330   11.7910 N   0  0  0  0  0  0
   10.1180    0.1100   11.1640 H   0  0  0  0  0  0
    8.8500    0.8190   12.1450 H   0  0  0  0  0  0
  1  2  1  0  0  0
  1  6  2  0  0  0
  2  3  2  0  0  0
  2 42  1  0  0  0
  3  4  1  0  0  0
  4  5  2  0  0  0
  4 14  1  0  0  0
  5  6  1  0  0  0
  5 10  1  0  0  0
  6  7  1  0  0  0
  7  8  1  0  0  0
  7  9  1  0  0  0
 10 11  2  0  0  0
 10 38  1  0  0  0
 11 12  1  0  0  0
 11 16  1  0  0  0
 12 13  1  0  0  0
 12 14  2  0  0  0
 14 15  1  0  0  0
 16 17  1  0  0  0
 16 18  1  0  0  0
 16 19  1  0  0  0
 19 20  1  0  0  0
 19 26  2  0  0  0
 20 21  1  0  0  0
 20 22  2  0  0  0
 22 23  1  0  0  0
 22 33  1  0  0  0
 23 24  1  0  0  0
 23 25  2  0  0  0
 25 26  1  0  0  0
 25 28  1  0  0  0
 26 27  1  0  0  0
 28 29  1  0  0  0
 29 30  1  0  0  0
 29 31  1  0  0  0
 29 32  1  0  0  0
 33 34  1  0  0  0
 34 35  1  0  0  0
 34 36  1  0  0  0
 34 37  1  0  0  0
 38 39  1  0  0  0
 38 40  1  0  0  0
 38 41  1  0  0  0
 42 43  1  0  0  0
 42 44  1  0  0  0
M  END
>  <ACTIVITY>
8.82

>  <SET>
2

>  <Min_dist>
0.33

>  <Avg_dist>
0.55

$$$$
1-98535
  Cerius2 12110214133D 1   1.00000                          
Structure written by Cerius2 SD Exporter
 47 49  0  0  0  0  0  0  0  0999 V2000
   12.2000    3.8600   13.2730 C   0  0  0  0  0  0
   10.8450    3.4660   13.6300 C   0  0  0  0  0  0
   10.1440    2.5940   12.8960 N   0  0  0  0  0  0
   10.6980    1.9790   11.8240 C   0  0  0  0  0  0
   12.0400    2.1470   11.5440 N   0  0  0  0  0  0
   12.7710    3.0540   12.3160 C   0  0  0  0  0  0
   14.0870    3.0620   11.9480 N   0  0  0  0  0  0
   14.8420    3.9790   12.6210 C   0  0  0  0  0  0
   15.7750    3.9430   12.4450 H   0  0  0  0  0  0
   14.3310    4.9350   13.5230 C   0  0  0  0  0  0
   12.9740    4.8700   13.8600 N   0  0  0  0  0  0
   15.2830    5.9410   14.2710 C   0  0  0  0  0  0
   14.7820    6.6920   14.5650 H   0  0  0  0  0  0
   15.6790    5.5090   15.0190 H   0  0  0  0  0  0
   16.3690    6.3880   13.3050 N   0  0  0  0  0  0
   17.2320    6.1730   13.4490 H   0  0  0  0  0  0
   16.0360    7.0980   12.2490 C   0  0  0  0  0  0
   14.7390    7.6590   12.0820 C   0  0  0  0  0  0
   13.9210    7.5220   12.8030 H   0  0  0  0  0  0
   14.4550    8.4760   10.9900 C   0  0  0  0  0  0
   13.4480    8.9260   10.8660 H   0  0  0  0  0  0
   15.4170    8.7250   10.0190 C   0  0  0  0  0  0
   16.6720    8.2010   10.0950 C   0  0  0  0  0  0
   17.3870    8.3670    9.2780 H   0  0  0  0  0  0
   17.0030    7.4330   11.2800 C   0  0  0  0  0  0
   18.0460    7.1110   11.4110 H   0  0  0  0  0  0
   15.0380    9.1920    8.7060 C   0  0  0  0  0  0
   13.8760    9.2150    7.9330 N   0  0  0  0  0  0
   13.0080    8.9740    8.3740 H   0  0  0  0  0  0
   13.6680    9.7480    6.7720 C   0  0  0  0  0  0
   14.1010   10.7610    6.7440 H   0  0  0  0  0  0
   12.0670    9.8420    6.6200 C   0  0  0  0  0  0
   11.6420   10.6180    5.7560 O   0  5  0  0  0  0
   11.4120    9.1540    7.4150 O   0  0  0  0  0  0
   14.4180    8.9050    5.7280 C   0  0  0  0  0  0
   14.4660    7.8630    6.0950 H   0  0  0  0  0  0
   13.7870    8.8450    4.8230 H   0  0  0  0  0  0
   15.8400    9.2550    5.1670 C   0  0  0  0  0  0
   16.3250    8.3160    4.5160 O   0  0  0  0  0  0
   16.3080   10.3810    5.3490 O   0  5  0  0  0  0
   16.0900    9.5300    8.2300 O   0  0  0  0  0  0
   10.0000    1.2030   11.0730 N   0  0  0  0  0  0
    9.1310    1.0630   11.2570 H   0  0  0  0  0  0
   10.3810    0.8010   10.3640 H   0  0  0  0  0  0
   10.1820    3.9600   14.7110 N   0  0  0  0  0  0
   10.5820    4.5620   15.2480 H   0  0  0  0  0  0
    9.3440    3.6840   14.8900 H   0  0  0  0  0  0
  1  2  1  0  0  0
  1  6  2  0  0  0
  1 11  1  0  0  0
  2  3  2  0  0  0
  2 45  1  0  0  0
  3  4  1  0  0  0
  4  5  2  0  0  0
  4 42  1  0  0  0
  5  6  1  0  0  0
  6  7  1  0  0  0
  7  8  2  0  0  0
  8  9  1  0  0  0
  8 10  1  0  0  0
 10 11  2  0  0  0
 10 12  1  0  0  0
 12 13  1  0  0  0
 12 14  1  0  0  0
 12 15  1  0  0  0
 15 16  1  0  0  0
 15 17  1  0  0  0
 17 18  1  0  0  0
 17 25  2  0  0  0
 18 19  1  0  0  0
 18 20  2  0  0  0
 20 21  1  0  0  0
 20 22  1  0  0  0
 22 23  2  0  0  0
 22 27  1  0  0  0
 23 24  1  0  0  0
 23 25  1  0  0  0
 25 26  1  0  0  0
 27 28  1  0  0  0
 27 41  2  0  0  0
 28 29  1  0  0  0
 28 30  1  0  0  0
 30 31  1  0  0  0
 30 32  1  0  0  0
 30 35  1  0  0  0
 32 33  1  0  0  0
 32 34  2  0  0  0
 35 36  1  0  0  0
 35 37  1  0  0  0
 35 38  1  0  0  0
 38 39  2  0  0  0
 38 40  1  0  0  0
 42 43  1  0  0  0
 42 44  1  0  0  0
 45 46  1  0  0  0
 45 47  1  0  0  0
M  CHG  2  33  -1  40  -1
M  END
>  <ACTIVITY>
7.77

>  <SET>
1

>  <Min_dist>
999.9

>  <Avg_dist>
999.9

$$$$
1-Trimetrexate
  Cerius2 12110214133D 1   1.00000                          
Structure written by Cerius2 SD Exporter
 50 52  0  0  0  0  0  0  0  0999 V2000
   10.1000    2.6140   12.8100 N   0  0  0  0  0  0
   10.7550    1.9460   11.8710 C   0  0  0  0  0  0
   12.0360    2.1340   11.5850 N   0  0  0  0  0  0
   12.7090    3.0540   12.2840 C   0  0  0  0  0  0
   12.1510    3.8420   13.3040 C   0  0  0  0  0  0
   10.7800    3.5400   13.5130 C   0  0  0  0  0  0
    9.9980    4.1740   14.4690 N   0  0  0  0  0  0
   10.2930    4.0190   15.4300 H   0  0  0  0  0  0
    9.8400    5.1640   14.3000 H   0  0  0  0  0  0
   13.0010    4.8120   13.9820 C   0  0  0  0  0  0
   14.3700    4.9310   13.6260 C   0  0  0  0  0  0
   14.8660    4.1270   12.5970 C   0  0  0  0  0  0
   15.9070    4.2050   12.2850 H   0  0  0  0  0  0
   14.0410    3.2120   11.9490 C   0  0  0  0  0  0
   14.4670    2.6010   11.1530 H   0  0  0  0  0  0
   15.3340    5.9050   14.2810 C   0  0  0  0  0  0
   15.8370    5.4140   15.1240 H   0  0  0  0  0  0
   14.7750    6.7460   14.7070 H   0  0  0  0  0  0
   16.3220    6.3480   13.3130 N   0  0  0  0  0  0
   17.2920    6.1060   13.5100 H   0  0  0  0  0  0
   16.0470    7.1210   12.2030 C   0  0  0  0  0  0
   14.7640    7.6690   12.0690 C   0  0  0  0  0  0
   14.0070    7.4730   12.8250 H   0  0  0  0  0  0
   14.4390    8.4750   10.9770 C   0  0  0  0  0  0
   15.3780    8.7090    9.9710 C   0  0  0  0  0  0
   16.6770    8.1970   10.0900 C   0  0  0  0  0  0
   16.9950    7.4060   11.2050 C   0  0  0  0  0  0
   17.9950    6.9960   11.3070 H   0  0  0  0  0  0
   17.5450    8.5200    9.0790 O   0  0  0  0  0  0
   18.8520    7.9530    9.1330 C   0  0  0  0  0  0
   19.4070    8.3140    8.2620 H   0  0  0  0  0  0
   18.8100    6.8600    9.0710 H   0  0  0  0  0  0
   19.3880    8.2820   10.0290 H   0  0  0  0  0  0
   15.0460    9.5040    8.9010 O   0  0  0  0  0  0
   16.1690    9.6250    8.0200 C   0  0  0  0  0  0
   15.8740   10.2780    7.1930 H   0  0  0  0  0  0
   16.4510    8.6530    7.6020 H   0  0  0  0  0  0
   17.0240   10.0850    8.5280 H   0  0  0  0  0  0
   13.1650    8.9700   10.8780 O   0  0  0  0  0  0
   13.0430    9.7620    9.6910 C   0  0  0  0  0  0
   12.0130   10.1270    9.6380 H   0  0  0  0  0  0
   13.2390    9.1650    8.7930 H   0  0  0  0  0  0
   13.7110   10.6300    9.7260 H   0  0  0  0  0  0
   12.4320    5.6980   15.0680 C   0  0  0  0  0  0
   13.1460    6.4220   15.4650 H   0  0  0  0  0  0
   12.1060    5.0920   15.9180 H   0  0  0  0  0  0
   11.6040    6.2930   14.6750 H   0  0  0  0  0  0
   10.0740    1.0100   11.1570 N   0  0  0  0  0  0
   10.5490    0.4880   10.4360 H   0  0  0  0  0  0
    9.0980    0.8450   11.3520 H   0  0  0  0  0  0
  1  2  1  0  0  0
  1  6  2  0  0  0
  2  3  2  0  0  0
  2 48  1  0  0  0
  3  4  1  0  0  0
  4  5  2  0  0  0
  4 14  1  0  0  0
  5  6  1  0  0  0
  5 10  1  0  0  0
  6  7  1  0  0  0
  7  8  1  0  0  0
  7  9  1  0  0  0
 10 11  2  0  0  0
 10 44  1  0  0  0
 11 12  1  0  0  0
 11 16  1  0  0  0
 12 13  1  0  0  0
 12 14  2  0  0  0
 14 15  1  0  0  0
 16 17  1  0  0  0
 16 18  1  0  0  0
 16 19  1  0  0  0
 19 20  1  0  0  0
 19 21  1  0  0  0
 21 22  1  0  0  0
 21 27  2  0  0  0
 22 23  1  0  0  0
 22 24  2  0  0  0
 24 25  1  0  0  0
 24 39  1  0  0  0
 25 26  2  0  0  0
 25 34  1  0  0  0
 26 27  1  0  0  0
 26 29  1  0  0  0
 27 28  1  0  0  0
 29 30  1  0  0  0
 30 31  1  0  0  0
 30 32  1  0  0  0
 30 33  1  0  0  0
 34 35  1  0  0  0
 35 36  1  0  0  0
 35 37  1  0  0  0
 35 38  1  0  0  0
 39 40  1  0  0  0
 40 41  1  0  0  0
 40 42  1  0  0  0
 40 43  1  0  0  0
 44 45  1  0  0  0
 44 46  1  0  0  0
 44 47  1  0  0  0
 48 49  1  0  0  0
 48 50  1  0  0  0
M  END
>  <ACTIVITY>
8.52

>  <SET>
2

>  <Min_dist>
0.13

>  <Avg_dist>
0.46

$$$$
10-11a
  Cerius2 12110214133D 1   1.00000                          
Structure written by Cerius2 SD Exporter
 35 37  0  0  0  0  0  0  0  0999 V2000
   10.1300    2.6270   12.8890 N   0  0  0  0  0  0
   10.7230    1.9690   11.8930 C   0  0  0  0  0  0
   11.9980    2.1260   11.5350 N   0  0  0  0  0  0
   12.7320    3.0140   12.2170 C   0  0  0  0  0  0
   12.2180    3.7610   13.2800 C   0  0  0  0  0  0
   10.8770    3.4980   13.5860 C   0  0  0  0  0  0
   10.2060    4.1710   14.5930 N   0  0  0  0  0  0
   10.7040    4.3680   15.4550 H   0  0  0  0  0  0
    9.2360    3.8980   14.7200 H   0  0  0  0  0  0
   13.0480    4.6990   13.9510 C   0  0  0  0  0  0
   12.6400    5.2960   14.7650 H   0  0  0  0  0  0
   14.3860    4.8790   13.5810 C   0  0  0  0  0  0
   14.8830    4.1270   12.5150 C   0  0  0  0  0  0
   15.9150    4.2500   12.1860 H   0  0  0  0  0  0
   14.0590    3.2100   11.8530 C   0  0  0  0  0  0
   14.4730    2.6370   11.0240 H   0  0  0  0  0  0
   15.2600    5.8890   14.2900 C   0  0  0  0  0  0
   15.7150    5.4150   15.1690 H   0  0  0  0  0  0
   14.6370    6.7160   14.6510 H   0  0  0  0  0  0
   16.2840    6.3760   13.3840 N   0  0  0  0  0  0
   17.2480    6.1380   13.6080 H   0  0  0  0  0  0
   16.0320    7.1400   12.2630 C   0  0  0  0  0  0
   14.7520    7.6850   12.0850 C   0  0  0  0  0  0
   13.9750    7.5020   12.8250 H   0  0  0  0  0  0
   14.4390    8.4670   10.9670 C   0  0  0  0  0  0
   13.4370    8.8760   10.8550 H   0  0  0  0  0  0
   15.4080    8.7200   10.0030 C   0  0  0  0  0  0
   15.1690    9.3270    9.1320 H   0  0  0  0  0  0
   16.6860    8.1900   10.1590 C   0  0  0  0  0  0
   17.4500    8.3830    9.4080 H   0  0  0  0  0  0
   16.9910    7.4080   11.2790 C   0  0  0  0  0  0
   18.0020    7.0140   11.3610 H   0  0  0  0  0  0
    9.9770    1.0740   11.1910 N   0  0  0  0  0  0
   10.3970    0.5590   10.4320 H   0  0  0  0  0  0
    9.0080    0.9300   11.4350 H   0  0  0  0  0  0
  1  2  1  0  0  0
  1  6  2  0  0  0
  2  3  2  0  0  0
  2 33  1  0  0  0
  3  4  1  0  0  0
  4  5  2  0  0  0
  4 15  1  0  0  0
  5  6  1  0  0  0
  5 10  1  0  0  0
  6  7  1  0  0  0
  7  8  1  0  0  0
  7  9  1  0  0  0
 10 11  1  0  0  0
 10 12  2  0  0  0
 12 13  1  0  0  0
 12 17  1  0  0  0
 13 14  1  0  0  0
 13 15  2  0  0  0
 15 16  1  0  0  0
 17 18  1  0  0  0
 17 19  1  0  0  0
 17 20  1  0  0  0
 20 21  1  0  0  0
 20 22  1  0  0  0
 22 23  1  0  0  0
 22 31  2  0  0  0
 23 24  1  0  0  0
 23 25  2  0  0  0
 25 26  1  0  0  0
 25 27  1  0  0  0
 27 28  1  0  0  0
 27 29  2  0  0  0
 29 30  1  0  0  0
 29 31  1  0  0  0
 31 32  1  0  0  0
 33 34  1  0  0  0
 33 35  1  0  0  0
M  END
>  <ACTIVITY>
6.36

>  <SET>
1

>  <Min_dist>
999.9

>  <Avg_dist>
999.9

$$$$
10-12a
  Cerius2 12110214133D 1   1.00000                          
Structure written by Cerius2 SD Exporter
 38 40  0  0  0  0  0  0  0  0999 V2000
   10.1240    2.6300   12.8870 N   0  0  0  0  0  0
   10.7140    1.9730   11.8890 C   0  0  0  0  0  0
   11.9890    2.1230   11.5320 N   0  0  0  0  0  0
   12.7280    3.0050   12.2180 C   0  0  0  0  0  0
   12.2180    3.7500   13.2840 C   0  0  0  0  0  0
   10.8760    3.4940   13.5880 C   0  0  0  0  0  0
   10.2080    4.1650   14.5970 N   0  0  0  0  0  0
   10.7070    4.3590   15.4590 H   0  0  0  0  0  0
    9.2360    3.8970   14.7230 H   0  0  0  0  0  0
   13.0540    4.6790   13.9600 C   0  0  0  0  0  0
   12.6490    5.2680   14.7800 H   0  0  0  0  0  0
   14.3920    4.8620   13.5870 C   0  0  0  0  0  0
   14.8850    4.1040   12.5230 C   0  0  0  0  0  0
   15.9180    4.2150   12.1960 H   0  0  0  0  0  0
   14.0560    3.1940   11.8570 C   0  0  0  0  0  0
   14.4680    2.6190   11.0280 H   0  0  0  0  0  0
   15.2760    5.8620   14.3060 C   0  0  0  0  0  0
   15.7550    5.3650   15.1600 H   0  0  0  0  0  0
   14.6580    6.6370   14.7700 H   0  0  0  0  0  0
   16.3150    6.4030   13.4110 N   0  0  0  0  0  0
   16.0150    7.1570   12.2820 C   0  0  0  0  0  0
   16.9780    7.4280   11.2910 C   0  0  0  0  0  0
   17.9900    7.0340   11.3700 H   0  0  0  0  0  0
   16.6890    8.1930   10.1510 C   0  0  0  0  0  0
   17.4650    8.3690    9.4080 H   0  0  0  0  0  0
   15.4190    8.7200    9.9700 C   0  0  0  0  0  0
   15.1900    9.3140    9.0880 H   0  0  0  0  0  0
   14.4450    8.4850   10.9300 C   0  0  0  0  0  0
   13.4470    8.9000   10.8060 H   0  0  0  0  0  0
   14.7440    7.7180   12.0660 C   0  0  0  0  0  0
   13.9410    7.5940   12.7890 H   0  0  0  0  0  0
   17.6690    5.8780   13.6090 C   0  0  0  0  0  0
   18.4190    6.6680   13.4920 H   0  0  0  0  0  0
   17.8800    5.0670   12.9020 H   0  0  0  0  0  0
   17.7980    5.4770   14.6200 H   0  0  0  0  0  0
    9.9620    1.0850   11.1830 N   0  0  0  0  0  0
   10.3790    0.5690   10.4220 H   0  0  0  0  0  0
    8.9920    0.9460   11.4260 H   0  0  0  0  0  0
  1  2  1  0  0  0
  1  6  2  0  0  0
  2  3  2  0  0  0
  2 36  1  0  0  0
  3  4  1  0  0  0
  4  5  2  0  0  0
  4 15  1  0  0  0
  5  6  1  0  0  0
  5 10  1  0  0  0
  6  7  1  0  0  0
  7  8  1  0  0  0
  7  9  1  0  0  0
 10 11  1  0  0  0
 10 12  2  0  0  0
 12 13  1  0  0  0
 12 17  1  0  0  0
 13 14  1  0  0  0
 13 15  2  0  0  0
 15 16  1  0  0  0
 17 18  1  0  0  0
 17 19  1  0  0  0
 17 20  1  0  0  0
 20 21  1  0  0  0
 20 32  1  0  0  0
 21 22  1  0  0  0
 21 30  2  0  0  0
 22 23  1  0  0  0
 22 24  2  0  0  0
 24 25  1  0  0  0
 24 26  1  0  0  0
 26 27  1  0  0  0
 26 28  2  0  0  0
 28 29  1  0  0  0
 28 30  1  0  0  0
 30 31  1  0  0  0
 32 33  1  0  0  0
 32 34  1  0  0  0
 32 35  1  0  0  0
 36 37  1  0  0  0
 36 38  1  0  0  0
M  END
>  <ACTIVITY>
7.16

>  <SET>
2

>  <Min_dist>
0.09

>  <Avg_dist>
0.47

$$$$
10-17a
  Cerius2 12110214133D 1   1.00000                          
Structure written by Cerius2 SD Exporter
 22 23  0  0  0  0  0  0  0  0999 V2000
   10.1210    2.6190   12.8700 N   0  0  0  0  0  0
   10.7250    1.9750   11.8720 C   0  0  0  0  0  0
   12.0040    2.1380   11.5310 N   0  0  0  0  0  0
   12.7290    3.0170   12.2320 C   0  0  0  0  0  0
   12.2010    3.7490   13.3000 C   0  0  0  0  0  0
   10.8580    3.4810   13.5870 C   0  0  0  0  0  0
   10.1760    4.1410   14.5950 N   0  0  0  0  0  0
   10.6610    4.3210   15.4680 H   0  0  0  0  0  0
    9.2040    3.8660   14.7040 H   0  0  0  0  0  0
   13.0200    4.6800   13.9940 C   0  0  0  0  0  0
   12.6040    5.2580   14.8170 H   0  0  0  0  0  0
   14.3570    4.8700   13.6310 C   0  0  0  0  0  0
   14.8770    4.1300   12.5700 C   0  0  0  0  0  0
   15.9110    4.2470   12.2550 H   0  0  0  0  0  0
   14.0600    3.2190   11.8870 C   0  0  0  0  0  0
   14.4860    2.6540   11.0590 H   0  0  0  0  0  0
   15.1720    5.8560   14.3890 C   0  0  0  0  0  0
   14.7780    6.5310   15.3260 O   0  0  0  0  0  0
   16.4350    5.9380   13.9290 O   0  5  0  0  0  0
    9.9870    1.0890   11.1490 N   0  0  0  0  0  0
   10.4160    0.5860   10.3870 H   0  0  0  0  0  0
    9.0160    0.9420   11.3800 H   0  0  0  0  0  0
  1  2  1  0  0  0
  1  6  2  0  0  0
  2  3  2  0  0  0
  2 20  1  0  0  0
  3  4  1  0  0  0
  4  5  2  0  0  0
  4 15  1  0  0  0
  5  6  1  0  0  0
  5 10  1  0  0  0
  6  7  1  0  0  0
  7  8  1  0  0  0
  7  9  1  0  0  0
 10 11  1  0  0  0
 10 12  2  0  0  0
 12 13  1  0  0  0
 12 17  1  0  0  0
 13 14  1  0  0  0
 13 15  2  0  0  0
 15 16  1  0  0  0
 17 18  2  0  0  0
 17 19  1  0  0  0
 20 21  1  0  0  0
 20 22  1  0  0  0
M  CHG  1  19  -1
M  END
>  <ACTIVITY>
3.3

>  <SET>
3

>  <Min_dist>
0.17

>  <Avg_dist>
0.56

$$$$
10-18a
  Cerius2 12110214133D 1   1.00000                          
Structure written by Cerius2 SD Exporter
 24 25  0  0  0  0  0  0  0  0999 V2000
   10.1270    2.6230   12.8800 N   0  0  0  0  0  0
   10.7250    1.9710   11.8840 C   0  0  0  0  0  0
   12.0010    2.1310   11.5330 N   0  0  0  0  0  0
   12.7310    3.0160   12.2230 C   0  0  0  0  0  0
   12.2110    3.7570   13.2870 C   0  0  0  0  0  0
   10.8700    3.4910   13.5850 C   0  0  0  0  0  0
   10.1940    4.1580   14.5930 N   0  0  0  0  0  0
   10.6870    4.3480   15.4590 H   0  0  0  0  0  0
    9.2230    3.8840   14.7130 H   0  0  0  0  0  0
   13.0380    4.6920   13.9660 C   0  0  0  0  0  0
   12.6260    5.2770   14.7870 H   0  0  0  0  0  0
   14.3770    4.8880   13.6000 C   0  0  0  0  0  0
   14.8790    4.1330   12.5400 C   0  0  0  0  0  0
   15.9130    4.2460   12.2160 H   0  0  0  0  0  0
   14.0590    3.2160   11.8690 C   0  0  0  0  0  0
   14.4800    2.6450   11.0430 H   0  0  0  0  0  0
   15.2050    5.8960   14.3590 C   0  0  0  0  0  0
   15.2510    5.6130   15.4160 H   0  0  0  0  0  0
   14.7530    6.8890   14.2630 H   0  0  0  0  0  0
   16.5400    5.9690   13.8630 O   0  0  0  0  0  0
   16.9800    6.6450   14.4210 H   0  0  0  0  0  0
    9.9820    1.0790   11.1730 N   0  0  0  0  0  0
   10.4060    0.5700   10.4120 H   0  0  0  0  0  0
    9.0120    0.9340   11.4110 H   0  0  0  0  0  0
  1  2  1  0  0  0
  1  6  2  0  0  0
  2  3  2  0  0  0
  2 22  1  0  0  0
  3  4  1  0  0  0
  4  5  2  0  0  0
  4 15  1  0  0  0
  5  6  1  0  0  0
  5 10  1  0  0  0
  6  7  1  0  0  0
  7  8  1  0  0  0
  7  9  1  0  0  0
 10 11  1  0  0  0
 10 12  2  0  0  0
 12 13  1  0  0  0
 12 17  1  0  0  0
 13 14  1  0  0  0
 13 15  2  0  0  0
 15 16  1  0  0  0
 17 18  1  0  0  0
 17 19  1  0  0  0
 17 20  1  0  0  0
 20 21  1  0  0  0
 22 23  1  0  0  0
 22 24  1  0  0  0
M  END
>  <ACTIVITY>
4.39

>  <SET>
1

>  <Min_dist>
999.9

>  <Avg_dist>
999.9

$$$$
10-18b
  Cerius2 12110214133D 1   1.00000                          
Structure written by Cerius2 SD Exporter
 23 24  0  0  0  0  0  0  0  0999 V2000
   10.1100    2.6020   12.8350 N   0  0  0  0  0  0
   10.7490    1.9900   11.8410 C   0  0  0  0  0  0
   12.0310    2.1750   11.5380 N   0  0  0  0  0  0
   12.7250    3.0340   12.2690 C   0  0  0  0  0  0
   12.1610    3.7310   13.3350 C   0  0  0  0  0  0
   10.8180    3.4510   13.5890 C   0  0  0  0  0  0
   10.1070    4.0860   14.5920 N   0  0  0  0  0  0
   10.5710    4.2650   15.4770 H   0  0  0  0  0  0
    9.1350    3.8040   14.6770 H   0  0  0  0  0  0
   12.9690    4.6430   14.0560 C   0  0  0  0  0  0
   12.5530    5.2050   14.8900 H   0  0  0  0  0  0
   14.3030    4.8300   13.7030 C   0  0  0  0  0  0
   14.7680    4.0800   12.6380 C   0  0  0  0  0  0
   15.8020    4.1600   12.3050 H   0  0  0  0  0  0
   14.0060    3.2060   11.9300 N   0  0  0  0  0  0
   15.1930    5.7750   14.4480 C   0  0  0  0  0  0
   15.3080    5.4520   15.4890 H   0  0  0  0  0  0
   14.7890    6.7930   14.4470 H   0  0  0  0  0  0
   16.4700    5.7870   13.8160 O   0  0  0  0  0  0
   17.0120    6.4040   14.3530 H   0  0  0  0  0  0
   10.0390    1.1130   11.0800 N   0  0  0  0  0  0
   10.4900    0.6280   10.3180 H   0  0  0  0  0  0
    9.0640    0.9500   11.2850 H   0  0  0  0  0  0
  1  2  1  0  0  0
  1  6  2  0  0  0
  2  3  2  0  0  0
  2 21  1  0  0  0
  3  4  1  0  0  0
  4  5  2  0  0  0
  4 15  1  0  0  0
  5  6  1  0  0  0
  5 10  1  0  0  0
  6  7  1  0  0  0
  7  8  1  0  0  0
  7  9  1  0  0  0
 10 11  1  0  0  0
 10 12  2  0  0  0
 12 13  1  0  0  0
 12 16  1  0  0  0
 13 14  1  0  0  0
 13 15  2  0  0  0
 16 17  1  0  0  0
 16 18  1  0  0  0
 16 19  1  0  0  0
 19 20  1  0  0  0
 21 22  1  0  0  0
 21 23  1  0  0  0
M  END
>  <ACTIVITY>
3.3

>  <SET>
3

>  <Min_dist>
0.22

>  <Avg_dist>
0.55

$$$$
10-18c
  Cerius2 12110214133D 1   1.00000                          
Structure written by Cerius2 SD Exporter
 26 27  0  0  0  0  0  0  0  0999 V2000
   10.0950    2.5720   12.8130 N   0  0  0  0  0  0
   10.7550    1.9780   11.8310 C   0  0  0  0  0  0
   12.0310    2.1980   11.5550 N   0  0  0  0  0  0
   12.6950    3.0630   12.3030 C   0  0  0  0  0  0
   12.1310    3.7660   13.3730 C   0  0  0  0  0  0
   10.7680    3.4510   13.5730 C   0  0  0  0  0  0
    9.9910    4.0180   14.5720 N   0  0  0  0  0  0
   10.2770    3.7870   15.5200 H   0  0  0  0  0  0
    9.8410    5.0200   14.4810 H   0  0  0  0  0  0
   12.9870    4.6830   14.1010 C   0  0  0  0  0  0
   14.3340    4.8330   13.7120 C   0  0  0  0  0  0
   14.7530    4.0720   12.6340 C   0  0  0  0  0  0
   15.7770    4.1260   12.2680 H   0  0  0  0  0  0
   13.9660    3.2130   11.9470 N   0  0  0  0  0  0
   15.2910    5.7660   14.4160 C   0  0  0  0  0  0
   15.4440    5.4300   15.4470 H   0  0  0  0  0  0
   14.8900    6.7840   14.4060 H   0  0  0  0  0  0
   16.5710    5.8050   13.7850 O   0  0  0  0  0  0
   17.0990    6.4340   14.3210 H   0  0  0  0  0  0
   12.4510    5.4780   15.2690 C   0  0  0  0  0  0
   12.1080    4.8050   16.0600 H   0  0  0  0  0  0
   11.6390    6.1330   14.9400 H   0  0  0  0  0  0
   13.1970    6.1300   15.7290 H   0  0  0  0  0  0
   10.0800    1.0860   11.0570 N   0  0  0  0  0  0
   10.5540    0.6160   10.3000 H   0  0  0  0  0  0
    9.1060    0.8990   11.2450 H   0  0  0  0  0  0
  1  2  1  0  0  0
  1  6  2  0  0  0
  2  3  2  0  0  0
  2 24  1  0  0  0
  3  4  1  0  0  0
  4  5  2  0  0  0
  4 14  1  0  0  0
  5  6  1  0  0  0
  5 10  1  0  0  0
  6  7  1  0  0  0
  7  8  1  0  0  0
  7  9  1  0  0  0
 10 11  2  0  0  0
 10 20  1  0  0  0
 11 12  1  0  0  0
 11 15  1  0  0  0
 12 13  1  0  0  0
 12 14  2  0  0  0
 15 16  1  0  0  0
 15 17  1  0  0  0
 15 18  1  0  0  0
 18 19  1  0  0  0
 20 21  1  0  0  0
 20 22  1  0  0  0
 20 23  1  0  0  0
 24 25  1  0  0  0
 24 26  1  0  0  0
M  END
>  <ACTIVITY>
5.07

>  <SET>
2

>  <Min_dist>
0.28

>  <Avg_dist>
0.57

$$$$
10-18d
  Cerius2 12110214133D 1   1.00000                          
Structure written by Cerius2 SD Exporter
 22 23  0  0  0  0  0  0  0  0999 V2000
   10.3650    2.8340   12.9420 N   0  0  0  0  0  0
   10.7780    2.1790   11.8610 C   0  0  0  0  0  0
   12.0230    2.2060   11.3950 N   0  0  0  0  0  0
   12.9130    2.9400   12.0540 C   0  0  0  0  0  0
   12.6120    3.6770   13.2080 C   0  0  0  0  0  0
   11.2820    3.5600   13.6060 C   0  0  0  0  0  0
   10.8050    4.2670   14.7030 N   0  0  0  0  0  0
   11.4610    4.4720   15.4510 H   0  0  0  0  0  0
    9.8380    4.1100   14.9650 H   0  0  0  0  0  0
   13.5510    4.4260   13.8720 N   0  0  0  0  0  0
   14.8050    4.4290   13.3580 C   0  0  0  0  0  0
   15.0880    3.7020   12.2160 C   0  0  0  0  0  0
   16.0850    3.6980   11.7830 H   0  0  0  0  0  0
   14.1580    2.9560   11.5620 N   0  0  0  0  0  0
   15.8720    5.2460   14.0350 C   0  0  0  0  0  0
   16.3960    4.6440   14.7840 H   0  0  0  0  0  0
   15.4250    6.1140   14.5320 H   0  0  0  0  0  0
   16.8150    5.7160   13.0690 O   0  0  0  0  0  0
   17.4470    6.2650   13.5810 H   0  0  0  0  0  0
    9.8640    1.4330   11.1850 N   0  0  0  0  0  0
   10.1410    0.9230   10.3590 H   0  0  0  0  0  0
    8.9100    1.3940   11.5120 H   0  0  0  0  0  0
  1  2  1  0  0  0
  1  6  2  0  0  0
  2  3  2  0  0  0
  2 20  1  0  0  0
  3  4  1  0  0  0
  4  5  2  0  0  0
  4 14  1  0  0  0
  5  6  1  0  0  0
  5 10  1  0  0  0
  6  7  1  0  0  0
  7  8  1  0  0  0
  7  9  1  0  0  0
 10 11  2  0  0  0
 11 12  1  0  0  0
 11 15  1  0  0  0
 12 13  1  0  0  0
 12 14  2  0  0  0
 15 16  1  0  0  0
 15 17  1  0  0  0
 15 18  1  0  0  0
 18 19  1  0  0  0
 20 21  1  0  0  0
 20 22  1  0  0  0
M  END
>  <ACTIVITY>
3.3

>  <SET>
3

>  <Min_dist>
0.3

>  <Avg_dist>
0.62

$$$$
10-1a
  Cerius2 12110214133D 1   1.00000                          
Structure written by Cerius2 SD Exporter
 36 38  0  0  0  0  0  0  0  0999 V2000
   10.0720    2.5940   12.8320 N   0  0  0  0  0  0
   10.6880    1.9690   11.8300 C   0  0  0  0  0  0
   11.9720    2.1320   11.5120 N   0  0  0  0  0  0
   12.6910    2.9910   12.2440 C   0  0  0  0  0  0
   12.1510    3.7030   13.3200 C   0  0  0  0  0  0
   10.8030    3.4360   13.5800 C   0  0  0  0  0  0
   10.1070    4.0770   14.5900 N   0  0  0  0  0  0
   10.5770    4.2330   15.4760 H   0  0  0  0  0  0
    9.1320    3.8060   14.6770 H   0  0  0  0  0  0
   12.9640    4.6160   14.0460 C   0  0  0  0  0  0
   12.5270    5.1730   14.8720 H   0  0  0  0  0  0
   14.3080    4.8090   13.7070 C   0  0  0  0  0  0
   14.8360    4.0860   12.6380 C   0  0  0  0  0  0
   15.8770    4.2070   12.3430 H   0  0  0  0  0  0
   14.0280    3.1930   11.9240 C   0  0  0  0  0  0
   14.4630    2.6440   11.0890 H   0  0  0  0  0  0
   15.1980    5.7560   14.4370 C   0  0  0  0  0  0
   16.4440    5.7360   13.9080 O   0  0  0  0  0  0
   17.0160    7.0090   13.5680 C   0  0  0  0  0  0
   16.9230    7.7360   14.3840 H   0  0  0  0  0  0
   18.0910    6.8570   13.4150 H   0  0  0  0  0  0
   16.3920    7.5110   12.2910 C   0  0  0  0  0  0
   15.0290    7.8380   12.2490 C   0  0  0  0  0  0
   14.4090    7.7210   13.1380 H   0  0  0  0  0  0
   14.4520    8.3170   11.0720 C   0  0  0  0  0  0
   13.3920    8.5660   11.0480 H   0  0  0  0  0  0
   15.2310    8.4790    9.9280 C   0  0  0  0  0  0
   14.7810    8.8530    9.0100 H   0  0  0  0  0  0
   16.5890    8.1640    9.9600 C   0  0  0  0  0  0
   17.1990    8.2930    9.0680 H   0  0  0  0  0  0
   17.1680    7.6840   11.1370 C   0  0  0  0  0  0
   18.2320    7.4490   11.1470 H   0  0  0  0  0  0
   14.8260    6.4420   15.3790 O   0  0  0  0  0  0
    9.9570    1.1040   11.0750 N   0  0  0  0  0  0
   10.3940    0.6170   10.3070 H   0  0  0  0  0  0
    8.9800    0.9600   11.2860 H   0  0  0  0  0  0
  1  2  1  0  0  0
  1  6  2  0  0  0
  2  3  2  0  0  0
  2 34  1  0  0  0
  3  4  1  0  0  0
  4  5  2  0  0  0
  4 15  1  0  0  0
  5  6  1  0  0  0
  5 10  1  0  0  0
  6  7  1  0  0  0
  7  8  1  0  0  0
  7  9  1  0  0  0
 10 11  1  0  0  0
 10 12  2  0  0  0
 12 13  1  0  0  0
 12 17  1  0  0  0
 13 14  1  0  0  0
 13 15  2  0  0  0
 15 16  1  0  0  0
 17 18  1  0  0  0
 17 33  2  0  0  0
 18 19  1  0  0  0
 19 20  1  0  0  0
 19 21  1  0  0  0
 19 22  1  0  0  0
 22 23  1  0  0  0
 22 31  2  0  0  0
 23 24  1  0  0  0
 23 25  2  0  0  0
 25 26  1  0  0  0
 25 27  1  0  0  0
 27 28  1  0  0  0
 27 29  2  0  0  0
 29 30  1  0  0  0
 29 31  1  0  0  0
 31 32  1  0  0  0
 34 35  1  0  0  0
 34 36  1  0  0  0
M  END
>  <ACTIVITY>
6.38

>  <SET>
2

>  <Min_dist>
0.12

>  <Avg_dist>
0.6

$$$$
10-2b
  Cerius2 12110214133D 1   1.00000                          
Structure written by Cerius2 SD Exporter
 35 37  0  0  0  0  0  0  0  0999 V2000
   10.1160    2.6050   12.8240 N   0  0  0  0  0  0
   10.7630    2.0020   11.8290 C   0  0  0  0  0  0
   12.0470    2.1870   11.5390 N   0  0  0  0  0  0
   12.7360    3.0390   12.2820 C   0  0  0  0  0  0
   12.1650    3.7270   13.3500 C   0  0  0  0  0  0
   10.8190    3.4470   13.5910 C   0  0  0  0  0  0
   10.1020    4.0720   14.5950 N   0  0  0  0  0  0
   10.5590    4.2380   15.4860 H   0  0  0  0  0  0
    9.1280    3.7910   14.6690 H   0  0  0  0  0  0
   12.9670    4.6330   14.0850 C   0  0  0  0  0  0
   12.5390    5.1960   14.9120 H   0  0  0  0  0  0
   14.3050    4.8150   13.7480 C   0  0  0  0  0  0
   14.7750    4.0860   12.6720 C   0  0  0  0  0  0
   15.8060    4.1800   12.3350 H   0  0  0  0  0  0
   14.0190    3.2160   11.9530 N   0  0  0  0  0  0
   15.1830    5.7820   14.4880 C   0  0  0  0  0  0
   15.3010    5.4720   15.5340 H   0  0  0  0  0  0
   14.7330    6.7820   14.4660 H   0  0  0  0  0  0
   16.4580    5.7960   13.8350 O   0  0  0  0  0  0
   16.9350    7.0350   13.5660 C   0  0  0  0  0  0
   16.3380    7.5670   12.3090 C   0  0  0  0  0  0
   14.9840    7.9180   12.2100 C   0  0  0  0  0  0
   14.3110    7.8150   13.0590 H   0  0  0  0  0  0
   14.4730    8.4130   11.0070 C   0  0  0  0  0  0
   13.4210    8.6840   10.9350 H   0  0  0  0  0  0
   15.3060    8.5600    9.8990 C   0  0  0  0  0  0
   14.9050    8.9450    8.9630 H   0  0  0  0  0  0
   16.6530    8.2130    9.9890 C   0  0  0  0  0  0
   17.3040    8.3280    9.1240 H   0  0  0  0  0  0
   17.1690    7.7180   11.1890 C   0  0  0  0  0  0
   18.2240    7.4520   11.2420 H   0  0  0  0  0  0
   17.7450    7.6460   14.2490 O   0  0  0  0  0  0
   10.0580    1.1330   11.0530 N   0  0  0  0  0  0
   10.5140    0.6570   10.2890 H   0  0  0  0  0  0
    9.0810    0.9710   11.2470 H   0  0  0  0  0  0
  1  2  1  0  0  0
  1  6  2  0  0  0
  2  3  2  0  0  0
  2 33  1  0  0  0
  3  4  1  0  0  0
  4  5  2  0  0  0
  4 15  1  0  0  0
  5  6  1  0  0  0
  5 10  1  0  0  0
  6  7  1  0  0  0
  7  8  1  0  0  0
  7  9  1  0  0  0
 10 11  1  0  0  0
 10 12  2  0  0  0
 12 13  1  0  0  0
 12 16  1  0  0  0
 13 14  1  0  0  0
 13 15  2  0  0  0
 16 17  1  0  0  0
 16 18  1  0  0  0
 16 19  1  0  0  0
 19 20  1  0  0  0
 20 21  1  0  0  0
 20 32  2  0  0  0
 21 22  1  0  0  0
 21 30  2  0  0  0
 22 23  1  0  0  0
 22 24  2  0  0  0
 24 25  1  0  0  0
 24 26  1  0  0  0
 26 27  1  0  0  0
 26 28  2  0  0  0
 28 29  1  0  0  0
 28 30  1  0  0  0
 30 31  1  0  0  0
 33 34  1  0  0  0
 33 35  1  0  0  0
M  END
>  <ACTIVITY>
5.41

>  <SET>
1

>  <Min_dist>
999.9

>  <Avg_dist>
999.9

$$$$
10-2c
  Cerius2 12110214133D 1   1.00000                          
Structure written by Cerius2 SD Exporter
 38 40  0  0  0  0  0  0  0  0999 V2000
   10.1160    2.6050   12.8240 N   0  0  0  0  0  0
   10.7630    2.0020   11.8290 C   0  0  0  0  0  0
   12.0470    2.1870   11.5390 N   0  0  0  0  0  0
   12.7360    3.0390   12.2820 C   0  0  0  0  0  0
   12.1650    3.7270   13.3500 C   0  0  0  0  0  0
   10.8190    3.4470   13.5910 C   0  0  0  0  0  0
   10.1020    4.0720   14.5950 N   0  0  0  0  0  0
   10.5590    4.2380   15.4860 H   0  0  0  0  0  0
    9.1280    3.7910   14.6690 H   0  0  0  0  0  0
   12.9670    4.6330   14.0850 C   0  0  0  0  0  0
   14.3050    4.8150   13.7480 C   0  0  0  0  0  0
   14.7750    4.0860   12.6720 C   0  0  0  0  0  0
   15.8060    4.1800   12.3350 H   0  0  0  0  0  0
   14.0190    3.2160   11.9530 N   0  0  0  0  0  0
   15.1830    5.7820   14.4880 C   0  0  0  0  0  0
   15.3010    5.4720   15.5340 H   0  0  0  0  0  0
   14.7330    6.7820   14.4660 H   0  0  0  0  0  0
   16.4580    5.7960   13.8350 O   0  0  0  0  0  0
   16.9350    7.0350   13.5660 C   0  0  0  0  0  0
   16.3380    7.5670   12.3090 C   0  0  0  0  0  0
   14.9840    7.9180   12.2100 C   0  0  0  0  0  0
   14.3110    7.8150   13.0590 H   0  0  0  0  0  0
   14.4730    8.4130   11.0070 C   0  0  0  0  0  0
   13.4210    8.6840   10.9350 H   0  0  0  0  0  0
   15.3060    8.5600    9.8990 C   0  0  0  0  0  0
   14.9050    8.9450    8.9630 H   0  0  0  0  0  0
   16.6530    8.2130    9.9890 C   0  0  0  0  0  0
   17.3040    8.3280    9.1240 H   0  0  0  0  0  0
   17.1690    7.7180   11.1890 C   0  0  0  0  0  0
   18.2240    7.4520   11.2420 H   0  0  0  0  0  0
   17.7450    7.6460   14.2490 O   0  0  0  0  0  0
   12.4170    5.3570   15.1490 C   0  0  0  0  0  0
   11.3610    5.1060   15.2530 H   0  0  0  0  0  0
   12.9430    5.1060   16.0710 H   0  0  0  0  0  0
   12.5180    6.4250   14.9530 H   0  0  0  0  0  0
   10.0580    1.1330   11.0530 N   0  0  0  0  0  0
   10.5140    0.6570   10.2890 H   0  0  0  0  0  0
    9.0810    0.9710   11.2470 H   0  0  0  0  0  0
  1  2  1  0  0  0
  1  6  2  0  0  0
  2  3  2  0  0  0
  2 36  1  0  0  0
  3  4  1  0  0  0
  4  5  2  0  0  0
  4 14  1  0  0  0
  5  6  1  0  0  0
  5 10  1  0  0  0
  6  7  1  0  0  0
  7  8  1  0  0  0
  7  9  1  0  0  0
 10 11  2  0  0  0
 10 32  1  0  0  0
 11 12  1  0  0  0
 11 15  1  0  0  0
 12 13  1  0  0  0
 12 14  2  0  0  0
 15 16  1  0  0  0
 15 17  1  0  0  0
 15 18  1  0  0  0
 18 19  1  0  0  0
 19 20  1  0  0  0
 19 31  2  0  0  0
 20 21  1  0  0  0
 20 29  2  0  0  0
 21 22  1  0  0  0
 21 23  2  0  0  0
 23 24  1  0  0  0
 23 25  1  0  0  0
 25 26  1  0  0  0
 25 27  2  0  0  0
 27 28  1  0  0  0
 27 29  1  0  0  0
 29 30  1  0  0  0
 32 33  1  0  0  0
 32 34  1  0  0  0
 32 35  1  0  0  0
 36 37  1  0  0  0
 36 38  1  0  0  0
M  END
>  <ACTIVITY>
6.64

>  <SET>
2

>  <Min_dist>
0.1

>  <Avg_dist>
0.58

$$$$
10-2d
  Cerius2 12110214133D 1   1.00000                          
Structure written by Cerius2 SD Exporter
 34 36  0  0  0  0  0  0  0  0999 V2000
   10.0890    2.6010   12.8410 N   0  0  0  0  0  0
   10.7050    1.9740   11.8390 C   0  0  0  0  0  0
   11.9890    2.1400   11.5170 N   0  0  0  0  0  0
   12.7080    3.0050   12.2450 C   0  0  0  0  0  0
   12.1680    3.7190   13.3170 C   0  0  0  0  0  0
   10.8200    3.4490   13.5830 C   0  0  0  0  0  0
   10.1280    4.0900   14.5960 N   0  0  0  0  0  0
   10.6050    4.2510   15.4760 H   0  0  0  0  0  0
    9.1540    3.8160   14.6900 H   0  0  0  0  0  0
   12.9820    4.6350   14.0360 N   0  0  0  0  0  0
   14.3280    4.8300   13.7020 C   0  0  0  0  0  0
   14.8530    4.1040   12.6340 C   0  0  0  0  0  0
   15.8950    4.2240   12.3380 H   0  0  0  0  0  0
   14.0440    3.2090   11.9230 N   0  0  0  0  0  0
   15.1800    5.8060   14.4750 C   0  0  0  0  0  0
   15.2530    5.4770   15.5180 H   0  0  0  0  0  0
   14.7410    6.8110   14.4440 H   0  0  0  0  0  0
   16.4800    5.8340   13.8710 O   0  0  0  0  0  0
   16.9500    7.0750   13.6040 C   0  0  0  0  0  0
   16.4010    7.5720   12.3110 C   0  0  0  0  0  0
   17.2000    7.7320   11.1740 C   0  0  0  0  0  0
   18.2630    7.5080   11.1990 H   0  0  0  0  0  0
   16.6270    8.1940    9.9850 C   0  0  0  0  0  0
   17.1600    8.2810    9.2030 H   0  0  0  0  0  0
   15.2680    8.5380    9.9110 C   0  0  0  0  0  0
   14.9060    8.8700    9.0980 H   0  0  0  0  0  0
   14.4770    8.3800   11.0500 C   0  0  0  0  0  0
   13.4180    8.6230   11.0550 H   0  0  0  0  0  0
   15.0400    7.8990   12.2410 C   0  0  0  0  0  0
   14.4000    7.7840   13.1160 H   0  0  0  0  0  0
   17.7060    7.7200   14.3170 O   0  0  0  0  0  0
    9.9750    1.1040   11.0910 N   0  0  0  0  0  0
   10.4130    0.6130   10.3250 H   0  0  0  0  0  0
    9.0000    0.9540   11.3050 H   0  0  0  0  0  0
  1  2  1  0  0  0
  1  6  2  0  0  0
  2  3  2  0  0  0
  2 32  1  0  0  0
  3  4  1  0  0  0
  4  5  2  0  0  0
  4 14  1  0  0  0
  5  6  1  0  0  0
  5 10  1  0  0  0
  6  7  1  0  0  0
  7  8  1  0  0  0
  7  9  1  0  0  0
 10 11  2  0  0  0
 11 12  1  0  0  0
 11 15  1  0  0  0
 12 13  1  0  0  0
 12 14  2  0  0  0
 15 16  1  0  0  0
 15 17  1  0  0  0
 15 18  1  0  0  0
 18 19  1  0  0  0
 19 20  1  0  0  0
 19 31  2  0  0  0
 20 21  1  0  0  0
 20 29  2  0  0  0
 21 22  1  0  0  0
 21 23  2  0  0  0
 23 24  1  0  0  0
 23 25  1  0  0  0
 25 26  1  0  0  0
 25 27  2  0  0  0
 27 28  1  0  0  0
 27 29  1  0  0  0
 29 30  1  0  0  0
 32 33  1  0  0  0
 32 34  1  0  0  0
M  END
>  <ACTIVITY>
5.15

>  <SET>
2

>  <Min_dist>
0.23

>  <Avg_dist>
0.61

$$$$
10-3a
  Cerius2 12110214133D 1   1.00000                          
Structure written by Cerius2 SD Exporter
 48 50  0  0  0  0  0  0  0  0999 V2000
   10.0990    2.6070   12.8390 N   0  0  0  0  0  0
   10.7190    1.9800   11.8400 C   0  0  0  0  0  0
   12.0010    2.1490   11.5200 N   0  0  0  0  0  0
   12.7170    3.0140   12.2490 C   0  0  0  0  0  0
   12.1750    3.7240   13.3240 C   0  0  0  0  0  0
   10.8270    3.4540   13.5840 C   0  0  0  0  0  0
   10.1290    4.0960   14.5930 N   0  0  0  0  0  0
   10.6010    4.2610   15.4760 H   0  0  0  0  0  0
    9.1550    3.8210   14.6820 H   0  0  0  0  0  0
   12.9890    4.6340   14.0500 C   0  0  0  0  0  0
   12.5630    5.1990   14.8780 H   0  0  0  0  0  0
   14.3370    4.8250   13.7200 C   0  0  0  0  0  0
   14.8600    4.1150   12.6400 C   0  0  0  0  0  0
   15.8990    4.2450   12.3400 H   0  0  0  0  0  0
   14.0510    3.2240   11.9240 C   0  0  0  0  0  0
   14.4850    2.6820   11.0850 H   0  0  0  0  0  0
   15.1880    5.7990   14.4930 C   0  0  0  0  0  0
   15.2670    5.4890   15.5430 H   0  0  0  0  0  0
   14.7390    6.7980   14.4540 H   0  0  0  0  0  0
   16.4860    5.8170   13.8860 O   0  0  0  0  0  0
   16.9470    7.0550   13.5890 C   0  0  0  0  0  0
   16.3270    7.5590   12.3290 C   0  0  0  0  0  0
   14.9640    7.8950   12.2530 C   0  0  0  0  0  0
   14.3430    7.7830   13.1360 H   0  0  0  0  0  0
   14.4220    8.3700   11.0580 C   0  0  0  0  0  0
   15.2650    8.5260    9.9430 C   0  0  0  0  0  0
   16.6230    8.1690    9.9950 C   0  0  0  0  0  0
   17.1490    7.6950   11.1980 C   0  0  0  0  0  0
   18.1970    7.4210   11.2830 H   0  0  0  0  0  0
   17.3320    8.3270    8.8320 O   0  0  0  0  0  0
   18.7120    7.9680    8.8540 C   0  0  0  0  0  0
   19.1110    8.1200    7.8460 H   0  0  0  0  0  0
   18.8400    6.9100    9.1070 H   0  0  0  0  0  0
   19.2750    8.6130    9.5370 H   0  0  0  0  0  0
   14.7330    8.9720    8.7520 O   0  0  0  0  0  0
   15.7550    9.0050    7.7480 C   0  0  0  0  0  0
   15.2950    9.3430    6.8150 H   0  0  0  0  0  0
   16.1780    8.0090    7.5780 H   0  0  0  0  0  0
   16.5470    9.7140    8.0120 H   0  0  0  0  0  0
   13.1060    8.7100   10.8700 O   0  0  0  0  0  0
   12.7240    9.1580    9.5710 C   0  0  0  0  0  0
   11.6590    9.4060    9.6060 H   0  0  0  0  0  0
   12.8580    8.3660    8.8280 H   0  0  0  0  0  0
   13.2690   10.0650    9.2910 H   0  0  0  0  0  0
   17.7630    7.6860   14.2460 O   0  0  0  0  0  0
    9.9930    1.1050   11.0910 N   0  0  0  0  0  0
   10.4350    0.6120   10.3290 H   0  0  0  0  0  0
    9.0180    0.9540   11.3030 H   0  0  0  0  0  0
  1  2  1  0  0  0
  1  6  2  0  0  0
  2  3  2  0  0  0
  2 46  1  0  0  0
  3  4  1  0  0  0
  4  5  2  0  0  0
  4 15  1  0  0  0
  5  6  1  0  0  0
  5 10  1  0  0  0
  6  7  1  0  0  0
  7  8  1  0  0  0
  7  9  1  0  0  0
 10 11  1  0  0  0
 10 12  2  0  0  0
 12 13  1  0  0  0
 12 17  1  0  0  0
 13 14  1  0  0  0
 13 15  2  0  0  0
 15 16  1  0  0  0
 17 18  1  0  0  0
 17 19  1  0  0  0
 17 20  1  0  0  0
 20 21  1  0  0  0
 21 22  1  0  0  0
 21 45  2  0  0  0
 22 23  1  0  0  0
 22 28  2  0  0  0
 23 24  1  0  0  0
 23 25  2  0  0  0
 25 26  1  0  0  0
 25 40  1  0  0  0
 26 27  2  0  0  0
 26 35  1  0  0  0
 27 28  1  0  0  0
 27 30  1  0  0  0
 28 29  1  0  0  0
 30 31  1  0  0  0
 31 32  1  0  0  0
 31 33  1  0  0  0
 31 34  1  0  0  0
 35 36  1  0  0  0
 36 37  1  0  0  0
 36 38  1  0  0  0
 36 39  1  0  0  0
 40 41  1  0  0  0
 41 42  1  0  0  0
 41 43  1  0  0  0
 41 44  1  0  0  0
 46 47  1  0  0  0
 46 48  1  0  0  0
M  END
>  <ACTIVITY>
7.59

>  <SET>
2

>  <Min_dist>
0.08

>  <Avg_dist>
0.59

$$$$
10-4a
  Cerius2 12110214133D 1   1.00000                          
Structure written by Cerius2 SD Exporter
 44 46  0  0  0  0  0  0  0  0999 V2000
   10.0890    2.6060   12.8370 N   0  0  0  0  0  0
   10.7050    1.9820   11.8340 C   0  0  0  0  0  0
   11.9910    2.1390   11.5180 N   0  0  0  0  0  0
   12.7120    2.9970   12.2520 C   0  0  0  0  0  0
   12.1710    3.7080   13.3260 C   0  0  0  0  0  0
   10.8220    3.4440   13.5870 C   0  0  0  0  0  0
   10.1300    4.0850   14.6000 N   0  0  0  0  0  0
   10.6060    4.2400   15.4830 H   0  0  0  0  0  0
    9.1540    3.8170   14.6890 H   0  0  0  0  0  0
   12.9840    4.6200   14.0480 C   0  0  0  0  0  0
   12.5560    5.1910   14.8710 H   0  0  0  0  0  0
   14.3270    4.8250   13.7070 C   0  0  0  0  0  0
   14.8560    4.0980   12.6410 C   0  0  0  0  0  0
   15.8950    4.2280   12.3400 H   0  0  0  0  0  0
   14.0500    3.1990   11.9330 C   0  0  0  0  0  0
   14.4860    2.6500   11.0990 H   0  0  0  0  0  0
   15.1640    5.8330   14.4530 C   0  0  0  0  0  0
   15.2390    5.5620   15.5120 H   0  0  0  0  0  0
   14.7100    6.8280   14.3700 H   0  0  0  0  0  0
   16.4550    5.8460   13.8320 O   0  0  0  0  0  0
   16.9630    7.0700   13.5670 C   0  0  0  0  0  0
   16.4030    7.5670   12.2890 C   0  0  0  0  0  0
   17.1920    7.7150   11.1330 C   0  0  0  0  0  0
   16.5790    8.1750    9.9660 C   0  0  0  0  0  0
   17.1310    8.3140    9.0400 H   0  0  0  0  0  0
   15.2150    8.4900    9.9590 C   0  0  0  0  0  0
   14.7600    8.8490    9.0360 H   0  0  0  0  0  0
   14.4390    8.3620   11.1120 C   0  0  0  0  0  0
   15.0370    7.9010   12.2820 C   0  0  0  0  0  0
   14.4690    7.7820   13.2000 H   0  0  0  0  0  0
   13.1270    8.7140   10.9620 O   0  0  0  0  0  0
   12.7140    9.1300    9.6610 C   0  0  0  0  0  0
   11.6450    9.3600    9.7080 H   0  0  0  0  0  0
   12.8510    8.3270    8.9300 H   0  0  0  0  0  0
   13.2400   10.0410    9.3550 H   0  0  0  0  0  0
   18.5290    7.4380   11.2420 O   0  0  0  0  0  0
   19.3200    7.5320   10.0590 C   0  0  0  0  0  0
   20.3290    7.1870   10.3070 H   0  0  0  0  0  0
   19.3980    8.5710    9.7230 H   0  0  0  0  0  0
   18.9300    6.8840    9.2680 H   0  0  0  0  0  0
   17.7070    7.7200   14.2860 O   0  0  0  0  0  0
    9.9690    1.1250   11.0750 N   0  0  0  0  0  0
   10.4020    0.6440   10.3000 H   0  0  0  0  0  0
    8.9910    0.9890   11.2810 H   0  0  0  0  0  0
  1  2  1  0  0  0
  1  6  2  0  0  0
  2  3  2  0  0  0
  2 42  1  0  0  0
  3  4  1  0  0  0
  4  5  2  0  0  0
  4 15  1  0  0  0
  5  6  1  0  0  0
  5 10  1  0  0  0
  6  7  1  0  0  0
  7  8  1  0  0  0
  7  9  1  0  0  0
 10 11  1  0  0  0
 10 12  2  0  0  0
 12 13  1  0  0  0
 12 17  1  0  0  0
 13 14  1  0  0  0
 13 15  2  0  0  0
 15 16  1  0  0  0
 17 18  1  0  0  0
 17 19  1  0  0  0
 17 20  1  0  0  0
 20 21  1  0  0  0
 21 22  1  0  0  0
 21 41  2  0  0  0
 22 23  1  0  0  0
 22 29  2  0  0  0
 23 24  2  0  0  0
 23 36  1  0  0  0
 24 25  1  0  0  0
 24 26  1  0  0  0
 26 27  1  0  0  0
 26 28  2  0  0  0
 28 29  1  0  0  0
 28 31  1  0  0  0
 29 30  1  0  0  0
 31 32  1  0  0  0
 32 33  1  0  0  0
 32 34  1  0  0  0
 32 35  1  0  0  0
 36 37  1  0  0  0
 37 38  1  0  0  0
 37 39  1  0  0  0
 37 40  1  0  0  0
 42 43  1  0  0  0
 42 44  1  0  0  0
M  END
>  <ACTIVITY>
6.38

>  <SET>
1

>  <Min_dist>
999.9

>  <Avg_dist>
999.9

$$$$
10-5a
  Cerius2 12110214133D 1   1.00000                          
Structure written by Cerius2 SD Exporter
 48 50  0  0  0  0  0  0  0  0999 V2000
   10.0910    2.6010   12.8330 N   0  0  0  0  0  0
   10.7120    1.9800   11.8320 C   0  0  0  0  0  0
   11.9980    2.1450   11.5200 N   0  0  0  0  0  0
   12.7120    3.0050   12.2560 C   0  0  0  0  0  0
   12.1680    3.7120   13.3310 C   0  0  0  0  0  0
   10.8180    3.4420   13.5860 C   0  0  0  0  0  0
   10.1180    4.0820   14.5940 N   0  0  0  0  0  0
   10.5890    4.2450   15.4790 H   0  0  0  0  0  0
    9.1440    3.8080   14.6810 H   0  0  0  0  0  0
   12.9780    4.6250   14.0590 C   0  0  0  0  0  0
   12.5480    5.1900   14.8850 H   0  0  0  0  0  0
   14.3230    4.8290   13.7240 C   0  0  0  0  0  0
   14.8520    4.1110   12.6520 C   0  0  0  0  0  0
   15.8910    4.2420   12.3530 H   0  0  0  0  0  0
   14.0490    3.2140   11.9380 C   0  0  0  0  0  0
   14.4860    2.6710   11.1020 H   0  0  0  0  0  0
   15.1630    5.8260   14.4810 C   0  0  0  0  0  0
   15.2300    5.5430   15.5390 H   0  0  0  0  0  0
   14.7140    6.8230   14.4080 H   0  0  0  0  0  0
   16.4620    5.8370   13.8750 O   0  0  0  0  0  0
   16.9540    7.0630   13.5920 C   0  0  0  0  0  0
   16.4250    7.5400   12.2910 C   0  0  0  0  0  0
   17.2080    7.6600   11.1340 C   0  0  0  0  0  0
   16.6320    8.1830    9.9630 C   0  0  0  0  0  0
   15.2650    8.5150    9.9090 C   0  0  0  0  0  0
   14.4930    8.3740   11.0620 C   0  0  0  0  0  0
   13.4360    8.6270   11.0830 H   0  0  0  0  0  0
   15.0720    7.9050   12.2470 C   0  0  0  0  0  0
   14.4500    7.8170   13.1380 H   0  0  0  0  0  0
   14.8000    8.9700    8.7020 O   0  0  0  0  0  0
   15.7350    9.0400    7.6270 C   0  0  0  0  0  0
   15.2020    9.4120    6.7470 H   0  0  0  0  0  0
   16.1280    8.0480    7.3830 H   0  0  0  0  0  0
   16.5420    9.7450    7.8530 H   0  0  0  0  0  0
   17.4040    8.3400    8.8320 O   0  0  0  0  0  0
   18.7390    7.8900    9.0880 C   0  0  0  0  0  0
   19.3210    8.0370    8.1740 H   0  0  0  0  0  0
   18.7560    6.8220    9.3330 H   0  0  0  0  0  0
   19.2090    8.4720    9.8880 H   0  0  0  0  0  0
   18.5520    7.3770   11.1790 O   0  0  0  0  0  0
   18.8120    6.0290   10.7640 C   0  0  0  0  0  0
   19.7880    5.7410   11.1650 H   0  0  0  0  0  0
   18.8650    5.9660    9.6730 H   0  0  0  0  0  0
   18.0650    5.3270   11.1510 H   0  0  0  0  0  0
   17.6780    7.7320   14.3140 O   0  0  0  0  0  0
    9.9850    1.1190   11.0700 N   0  0  0  0  0  0
   10.4220    0.6450   10.2940 H   0  0  0  0  0  0
    9.0050    0.9800   11.2690 H   0  0  0  0  0  0
  1  2  1  0  0  0
  1  6  2  0  0  0
  2  3  2  0  0  0
  2 46  1  0  0  0
  3  4  1  0  0  0
  4  5  2  0  0  0
  4 15  1  0  0  0
  5  6  1  0  0  0
  5 10  1  0  0  0
  6  7  1  0  0  0
  7  8  1  0  0  0
  7  9  1  0  0  0
 10 11  1  0  0  0
 10 12  2  0  0  0
 12 13  1  0  0  0
 12 17  1  0  0  0
 13 14  1  0  0  0
 13 15  2  0  0  0
 15 16  1  0  0  0
 17 18  1  0  0  0
 17 19  1  0  0  0
 17 20  1  0  0  0
 20 21  1  0  0  0
 21 22  1  0  0  0
 21 45  2  0  0  0
 22 23  1  0  0  0
 22 28  2  0  0  0
 23 24  2  0  0  0
 23 40  1  0  0  0
 24 25  1  0  0  0
 24 35  1  0  0  0
 25 26  2  0  0  0
 25 30  1  0  0  0
 26 27  1  0  0  0
 26 28  1  0  0  0
 28 29  1  0  0  0
 30 31  1  0  0  0
 31 32  1  0  0  0
 31 33  1  0  0  0
 31 34  1  0  0  0
 35 36  1  0  0  0
 36 37  1  0  0  0
 36 38  1  0  0  0
 36 39  1  0  0  0
 40 41  1  0  0  0
 41 42  1  0  0  0
 41 43  1  0  0  0
 41 44  1  0  0  0
 46 47  1  0  0  0
 46 48  1  0  0  0
M  END
>  <ACTIVITY>
6.3

>  <SET>
1

>  <Min_dist>
999.9

>  <Avg_dist>
999.9

$$$$
10-6a
  Cerius2 12110214133D 1   1.00000                          
Structure written by Cerius2 SD Exporter
 44 46  0  0  0  0  0  0  0  0999 V2000
   10.0880    2.6000   12.8360 N   0  0  0  0  0  0
   10.7070    1.9770   11.8340 C   0  0  0  0  0  0
   11.9920    2.1420   11.5180 N   0  0  0  0  0  0
   12.7080    3.0040   12.2500 C   0  0  0  0  0  0
   12.1650    3.7150   13.3230 C   0  0  0  0  0  0
   10.8170    3.4440   13.5840 C   0  0  0  0  0  0
   10.1200    4.0830   14.5960 N   0  0  0  0  0  0
   10.5950    4.2450   15.4780 H   0  0  0  0  0  0
    9.1470    3.8080   14.6860 H   0  0  0  0  0  0
   12.9770    4.6290   14.0460 C   0  0  0  0  0  0
   12.5500    5.1920   14.8750 H   0  0  0  0  0  0
   14.3220    4.8290   13.7130 C   0  0  0  0  0  0
   14.8520    4.1040   12.6450 C   0  0  0  0  0  0
   15.8930    4.2260   12.3510 H   0  0  0  0  0  0
   14.0450    3.2090   11.9320 C   0  0  0  0  0  0
   14.4830    2.6600   11.0990 H   0  0  0  0  0  0
   15.1710    5.8030   14.4890 C   0  0  0  0  0  0
   15.2490    5.4690   15.5300 H   0  0  0  0  0  0
   14.7270    6.8050   14.4650 H   0  0  0  0  0  0
   16.4700    5.8380   13.8820 O   0  0  0  0  0  0
   16.9250    7.0830   13.6060 C   0  0  0  0  0  0
   16.3490    7.5810   12.3250 C   0  0  0  0  0  0
   14.9960    7.9230   12.2010 C   0  0  0  0  0  0
   14.3200    7.8330   13.0490 H   0  0  0  0  0  0
   14.4890    8.3790   10.9820 C   0  0  0  0  0  0
   15.3450    8.4950    9.8860 C   0  0  0  0  0  0
   14.9850    8.8490    8.9230 H   0  0  0  0  0  0
   16.6990    8.1560    9.9960 C   0  0  0  0  0  0
   17.1990    7.6980   11.2150 C   0  0  0  0  0  0
   18.2450    7.4280   11.3290 H   0  0  0  0  0  0
   17.4220    8.3190    8.8440 O   0  0  0  0  0  0
   18.7970    7.9390    8.8840 C   0  0  0  0  0  0
   19.2230    8.1300    7.8940 H   0  0  0  0  0  0
   18.9030    6.8700    9.0930 H   0  0  0  0  0  0
   19.3510    8.5440    9.6090 H   0  0  0  0  0  0
   13.1530    8.6740   10.9930 O   0  0  0  0  0  0
   12.5850    9.1340    9.7670 C   0  0  0  0  0  0
   11.5200    9.3120    9.9400 H   0  0  0  0  0  0
   12.6730    8.3740    8.9830 H   0  0  0  0  0  0
   13.0370   10.0820    9.4560 H   0  0  0  0  0  0
   17.6960    7.7290   14.3030 O   0  0  0  0  0  0
    9.9780    1.1110   11.0790 N   0  0  0  0  0  0
   10.4160    0.6260   10.3090 H   0  0  0  0  0  0
    9.0010    0.9660   11.2880 H   0  0  0  0  0  0
  1  2  1  0  0  0
  1  6  2  0  0  0
  2  3  2  0  0  0
  2 42  1  0  0  0
  3  4  1  0  0  0
  4  5  2  0  0  0
  4 15  1  0  0  0
  5  6  1  0  0  0
  5 10  1  0  0  0
  6  7  1  0  0  0
  7  8  1  0  0  0
  7  9  1  0  0  0
 10 11  1  0  0  0
 10 12  2  0  0  0
 12 13  1  0  0  0
 12 17  1  0  0  0
 13 14  1  0  0  0
 13 15  2  0  0  0
 15 16  1  0  0  0
 17 18  1  0  0  0
 17 19  1  0  0  0
 17 20  1  0  0  0
 20 21  1  0  0  0
 21 22  1  0  0  0
 21 41  2  0  0  0
 22 23  1  0  0  0
 22 29  2  0  0  0
 23 24  1  0  0  0
 23 25  2  0  0  0
 25 26  1  0  0  0
 25 36  1  0  0  0
 26 27  1  0  0  0
 26 28  2  0  0  0
 28 29  1  0  0  0
 28 31  1  0  0  0
 29 30  1  0  0  0
 31 32  1  0  0  0
 32 33  1  0  0  0
 32 34  1  0  0  0
 32 35  1  0  0  0
 36 37  1  0  0  0
 37 38  1  0  0  0
 37 39  1  0  0  0
 37 40  1  0  0  0
 42 43  1  0  0  0
 42 44  1  0  0  0
M  END
>  <ACTIVITY>
6.46

>  <SET>
1

>  <Min_dist>
999.9

>  <Avg_dist>
999.9

$$$$
11-AH2503
  Cerius2 12110214133D 1   1.00000                          
Structure written by Cerius2 SD Exporter
 30 31  0  0  0  0  0  0  0  0999 V2000
   10.1620    2.6390   12.8840 N   0  0  0  0  0  0
   10.7590    1.9870   11.8910 C   0  0  0  0  0  0
   12.0290    2.1570   11.5360 N   0  0  0  0  0  0
   12.7490    3.0380   12.2240 C   0  0  0  0  0  0
   12.2450    3.7910   13.2850 C   0  0  0  0  0  0
   10.9030    3.5370   13.5570 C   0  0  0  0  0  0
   10.2620    4.1660   14.6180 N   0  0  0  0  0  0
   10.5900    5.0920   14.8810 H   0  0  0  0  0  0
    9.2750    3.9710   14.7410 H   0  0  0  0  0  0
   13.0140    4.6930   13.9700 N   0  0  0  0  0  0
   14.3070    4.8400   13.5830 C   0  0  0  0  0  0
   14.8140    4.0800   12.5300 C   0  0  0  0  0  0
   14.0260    3.1900   11.8570 N   0  0  0  0  0  0
   16.2350    4.1730   12.0390 C   0  0  0  0  0  0
   16.7800    3.2790   12.3710 H   0  0  0  0  0  0
   16.7520    5.0180   12.5050 H   0  0  0  0  0  0
   16.3220    4.2530   10.5220 C   0  0  0  0  0  0
   17.3700    4.2640   10.2050 H   0  0  0  0  0  0
   15.8450    5.1590   10.1380 H   0  0  0  0  0  0
   15.8350    3.3920   10.0530 H   0  0  0  0  0  0
   15.1070    5.8500   14.3620 C   0  0  0  0  0  0
   15.5800    5.4110   15.2430 H   0  0  0  0  0  0
   14.4190    6.6170   14.7390 H   0  0  0  0  0  0
   16.1730    6.5130   13.5000 C   0  0  0  0  0  0
   16.7450    7.2330   14.0940 H   0  0  0  0  0  0
   15.7270    7.0520   12.6570 H   0  0  0  0  0  0
   16.8720    5.7760   13.0930 H   0  0  0  0  0  0
   10.0210    1.0830   11.1930 N   0  0  0  0  0  0
   10.4420    0.5690   10.4330 H   0  0  0  0  0  0
    9.0540    0.9300   11.4390 H   0  0  0  0  0  0
  1  2  1  0  0  0
  1  6  2  0  0  0
  2  3  2  0  0  0
  2 28  1  0  0  0
  3  4  1  0  0  0
  4  5  2  0  0  0
  4 13  1  0  0  0
  5  6  1  0  0  0
  5 10  1  0  0  0
  6  7  1  0  0  0
  7  8  1  0  0  0
  7  9  1  0  0  0
 10 11  2  0  0  0
 11 12  1  0  0  0
 11 21  1  0  0  0
 12 13  2  0  0  0
 12 14  1  0  0  0
 14 15  1  0  0  0
 14 16  1  0  0  0
 14 17  1  0  0  0
 17 18  1  0  0  0
 17 19  1  0  0  0
 17 20  1  0  0  0
 21 22  1  0  0  0
 21 23  1  0  0  0
 21 24  1  0  0  0
 24 25  1  0  0  0
 24 26  1  0  0  0
 24 27  1  0  0  0
 28 29  1  0  0  0
 28 30  1  0  0  0
M  END
>  <ACTIVITY>
5.66

>  <SET>
2

>  <Min_dist>
0.11

>  <Avg_dist>
0.63

$$$$
11-AH2504
  Cerius2 12110214133D 1   1.00000                          
Structure written by Cerius2 SD Exporter
 38 40  0  0  0  0  0  0  0  0999 V2000
   10.1510    2.6230   12.8730 N   0  0  0  0  0  0
   10.7570    1.9830   11.8770 C   0  0  0  0  0  0
   12.0290    2.1600   11.5340 N   0  0  0  0  0  0
   12.7420    3.0360   12.2350 C   0  0  0  0  0  0
   12.2290    3.7700   13.3080 C   0  0  0  0  0  0
   10.8920    3.4940   13.5800 C   0  0  0  0  0  0
   10.2160    4.1780   14.5820 N   0  0  0  0  0  0
   10.7590    4.5080   15.3750 H   0  0  0  0  0  0
    9.2550    3.9050   14.7590 H   0  0  0  0  0  0
   12.9870    4.6630   14.0170 N   0  0  0  0  0  0
   14.2810    4.8110   13.6390 C   0  0  0  0  0  0
   14.7910    4.0980   12.5500 C   0  0  0  0  0  0
   14.0160    3.2050   11.8670 N   0  0  0  0  0  0
   16.2240    4.2660   12.0960 C   0  0  0  0  0  0
   16.8830    3.7630   12.8130 H   0  0  0  0  0  0
   16.4800    5.3320   12.0920 H   0  0  0  0  0  0
   16.5110    3.7190   10.7020 C   0  0  0  0  0  0
   17.5550    3.9090   10.4310 H   0  0  0  0  0  0
   15.8730    4.1950    9.9500 H   0  0  0  0  0  0
   16.3450    2.6380   10.6560 H   0  0  0  0  0  0
   15.0500    5.7730   14.4400 C   0  0  0  0  0  0
   16.0390    5.3610   15.3610 C   0  0  0  0  0  0
   16.7500    6.3210   16.0920 C   0  0  0  0  0  0
   17.5200    6.0470   16.8080 H   0  0  0  0  0  0
   16.4820    7.6820   15.9240 C   0  0  0  0  0  0
   17.0410    8.4190   16.4980 H   0  0  0  0  0  0
   15.5020    8.0970   15.0290 C   0  0  0  0  0  0
   15.2910    9.1570   14.9020 H   0  0  0  0  0  0
   14.7900    7.1490   14.2950 C   0  0  0  0  0  0
   14.0230    7.4890   13.5990 H   0  0  0  0  0  0
   16.2290    4.0050   15.4770 O   0  0  0  0  0  0
   17.2210    3.5580   16.3990 C   0  0  0  0  0  0
   17.2400    2.4650   16.3610 H   0  0  0  0  0  0
   16.9680    3.8530   17.4230 H   0  0  0  0  0  0
   18.2150    3.9180   16.1130 H   0  0  0  0  0  0
   10.0250    1.0900   11.1590 N   0  0  0  0  0  0
   10.4520    0.5870   10.3940 H   0  0  0  0  0  0
    9.0550    0.9350   11.3930 H   0  0  0  0  0  0
  1  2  1  0  0  0
  1  6  2  0  0  0
  2  3  2  0  0  0
  2 36  1  0  0  0
  3  4  1  0  0  0
  4  5  2  0  0  0
  4 13  1  0  0  0
  5  6  1  0  0  0
  5 10  1  0  0  0
  6  7  1  0  0  0
  7  8  1  0  0  0
  7  9  1  0  0  0
 10 11  2  0  0  0
 11 12  1  0  0  0
 11 21  1  0  0  0
 12 13  2  0  0  0
 12 14  1  0  0  0
 14 15  1  0  0  0
 14 16  1  0  0  0
 14 17  1  0  0  0
 17 18  1  0  0  0
 17 19  1  0  0  0
 17 20  1  0  0  0
 21 22  1  0  0  0
 21 29  2  0  0  0
 22 23  2  0  0  0
 22 31  1  0  0  0
 23 24  1  0  0  0
 23 25  1  0  0  0
 25 26  1  0  0  0
 25 27  2  0  0  0
 27 28  1  0  0  0
 27 29  1  0  0  0
 29 30  1  0  0  0
 31 32  1  0  0  0
 32 33  1  0  0  0
 32 34  1  0  0  0
 32 35  1  0  0  0
 36 37  1  0  0  0
 36 38  1  0  0  0
M  END
>  <ACTIVITY>
6.39

>  <SET>
2

>  <Min_dist>
0.28

>  <Avg_dist>
0.59

$$$$
11-GR92754
  Cerius2 12110214133D 1   1.00000                          
Structure written by Cerius2 SD Exporter
 42 43  0  0  0  0  0  0  0  0999 V2000
   10.1620    2.6400   12.8830 N   0  0  0  0  0  0
   10.7600    1.9840   11.8930 C   0  0  0  0  0  0
   12.0300    2.1540   11.5400 N   0  0  0  0  0  0
   12.7500    3.0380   12.2260 C   0  0  0  0  0  0
   12.2450    3.7920   13.2840 C   0  0  0  0  0  0
   10.9020    3.5390   13.5560 C   0  0  0  0  0  0
   10.2600    4.1710   14.6140 N   0  0  0  0  0  0
   10.5890    5.0960   14.8770 H   0  0  0  0  0  0
    9.2730    3.9770   14.7370 H   0  0  0  0  0  0
   13.0130    4.6920   13.9710 N   0  0  0  0  0  0
   14.3050    4.8380   13.5830 C   0  0  0  0  0  0
   14.8090    4.0970   12.5140 C   0  0  0  0  0  0
   14.0260    3.1910   11.8580 N   0  0  0  0  0  0
   16.2500    4.1720   12.0580 C   0  0  0  0  0  0
   16.7530    3.2800   12.4520 H   0  0  0  0  0  0
   16.7640    5.0330   12.4960 H   0  0  0  0  0  0
   16.4290    4.2310   10.5260 C   0  0  0  0  0  0
   15.8980    3.3920   10.0590 H   0  0  0  0  0  0
   17.9120    4.0930   10.1700 C   0  0  0  0  0  0
   18.0550    4.1090    9.0850 H   0  0  0  0  0  0
   18.3150    3.1470   10.5460 H   0  0  0  0  0  0
   18.5020    4.9090   10.6010 H   0  0  0  0  0  0
   15.8770    5.5320    9.9370 C   0  0  0  0  0  0
   16.0160    5.5540    8.8510 H   0  0  0  0  0  0
   16.3850    6.4060   10.3580 H   0  0  0  0  0  0
   14.8050    5.6350   10.1330 H   0  0  0  0  0  0
   15.1130    5.8370   14.3730 C   0  0  0  0  0  0
   15.5460    5.3350   15.2460 H   0  0  0  0  0  0
   14.4300    6.5910   14.7880 H   0  0  0  0  0  0
   16.2080    6.5410   13.5480 C   0  0  0  0  0  0
   16.3670    6.0020   12.6070 H   0  0  0  0  0  0
   17.5290    6.5260   14.3200 C   0  0  0  0  0  0
   18.3260    7.0010   13.7390 H   0  0  0  0  0  0
   17.8420    5.4990   14.5350 H   0  0  0  0  0  0
   17.4390    7.0600   15.2730 H   0  0  0  0  0  0
   15.8300    7.9840   13.2010 C   0  0  0  0  0  0
   16.6420    8.4760   12.6550 H   0  0  0  0  0  0
   15.6270    8.5700   14.1040 H   0  0  0  0  0  0
   14.9410    8.0190   12.5640 H   0  0  0  0  0  0
   10.0230    1.0790   11.1970 N   0  0  0  0  0  0
   10.4450    0.5620   10.4380 H   0  0  0  0  0  0
    9.0560    0.9270   11.4410 H   0  0  0  0  0  0
  1  2  1  0  0  0
  1  6  2  0  0  0
  2  3  2  0  0  0
  2 40  1  0  0  0
  3  4  1  0  0  0
  4  5  2  0  0  0
  4 13  1  0  0  0
  5  6  1  0  0  0
  5 10  1  0  0  0
  6  7  1  0  0  0
  7  8  1  0  0  0
  7  9  1  0  0  0
 10 11  2  0  0  0
 11 12  1  0  0  0
 11 27  1  0  0  0
 12 13  2  0  0  0
 12 14  1  0  0  0
 14 15  1  0  0  0
 14 16  1  0  0  0
 14 17  1  0  0  0
 17 18  1  0  0  0
 17 19  1  0  0  0
 17 23  1  0  0  0
 19 20  1  0  0  0
 19 21  1  0  0  0
 19 22  1  0  0  0
 23 24  1  0  0  0
 23 25  1  0  0  0
 23 26  1  0  0  0
 27 28  1  0  0  0
 27 29  1  0  0  0
 27 30  1  0  0  0
 30 31  1  0  0  0
 30 32  1  0  0  0
 30 36  1  0  0  0
 32 33  1  0  0  0
 32 34  1  0  0  0
 32 35  1  0  0  0
 36 37  1  0  0  0
 36 38  1  0  0  0
 36 39  1  0  0  0
 40 41  1  0  0  0
 40 42  1  0  0  0
M  END
>  <ACTIVITY>
6.49

>  <SET>
1

>  <Min_dist>
999.9

>  <Avg_dist>
999.9

$$$$
12-4a
  Cerius2 12110214133D 1   1.00000                          
Structure written by Cerius2 SD Exporter
 45 49  0  0  0  0  0  0  0  0999 V2000
   10.6990    2.1190   11.8230 C   0  0  0  0  0  0
   11.9820    2.1880   11.3660 N   0  0  0  0  0  0
   12.9270    2.9330   12.0190 C   0  0  0  0  0  0
   12.5730    3.6930   13.1940 C   0  0  0  0  0  0
   11.2230    3.6060   13.6450 C   0  0  0  0  0  0
   10.3340    2.8280   12.9360 N   0  0  0  0  0  0
   10.8140    4.2770   14.7430 N   0  0  0  0  0  0
   11.3960    4.7880   15.2000 H   0  0  0  0  0  0
    9.9590    4.2140   15.0170 H   0  0  0  0  0  0
   13.5520    4.4390   13.8550 N   0  0  0  0  0  0
   14.8410    4.4680   13.3790 C   0  0  0  0  0  0
   15.1680    3.7130   12.1960 C   0  0  0  0  0  0
   16.0550    3.7230   11.8570 H   0  0  0  0  0  0
   14.2110    2.9800   11.5530 N   0  0  0  0  0  0
   15.9880    5.2640   14.1130 C   0  0  0  0  0  0
   15.6070    5.9640   14.6300 H   0  0  0  0  0  0
   16.4440    4.6690   14.6970 H   0  0  0  0  0  0
   17.0270    5.9210   13.1700 N   0  0  0  0  0  0
   18.2400    6.1850   13.9470 C   0  0  0  0  0  0
   18.2430    5.9070   15.3710 C   0  0  0  0  0  0
   17.4290    5.7000   15.8160 H   0  0  0  0  0  0
   19.4480    5.9390   16.1110 C   0  0  0  0  0  0
   19.4310    5.8040   17.0510 H   0  0  0  0  0  0
   20.6680    6.1720   15.4440 C   0  0  0  0  0  0
   21.4840    6.1650   15.9300 H   0  0  0  0  0  0
   20.6910    6.4180   14.0530 C   0  0  0  0  0  0
   21.5200    6.5380   13.6050 H   0  0  0  0  0  0
   19.5040    6.4970   13.2740 C   0  0  0  0  0  0
   19.6950    6.7300   11.7650 C   0  0  0  0  0  0
   20.5450    6.5880   11.3660 H   0  0  0  0  0  0
   18.7770    7.1320   10.8540 C   0  0  0  0  0  0
   19.0300    7.2480    9.9450 H   0  0  0  0  0  0
   17.2990    7.4470   11.0980 C   0  0  0  0  0  0
   16.6440    8.1990   10.0570 C   0  0  0  0  0  0
   17.1320    8.4720    9.2890 H   0  0  0  0  0  0
   15.2680    8.5500   10.1430 C   0  0  0  0  0  0
   14.8640    9.0630    9.4520 H   0  0  0  0  0  0
   14.4930    8.1380   11.2620 C   0  0  0  0  0  0
   13.5860    8.4110   11.3380 H   0  0  0  0  0  0
   15.0780    7.3220   12.2580 C   0  0  0  0  0  0
   14.5500    7.0030   12.9810 H   0  0  0  0  0  0
   16.4770    6.9470   12.2150 C   0  0  0  0  0  0
    9.8030    1.3470   11.1730 N   0  0  0  0  0  0
   10.0550    0.8820   10.4450 H   0  0  0  0  0  0
    8.9550    1.2960   11.4690 H   0  0  0  0  0  0
  1  2  2  0  0  0
  1  6  1  0  0  0
  1 43  1  0  0  0
  2  3  1  0  0  0
  3  4  2  0  0  0
  3 14  1  0  0  0
  4  5  1  0  0  0
  4 10  1  0  0  0
  5  6  2  0  0  0
  5  7  1  0  0  0
  7  8  1  0  0  0
  7  9  1  0  0  0
 10 11  2  0  0  0
 11 12  1  0  0  0
 11 15  1  0  0  0
 12 13  1  0  0  0
 12 14  2  0  0  0
 15 16  1  0  0  0
 15 17  1  0  0  0
 15 18  1  0  0  0
 18 19  1  0  0  0
 18 42  1  0  0  0
 19 20  1  0  0  0
 19 28  2  0  0  0
 20 21  1  0  0  0
 20 22  2  0  0  0
 22 23  1  0  0  0
 22 24  1  0  0  0
 24 25  1  0  0  0
 24 26  2  0  0  0
 26 27  1  0  0  0
 26 28  1  0  0  0
 28 29  1  0  0  0
 29 30  1  0  0  0
 29 31  2  0  0  0
 31 32  1  0  0  0
 31 33  1  0  0  0
 33 34  1  0  0  0
 33 42  2  0  0  0
 34 35  1  0  0  0
 34 36  2  0  0  0
 36 37  1  0  0  0
 36 38  1  0  0  0
 38 39  1  0  0  0
 38 40  2  0  0  0
 40 41  1  0  0  0
 40 42  1  0  0  0
 43 44  1  0  0  0
 43 45  1  0  0  0
M  END
>  <ACTIVITY>
5.36

>  <SET>
1

>  <Min_dist>
999.9

>  <Avg_dist>
999.9

$$$$
12-4b
  Cerius2 12110214133D 1   1.00000                          
Structure written by Cerius2 SD Exporter
 47 51  0  0  0  0  0  0  0  0999 V2000
   10.4180    2.8460   12.8810 N   0  0  0  0  0  0
   10.8580    2.2290   11.7870 C   0  0  0  0  0  0
   12.1080    2.2880   11.3420 N   0  0  0  0  0  0
   12.9780    3.0140   12.0380 C   0  0  0  0  0  0
   12.6480    3.7100   13.2070 C   0  0  0  0  0  0
   11.3140    3.5650   13.5790 C   0  0  0  0  0  0
   10.8110    4.2340   14.6880 N   0  0  0  0  0  0
   11.4600    4.4520   15.4380 H   0  0  0  0  0  0
    9.8450    4.0590   14.9380 H   0  0  0  0  0  0
   13.5660    4.4490   13.9080 N   0  0  0  0  0  0
   14.8350    4.4820   13.4270 C   0  0  0  0  0  0
   15.1410    3.7950   12.2640 C   0  0  0  0  0  0
   16.1440    3.8100   11.8450 H   0  0  0  0  0  0
   14.2300    3.0620   11.5690 N   0  0  0  0  0  0
   15.9280    5.2900   14.1180 C   0  0  0  0  0  0
   16.4560    4.6270   14.8170 H   0  0  0  0  0  0
   15.4400    6.0360   14.7630 H   0  0  0  0  0  0
   16.9060    5.9820   13.2200 N   0  0  0  0  0  0
   16.3650    6.7770   12.1710 C   0  0  0  0  0  0
   16.9550    6.9330   10.8960 C   0  0  0  0  0  0
   16.3770    7.8180    9.9490 C   0  0  0  0  0  0
   16.8410    7.9500    8.9710 H   0  0  0  0  0  0
   15.2130    8.5250   10.2210 C   0  0  0  0  0  0
   14.7850    9.1910    9.4750 H   0  0  0  0  0  0
   14.6070    8.3700   11.4530 C   0  0  0  0  0  0
   13.6990    8.9200   11.6910 H   0  0  0  0  0  0
   15.1790    7.5190   12.4050 C   0  0  0  0  0  0
   14.6750    7.4800   13.3670 H   0  0  0  0  0  0
   18.1940    6.2110   10.4100 C   0  0  0  0  0  0
   19.0670    6.8510   10.5970 H   0  0  0  0  0  0
   18.1190    6.0920    9.3200 H   0  0  0  0  0  0
   18.3940    4.8160   10.9800 C   0  0  0  0  0  0
   17.4640    4.2350   10.9970 H   0  0  0  0  0  0
   19.0880    4.2680   10.3300 H   0  0  0  0  0  0
   18.9700    4.9180   12.3640 C   0  0  0  0  0  0
   18.2340    5.5110   13.4010 C   0  0  0  0  0  0
   18.8500    5.5930   14.6660 C   0  0  0  0  0  0
   18.3420    6.0750   15.4980 H   0  0  0  0  0  0
   20.1360    5.0950   14.8990 C   0  0  0  0  0  0
   20.5800    5.1790   15.8880 H   0  0  0  0  0  0
   20.8420    4.4970   13.8650 C   0  0  0  0  0  0
   21.8420    4.1060   14.0380 H   0  0  0  0  0  0
   20.2640    4.4110   12.6030 C   0  0  0  0  0  0
   20.8310    3.9480   11.7960 H   0  0  0  0  0  0
    9.9660    1.4900   11.0750 N   0  0  0  0  0  0
   10.2640    1.0090   10.2390 H   0  0  0  0  0  0
    9.0070    1.4250   11.3870 H   0  0  0  0  0  0
  1  2  1  0  0  0
  1  6  2  0  0  0
  2  3  2  0  0  0
  2 45  1  0  0  0
  3  4  1  0  0  0
  4  5  2  0  0  0
  4 14  1  0  0  0
  5  6  1  0  0  0
  5 10  1  0  0  0
  6  7  1  0  0  0
  7  8  1  0  0  0
  7  9  1  0  0  0
 10 11  2  0  0  0
 11 12  1  0  0  0
 11 15  1  0  0  0
 12 13  1  0  0  0
 12 14  2  0  0  0
 15 16  1  0  0  0
 15 17  1  0  0  0
 15 18  1  0  0  0
 18 19  1  0  0  0
 18 36  1  0  0  0
 19 20  1  0  0  0
 19 27  2  0  0  0
 20 21  2  0  0  0
 20 29  1  0  0  0
 21 22  1  0  0  0
 21 23  1  0  0  0
 23 24  1  0  0  0
 23 25  2  0  0  0
 25 26  1  0  0  0
 25 27  1  0  0  0
 27 28  1  0  0  0
 29 30  1  0  0  0
 29 31  1  0  0  0
 29 32  1  0  0  0
 32 33  1  0  0  0
 32 34  1  0  0  0
 32 35  1  0  0  0
 35 36  1  0  0  0
 35 43  2  0  0  0
 36 37  2  0  0  0
 37 38  1  0  0  0
 37 39  1  0  0  0
 39 40  1  0  0  0
 39 41  2  0  0  0
 41 42  1  0  0  0
 41 43  1  0  0  0
 43 44  1  0  0  0
 45 46  1  0  0  0
 45 47  1  0  0  0
M  END
>  <ACTIVITY>
5.29

>  <SET>
1

>  <Min_dist>
999.9

>  <Avg_dist>
999.9

$$$$
12-4c
  Cerius2 12110214133D 1   1.00000                          
Structure written by Cerius2 SD Exporter
 44 48  0  0  0  0  0  0  0  0999 V2000
   10.3920    2.8450   12.9420 N   0  0  0  0  0  0
   10.8070    2.1960   11.8580 C   0  0  0  0  0  0
   12.0520    2.2270   11.3930 N   0  0  0  0  0  0
   12.9400    2.9610   12.0560 C   0  0  0  0  0  0
   12.6350    3.6940   13.2090 C   0  0  0  0  0  0
   11.3070    3.5720   13.6080 C   0  0  0  0  0  0
   10.8280    4.2720   14.7080 N   0  0  0  0  0  0
   11.4920    4.5010   15.4430 H   0  0  0  0  0  0
    9.8650    4.1130   14.9780 H   0  0  0  0  0  0
   13.5720    4.4420   13.8740 N   0  0  0  0  0  0
   14.8280    4.4660   13.3610 C   0  0  0  0  0  0
   15.1150    3.7230   12.2280 C   0  0  0  0  0  0
   16.1150    3.7000   11.8030 H   0  0  0  0  0  0
   14.1870    2.9770   11.5700 N   0  0  0  0  0  0
   15.9410    5.2420   14.0500 C   0  0  0  0  0  0
   16.5060    4.5660   14.7070 H   0  0  0  0  0  0
   15.4870    5.9490   14.7540 H   0  0  0  0  0  0
   16.8760    5.9270   13.1180 N   0  0  0  0  0  0
   16.3350    6.8210   12.1620 C   0  0  0  0  0  0
   17.1560    7.2840   11.1130 C   0  0  0  0  0  0
   16.6560    8.1690   10.1390 C   0  0  0  0  0  0
   17.2980    8.5070    9.3250 H   0  0  0  0  0  0
   15.3430    8.6200   10.1990 C   0  0  0  0  0  0
   14.9630    9.3060    9.4450 H   0  0  0  0  0  0
   14.5230    8.1890   11.2320 C   0  0  0  0  0  0
   13.4950    8.5410   11.2940 H   0  0  0  0  0  0
   15.0140    7.3030   12.2000 C   0  0  0  0  0  0
   14.3230    7.0200   12.9890 H   0  0  0  0  0  0
   18.5800    6.8060   10.9790 C   0  0  0  0  0  0
   19.2210    7.6820   10.8120 H   0  0  0  0  0  0
   18.6440    6.1550   10.0980 H   0  0  0  0  0  0
   19.1170    6.0510   12.1680 C   0  0  0  0  0  0
   18.2560    5.6180   13.1980 C   0  0  0  0  0  0
   18.8420    4.9180   14.2680 C   0  0  0  0  0  0
   18.2570    4.5900   15.1230 H   0  0  0  0  0  0
   20.2130    4.6320   14.3030 C   0  0  0  0  0  0
   20.6310    4.0880   15.1490 H   0  0  0  0  0  0
   21.0390    5.0470   13.2680 C   0  0  0  0  0  0
   22.1040    4.8240   13.2920 H   0  0  0  0  0  0
   20.4940    5.7550   12.2040 C   0  0  0  0  0  0
   21.1450    6.0820   11.3930 H   0  0  0  0  0  0
    9.8950    1.4500   11.1790 N   0  0  0  0  0  0
   10.1740    0.9420   10.3520 H   0  0  0  0  0  0
    8.9410    1.4060   11.5060 H   0  0  0  0  0  0
  1  2  1  0  0  0
  1  6  2  0  0  0
  2  3  2  0  0  0
  2 42  1  0  0  0
  3  4  1  0  0  0
  4  5  2  0  0  0
  4 14  1  0  0  0
  5  6  1  0  0  0
  5 10  1  0  0  0
  6  7  1  0  0  0
  7  8  1  0  0  0
  7  9  1  0  0  0
 10 11  2  0  0  0
 11 12  1  0  0  0
 11 15  1  0  0  0
 12 13  1  0  0  0
 12 14  2  0  0  0
 15 16  1  0  0  0
 15 17  1  0  0  0
 15 18  1  0  0  0
 18 19  1  0  0  0
 18 33  1  0  0  0
 19 20  1  0  0  0
 19 27  2  0  0  0
 20 21  2  0  0  0
 20 29  1  0  0  0
 21 22  1  0  0  0
 21 23  1  0  0  0
 23 24  1  0  0  0
 23 25  2  0  0  0
 25 26  1  0  0  0
 25 27  1  0  0  0
 27 28  1  0  0  0
 29 30  1  0  0  0
 29 31  1  0  0  0
 29 32  1  0  0  0
 32 33  1  0  0  0
 32 40  2  0  0  0
 33 34  2  0  0  0
 34 35  1  0  0  0
 34 36  1  0  0  0
 36 37  1  0  0  0
 36 38  2  0  0  0
 38 39  1  0  0  0
 38 40  1  0  0  0
 40 41  1  0  0  0
 42 43  1  0  0  0
 42 44  1  0  0  0
M  END
>  <ACTIVITY>
7.57

>  <SET>
1

>  <Min_dist>
999.9

>  <Avg_dist>
999.9

$$$$
12-4d
  Cerius2 12110214133D 1   1.00000                          
Structure written by Cerius2 SD Exporter
 42 46  0  0  0  0  0  0  0  0999 V2000
   10.3830    2.8460   12.9670 N   0  0  0  0  0  0
   10.7880    2.1830   11.8870 C   0  0  0  0  0  0
   12.0300    2.2040   11.4130 N   0  0  0  0  0  0
   12.9260    2.9400   12.0630 C   0  0  0  0  0  0
   12.6330    3.6840   13.2120 C   0  0  0  0  0  0
   11.3060    3.5740   13.6200 C   0  0  0  0  0  0
   10.8390    4.2900   14.7150 N   0  0  0  0  0  0
   11.5080    4.5240   15.4430 H   0  0  0  0  0  0
    9.8760    4.1400   14.9920 H   0  0  0  0  0  0
   13.5780    4.4320   13.8650 N   0  0  0  0  0  0
   14.8290    4.4470   13.3410 C   0  0  0  0  0  0
   15.1060    3.6940   12.2130 C   0  0  0  0  0  0
   16.1030    3.6630   11.7820 H   0  0  0  0  0  0
   14.1690    2.9470   11.5680 N   0  0  0  0  0  0
   15.9430    5.2210   14.0280 C   0  0  0  0  0  0
   16.5240    4.5480   14.6710 H   0  0  0  0  0  0
   15.4880    5.9170   14.7440 H   0  0  0  0  0  0
   16.8470    5.9160   13.0840 N   0  0  0  0  0  0
   16.3180    6.8290   12.1480 C   0  0  0  0  0  0
   17.1940    7.4030   11.2060 C   0  0  0  0  0  0
   16.7470    8.3110   10.2390 C   0  0  0  0  0  0
   17.4470    8.7350    9.5210 H   0  0  0  0  0  0
   15.4060    8.6740   10.1970 C   0  0  0  0  0  0
   15.0530    9.3810    9.4490 H   0  0  0  0  0  0
   14.5200    8.1300   11.1210 C   0  0  0  0  0  0
   13.4690    8.4140   11.0970 H   0  0  0  0  0  0
   14.9720    7.2190   12.0860 C   0  0  0  0  0  0
   14.2300    6.8390   12.7830 H   0  0  0  0  0  0
   18.5410    7.1110   11.1660 O   0  0  0  0  0  0
   19.0490    6.2870   12.1490 C   0  0  0  0  0  0
   18.2360    5.6790   13.1270 C   0  0  0  0  0  0
   18.8830    4.8830   14.0850 C   0  0  0  0  0  0
   18.3400    4.4060   14.8950 H   0  0  0  0  0  0
   20.2710    4.6870   14.0540 C   0  0  0  0  0  0
   20.7440    4.0650   14.8120 H   0  0  0  0  0  0
   21.0450    5.2870   13.0660 C   0  0  0  0  0  0
   22.1220    5.1330   13.0450 H   0  0  0  0  0  0
   20.4340    6.0910   12.1120 C   0  0  0  0  0  0
   21.0340    6.5700   11.3410 H   0  0  0  0  0  0
    9.8680    1.4340   11.2220 N   0  0  0  0  0  0
   10.1390    0.9190   10.3970 H   0  0  0  0  0  0
    8.9160    1.3980   11.5560 H   0  0  0  0  0  0
  1  2  1  0  0  0
  1  6  2  0  0  0
  2  3  2  0  0  0
  2 40  1  0  0  0
  3  4  1  0  0  0
  4  5  2  0  0  0
  4 14  1  0  0  0
  5  6  1  0  0  0
  5 10  1  0  0  0
  6  7  1  0  0  0
  7  8  1  0  0  0
  7  9  1  0  0  0
 10 11  2  0  0  0
 11 12  1  0  0  0
 11 15  1  0  0  0
 12 13  1  0  0  0
 12 14  2  0  0  0
 15 16  1  0  0  0
 15 17  1  0  0  0
 15 18  1  0  0  0
 18 19  1  0  0  0
 18 31  1  0  0  0
 19 20  1  0  0  0
 19 27  2  0  0  0
 20 21  2  0  0  0
 20 29  1  0  0  0
 21 22  1  0  0  0
 21 23  1  0  0  0
 23 24  1  0  0  0
 23 25  2  0  0  0
 25 26  1  0  0  0
 25 27  1  0  0  0
 27 28  1  0  0  0
 29 30  1  0  0  0
 30 31  1  0  0  0
 30 38  2  0  0  0
 31 32  2  0  0  0
 32 33  1  0  0  0
 32 34  1  0  0  0
 34 35  1  0  0  0
 34 36  2  0  0  0
 36 37  1  0  0  0
 36 38  1  0  0  0
 38 39  1  0  0  0
 40 41  1  0  0  0
 40 42  1  0  0  0
M  END
>  <ACTIVITY>
4.89

>  <SET>
1

>  <Min_dist>
999.9

>  <Avg_dist>
999.9

$$$$
12-4e
  Cerius2 12110214133D 1   1.00000                          
Structure written by Cerius2 SD Exporter
 42 46  0  0  0  0  0  0  0  0999 V2000
   10.4010    2.8430   12.9160 N   0  0  0  0  0  0
   10.8290    2.2040   11.8300 C   0  0  0  0  0  0
   12.0760    2.2510   11.3730 N   0  0  0  0  0  0
   12.9540    2.9860   12.0470 C   0  0  0  0  0  0
   12.6370    3.7080   13.2040 C   0  0  0  0  0  0
   11.3070    3.5720   13.5930 C   0  0  0  0  0  0
   10.8160    4.2600   14.6950 N   0  0  0  0  0  0
   11.4720    4.4820   15.4390 H   0  0  0  0  0  0
    9.8510    4.0900   14.9560 H   0  0  0  0  0  0
   13.5650    4.4570   13.8820 N   0  0  0  0  0  0
   14.8260    4.4820   13.3820 C   0  0  0  0  0  0
   15.1230    3.7580   12.2390 C   0  0  0  0  0  0
   16.1270    3.7500   11.8200 H   0  0  0  0  0  0
   14.2030    3.0160   11.5680 N   0  0  0  0  0  0
   15.9370    5.2620   14.0760 C   0  0  0  0  0  0
   16.4760    4.5870   14.7540 H   0  0  0  0  0  0
   15.4770    5.9910   14.7570 H   0  0  0  0  0  0
   16.8990    5.9340   13.1580 N   0  0  0  0  0  0
   16.3590    6.8060   12.1720 C   0  0  0  0  0  0
   17.0890    7.1510   11.0150 C   0  0  0  0  0  0
   16.5460    8.0180   10.0470 C   0  0  0  0  0  0
   17.1120    8.2720    9.1510 H   0  0  0  0  0  0
   15.2790    8.5680   10.2100 C   0  0  0  0  0  0
   14.8700    9.2380    9.4570 H   0  0  0  0  0  0
   14.5470    8.2560   11.3440 C   0  0  0  0  0  0
   13.5580    8.6860   11.4900 H   0  0  0  0  0  0
   15.0810    7.3920   12.3080 C   0  0  0  0  0  0
   14.4630    7.2150   13.1840 H   0  0  0  0  0  0
   18.7050    6.4990   10.6540 S   0  0  0  0  0  0
   19.1820    5.7990   12.2200 C   0  0  0  0  0  0
   18.2700    5.5710   13.2720 C   0  0  0  0  0  0
   18.7990    4.9950   14.4480 C   0  0  0  0  0  0
   18.1800    4.8230   15.3250 H   0  0  0  0  0  0
   20.1490    4.6440   14.5690 C   0  0  0  0  0  0
   20.5140    4.2040   15.4960 H   0  0  0  0  0  0
   21.0200    4.8660   13.5150 C   0  0  0  0  0  0
   22.0710    4.5960   13.6020 H   0  0  0  0  0  0
   20.5380    5.4420   12.3450 C   0  0  0  0  0  0
   21.2340    5.6130   11.5250 H   0  0  0  0  0  0
    9.9280    1.4540   11.1400 N   0  0  0  0  0  0
   10.2170    0.9570   10.3110 H   0  0  0  0  0  0
    8.9720    1.3990   11.4600 H   0  0  0  0  0  0
  1  2  1  0  0  0
  1  6  2  0  0  0
  2  3  2  0  0  0
  2 40  1  0  0  0
  3  4  1  0  0  0
  4  5  2  0  0  0
  4 14  1  0  0  0
  5  6  1  0  0  0
  5 10  1  0  0  0
  6  7  1  0  0  0
  7  8  1  0  0  0
  7  9  1  0  0  0
 10 11  2  0  0  0
 11 12  1  0  0  0
 11 15  1  0  0  0
 12 13  1  0  0  0
 12 14  2  0  0  0
 15 16  1  0  0  0
 15 17  1  0  0  0
 15 18  1  0  0  0
 18 19  1  0  0  0
 18 31  1  0  0  0
 19 20  1  0  0  0
 19 27  2  0  0  0
 20 21  2  0  0  0
 20 29  1  0  0  0
 21 22  1  0  0  0
 21 23  1  0  0  0
 23 24  1  0  0  0
 23 25  2  0  0  0
 25 26  1  0  0  0
 25 27  1  0  0  0
 27 28  1  0  0  0
 29 30  1  0  0  0
 30 31  1  0  0  0
 30 38  2  0  0  0
 31 32  2  0  0  0
 32 33  1  0  0  0
 32 34  1  0  0  0
 34 35  1  0  0  0
 34 36  2  0  0  0
 36 37  1  0  0  0
 36 38  1  0  0  0
 38 39  1  0  0  0
 40 41  1  0  0  0
 40 42  1  0  0  0
M  END
>  <ACTIVITY>
6.7

>  <SET>
2

>  <Min_dist>
0.09

>  <Avg_dist>
0.61

$$$$
12-4g
  Cerius2 12110214133D 1   1.00000                          
Structure written by Cerius2 SD Exporter
 43 46  0  0  0  0  0  0  0  0999 V2000
   10.3870    2.8490   12.9340 N   0  0  0  0  0  0
   10.8120    2.1910   11.8580 C   0  0  0  0  0  0
   12.0570    2.2270   11.3980 N   0  0  0  0  0  0
   12.9390    2.9680   12.0600 C   0  0  0  0  0  0
   12.6270    3.7080   13.2080 C   0  0  0  0  0  0
   11.2900    3.6040   13.5850 C   0  0  0  0  0  0
   10.8230    4.2410   14.7290 N   0  0  0  0  0  0
   11.2860    5.1000   15.0080 H   0  0  0  0  0  0
    9.8320    4.1600   14.9280 H   0  0  0  0  0  0
   13.5590    4.4610   13.8740 N   0  0  0  0  0  0
   14.8180    4.4780   13.3640 C   0  0  0  0  0  0
   15.1100    3.7380   12.2320 C   0  0  0  0  0  0
   16.1080    3.7260   11.8020 H   0  0  0  0  0  0
   14.1870    2.9830   11.5790 N   0  0  0  0  0  0
   15.8940    5.3040   14.0480 C   0  0  0  0  0  0
   16.4130    4.7070   14.8070 H   0  0  0  0  0  0
   15.3890    6.0800   14.6380 H   0  0  0  0  0  0
   16.8740    5.8790   13.0870 N   0  0  0  0  0  0
   16.3830    6.8020   12.1310 C   0  0  0  0  0  0
   15.0490    7.2440   12.1970 C   0  0  0  0  0  0
   14.3880    6.8710   12.9790 H   0  0  0  0  0  0
   14.5250    8.1410   11.2610 C   0  0  0  0  0  0
   13.4870    8.4600   11.3370 H   0  0  0  0  0  0
   15.3290    8.6210   10.2340 C   0  0  0  0  0  0
   14.9260    9.3210    9.5050 H   0  0  0  0  0  0
   16.6540    8.2060   10.1470 C   0  0  0  0  0  0
   17.2910    8.5860    9.3500 H   0  0  0  0  0  0
   17.1740    7.3080   11.0880 C   0  0  0  0  0  0
   18.2250    7.0420   10.9950 H   0  0  0  0  0  0
   18.2220    5.4600   13.2110 C   0  0  0  0  0  0
   18.7270    4.8620   14.3760 C   0  0  0  0  0  0
   18.0960    4.7220   15.2520 H   0  0  0  0  0  0
   20.0650    4.4600   14.4720 C   0  0  0  0  0  0
   20.4280    4.0050   15.3920 H   0  0  0  0  0  0
   20.9310    4.6500   13.4000 C   0  0  0  0  0  0
   21.9720    4.3420   13.4760 H   0  0  0  0  0  0
   20.4600    5.2430   12.2340 C   0  0  0  0  0  0
   21.1300    5.3970   11.3900 H   0  0  0  0  0  0
   19.1220    5.6430   12.1440 C   0  0  0  0  0  0
   18.7820    6.0900   11.2110 H   0  0  0  0  0  0
    9.9100    1.4270   11.1850 N   0  0  0  0  0  0
   10.1980    0.9110   10.3660 H   0  0  0  0  0  0
    8.9550    1.3780   11.5090 H   0  0  0  0  0  0
  1  2  1  0  0  0
  1  6  2  0  0  0
  2  3  2  0  0  0
  2 41  1  0  0  0
  3  4  1  0  0  0
  4  5  2  0  0  0
  4 14  1  0  0  0
  5  6  1  0  0  0
  5 10  1  0  0  0
  6  7  1  0  0  0
  7  8  1  0  0  0
  7  9  1  0  0  0
 10 11  2  0  0  0
 11 12  1  0  0  0
 11 15  1  0  0  0
 12 13  1  0  0  0
 12 14  2  0  0  0
 15 16  1  0  0  0
 15 17  1  0  0  0
 15 18  1  0  0  0
 18 19  1  0  0  0
 18 30  1  0  0  0
 19 20  1  0  0  0
 19 28  2  0  0  0
 20 21  1  0  0  0
 20 22  2  0  0  0
 22 23  1  0  0  0
 22 24  1  0  0  0
 24 25  1  0  0  0
 24 26  2  0  0  0
 26 27  1  0  0  0
 26 28  1  0  0  0
 28 29  1  0  0  0
 30 31  1  0  0  0
 30 39  2  0  0  0
 31 32  1  0  0  0
 31 33  2  0  0  0
 33 34  1  0  0  0
 33 35  1  0  0  0
 35 36  1  0  0  0
 35 37  2  0  0  0
 37 38  1  0  0  0
 37 39  1  0  0  0
 39 40  1  0  0  0
 41 42  1  0  0  0
 41 43  1  0  0  0
M  END
>  <ACTIVITY>
5.4

>  <SET>
2

>  <Min_dist>
0.06

>  <Avg_dist>
0.51

$$$$
13-10
  Cerius2 12110214133D 1   1.00000                          
Structure written by Cerius2 SD Exporter
 50 52  0  0  0  0  0  0  0  0999 V2000
   10.1020    2.5980   12.8690 N   0  0  0  0  0  0
   10.7100    1.9550   11.8800 C   0  0  0  0  0  0
   11.9830    2.1400   11.5450 N   0  0  0  0  0  0
   12.6970    3.0280   12.2460 C   0  0  0  0  0  0
   12.1860    3.7760   13.3130 C   0  0  0  0  0  0
   10.8240    3.4910   13.5710 C   0  0  0  0  0  0
   10.1080    4.1050   14.5950 N   0  0  0  0  0  0
   10.4750    3.8990   15.5230 H   0  0  0  0  0  0
   10.0560    5.1180   14.4980 H   0  0  0  0  0  0
   13.0700    4.7020   13.9800 C   0  0  0  0  0  0
   14.4230    4.8500   13.5980 C   0  0  0  0  0  0
   14.8700    4.0900   12.5150 C   0  0  0  0  0  0
   15.8950    4.1720   12.1560 H   0  0  0  0  0  0
   14.0170    3.1970   11.8670 C   0  0  0  0  0  0
   14.4090    2.6170   11.0320 H   0  0  0  0  0  0
   15.3420    5.8430   14.2990 C   0  0  0  0  0  0
   15.8480    5.3790   15.1530 H   0  0  0  0  0  0
   14.7080    6.6330   14.7210 H   0  0  0  0  0  0
   16.3660    6.4450   13.4200 N   0  0  0  0  0  0
   16.0410    7.1950   12.2930 C   0  0  0  0  0  0
   16.9800    7.4590   11.2710 C   0  0  0  0  0  0
   17.9850    7.0640   11.3700 H   0  0  0  0  0  0
   16.6630    8.2000   10.1190 C   0  0  0  0  0  0
   15.3640    8.6960    9.9720 C   0  0  0  0  0  0
   14.4260    8.4880   10.9800 C   0  0  0  0  0  0
   14.7520    7.7280   12.1070 C   0  0  0  0  0  0
   13.9710    7.5700   12.8460 H   0  0  0  0  0  0
   13.1490    8.9720   10.8390 O   0  0  0  0  0  0
   13.0600    9.7840    9.6630 C   0  0  0  0  0  0
   12.0100   10.0590    9.5260 H   0  0  0  0  0  0
   13.3860    9.2320    8.7740 H   0  0  0  0  0  0
   13.6410   10.7050    9.7770 H   0  0  0  0  0  0
   15.0310    9.4520    8.8750 O   0  0  0  0  0  0
   16.1800    9.6250    8.0380 C   0  0  0  0  0  0
   15.8790   10.2380    7.1830 H   0  0  0  0  0  0
   16.5420    8.6650    7.6570 H   0  0  0  0  0  0
   16.9820   10.1520    8.5680 H   0  0  0  0  0  0
   17.5350    8.4860    9.1000 O   0  0  0  0  0  0
   18.8420    7.9200    9.1770 C   0  0  0  0  0  0
   19.3920    8.2310    8.2830 H   0  0  0  0  0  0
   18.7990    6.8260    9.1760 H   0  0  0  0  0  0
   19.3840    8.2970   10.0500 H   0  0  0  0  0  0
   17.7590    6.0950   13.7170 C   0  0  0  0  0  0
   18.1430    5.3830   12.9800 H   0  0  0  0  0  0
   17.8550    5.6310   14.7060 H   0  0  0  0  0  0
   18.3940    6.9880   13.7320 H   0  0  0  0  0  0
   12.4770    5.6950   15.2870 Cl  0  0  0  0  0  0
    9.9900    1.0500   11.1640 N   0  0  0  0  0  0
   10.4280    0.5490   10.4060 H   0  0  0  0  0  0
    9.0200    0.8900   11.3920 H   0  0  0  0  0  0
  1  2  1  0  0  0
  1  6  2  0  0  0
  2  3  2  0  0  0
  2 48  1  0  0  0
  3  4  1  0  0  0
  4  5  2  0  0  0
  4 14  1  0  0  0
  5  6  1  0  0  0
  5 10  1  0  0  0
  6  7  1  0  0  0
  7  8  1  0  0  0
  7  9  1  0  0  0
 10 11  2  0  0  0
 10 47  1  0  0  0
 11 12  1  0  0  0
 11 16  1  0  0  0
 12 13  1  0  0  0
 12 14  2  0  0  0
 14 15  1  0  0  0
 16 17  1  0  0  0
 16 18  1  0  0  0
 16 19  1  0  0  0
 19 20  1  0  0  0
 19 43  1  0  0  0
 20 21  1  0  0  0
 20 26  2  0  0  0
 21 22  1  0  0  0
 21 23  2  0  0  0
 23 24  1  0  0  0
 23 38  1  0  0  0
 24 25  2  0  0  0
 24 33  1  0  0  0
 25 26  1  0  0  0
 25 28  1  0  0  0
 26 27  1  0  0  0
 28 29  1  0  0  0
 29 30  1  0  0  0
 29 31  1  0  0  0
 29 32  1  0  0  0
 33 34  1  0  0  0
 34 35  1  0  0  0
 34 36  1  0  0  0
 34 37  1  0  0  0
 38 39  1  0  0  0
 39 40  1  0  0  0
 39 41  1  0  0  0
 39 42  1  0  0  0
 43 44  1  0  0  0
 43 45  1  0  0  0
 43 46  1  0  0  0
 48 49  1  0  0  0
 48 50  1  0  0  0
M  END
>  <ACTIVITY>
7.92

>  <SET>
1

>  <Min_dist>
999.9

>  <Avg_dist>
999.9

$$$$
13-11
  Cerius2 12110214133D 1   1.00000                          
Structure written by Cerius2 SD Exporter
 43 45  0  0  0  0  0  0  0  0999 V2000
   10.1670    2.7200   12.8500 N   0  0  0  0  0  0
   10.7640    2.0440   11.8770 C   0  0  0  0  0  0
   12.0440    2.1880   11.5490 N   0  0  0  0  0  0
   12.7770    3.0690   12.2390 C   0  0  0  0  0  0
   12.2760    3.8500   13.2840 C   0  0  0  0  0  0
   10.9080    3.6070   13.5420 C   0  0  0  0  0  0
   10.2010    4.2700   14.5400 N   0  0  0  0  0  0
   10.5730    4.1030   15.4740 H   0  0  0  0  0  0
   10.1580    5.2790   14.3990 H   0  0  0  0  0  0
   13.1770    4.7610   13.9380 C   0  0  0  0  0  0
   14.5380    4.8830   13.5620 C   0  0  0  0  0  0
   14.9770    4.0820   12.5140 C   0  0  0  0  0  0
   16.0050    4.1230   12.1610 H   0  0  0  0  0  0
   14.1060    3.1970   11.8730 C   0  0  0  0  0  0
   14.4940    2.5880   11.0570 H   0  0  0  0  0  0
   15.3800    5.7630   14.2220 N   0  0  0  0  0  0
   15.3730    5.7350   15.2410 H   0  0  0  0  0  0
   16.3790    6.6310   13.6140 C   0  0  0  0  0  0
   17.2490    6.0220   13.3380 H   0  0  0  0  0  0
   16.7440    7.3510   14.3530 H   0  0  0  0  0  0
   15.8630    7.2870   12.3480 C   0  0  0  0  0  0
   14.4860    7.5660   12.2280 C   0  0  0  0  0  0
   13.8160    7.3230   13.0530 H   0  0  0  0  0  0
   13.9570    8.1530   11.0770 C   0  0  0  0  0  0
   14.8110    8.4560   10.0210 C   0  0  0  0  0  0
   14.4500    8.9070    9.1010 H   0  0  0  0  0  0
   16.1790    8.1750   10.1160 C   0  0  0  0  0  0
   16.7990    8.4230    9.2580 H   0  0  0  0  0  0
   16.7140    7.5890   11.2690 C   0  0  0  0  0  0
   18.0370    7.2690   11.4290 O   0  0  0  0  0  0
   18.9070    7.4940   10.3210 C   0  0  0  0  0  0
   19.9200    7.2270   10.6360 H   0  0  0  0  0  0
   18.9140    8.5510   10.0340 H   0  0  0  0  0  0
   18.6420    6.8510    9.4760 H   0  0  0  0  0  0
   12.6070    8.3690   11.1080 O   0  0  0  0  0  0
   12.0270    8.9690    9.9500 C   0  0  0  0  0  0
   10.9580    9.0990   10.1430 H   0  0  0  0  0  0
   12.1320    8.3180    9.0760 H   0  0  0  0  0  0
   12.4560    9.9590    9.7630 H   0  0  0  0  0  0
   12.6320    5.7730   15.2570 Cl  0  0  0  0  0  0
   10.0230    1.1490   11.1700 N   0  0  0  0  0  0
   10.4530    0.6270   10.4210 H   0  0  0  0  0  0
    9.0470    1.0200   11.3920 H   0  0  0  0  0  0
  1  2  1  0  0  0
  1  6  2  0  0  0
  2  3  2  0  0  0
  2 41  1  0  0  0
  3  4  1  0  0  0
  4  5  2  0  0  0
  4 14  1  0  0  0
  5  6  1  0  0  0
  5 10  1  0  0  0
  6  7  1  0  0  0
  7  8  1  0  0  0
  7  9  1  0  0  0
 10 11  2  0  0  0
 10 40  1  0  0  0
 11 12  1  0  0  0
 11 16  1  0  0  0
 12 13  1  0  0  0
 12 14  2  0  0  0
 14 15  1  0  0  0
 16 17  1  0  0  0
 16 18  1  0  0  0
 18 19  1  0  0  0
 18 20  1  0  0  0
 18 21  1  0  0  0
 21 22  1  0  0  0
 21 29  2  0  0  0
 22 23  1  0  0  0
 22 24  2  0  0  0
 24 25  1  0  0  0
 24 35  1  0  0  0
 25 26  1  0  0  0
 25 27  2  0  0  0
 27 28  1  0  0  0
 27 29  1  0  0  0
 29 30  1  0  0  0
 30 31  1  0  0  0
 31 32  1  0  0  0
 31 33  1  0  0  0
 31 34  1  0  0  0
 35 36  1  0  0  0
 36 37  1  0  0  0
 36 38  1  0  0  0
 36 39  1  0  0  0
 41 42  1  0  0  0
 41 43  1  0  0  0
M  END
>  <ACTIVITY>
7.55

>  <SET>
2

>  <Min_dist>
0.09

>  <Avg_dist>
0.5

$$$$
13-14
  Cerius2 12110214133D 1   1.00000                          
Structure written by Cerius2 SD Exporter
 47 49  0  0  0  0  0  0  0  0999 V2000
   10.1530    2.7160   12.8370 N   0  0  0  0  0  0
   10.7570    2.0440   11.8640 C   0  0  0  0  0  0
   12.0380    2.1880   11.5450 N   0  0  0  0  0  0
   12.7690    3.0630   12.2450 C   0  0  0  0  0  0
   12.2630    3.8370   13.2940 C   0  0  0  0  0  0
   10.8920    3.5960   13.5390 C   0  0  0  0  0  0
   10.1800    4.2530   14.5390 N   0  0  0  0  0  0
   10.5390    4.0680   15.4750 H   0  0  0  0  0  0
   10.1490    5.2640   14.4120 H   0  0  0  0  0  0
   13.1640    4.7410   13.9600 C   0  0  0  0  0  0
   14.5260    4.8670   13.5890 C   0  0  0  0  0  0
   14.9690    4.0720   12.5370 C   0  0  0  0  0  0
   15.9980    4.1140   12.1900 H   0  0  0  0  0  0
   14.1010    3.1920   11.8870 C   0  0  0  0  0  0
   14.4920    2.5880   11.0690 H   0  0  0  0  0  0
   15.3660    5.7430   14.2560 N   0  0  0  0  0  0
   15.3060    5.7560   15.2740 H   0  0  0  0  0  0
   16.3910    6.5900   13.6710 C   0  0  0  0  0  0
   17.2640    5.9720   13.4300 H   0  0  0  0  0  0
   16.7320    7.3330   14.4010 H   0  0  0  0  0  0
   15.9210    7.2460   12.3880 C   0  0  0  0  0  0
   16.8290    7.5670   11.3580 C   0  0  0  0  0  0
   17.8760    7.3180   11.5090 H   0  0  0  0  0  0
   16.3960    8.1770   10.1760 C   0  0  0  0  0  0
   15.0340    8.4820   10.0320 C   0  0  0  0  0  0
   14.1380    8.2260   11.0750 C   0  0  0  0  0  0
   14.5710    7.5910   12.2370 C   0  0  0  0  0  0
   13.8550    7.3690   13.0260 H   0  0  0  0  0  0
   12.8050    8.5250   10.9570 O   0  0  0  0  0  0
   12.5600    9.1890    9.7120 C   0  0  0  0  0  0
   11.4970    9.4470    9.6760 H   0  0  0  0  0  0
   12.7780    8.5340    8.8620 H   0  0  0  0  0  0
   13.1380   10.1160    9.6380 H   0  0  0  0  0  0
   14.5870    9.0930    8.8840 O   0  0  0  0  0  0
   15.6860    9.3050    7.9920 C   0  0  0  0  0  0
   15.2990    9.8020    7.0980 H   0  0  0  0  0  0
   16.1370    8.3550    7.6840 H   0  0  0  0  0  0
   16.4430    9.9570    8.4420 H   0  0  0  0  0  0
   17.2060    8.5110    9.1200 O   0  0  0  0  0  0
   18.5930    8.2080    9.2460 C   0  0  0  0  0  0
   19.0820    8.4960    8.3110 H   0  0  0  0  0  0
   18.7510    7.1330    9.3860 H   0  0  0  0  0  0
   19.0510    8.7870   10.0540 H   0  0  0  0  0  0
   12.6140    5.7400   15.2870 Cl  0  0  0  0  0  0
   10.0210    1.1530   11.1470 N   0  0  0  0  0  0
   10.4560    0.6340   10.3990 H   0  0  0  0  0  0
    9.0430    1.0220   11.3610 H   0  0  0  0  0  0
  1  2  1  0  0  0
  1  6  2  0  0  0
  2  3  2  0  0  0
  2 45  1  0  0  0
  3  4  1  0  0  0
  4  5  2  0  0  0
  4 14  1  0  0  0
  5  6  1  0  0  0
  5 10  1  0  0  0
  6  7  1  0  0  0
  7  8  1  0  0  0
  7  9  1  0  0  0
 10 11  2  0  0  0
 10 44  1  0  0  0
 11 12  1  0  0  0
 11 16  1  0  0  0
 12 13  1  0  0  0
 12 14  2  0  0  0
 14 15  1  0  0  0
 16 17  1  0  0  0
 16 18  1  0  0  0
 18 19  1  0  0  0
 18 20  1  0  0  0
 18 21  1  0  0  0
 21 22  1  0  0  0
 21 27  2  0  0  0
 22 23  1  0  0  0
 22 24  2  0  0  0
 24 25  1  0  0  0
 24 39  1  0  0  0
 25 26  2  0  0  0
 25 34  1  0  0  0
 26 27  1  0  0  0
 26 29  1  0  0  0
 27 28  1  0  0  0
 29 30  1  0  0  0
 30 31  1  0  0  0
 30 32  1  0  0  0
 30 33  1  0  0  0
 34 35  1  0  0  0
 35 36  1  0  0  0
 35 37  1  0  0  0
 35 38  1  0  0  0
 39 40  1  0  0  0
 40 41  1  0  0  0
 40 42  1  0  0  0
 40 43  1  0  0  0
 45 46  1  0  0  0
 45 47  1  0  0  0
M  END
>  <ACTIVITY>
8.22

>  <SET>
1

>  <Min_dist>
999.9

>  <Avg_dist>
999.9

$$$$
13-17
  Cerius2 12110214133D 1   1.00000                          
Structure written by Cerius2 SD Exporter
 50 52  0  0  0  0  0  0  0  0999 V2000
   10.1580    2.7170   12.7880 N   0  0  0  0  0  0
   10.7730    2.0750   11.8030 C   0  0  0  0  0  0
   12.0570    2.2330   11.5000 N   0  0  0  0  0  0
   12.7780    3.0900   12.2320 C   0  0  0  0  0  0
   12.2580    3.8280   13.3020 C   0  0  0  0  0  0
   10.8860    3.5750   13.5250 C   0  0  0  0  0  0
   10.1550    4.2150   14.5220 N   0  0  0  0  0  0
   10.5270    4.0550   15.4580 H   0  0  0  0  0  0
   10.0820    5.2220   14.3850 H   0  0  0  0  0  0
   13.1470    4.7120   14.0100 C   0  0  0  0  0  0
   14.5110    4.8530   13.6490 C   0  0  0  0  0  0
   14.9690    4.0970   12.5710 C   0  0  0  0  0  0
   16.0000    4.1740   12.2320 H   0  0  0  0  0  0
   14.1110    3.2340   11.8870 C   0  0  0  0  0  0
   14.5100    2.6630   11.0490 H   0  0  0  0  0  0
   15.3730    5.7240   14.3290 N   0  0  0  0  0  0
   16.4600    6.3980   13.5970 C   0  0  0  0  0  0
   17.1910    5.6530   13.2540 H   0  0  0  0  0  0
   17.0060    7.0770   14.2630 H   0  0  0  0  0  0
   15.9540    7.1250   12.3650 C   0  0  0  0  0  0
   16.8440    7.4890   11.3340 C   0  0  0  0  0  0
   17.8930    7.2340   11.4630 H   0  0  0  0  0  0
   16.3890    8.1390   10.1830 C   0  0  0  0  0  0
   15.0250    8.4520   10.0780 C   0  0  0  0  0  0
   14.1460    8.1530   11.1260 C   0  0  0  0  0  0
   14.5990    7.4670   12.2510 C   0  0  0  0  0  0
   13.8960    7.2050   13.0400 H   0  0  0  0  0  0
   12.8120    8.4610   11.0480 O   0  0  0  0  0  0
   12.5370    9.1380    9.8160 C   0  0  0  0  0  0
   11.4730    9.3910    9.8040 H   0  0  0  0  0  0
   12.7420    8.4960    8.9530 H   0  0  0  0  0  0
   13.1100   10.0690    9.7420 H   0  0  0  0  0  0
   14.5590    9.1110    8.9640 O   0  0  0  0  0  0
   15.6260    9.2950    8.0280 C   0  0  0  0  0  0
   15.2230    9.8360    7.1670 H   0  0  0  0  0  0
   16.0140    8.3340    7.6730 H   0  0  0  0  0  0
   16.4340    9.8960    8.4590 H   0  0  0  0  0  0
   17.1790    8.5110    9.1260 O   0  0  0  0  0  0
   18.5720    8.2250    9.2290 C   0  0  0  0  0  0
   19.0410    8.5090    8.2820 H   0  0  0  0  0  0
   18.7450    7.1550    9.3760 H   0  0  0  0  0  0
   19.0370    8.8190   10.0220 H   0  0  0  0  0  0
   14.7230    6.5170   15.3750 C   0  0  0  0  0  0
   14.1210    7.3180   14.9310 H   0  0  0  0  0  0
   15.4760    6.9740   16.0270 H   0  0  0  0  0  0
   14.0730    5.9070   16.0110 H   0  0  0  0  0  0
   12.5800    5.6200   15.3930 Cl  0  0  0  0  0  0
   10.0460    1.2020   11.0560 N   0  0  0  0  0  0
   10.4890    0.6980   10.3020 H   0  0  0  0  0  0
    9.0690    1.0580   11.2650 H   0  0  0  0  0  0
  1  2  1  0  0  0
  1  6  2  0  0  0
  2  3  2  0  0  0
  2 48  1  0  0  0
  3  4  1  0  0  0
  4  5  2  0  0  0
  4 14  1  0  0  0
  5  6  1  0  0  0
  5 10  1  0  0  0
  6  7  1  0  0  0
  7  8  1  0  0  0
  7  9  1  0  0  0
 10 11  2  0  0  0
 10 47  1  0  0  0
 11 12  1  0  0  0
 11 16  1  0  0  0
 12 13  1  0  0  0
 12 14  2  0  0  0
 14 15  1  0  0  0
 16 17  1  0  0  0
 16 43  1  0  0  0
 17 18  1  0  0  0
 17 19  1  0  0  0
 17 20  1  0  0  0
 20 21  1  0  0  0
 20 26  2  0  0  0
 21 22  1  0  0  0
 21 23  2  0  0  0
 23 24  1  0  0  0
 23 38  1  0  0  0
 24 25  2  0  0  0
 24 33  1  0  0  0
 25 26  1  0  0  0
 25 28  1  0  0  0
 26 27  1  0  0  0
 28 29  1  0  0  0
 29 30  1  0  0  0
 29 31  1  0  0  0
 29 32  1  0  0  0
 33 34  1  0  0  0
 34 35  1  0  0  0
 34 36  1  0  0  0
 34 37  1  0  0  0
 38 39  1  0  0  0
 39 40  1  0  0  0
 39 41  1  0  0  0
 39 42  1  0  0  0
 43 44  1  0  0  0
 43 45  1  0  0  0
 43 46  1  0  0  0
 48 49  1  0  0  0
 48 50  1  0  0  0
M  END
>  <ACTIVITY>
7.42

>  <SET>
1

>  <Min_dist>
999.9

>  <Avg_dist>
999.9

$$$$
14-10
  Cerius2 12110214133D 1   1.00000                          
Structure written by Cerius2 SD Exporter
 37 39  0  0  0  0  0  0  0  0999 V2000
   10.1510    2.6420   12.9140 N   0  0  0  0  0  0
   10.7090    1.9650   11.9120 C   0  0  0  0  0  0
   11.9750    2.1110   11.5190 N   0  0  0  0  0  0
   12.7310    3.0020   12.1850 C   0  0  0  0  0  0
   12.2720    3.7730   13.2540 C   0  0  0  0  0  0
   10.9350    3.5190   13.5740 C   0  0  0  0  0  0
   10.3050    4.2350   14.5860 N   0  0  0  0  0  0
   10.8860    4.5600   15.3540 H   0  0  0  0  0  0
    9.3490    3.9770   14.8030 H   0  0  0  0  0  0
   13.0580    4.6710   13.9250 N   0  0  0  0  0  0
   14.3510    4.8240   13.5380 C   0  0  0  0  0  0
   14.8770    4.0950   12.4830 C   0  0  0  0  0  0
   15.9100    4.2210   12.1710 H   0  0  0  0  0  0
   14.0530    3.1870   11.8140 C   0  0  0  0  0  0
   14.4630    2.6130   10.9860 H   0  0  0  0  0  0
   15.2060    5.8210   14.3070 C   0  0  0  0  0  0
   15.5910    5.3480   15.2160 H   0  0  0  0  0  0
   14.5520    6.6220   14.6770 H   0  0  0  0  0  0
   16.2550    6.4350   13.4640 N   0  0  0  0  0  0
   15.9970    7.1730   12.3180 C   0  0  0  0  0  0
   14.7280    7.7300   12.0690 C   0  0  0  0  0  0
   13.9080    7.5970   12.7740 H   0  0  0  0  0  0
   14.4440    8.4860   10.9220 C   0  0  0  0  0  0
   13.4430    8.8930   10.7900 H   0  0  0  0  0  0
   15.4320    8.7110    9.9720 C   0  0  0  0  0  0
   16.7000    8.1730   10.1770 C   0  0  0  0  0  0
   16.9690    7.4160   11.3310 C   0  0  0  0  0  0
   17.9720    7.0110   11.4240 H   0  0  0  0  0  0
   17.9890    8.3990    9.0430 Cl  0  0  0  0  0  0
   15.0280    9.6520    8.5800 Cl  0  0  0  0  0  0
   17.6350    6.1670   13.8900 C   0  0  0  0  0  0
   18.1800    7.1030   14.0560 H   0  0  0  0  0  0
   18.1600    5.5610   13.1450 H   0  0  0  0  0  0
   17.6680    5.6090   14.8330 H   0  0  0  0  0  0
    9.9410    1.0620   11.2470 N   0  0  0  0  0  0
   10.3380    0.5250   10.4910 H   0  0  0  0  0  0
    8.9830    0.9150   11.5300 H   0  0  0  0  0  0
  1  2  1  0  0  0
  1  6  2  0  0  0
  2  3  2  0  0  0
  2 35  1  0  0  0
  3  4  1  0  0  0
  4  5  2  0  0  0
  4 14  1  0  0  0
  5  6  1  0  0  0
  5 10  1  0  0  0
  6  7  1  0  0  0
  7  8  1  0  0  0
  7  9  1  0  0  0
 10 11  2  0  0  0
 11 12  1  0  0  0
 11 16  1  0  0  0
 12 13  1  0  0  0
 12 14  2  0  0  0
 14 15  1  0  0  0
 16 17  1  0  0  0
 16 18  1  0  0  0
 16 19  1  0  0  0
 19 20  1  0  0  0
 19 31  1  0  0  0
 20 21  1  0  0  0
 20 27  2  0  0  0
 21 22  1  0  0  0
 21 23  2  0  0  0
 23 24  1  0  0  0
 23 25  1  0  0  0
 25 26  2  0  0  0
 25 30  1  0  0  0
 26 27  1  0  0  0
 26 29  1  0  0  0
 27 28  1  0  0  0
 31 32  1  0  0  0
 31 33  1  0  0  0
 31 34  1  0  0  0
 35 36  1  0  0  0
 35 37  1  0  0  0
M  END
>  <ACTIVITY>
7.49

>  <SET>
1

>  <Min_dist>
999.9

>  <Avg_dist>
999.9

$$$$
14-22
  Cerius2 12110214133D 1   1.00000                          
Structure written by Cerius2 SD Exporter
 40 42  0  0  0  0  0  0  0  0999 V2000
   10.1120    2.6450   12.7870 N   0  0  0  0  0  0
   10.7870    1.9740   11.8650 C   0  0  0  0  0  0
   12.0730    2.1550   11.6090 N   0  0  0  0  0  0
   12.7330    3.0570   12.3150 C   0  0  0  0  0  0
   12.1570    3.8320   13.3290 C   0  0  0  0  0  0
   10.7800    3.5620   13.5040 C   0  0  0  0  0  0
    9.9860    4.2120   14.4360 N   0  0  0  0  0  0
   10.2020    3.9970   15.4060 H   0  0  0  0  0  0
    9.9050    5.2170   14.3050 H   0  0  0  0  0  0
   13.0120    4.7720   14.0280 C   0  0  0  0  0  0
   14.3580    4.9040   13.6300 C   0  0  0  0  0  0
   14.7920    4.0680   12.6140 C   0  0  0  0  0  0
   15.8220    4.1020   12.2600 H   0  0  0  0  0  0
   14.0130    3.1670   11.9770 N   0  0  0  0  0  0
   15.3550    5.8770   14.2330 C   0  0  0  0  0  0
   15.8700    5.4240   15.0890 H   0  0  0  0  0  0
   14.7680    6.7080   14.6410 H   0  0  0  0  0  0
   16.3720    6.3250   13.2650 N   0  0  0  0  0  0
   16.0470    7.1360   12.1830 C   0  0  0  0  0  0
   14.7590    7.6820   12.0430 C   0  0  0  0  0  0
   13.9910    7.4940   12.7920 H   0  0  0  0  0  0
   14.4140    8.5060   10.9630 C   0  0  0  0  0  0
   13.4050    8.9080   10.9040 H   0  0  0  0  0  0
   15.3550    8.8060    9.9840 C   0  0  0  0  0  0
   16.6410    8.2770   10.0910 C   0  0  0  0  0  0
   16.9760    7.4540   11.1780 C   0  0  0  0  0  0
   17.9800    7.0390   11.2080 H   0  0  0  0  0  0
   17.8690    8.5940    8.9120 Cl  0  0  0  0  0  0
   14.8730    9.8270    8.6760 Cl  0  0  0  0  0  0
   17.7820    6.0530   13.5520 C   0  0  0  0  0  0
   18.1450    5.2230   12.9350 H   0  0  0  0  0  0
   17.9370    5.7860   14.6030 H   0  0  0  0  0  0
   18.4060    6.9360   13.3690 H   0  0  0  0  0  0
   12.4760    5.6120   15.1610 C   0  0  0  0  0  0
   12.0060    4.9780   15.9170 H   0  0  0  0  0  0
   11.7640    6.3510   14.7810 H   0  0  0  0  0  0
   13.2520    6.1590   15.6980 H   0  0  0  0  0  0
   10.1160    1.0430   11.1350 N   0  0  0  0  0  0
   10.6010    0.5150   10.4250 H   0  0  0  0  0  0
    9.1340    0.8840   11.3090 H   0  0  0  0  0  0
  1  2  1  0  0  0
  1  6  2  0  0  0
  2  3  2  0  0  0
  2 38  1  0  0  0
  3  4  1  0  0  0
  4  5  2  0  0  0
  4 14  1  0  0  0
  5  6  1  0  0  0
  5 10  1  0  0  0
  6  7  1  0  0  0
  7  8  1  0  0  0
  7  9  1  0  0  0
 10 11  2  0  0  0
 10 34  1  0  0  0
 11 12  1  0  0  0
 11 15  1  0  0  0
 12 13  1  0  0  0
 12 14  2  0  0  0
 15 16  1  0  0  0
 15 17  1  0  0  0
 15 18  1  0  0  0
 18 19  1  0  0  0
 18 30  1  0  0  0
 19 20  1  0  0  0
 19 26  2  0  0  0
 20 21  1  0  0  0
 20 22  2  0  0  0
 22 23  1  0  0  0
 22 24  1  0  0  0
 24 25  2  0  0  0
 24 29  1  0  0  0
 25 26  1  0  0  0
 25 28  1  0  0  0
 26 27  1  0  0  0
 30 31  1  0  0  0
 30 32  1  0  0  0
 30 33  1  0  0  0
 34 35  1  0  0  0
 34 36  1  0  0  0
 34 37  1  0  0  0
 38 39  1  0  0  0
 38 40  1  0  0  0
M  END
>  <ACTIVITY>
7.38

>  <SET>
1

>  <Min_dist>
999.9

>  <Avg_dist>
999.9

$$$$
14-28
  Cerius2 12110214133D 1   1.00000                          
Structure written by Cerius2 SD Exporter
 43 45  0  0  0  0  0  0  0  0999 V2000
   10.1130    2.5740   12.8580 N   0  0  0  0  0  0
   10.7460    1.9470   11.8750 C   0  0  0  0  0  0
   12.0170    2.1600   11.5530 N   0  0  0  0  0  0
   12.7040    3.0650   12.2610 C   0  0  0  0  0  0
   12.1630    3.8040   13.3210 C   0  0  0  0  0  0
   10.8070    3.4840   13.5680 C   0  0  0  0  0  0
   10.0630    4.0870   14.5780 N   0  0  0  0  0  0
   10.4420    3.9220   15.5100 H   0  0  0  0  0  0
    9.9630    5.0940   14.4570 H   0  0  0  0  0  0
   13.0140    4.7530   13.9960 C   0  0  0  0  0  0
   14.3610    4.9340   13.6170 C   0  0  0  0  0  0
   14.8490    4.1740   12.5500 C   0  0  0  0  0  0
   15.8780    4.2940   12.2130 H   0  0  0  0  0  0
   14.0250    3.2600   11.8950 C   0  0  0  0  0  0
   14.4400    2.6860   11.0670 H   0  0  0  0  0  0
   15.3000    5.9280   14.2710 C   0  0  0  0  0  0
   15.7770    5.4370   15.1300 H   0  0  0  0  0  0
   14.7450    6.7820   14.6670 H   0  0  0  0  0  0
   16.3110    6.3510   13.3160 N   0  0  0  0  0  0
   17.2680    6.0670   13.5220 H   0  0  0  0  0  0
   16.1000    7.1360   12.1910 C   0  0  0  0  0  0
   14.8040    7.6690   12.0290 C   0  0  0  0  0  0
   14.0410    7.4500   12.7760 H   0  0  0  0  0  0
   14.4500    8.4710   10.9380 C   0  0  0  0  0  0
   15.4090    8.7580    9.9770 C   0  0  0  0  0  0
   15.1920    9.3760    9.1100 H   0  0  0  0  0  0
   16.7040    8.2470   10.1080 C   0  0  0  0  0  0
   17.4160    8.5030    9.3270 H   0  0  0  0  0  0
   17.0610    7.4410   11.2000 C   0  0  0  0  0  0
   18.3220    6.9210   11.3620 O   0  0  0  0  0  0
   19.3250    7.2810   10.4140 C   0  0  0  0  0  0
   20.2540    6.7870   10.7130 H   0  0  0  0  0  0
   19.5050    8.3610   10.4200 H   0  0  0  0  0  0
   19.0660    6.9220    9.4130 H   0  0  0  0  0  0
   13.1520    8.9010   10.9340 O   0  0  0  0  0  0
   12.7600    9.7490    9.8550 C   0  0  0  0  0  0
   11.7040    9.9990    9.9940 H   0  0  0  0  0  0
   12.8570    9.2320    8.8940 H   0  0  0  0  0  0
   13.3290   10.6840    9.8620 H   0  0  0  0  0  0
   12.3890    5.7210   15.3050 Cl  0  0  0  0  0  0
   10.0520    1.0290   11.1490 N   0  0  0  0  0  0
   10.5040    0.5450   10.3880 H   0  0  0  0  0  0
    9.0820    0.8510   11.3670 H   0  0  0  0  0  0
  1  2  1  0  0  0
  1  6  2  0  0  0
  2  3  2  0  0  0
  2 41  1  0  0  0
  3  4  1  0  0  0
  4  5  2  0  0  0
  4 14  1  0  0  0
  5  6  1  0  0  0
  5 10  1  0  0  0
  6  7  1  0  0  0
  7  8  1  0  0  0
  7  9  1  0  0  0
 10 11  2  0  0  0
 10 40  1  0  0  0
 11 12  1  0  0  0
 11 16  1  0  0  0
 12 13  1  0  0  0
 12 14  2  0  0  0
 14 15  1  0  0  0
 16 17  1  0  0  0
 16 18  1  0  0  0
 16 19  1  0  0  0
 19 20  1  0  0  0
 19 21  1  0  0  0
 21 22  1  0  0  0
 21 29  2  0  0  0
 22 23  1  0  0  0
 22 24  2  0  0  0
 24 25  1  0  0  0
 24 35  1  0  0  0
 25 26  1  0  0  0
 25 27  2  0  0  0
 27 28  1  0  0  0
 27 29  1  0  0  0
 29 30  1  0  0  0
 30 31  1  0  0  0
 31 32  1  0  0  0
 31 33  1  0  0  0
 31 34  1  0  0  0
 35 36  1  0  0  0
 36 37  1  0  0  0
 36 38  1  0  0  0
 36 39  1  0  0  0
 41 42  1  0  0  0
 41 43  1  0  0  0
M  END
>  <ACTIVITY>
7.36

>  <SET>
1

>  <Min_dist>
999.9

>  <Avg_dist>
999.9

$$$$
14-29
  Cerius2 12110214133D 1   1.00000                          
Structure written by Cerius2 SD Exporter
 47 49  0  0  0  0  0  0  0  0999 V2000
   10.1140    2.5850   12.8570 N   0  0  0  0  0  0
   10.7430    1.9550   11.8730 C   0  0  0  0  0  0
   12.0150    2.1610   11.5520 N   0  0  0  0  0  0
   12.7080    3.0600   12.2620 C   0  0  0  0  0  0
   12.1720    3.7970   13.3260 C   0  0  0  0  0  0
   10.8140    3.4880   13.5700 C   0  0  0  0  0  0
   10.0750    4.0900   14.5840 N   0  0  0  0  0  0
   10.4430    3.9000   15.5160 H   0  0  0  0  0  0
   10.0010    5.1020   14.4800 H   0  0  0  0  0  0
   13.0310    4.7360   14.0050 C   0  0  0  0  0  0
   14.3780    4.9090   13.6270 C   0  0  0  0  0  0
   14.8590    4.1570   12.5520 C   0  0  0  0  0  0
   15.8890    4.2720   12.2130 H   0  0  0  0  0  0
   14.0300    3.2510   11.8950 C   0  0  0  0  0  0
   14.4400    2.6790   11.0630 H   0  0  0  0  0  0
   15.3220    5.8880   14.2930 C   0  0  0  0  0  0
   15.8170    5.3880   15.1350 H   0  0  0  0  0  0
   14.7670    6.7280   14.7260 H   0  0  0  0  0  0
   16.3160    6.3480   13.3380 N   0  0  0  0  0  0
   17.2830    6.0840   13.5190 H   0  0  0  0  0  0
   16.0440    7.1220   12.2270 C   0  0  0  0  0  0
   14.7600    7.6650   12.0860 C   0  0  0  0  0  0
   14.0000    7.4700   12.8410 H   0  0  0  0  0  0
   14.4360    8.4670   10.9910 C   0  0  0  0  0  0
   15.3760    8.6980    9.9860 C   0  0  0  0  0  0
   16.6750    8.1870   10.1090 C   0  0  0  0  0  0
   16.9930    7.4020   11.2290 C   0  0  0  0  0  0
   17.9940    6.9950   11.3350 H   0  0  0  0  0  0
   17.5430    8.5050    9.0960 O   0  0  0  0  0  0
   18.8500    7.9380    9.1540 C   0  0  0  0  0  0
   19.4000    8.2790    8.2710 H   0  0  0  0  0  0
   18.8080    6.8450    9.1170 H   0  0  0  0  0  0
   19.3910    8.2870   10.0400 H   0  0  0  0  0  0
   15.0440    9.4890    8.9120 O   0  0  0  0  0  0
   16.1680    9.6180    8.0350 C   0  0  0  0  0  0
   15.8640   10.2490    7.1950 H   0  0  0  0  0  0
   16.4730    8.6450    7.6340 H   0  0  0  0  0  0
   17.0110   10.1040    8.5390 H   0  0  0  0  0  0
   13.1610    8.9600   10.8900 O   0  0  0  0  0  0
   13.0400    9.7550    9.7050 C   0  0  0  0  0  0
   12.0170   10.1420    9.6660 H   0  0  0  0  0  0
   13.2110    9.1540    8.8050 H   0  0  0  0  0  0
   13.7260   10.6090    9.7300 H   0  0  0  0  0  0
   12.4180    5.7030   15.3200 Cl  0  0  0  0  0  0
   10.0430    1.0440   11.1450 N   0  0  0  0  0  0
   10.4970    0.5510   10.3900 H   0  0  0  0  0  0
    9.0740    0.8670   11.3630 H   0  0  0  0  0  0
  1  2  1  0  0  0
  1  6  2  0  0  0
  2  3  2  0  0  0
  2 45  1  0  0  0
  3  4  1  0  0  0
  4  5  2  0  0  0
  4 14  1  0  0  0
  5  6  1  0  0  0
  5 10  1  0  0  0
  6  7  1  0  0  0
  7  8  1  0  0  0
  7  9  1  0  0  0
 10 11  2  0  0  0
 10 44  1  0  0  0
 11 12  1  0  0  0
 11 16  1  0  0  0
 12 13  1  0  0  0
 12 14  2  0  0  0
 14 15  1  0  0  0
 16 17  1  0  0  0
 16 18  1  0  0  0
 16 19  1  0  0  0
 19 20  1  0  0  0
 19 21  1  0  0  0
 21 22  1  0  0  0
 21 27  2  0  0  0
 22 23  1  0  0  0
 22 24  2  0  0  0
 24 25  1  0  0  0
 24 39  1  0  0  0
 25 26  2  0  0  0
 25 34  1  0  0  0
 26 27  1  0  0  0
 26 29  1  0  0  0
 27 28  1  0  0  0
 29 30  1  0  0  0
 30 31  1  0  0  0
 30 32  1  0  0  0
 30 33  1  0  0  0
 34 35  1  0  0  0
 35 36  1  0  0  0
 35 37  1  0  0  0
 35 38  1  0  0  0
 39 40  1  0  0  0
 40 41  1  0  0  0
 40 42  1  0  0  0
 40 43  1  0  0  0
 45 46  1  0  0  0
 45 47  1  0  0  0
M  END
>  <ACTIVITY>
8.23

>  <SET>
1

>  <Min_dist>
999.9

>  <Avg_dist>
999.9

$$$$
14-5
  Cerius2 12110214133D 1   1.00000                          
Structure written by Cerius2 SD Exporter
 42 44  0  0  0  0  0  0  0  0999 V2000
   10.1580    2.6350   12.9100 N   0  0  0  0  0  0
   10.7270    1.9590   11.9130 C   0  0  0  0  0  0
   11.9920    2.1150   11.5270 N   0  0  0  0  0  0
   12.7360    3.0170   12.1930 C   0  0  0  0  0  0
   12.2660    3.7880   13.2580 C   0  0  0  0  0  0
   10.9300    3.5220   13.5710 C   0  0  0  0  0  0
   10.2830    4.2360   14.5740 N   0  0  0  0  0  0
   10.8520    4.5780   15.3440 H   0  0  0  0  0  0
    9.3280    3.9680   14.7830 H   0  0  0  0  0  0
   13.0400    4.6980   13.9260 N   0  0  0  0  0  0
   14.3330    4.8640   13.5320 C   0  0  0  0  0  0
   14.8690    4.1370   12.4800 C   0  0  0  0  0  0
   15.9020    4.2760   12.1710 H   0  0  0  0  0  0
   14.0570    3.2150   11.8200 C   0  0  0  0  0  0
   14.4730    2.6410   10.9940 H   0  0  0  0  0  0
   15.2070    5.8800   14.2650 C   0  0  0  0  0  0
   15.6700    5.3710   15.1180 H   0  0  0  0  0  0
   14.5560    6.6890   14.6170 H   0  0  0  0  0  0
   16.2350    6.4140   13.3810 N   0  0  0  0  0  0
   17.1860    6.2060   13.6900 H   0  0  0  0  0  0
   16.0430    7.1620   12.2340 C   0  0  0  0  0  0
   14.7560    7.7040   12.0410 C   0  0  0  0  0  0
   13.9810    7.5100   12.7830 H   0  0  0  0  0  0
   14.4270    8.4860   10.9290 C   0  0  0  0  0  0
   15.4020    8.7420    9.9760 C   0  0  0  0  0  0
   15.2040    9.3430    9.0920 H   0  0  0  0  0  0
   16.6900    8.2200   10.1370 C   0  0  0  0  0  0
   17.4170    8.4530    9.3620 H   0  0  0  0  0  0
   17.0220    7.4340   11.2520 C   0  0  0  0  0  0
   18.2740    6.9050   11.4470 O   0  0  0  0  0  0
   19.2930    7.2300   10.5040 C   0  0  0  0  0  0
   20.2010    6.6960   10.8010 H   0  0  0  0  0  0
   19.5170    8.3020   10.5210 H   0  0  0  0  0  0
   19.0220    6.8930    9.4980 H   0  0  0  0  0  0
   13.1340    8.9310   10.8980 O   0  0  0  0  0  0
   12.7720    9.7770    9.8070 C   0  0  0  0  0  0
   11.7200   10.0490    9.9320 H   0  0  0  0  0  0
   12.8710    9.2500    8.8520 H   0  0  0  0  0  0
   13.3600   10.7010    9.8150 H   0  0  0  0  0  0
    9.9680    1.0520   11.2430 N   0  0  0  0  0  0
   10.3720    0.5250   10.4830 H   0  0  0  0  0  0
    9.0040    0.9110   11.5080 H   0  0  0  0  0  0
  1  2  1  0  0  0
  1  6  2  0  0  0
  2  3  2  0  0  0
  2 40  1  0  0  0
  3  4  1  0  0  0
  4  5  2  0  0  0
  4 14  1  0  0  0
  5  6  1  0  0  0
  5 10  1  0  0  0
  6  7  1  0  0  0
  7  8  1  0  0  0
  7  9  1  0  0  0
 10 11  2  0  0  0
 11 12  1  0  0  0
 11 16  1  0  0  0
 12 13  1  0  0  0
 12 14  2  0  0  0
 14 15  1  0  0  0
 16 17  1  0  0  0
 16 18  1  0  0  0
 16 19  1  0  0  0
 19 20  1  0  0  0
 19 21  1  0  0  0
 21 22  1  0  0  0
 21 29  2  0  0  0
 22 23  1  0  0  0
 22 24  2  0  0  0
 24 25  1  0  0  0
 24 35  1  0  0  0
 25 26  1  0  0  0
 25 27  2  0  0  0
 27 28  1  0  0  0
 27 29  1  0  0  0
 29 30  1  0  0  0
 30 31  1  0  0  0
 31 32  1  0  0  0
 31 33  1  0  0  0
 31 34  1  0  0  0
 35 36  1  0  0  0
 36 37  1  0  0  0
 36 38  1  0  0  0
 36 39  1  0  0  0
 40 41  1  0  0  0
 40 42  1  0  0  0
M  END
>  <ACTIVITY>
6.37

>  <SET>
1

>  <Min_dist>
999.9

>  <Avg_dist>
999.9

$$$$
14-8
  Cerius2 12110214133D 1   1.00000                          
Structure written by Cerius2 SD Exporter
 37 39  0  0  0  0  0  0  0  0999 V2000
   10.1510    2.6380   12.9120 N   0  0  0  0  0  0
   10.7120    1.9610   11.9120 C   0  0  0  0  0  0
   11.9780    2.1070   11.5240 N   0  0  0  0  0  0
   12.7310    3.0010   12.1910 C   0  0  0  0  0  0
   12.2680    3.7730   13.2580 C   0  0  0  0  0  0
   10.9310    3.5170   13.5740 C   0  0  0  0  0  0
   10.2940    4.2350   14.5790 N   0  0  0  0  0  0
   10.8700    4.5750   15.3450 H   0  0  0  0  0  0
    9.3370    3.9780   14.7930 H   0  0  0  0  0  0
   13.0510    4.6760   13.9260 N   0  0  0  0  0  0
   14.3430    4.8350   13.5350 C   0  0  0  0  0  0
   14.8710    4.1060   12.4790 C   0  0  0  0  0  0
   15.9040    4.2360   12.1660 H   0  0  0  0  0  0
   14.0520    3.1910   11.8170 C   0  0  0  0  0  0
   14.4630    2.6150   10.9900 H   0  0  0  0  0  0
   15.2070    5.8470   14.2810 C   0  0  0  0  0  0
   15.6140    5.2980   15.1390 H   0  0  0  0  0  0
   14.5890    6.6600   14.6830 H   0  0  0  0  0  0
   16.2850    6.4280   13.4510 N   0  0  0  0  0  0
   16.0070    7.1700   12.3120 C   0  0  0  0  0  0
   16.9780    7.4190   11.3260 C   0  0  0  0  0  0
   17.9980    7.0550   11.4390 H   0  0  0  0  0  0
   16.6950    8.1710   10.1770 C   0  0  0  0  0  0
   17.4790    8.3420    9.4430 H   0  0  0  0  0  0
   15.4230    8.6950    9.9880 C   0  0  0  0  0  0
   14.4380    8.4740   10.9410 C   0  0  0  0  0  0
   13.4360    8.8750   10.8080 H   0  0  0  0  0  0
   14.7330    7.7220   12.0870 C   0  0  0  0  0  0
   13.9240    7.5590   12.7980 H   0  0  0  0  0  0
   15.0690    9.6170    8.5800 Cl  0  0  0  0  0  0
   17.6730    6.1190   13.8000 C   0  0  0  0  0  0
   18.1300    6.9580   14.3350 H   0  0  0  0  0  0
   18.2690    5.8960   12.9070 H   0  0  0  0  0  0
   17.7410    5.2310   14.4370 H   0  0  0  0  0  0
    9.9430    1.0640   11.2390 N   0  0  0  0  0  0
   10.3390    0.5390   10.4740 H   0  0  0  0  0  0
    8.9780    0.9320   11.5050 H   0  0  0  0  0  0
  1  2  1  0  0  0
  1  6  2  0  0  0
  2  3  2  0  0  0
  2 35  1  0  0  0
  3  4  1  0  0  0
  4  5  2  0  0  0
  4 14  1  0  0  0
  5  6  1  0  0  0
  5 10  1  0  0  0
  6  7  1  0  0  0
  7  8  1  0  0  0
  7  9  1  0  0  0
 10 11  2  0  0  0
 11 12  1  0  0  0
 11 16  1  0  0  0
 12 13  1  0  0  0
 12 14  2  0  0  0
 14 15  1  0  0  0
 16 17  1  0  0  0
 16 18  1  0  0  0
 16 19  1  0  0  0
 19 20  1  0  0  0
 19 31  1  0  0  0
 20 21  1  0  0  0
 20 28  2  0  0  0
 21 22  1  0  0  0
 21 23  2  0  0  0
 23 24  1  0  0  0
 23 25  1  0  0  0
 25 26  2  0  0  0
 25 30  1  0  0  0
 26 27  1  0  0  0
 26 28  1  0  0  0
 28 29  1  0  0  0
 31 32  1  0  0  0
 31 33  1  0  0  0
 31 34  1  0  0  0
 35 36  1  0  0  0
 35 37  1  0  0  0
M  END
>  <ACTIVITY>
7.66

>  <SET>
1

>  <Min_dist>
999.9

>  <Avg_dist>
999.9

$$$$
14-9
  Cerius2 12110214133D 1   1.00000                          
Structure written by Cerius2 SD Exporter
 37 39  0  0  0  0  0  0  0  0999 V2000
   10.1510    2.6380   12.9130 N   0  0  0  0  0  0
   10.7120    1.9600   11.9130 C   0  0  0  0  0  0
   11.9780    2.1070   11.5240 N   0  0  0  0  0  0
   12.7300    3.0020   12.1890 C   0  0  0  0  0  0
   12.2680    3.7730   13.2570 C   0  0  0  0  0  0
   10.9310    3.5180   13.5730 C   0  0  0  0  0  0
   10.2950    4.2380   14.5780 N   0  0  0  0  0  0
   10.8710    4.5810   15.3410 H   0  0  0  0  0  0
    9.3380    3.9810   14.7930 H   0  0  0  0  0  0
   13.0510    4.6770   13.9250 N   0  0  0  0  0  0
   14.3420    4.8350   13.5340 C   0  0  0  0  0  0
   14.8700    4.1080   12.4760 C   0  0  0  0  0  0
   15.9030    4.2380   12.1630 H   0  0  0  0  0  0
   14.0510    3.1930   11.8140 C   0  0  0  0  0  0
   14.4610    2.6180   10.9860 H   0  0  0  0  0  0
   15.2080    5.8440   14.2840 C   0  0  0  0  0  0
   15.6160    5.2900   15.1380 H   0  0  0  0  0  0
   14.5920    6.6560   14.6880 H   0  0  0  0  0  0
   16.2850    6.4270   13.4530 N   0  0  0  0  0  0
   16.0050    7.1700   12.3130 C   0  0  0  0  0  0
   14.7320    7.7200   12.0750 C   0  0  0  0  0  0
   13.9120    7.5560   12.7710 H   0  0  0  0  0  0
   14.4490    8.4700   10.9250 C   0  0  0  0  0  0
   13.4500    8.8740   10.7750 H   0  0  0  0  0  0
   15.4380    8.6890    9.9740 C   0  0  0  0  0  0
   15.2150    9.2700    9.0830 H   0  0  0  0  0  0
   16.7040    8.1550   10.1810 C   0  0  0  0  0  0
   16.9820    7.4060   11.3300 C   0  0  0  0  0  0
   17.9920    7.0240   11.4590 H   0  0  0  0  0  0
   17.9420    8.4190    9.0130 Cl  0  0  0  0  0  0
   17.6730    6.1270   13.8060 C   0  0  0  0  0  0
   18.1220    6.9690   14.3430 H   0  0  0  0  0  0
   18.2730    5.9080   12.9160 H   0  0  0  0  0  0
   17.7440    5.2400   14.4440 H   0  0  0  0  0  0
    9.9450    1.0610   11.2420 N   0  0  0  0  0  0
   10.3420    0.5340   10.4790 H   0  0  0  0  0  0
    8.9810    0.9270   11.5100 H   0  0  0  0  0  0
  1  2  1  0  0  0
  1  6  2  0  0  0
  2  3  2  0  0  0
  2 35  1  0  0  0
  3  4  1  0  0  0
  4  5  2  0  0  0
  4 14  1  0  0  0
  5  6  1  0  0  0
  5 10  1  0  0  0
  6  7  1  0  0  0
  7  8  1  0  0  0
  7  9  1  0  0  0
 10 11  2  0  0  0
 11 12  1  0  0  0
 11 16  1  0  0  0
 12 13  1  0  0  0
 12 14  2  0  0  0
 14 15  1  0  0  0
 16 17  1  0  0  0
 16 18  1  0  0  0
 16 19  1  0  0  0
 19 20  1  0  0  0
 19 31  1  0  0  0
 20 21  1  0  0  0
 20 28  2  0  0  0
 21 22  1  0  0  0
 21 23  2  0  0  0
 23 24  1  0  0  0
 23 25  1  0  0  0
 25 26  1  0  0  0
 25 27  2  0  0  0
 27 28  1  0  0  0
 27 30  1  0  0  0
 28 29  1  0  0  0
 31 32  1  0  0  0
 31 33  1  0  0  0
 31 34  1  0  0  0
 35 36  1  0  0  0
 35 37  1  0  0  0
M  END
>  <ACTIVITY>
7.17

>  <SET>
1

>  <Min_dist>
999.9

>  <Avg_dist>
999.9

$$$$
15-10
  Cerius2 12110214133D 1   1.00000                          
Structure written by Cerius2 SD Exporter
 41 44  0  0  0  0  0  0  0  0999 V2000
   10.1800    2.7370   12.8520 N   0  0  0  0  0  0
   10.7730    2.0540   11.8740 C   0  0  0  0  0  0
   12.0570    2.1750   11.5380 N   0  0  0  0  0  0
   12.8000    3.0520   12.2250 C   0  0  0  0  0  0
   12.2890    3.8230   13.2690 C   0  0  0  0  0  0
   10.9370    3.5960   13.5530 C   0  0  0  0  0  0
   10.2650    4.2960   14.5410 N   0  0  0  0  0  0
   10.7490    4.4810   15.4140 H   0  0  0  0  0  0
    9.2860    4.0490   14.6500 H   0  0  0  0  0  0
   13.1320    4.7500   13.9450 C   0  0  0  0  0  0
   12.7040    5.3490   14.7450 H   0  0  0  0  0  0
   14.4760    4.9110   13.6030 C   0  0  0  0  0  0
   14.9630    4.1210   12.5620 C   0  0  0  0  0  0
   16.0040    4.2030   12.2520 H   0  0  0  0  0  0
   14.1360    3.2120   11.8890 C   0  0  0  0  0  0
   14.5580    2.6190   11.0790 H   0  0  0  0  0  0
   15.3260    5.7930   14.2310 N   0  0  0  0  0  0
   15.1770    6.0010   15.2170 H   0  0  0  0  0  0
   16.4410    6.4680   13.5880 C   0  0  0  0  0  0
   17.2380    5.7620   13.3260 H   0  0  0  0  0  0
   16.8870    7.1920   14.2810 H   0  0  0  0  0  0
   15.9670    7.1900   12.3390 C   0  0  0  0  0  0
   16.8450    7.5270   11.2680 C   0  0  0  0  0  0
   16.3160    8.2100   10.1420 C   0  0  0  0  0  0
   14.9510    8.5280   10.0920 C   0  0  0  0  0  0
   14.5360    9.0510    9.2300 H   0  0  0  0  0  0
   14.0970    8.1800   11.1340 C   0  0  0  0  0  0
   13.0390    8.4270   11.0790 H   0  0  0  0  0  0
   14.6000    7.5130   12.2470 C   0  0  0  0  0  0
   13.9160    7.2450   13.0520 H   0  0  0  0  0  0
   17.1560    8.5650    9.0740 C   0  0  0  0  0  0
   16.7560    9.0910    8.2070 H   0  0  0  0  0  0
   18.5150    8.2530    9.0940 C   0  0  0  0  0  0
   19.1520    8.5340    8.2580 H   0  0  0  0  0  0
   19.0490    7.5790   10.1840 C   0  0  0  0  0  0
   20.1080    7.3270   10.2040 H   0  0  0  0  0  0
   18.2260    7.2200   11.2540 C   0  0  0  0  0  0
   18.6860    6.6830   12.0830 H   0  0  0  0  0  0
   10.0170    1.1700   11.1680 N   0  0  0  0  0  0
   10.4370    0.6370   10.4210 H   0  0  0  0  0  0
    9.0410    1.0530   11.3960 H   0  0  0  0  0  0
  1  2  1  0  0  0
  1  6  2  0  0  0
  2  3  2  0  0  0
  2 39  1  0  0  0
  3  4  1  0  0  0
  4  5  2  0  0  0
  4 15  1  0  0  0
  5  6  1  0  0  0
  5 10  1  0  0  0
  6  7  1  0  0  0
  7  8  1  0  0  0
  7  9  1  0  0  0
 10 11  1  0  0  0
 10 12  2  0  0  0
 12 13  1  0  0  0
 12 17  1  0  0  0
 13 14  1  0  0  0
 13 15  2  0  0  0
 15 16  1  0  0  0
 17 18  1  0  0  0
 17 19  1  0  0  0
 19 20  1  0  0  0
 19 21  1  0  0  0
 19 22  1  0  0  0
 22 23  1  0  0  0
 22 29  2  0  0  0
 23 24  2  0  0  0
 23 37  1  0  0  0
 24 25  1  0  0  0
 24 31  1  0  0  0
 25 26  1  0  0  0
 25 27  2  0  0  0
 27 28  1  0  0  0
 27 29  1  0  0  0
 29 30  1  0  0  0
 31 32  1  0  0  0
 31 33  2  0  0  0
 33 34  1  0  0  0
 33 35  1  0  0  0
 35 36  1  0  0  0
 35 37  2  0  0  0
 37 38  1  0  0  0
 39 40  1  0  0  0
 39 41  1  0  0  0
M  END
>  <ACTIVITY>
6.72

>  <SET>
1

>  <Min_dist>
999.9

>  <Avg_dist>
999.9

$$$$
15-11
  Cerius2 12110214133D 1   1.00000                          
Structure written by Cerius2 SD Exporter
 46 48  0  0  0  0  0  0  0  0999 V2000
   10.1530    2.7110   12.8260 N   0  0  0  0  0  0
   10.7480    2.0310   11.8460 C   0  0  0  0  0  0
   12.0320    2.1560   11.5130 N   0  0  0  0  0  0
   12.7730    3.0310   12.2070 C   0  0  0  0  0  0
   12.2620    3.7940   13.2530 C   0  0  0  0  0  0
   10.9080    3.5670   13.5320 C   0  0  0  0  0  0
   10.2330    4.2630   14.5200 N   0  0  0  0  0  0
   10.7130    4.4440   15.3950 H   0  0  0  0  0  0
    9.2530    4.0160   14.6220 H   0  0  0  0  0  0
   13.1090    4.7160   13.9370 C   0  0  0  0  0  0
   12.6620    5.3040   14.7350 H   0  0  0  0  0  0
   14.4630    4.8970   13.6110 C   0  0  0  0  0  0
   14.9350    4.1050   12.5590 C   0  0  0  0  0  0
   15.9720    4.1550   12.2330 H   0  0  0  0  0  0
   14.1070    3.1980   11.8770 C   0  0  0  0  0  0
   14.5330    2.6100   11.0650 H   0  0  0  0  0  0
   15.2740    5.7940   14.2920 N   0  0  0  0  0  0
   16.3210    6.5880   13.6190 C   0  0  0  0  0  0
   17.1690    5.9380   13.3650 H   0  0  0  0  0  0
   16.7230    7.3280   14.3220 H   0  0  0  0  0  0
   15.8710    7.2640   12.3320 C   0  0  0  0  0  0
   14.5380    7.6730   12.1290 C   0  0  0  0  0  0
   13.7990    7.5290   12.9150 H   0  0  0  0  0  0
   14.1290    8.2750   10.9360 C   0  0  0  0  0  0
   15.0600    8.4630    9.9190 C   0  0  0  0  0  0
   14.7940    8.9270    8.9730 H   0  0  0  0  0  0
   16.3850    8.0480   10.0920 C   0  0  0  0  0  0
   17.0710    8.2110    9.2640 H   0  0  0  0  0  0
   16.7970    7.4460   11.2850 C   0  0  0  0  0  0
   18.0700    6.9970   11.5280 O   0  0  0  0  0  0
   19.0190    7.1090   10.4700 C   0  0  0  0  0  0
   19.9680    6.7000   10.8310 H   0  0  0  0  0  0
   19.1880    8.1570   10.2010 H   0  0  0  0  0  0
   18.7120    6.5180    9.6010 H   0  0  0  0  0  0
   12.8090    8.6270   10.8920 O   0  0  0  0  0  0
   12.3470    9.2460    9.6910 C   0  0  0  0  0  0
   11.2840    9.4680    9.8200 H   0  0  0  0  0  0
   12.4460    8.5680    8.8370 H   0  0  0  0  0  0
   12.8670   10.1920    9.5110 H   0  0  0  0  0  0
   15.0600    6.0790   15.7140 C   0  0  0  0  0  0
   15.8650    6.6970   16.1280 H   0  0  0  0  0  0
   15.0480    5.1540   16.3020 H   0  0  0  0  0  0
   14.1200    6.6200   15.8620 H   0  0  0  0  0  0
    9.9950    1.1490   11.1360 N   0  0  0  0  0  0
   10.4170    0.6160   10.3900 H   0  0  0  0  0  0
    9.0200    1.0240   11.3670 H   0  0  0  0  0  0
  1  2  1  0  0  0
  1  6  2  0  0  0
  2  3  2  0  0  0
  2 44  1  0  0  0
  3  4  1  0  0  0
  4  5  2  0  0  0
  4 15  1  0  0  0
  5  6  1  0  0  0
  5 10  1  0  0  0
  6  7  1  0  0  0
  7  8  1  0  0  0
  7  9  1  0  0  0
 10 11  1  0  0  0
 10 12  2  0  0  0
 12 13  1  0  0  0
 12 17  1  0  0  0
 13 14  1  0  0  0
 13 15  2  0  0  0
 15 16  1  0  0  0
 17 18  1  0  0  0
 17 40  1  0  0  0
 18 19  1  0  0  0
 18 20  1  0  0  0
 18 21  1  0  0  0
 21 22  1  0  0  0
 21 29  2  0  0  0
 22 23  1  0  0  0
 22 24  2  0  0  0
 24 25  1  0  0  0
 24 35  1  0  0  0
 25 26  1  0  0  0
 25 27  2  0  0  0
 27 28  1  0  0  0
 27 29  1  0  0  0
 29 30  1  0  0  0
 30 31  1  0  0  0
 31 32  1  0  0  0
 31 33  1  0  0  0
 31 34  1  0  0  0
 35 36  1  0  0  0
 36 37  1  0  0  0
 36 38  1  0  0  0
 36 39  1  0  0  0
 40 41  1  0  0  0
 40 42  1  0  0  0
 40 43  1  0  0  0
 44 45  1  0  0  0
 44 46  1  0  0  0
M  END
>  <ACTIVITY>
7.59

>  <SET>
1

>  <Min_dist>
999.9

>  <Avg_dist>
999.9

$$$$
15-12
  Cerius2 12110214133D 1   1.00000                          
Structure written by Cerius2 SD Exporter
 46 48  0  0  0  0  0  0  0  0999 V2000
   10.1550    2.7240   12.8340 N   0  0  0  0  0  0
   10.7410    2.0420   11.8510 C   0  0  0  0  0  0
   12.0280    2.1490   11.5220 N   0  0  0  0  0  0
   12.7770    3.0140   12.2170 C   0  0  0  0  0  0
   12.2760    3.7840   13.2620 C   0  0  0  0  0  0
   10.9210    3.5690   13.5430 C   0  0  0  0  0  0
   10.2550    4.2630   14.5390 N   0  0  0  0  0  0
   10.7400    4.4320   15.4140 H   0  0  0  0  0  0
    9.2740    4.0220   14.6430 H   0  0  0  0  0  0
   13.1340    4.6990   13.9440 C   0  0  0  0  0  0
   12.6900    5.2920   14.7390 H   0  0  0  0  0  0
   14.4910    4.8620   13.6210 C   0  0  0  0  0  0
   14.9520    4.0600   12.5690 C   0  0  0  0  0  0
   15.9870    4.1030   12.2370 H   0  0  0  0  0  0
   14.1130    3.1620   11.8890 C   0  0  0  0  0  0
   14.5320    2.5680   11.0770 H   0  0  0  0  0  0
   15.3220    5.7500   14.2890 N   0  0  0  0  0  0
   16.3740    6.5300   13.6110 C   0  0  0  0  0  0
   17.2160    5.8820   13.3340 H   0  0  0  0  0  0
   16.7980    7.2620   14.3100 H   0  0  0  0  0  0
   15.8950    7.2100   12.3410 C   0  0  0  0  0  0
   16.7760    7.5600   11.3060 C   0  0  0  0  0  0
   17.8330    7.3130   11.3870 H   0  0  0  0  0  0
   16.3230    8.2180   10.1590 C   0  0  0  0  0  0
   14.9730    8.5490   10.0520 C   0  0  0  0  0  0
   14.5840    9.0660    9.1780 H   0  0  0  0  0  0
   14.0780    8.2300   11.0790 C   0  0  0  0  0  0
   14.5400    7.5670   12.2190 C   0  0  0  0  0  0
   13.8650    7.3160   13.0330 H   0  0  0  0  0  0
   12.7860    8.6220   10.8510 O   0  0  0  0  0  0
   12.5140    9.2480    9.5980 C   0  0  0  0  0  0
   11.4500    9.5000    9.5760 H   0  0  0  0  0  0
   12.7140    8.5650    8.7660 H   0  0  0  0  0  0
   13.0800   10.1800    9.4940 H   0  0  0  0  0  0
   17.2920    8.4840    9.2300 O   0  0  0  0  0  0
   18.6190    8.0650    9.5460 C   0  0  0  0  0  0
   19.2700    8.3780    8.7240 H   0  0  0  0  0  0
   18.6780    6.9740    9.6220 H   0  0  0  0  0  0
   18.9790    8.5490   10.4600 H   0  0  0  0  0  0
   15.1310    6.0250   15.7180 C   0  0  0  0  0  0
   15.9040    6.6940   16.1120 H   0  0  0  0  0  0
   15.1920    5.1030   16.3060 H   0  0  0  0  0  0
   14.1630    6.5080   15.8920 H   0  0  0  0  0  0
    9.9760    1.1770   11.1320 N   0  0  0  0  0  0
   10.3900    0.6550   10.3740 H   0  0  0  0  0  0
    8.9960    1.0750   11.3510 H   0  0  0  0  0  0
  1  2  1  0  0  0
  1  6  2  0  0  0
  2  3  2  0  0  0
  2 44  1  0  0  0
  3  4  1  0  0  0
  4  5  2  0  0  0
  4 15  1  0  0  0
  5  6  1  0  0  0
  5 10  1  0  0  0
  6  7  1  0  0  0
  7  8  1  0  0  0
  7  9  1  0  0  0
 10 11  1  0  0  0
 10 12  2  0  0  0
 12 13  1  0  0  0
 12 17  1  0  0  0
 13 14  1  0  0  0
 13 15  2  0  0  0
 15 16  1  0  0  0
 17 18  1  0  0  0
 17 40  1  0  0  0
 18 19  1  0  0  0
 18 20  1  0  0  0
 18 21  1  0  0  0
 21 22  1  0  0  0
 21 28  2  0  0  0
 22 23  1  0  0  0
 22 24  2  0  0  0
 24 25  1  0  0  0
 24 35  1  0  0  0
 25 26  1  0  0  0
 25 27  2  0  0  0
 27 28  1  0  0  0
 27 30  1  0  0  0
 28 29  1  0  0  0
 30 31  1  0  0  0
 31 32  1  0  0  0
 31 33  1  0  0  0
 31 34  1  0  0  0
 35 36  1  0  0  0
 36 37  1  0  0  0
 36 38  1  0  0  0
 36 39  1  0  0  0
 40 41  1  0  0  0
 40 42  1  0  0  0
 40 43  1  0  0  0
 44 45  1  0  0  0
 44 46  1  0  0  0
M  END
>  <ACTIVITY>
8.09

>  <SET>
2

>  <Min_dist>
0.08

>  <Avg_dist>
0.47

$$$$
15-13
  Cerius2 12110214133D 1   1.00000                          
Structure written by Cerius2 SD Exporter
 46 48  0  0  0  0  0  0  0  0999 V2000
   10.1540    2.7140   12.8270 N   0  0  0  0  0  0
   10.7470    2.0350   11.8460 C   0  0  0  0  0  0
   12.0330    2.1550   11.5150 N   0  0  0  0  0  0
   12.7750    3.0260   12.2110 C   0  0  0  0  0  0
   12.2650    3.7910   13.2560 C   0  0  0  0  0  0
   10.9120    3.5670   13.5360 C   0  0  0  0  0  0
   10.2390    4.2610   14.5270 N   0  0  0  0  0  0
   10.7210    4.4360   15.4030 H   0  0  0  0  0  0
    9.2590    4.0150   14.6300 H   0  0  0  0  0  0
   13.1130    4.7120   13.9400 C   0  0  0  0  0  0
   12.6660    5.3010   14.7380 H   0  0  0  0  0  0
   14.4690    4.8880   13.6190 C   0  0  0  0  0  0
   14.9400    4.0930   12.5690 C   0  0  0  0  0  0
   15.9760    4.1430   12.2390 H   0  0  0  0  0  0
   14.1100    3.1890   11.8850 C   0  0  0  0  0  0
   14.5360    2.6000   11.0730 H   0  0  0  0  0  0
   15.2810    5.7850   14.3010 N   0  0  0  0  0  0
   16.3210    6.5900   13.6250 C   0  0  0  0  0  0
   17.1810    5.9580   13.3660 H   0  0  0  0  0  0
   16.7100    7.3300   14.3340 H   0  0  0  0  0  0
   15.8480    7.2490   12.3370 C   0  0  0  0  0  0
   14.5030    7.6090   12.1520 C   0  0  0  0  0  0
   13.7730    7.4490   12.9440 H   0  0  0  0  0  0
   14.0720    8.1840   10.9560 C   0  0  0  0  0  0
   13.0250    8.4620   10.8450 H   0  0  0  0  0  0
   14.9690    8.4000    9.9120 C   0  0  0  0  0  0
   16.3060    8.0270   10.0700 C   0  0  0  0  0  0
   17.0030    8.1840    9.2550 H   0  0  0  0  0  0
   16.7490    7.4470   11.2690 C   0  0  0  0  0  0
   18.0390    7.0350   11.4960 O   0  0  0  0  0  0
   18.9820    7.1900   10.4370 C   0  0  0  0  0  0
   19.9470    6.8220   10.7960 H   0  0  0  0  0  0
   19.1050    8.2450   10.1710 H   0  0  0  0  0  0
   18.6980    6.5880    9.5670 H   0  0  0  0  0  0
   14.4180    8.9720    8.7980 O   0  0  0  0  0  0
   15.2900    9.2160    7.6960 C   0  0  0  0  0  0
   14.7000    9.6810    6.9010 H   0  0  0  0  0  0
   15.7000    8.2800    7.3050 H   0  0  0  0  0  0
   16.0870    9.9150    7.9730 H   0  0  0  0  0  0
   15.0830    6.0490   15.7300 C   0  0  0  0  0  0
   15.8570    6.7120   16.1320 H   0  0  0  0  0  0
   15.1360    5.1220   16.3110 H   0  0  0  0  0  0
   14.1160    6.5350   15.9010 H   0  0  0  0  0  0
    9.9900    1.1590   11.1320 N   0  0  0  0  0  0
   10.4100    0.6280   10.3840 H   0  0  0  0  0  0
    9.0130    1.0430   11.3580 H   0  0  0  0  0  0
  1  2  1  0  0  0
  1  6  2  0  0  0
  2  3  2  0  0  0
  2 44  1  0  0  0
  3  4  1  0  0  0
  4  5  2  0  0  0
  4 15  1  0  0  0
  5  6  1  0  0  0
  5 10  1  0  0  0
  6  7  1  0  0  0
  7  8  1  0  0  0
  7  9  1  0  0  0
 10 11  1  0  0  0
 10 12  2  0  0  0
 12 13  1  0  0  0
 12 17  1  0  0  0
 13 14  1  0  0  0
 13 15  2  0  0  0
 15 16  1  0  0  0
 17 18  1  0  0  0
 17 40  1  0  0  0
 18 19  1  0  0  0
 18 20  1  0  0  0
 18 21  1  0  0  0
 21 22  1  0  0  0
 21 29  2  0  0  0
 22 23  1  0  0  0
 22 24  2  0  0  0
 24 25  1  0  0  0
 24 26  1  0  0  0
 26 27  2  0  0  0
 26 35  1  0  0  0
 27 28  1  0  0  0
 27 29  1  0  0  0
 29 30  1  0  0  0
 30 31  1  0  0  0
 31 32  1  0  0  0
 31 33  1  0  0  0
 31 34  1  0  0  0
 35 36  1  0  0  0
 36 37  1  0  0  0
 36 38  1  0  0  0
 36 39  1  0  0  0
 40 41  1  0  0  0
 40 42  1  0  0  0
 40 43  1  0  0  0
 44 45  1  0  0  0
 44 46  1  0  0  0
M  END
>  <ACTIVITY>
7.37

>  <SET>
1

>  <Min_dist>
999.9

>  <Avg_dist>
999.9

$$$$
15-14
  Cerius2 12110214133D 1   1.00000                          
Structure written by Cerius2 SD Exporter
 50 52  0  0  0  0  0  0  0  0999 V2000
   10.1490    2.7150   12.8170 N   0  0  0  0  0  0
   10.7470    2.0440   11.8330 C   0  0  0  0  0  0
   12.0350    2.1610   11.5140 N   0  0  0  0  0  0
   12.7760    3.0230   12.2230 C   0  0  0  0  0  0
   12.2620    3.7790   13.2720 C   0  0  0  0  0  0
   10.9060    3.5570   13.5400 C   0  0  0  0  0  0
   10.2290    4.2410   14.5350 N   0  0  0  0  0  0
   10.7060    4.4050   15.4150 H   0  0  0  0  0  0
    9.2480    3.9960   14.6290 H   0  0  0  0  0  0
   13.1080    4.6930   13.9690 C   0  0  0  0  0  0
   12.6530    5.2720   14.7680 H   0  0  0  0  0  0
   14.4630    4.8740   13.6530 C   0  0  0  0  0  0
   14.9400    4.0830   12.6000 C   0  0  0  0  0  0
   15.9770    4.1380   12.2770 H   0  0  0  0  0  0
   14.1140    3.1840   11.9060 C   0  0  0  0  0  0
   14.5430    2.6020   11.0920 H   0  0  0  0  0  0
   15.2770    5.7750   14.3260 N   0  0  0  0  0  0
   16.3440    6.5460   13.6540 C   0  0  0  0  0  0
   17.1830    5.8900   13.3890 H   0  0  0  0  0  0
   16.7590    7.2700   14.3660 H   0  0  0  0  0  0
   15.8880    7.2250   12.3750 C   0  0  0  0  0  0
   14.5560    7.6350   12.1930 C   0  0  0  0  0  0
   13.8230    7.4860   12.9840 H   0  0  0  0  0  0
   14.1340    8.2490   11.0060 C   0  0  0  0  0  0
   13.0900    8.5430   10.9370 H   0  0  0  0  0  0
   15.0360    8.4720    9.9660 C   0  0  0  0  0  0
   16.3670    8.0620   10.1320 C   0  0  0  0  0  0
   16.7780    7.4030   11.3030 C   0  0  0  0  0  0
   18.0810    6.9900   11.4450 O   0  0  0  0  0  0
   18.2420    5.6590   10.9410 C   0  0  0  0  0  0
   19.2450    5.3190   11.2170 H   0  0  0  0  0  0
   18.1670    5.6360    9.8490 H   0  0  0  0  0  0
   17.5160    4.9720   11.3900 H   0  0  0  0  0  0
   17.2670    8.2640    9.1100 O   0  0  0  0  0  0
   18.5550    7.7720    9.4960 C   0  0  0  0  0  0
   19.2530    7.9910    8.6820 H   0  0  0  0  0  0
   18.5370    6.6880    9.6460 H   0  0  0  0  0  0
   18.9190    8.2750   10.3990 H   0  0  0  0  0  0
   14.7290    9.0680    8.7710 O   0  0  0  0  0  0
   15.7890    9.2090    7.8260 C   0  0  0  0  0  0
   15.3760    9.6850    6.9320 H   0  0  0  0  0  0
   16.1860    8.2320    7.5320 H   0  0  0  0  0  0
   16.5790    9.8600    8.2160 H   0  0  0  0  0  0
   15.0780    6.0460   15.7530 C   0  0  0  0  0  0
   15.8330    6.7350   16.1480 H   0  0  0  0  0  0
   15.1590    5.1250   16.3410 H   0  0  0  0  0  0
   14.0980    6.5050   15.9260 H   0  0  0  0  0  0
    9.9910    1.1820   11.1010 N   0  0  0  0  0  0
   10.4130    0.6630   10.3460 H   0  0  0  0  0  0
    9.0090    1.0760   11.3110 H   0  0  0  0  0  0
  1  2  1  0  0  0
  1  6  2  0  0  0
  2  3  2  0  0  0
  2 48  1  0  0  0
  3  4  1  0  0  0
  4  5  2  0  0  0
  4 15  1  0  0  0
  5  6  1  0  0  0
  5 10  1  0  0  0
  6  7  1  0  0  0
  7  8  1  0  0  0
  7  9  1  0  0  0
 10 11  1  0  0  0
 10 12  2  0  0  0
 12 13  1  0  0  0
 12 17  1  0  0  0
 13 14  1  0  0  0
 13 15  2  0  0  0
 15 16  1  0  0  0
 17 18  1  0  0  0
 17 44  1  0  0  0
 18 19  1  0  0  0
 18 20  1  0  0  0
 18 21  1  0  0  0
 21 22  1  0  0  0
 21 28  2  0  0  0
 22 23  1  0  0  0
 22 24  2  0  0  0
 24 25  1  0  0  0
 24 26  1  0  0  0
 26 27  2  0  0  0
 26 39  1  0  0  0
 27 28  1  0  0  0
 27 34  1  0  0  0
 28 29  1  0  0  0
 29 30  1  0  0  0
 30 31  1  0  0  0
 30 32  1  0  0  0
 30 33  1  0  0  0
 34 35  1  0  0  0
 35 36  1  0  0  0
 35 37  1  0  0  0
 35 38  1  0  0  0
 39 40  1  0  0  0
 40 41  1  0  0  0
 40 42  1  0  0  0
 40 43  1  0  0  0
 44 45  1  0  0  0
 44 46  1  0  0  0
 44 47  1  0  0  0
 48 49  1  0  0  0
 48 50  1  0  0  0
M  END
>  <ACTIVITY>
7.72

>  <SET>
1

>  <Min_dist>
999.9

>  <Avg_dist>
999.9

$$$$
15-15
  Cerius2 12110214133D 1   1.00000                          
Structure written by Cerius2 SD Exporter
 44 47  0  0  0  0  0  0  0  0999 V2000
   10.1510    2.7150   12.8330 N   0  0  0  0  0  0
   10.7460    2.0330   11.8560 C   0  0  0  0  0  0
   12.0340    2.1470   11.5310 N   0  0  0  0  0  0
   12.7770    3.0160   12.2280 C   0  0  0  0  0  0
   12.2650    3.7830   13.2720 C   0  0  0  0  0  0
   10.9090    3.5650   13.5440 C   0  0  0  0  0  0
   10.2350    4.2650   14.5310 N   0  0  0  0  0  0
   10.7120    4.4380   15.4090 H   0  0  0  0  0  0
    9.2520    4.0250   14.6280 H   0  0  0  0  0  0
   13.1110    4.7040   13.9570 C   0  0  0  0  0  0
   12.6630    5.3160   14.7370 H   0  0  0  0  0  0
   14.4630    4.8740   13.6320 C   0  0  0  0  0  0
   14.9420    4.0790   12.5840 C   0  0  0  0  0  0
   15.9850    4.1300   12.2750 H   0  0  0  0  0  0
   14.1140    3.1740   11.9030 C   0  0  0  0  0  0
   14.5400    2.5810   11.0950 H   0  0  0  0  0  0
   15.2840    5.7740   14.2960 N   0  0  0  0  0  0
   16.3460    6.5190   13.5950 C   0  0  0  0  0  0
   17.1620    5.8640   13.2660 H   0  0  0  0  0  0
   16.7950    7.2300   14.3000 H   0  0  0  0  0  0
   15.8510    7.2480   12.3500 C   0  0  0  0  0  0
   16.6680    7.4460   11.1990 C   0  0  0  0  0  0
   16.1250    8.1430   10.0880 C   0  0  0  0  0  0
   14.8080    8.6210   10.1350 C   0  0  0  0  0  0
   14.3830    9.1560    9.2860 H   0  0  0  0  0  0
   14.0170    8.4270   11.2640 C   0  0  0  0  0  0
   12.9970    8.8060   11.2860 H   0  0  0  0  0  0
   14.5340    7.7500   12.3620 C   0  0  0  0  0  0
   13.8980    7.6070   13.2360 H   0  0  0  0  0  0
   16.9050    8.3570    8.9390 C   0  0  0  0  0  0
   16.4920    8.8920    8.0830 H   0  0  0  0  0  0
   18.2170    7.8950    8.8650 C   0  0  0  0  0  0
   18.8080    8.0690    7.9680 H   0  0  0  0  0  0
   18.7660    7.2110    9.9410 C   0  0  0  0  0  0
   19.7900    6.8450    9.8900 H   0  0  0  0  0  0
   18.0030    6.9910   11.0900 C   0  0  0  0  0  0
   18.4730    6.4480   11.9080 H   0  0  0  0  0  0
   15.1950    5.8860   15.7540 C   0  0  0  0  0  0
   16.1300    6.2500   16.1910 H   0  0  0  0  0  0
   15.0070    4.9110   16.2200 H   0  0  0  0  0  0
   14.3920    6.5760   16.0350 H   0  0  0  0  0  0
    9.9890    1.1600   11.1380 N   0  0  0  0  0  0
   10.4090    0.6330   10.3870 H   0  0  0  0  0  0
    9.0090    1.0530   11.3530 H   0  0  0  0  0  0
  1  2  1  0  0  0
  1  6  2  0  0  0
  2  3  2  0  0  0
  2 42  1  0  0  0
  3  4  1  0  0  0
  4  5  2  0  0  0
  4 15  1  0  0  0
  5  6  1  0  0  0
  5 10  1  0  0  0
  6  7  1  0  0  0
  7  8  1  0  0  0
  7  9  1  0  0  0
 10 11  1  0  0  0
 10 12  2  0  0  0
 12 13  1  0  0  0
 12 17  1  0  0  0
 13 14  1  0  0  0
 13 15  2  0  0  0
 15 16  1  0  0  0
 17 18  1  0  0  0
 17 38  1  0  0  0
 18 19  1  0  0  0
 18 20  1  0  0  0
 18 21  1  0  0  0
 21 22  1  0  0  0
 21 28  2  0  0  0
 22 23  2  0  0  0
 22 36  1  0  0  0
 23 24  1  0  0  0
 23 30  1  0  0  0
 24 25  1  0  0  0
 24 26  2  0  0  0
 26 27  1  0  0  0
 26 28  1  0  0  0
 28 29  1  0  0  0
 30 31  1  0  0  0
 30 32  2  0  0  0
 32 33  1  0  0  0
 32 34  1  0  0  0
 34 35  1  0  0  0
 34 36  2  0  0  0
 36 37  1  0  0  0
 38 39  1  0  0  0
 38 40  1  0  0  0
 38 41  1  0  0  0
 42 43  1  0  0  0
 42 44  1  0  0  0
M  END
>  <ACTIVITY>
7.77

>  <SET>
1

>  <Min_dist>
999.9

>  <Avg_dist>
999.9

$$$$
15-3
  Cerius2 12110214133D 1   1.00000                          
Structure written by Cerius2 SD Exporter
 43 45  0  0  0  0  0  0  0  0999 V2000
   10.1830    2.7600   12.8740 N   0  0  0  0  0  0
   10.7490    2.0590   11.8930 C   0  0  0  0  0  0
   12.0300    2.1550   11.5360 N   0  0  0  0  0  0
   12.8000    3.0230   12.2060 C   0  0  0  0  0  0
   12.3170    3.8070   13.2540 C   0  0  0  0  0  0
   10.9660    3.6090   13.5590 C   0  0  0  0  0  0
   10.3210    4.3280   14.5510 N   0  0  0  0  0  0
   10.8230    4.5140   15.4140 H   0  0  0  0  0  0
    9.3390    4.1010   14.6760 H   0  0  0  0  0  0
   13.1890    4.7180   13.9110 C   0  0  0  0  0  0
   12.7980    5.3330   14.7200 H   0  0  0  0  0  0
   14.5340    4.8550   13.5490 C   0  0  0  0  0  0
   14.9900    4.0580   12.5020 C   0  0  0  0  0  0
   16.0230    4.1080   12.1640 H   0  0  0  0  0  0
   14.1320    3.1610   11.8480 C   0  0  0  0  0  0
   14.5290    2.5590   11.0320 H   0  0  0  0  0  0
   15.3230    5.7550   14.2300 N   0  0  0  0  0  0
   15.2300    5.8170   15.2430 H   0  0  0  0  0  0
   16.3170    6.6430   13.6390 C   0  0  0  0  0  0
   17.2080    6.0520   13.3940 H   0  0  0  0  0  0
   16.6320    7.3790   14.3860 H   0  0  0  0  0  0
   15.8370    7.2910   12.3530 C   0  0  0  0  0  0
   14.4620    7.5340   12.1530 C   0  0  0  0  0  0
   13.7510    7.2750   12.9370 H   0  0  0  0  0  0
   13.9850    8.1080   10.9730 C   0  0  0  0  0  0
   14.8880    8.4270    9.9650 C   0  0  0  0  0  0
   14.5690    8.8720    9.0250 H   0  0  0  0  0  0
   16.2540    8.1700   10.1330 C   0  0  0  0  0  0
   16.9140    8.4290    9.3090 H   0  0  0  0  0  0
   16.7370    7.5980   11.3150 C   0  0  0  0  0  0
   18.0530    7.2980   11.5460 O   0  0  0  0  0  0
   18.9800    7.5410   10.4890 C   0  0  0  0  0  0
   19.9740    7.2550   10.8470 H   0  0  0  0  0  0
   19.0120    8.6040   10.2310 H   0  0  0  0  0  0
   18.7510    6.9230    9.6150 H   0  0  0  0  0  0
   12.6320    8.2990   10.9320 O   0  0  0  0  0  0
   12.1020    8.8840    9.7430 C   0  0  0  0  0  0
   11.0240    9.0030    9.8830 H   0  0  0  0  0  0
   12.2570    8.2280    8.8800 H   0  0  0  0  0  0
   12.5280    9.8780    9.5680 H   0  0  0  0  0  0
    9.9660    1.1850   11.2050 N   0  0  0  0  0  0
   10.3610    0.6410   10.4520 H   0  0  0  0  0  0
    8.9910    1.0920   11.4470 H   0  0  0  0  0  0
  1  2  1  0  0  0
  1  6  2  0  0  0
  2  3  2  0  0  0
  2 41  1  0  0  0
  3  4  1  0  0  0
  4  5  2  0  0  0
  4 15  1  0  0  0
  5  6  1  0  0  0
  5 10  1  0  0  0
  6  7  1  0  0  0
  7  8  1  0  0  0
  7  9  1  0  0  0
 10 11  1  0  0  0
 10 12  2  0  0  0
 12 13  1  0  0  0
 12 17  1  0  0  0
 13 14  1  0  0  0
 13 15  2  0  0  0
 15 16  1  0  0  0
 17 18  1  0  0  0
 17 19  1  0  0  0
 19 20  1  0  0  0
 19 21  1  0  0  0
 19 22  1  0  0  0
 22 23  1  0  0  0
 22 30  2  0  0  0
 23 24  1  0  0  0
 23 25  2  0  0  0
 25 26  1  0  0  0
 25 36  1  0  0  0
 26 27  1  0  0  0
 26 28  2  0  0  0
 28 29  1  0  0  0
 28 30  1  0  0  0
 30 31  1  0  0  0
 31 32  1  0  0  0
 32 33  1  0  0  0
 32 34  1  0  0  0
 32 35  1  0  0  0
 36 37  1  0  0  0
 37 38  1  0  0  0
 37 39  1  0  0  0
 37 40  1  0  0  0
 41 42  1  0  0  0
 41 43  1  0  0  0
M  END
>  <ACTIVITY>
5.96

>  <SET>
1

>  <Min_dist>
999.9

>  <Avg_dist>
999.9

$$$$
15-4
  Cerius2 12110214133D 1   1.00000                          
Structure written by Cerius2 SD Exporter
 43 45  0  0  0  0  0  0  0  0999 V2000
   10.1820    2.7570   12.8590 N   0  0  0  0  0  0
   10.7600    2.0710   11.8730 C   0  0  0  0  0  0
   12.0450    2.1730   11.5340 N   0  0  0  0  0  0
   12.8050    3.0330   12.2250 C   0  0  0  0  0  0
   12.3090    3.8040   13.2770 C   0  0  0  0  0  0
   10.9550    3.5990   13.5640 C   0  0  0  0  0  0
   10.2970    4.3040   14.5570 N   0  0  0  0  0  0
   10.7860    4.4790   15.4280 H   0  0  0  0  0  0
    9.3140    4.0720   14.6650 H   0  0  0  0  0  0
   13.1700    4.7110   13.9580 C   0  0  0  0  0  0
   12.7550    5.3040   14.7670 H   0  0  0  0  0  0
   14.5140    4.8580   13.6100 C   0  0  0  0  0  0
   14.9850    4.0650   12.5620 C   0  0  0  0  0  0
   16.0260    4.1340   12.2480 H   0  0  0  0  0  0
   14.1410    3.1730   11.8860 C   0  0  0  0  0  0
   14.5510    2.5800   11.0700 H   0  0  0  0  0  0
   15.3820    5.7250   14.2340 N   0  0  0  0  0  0
   15.3470    5.7950   15.2500 H   0  0  0  0  0  0
   16.4120    6.5280   13.5940 C   0  0  0  0  0  0
   17.2380    5.8700   13.2980 H   0  0  0  0  0  0
   16.8360    7.2460   14.3070 H   0  0  0  0  0  0
   15.9030    7.2160   12.3450 C   0  0  0  0  0  0
   16.7790    7.5570   11.3020 C   0  0  0  0  0  0
   17.8350    7.3030   11.3830 H   0  0  0  0  0  0
   16.3180    8.2120   10.1570 C   0  0  0  0  0  0
   14.9660    8.5390   10.0570 C   0  0  0  0  0  0
   14.5690    9.0460    9.1820 H   0  0  0  0  0  0
   14.0760    8.2170   11.0890 C   0  0  0  0  0  0
   14.5470    7.5640   12.2300 C   0  0  0  0  0  0
   13.8780    7.3120   13.0490 H   0  0  0  0  0  0
   12.7800    8.5990   10.8630 O   0  0  0  0  0  0
   12.5050    9.2420    9.6190 C   0  0  0  0  0  0
   11.4450    9.5130    9.6120 H   0  0  0  0  0  0
   12.6820    8.5620    8.7790 H   0  0  0  0  0  0
   13.0870   10.1640    9.5150 H   0  0  0  0  0  0
   17.2800    8.4730    9.2200 O   0  0  0  0  0  0
   18.6110    8.0710    9.5380 C   0  0  0  0  0  0
   19.2520    8.3450    8.6940 H   0  0  0  0  0  0
   18.6730    6.9850    9.6660 H   0  0  0  0  0  0
   18.9820    8.5980   10.4230 H   0  0  0  0  0  0
    9.9850    1.2080   11.1620 N   0  0  0  0  0  0
   10.3930    0.6710   10.4110 H   0  0  0  0  0  0
    9.0080    1.1070   11.3950 H   0  0  0  0  0  0
  1  2  1  0  0  0
  1  6  2  0  0  0
  2  3  2  0  0  0
  2 41  1  0  0  0
  3  4  1  0  0  0
  4  5  2  0  0  0
  4 15  1  0  0  0
  5  6  1  0  0  0
  5 10  1  0  0  0
  6  7  1  0  0  0
  7  8  1  0  0  0
  7  9  1  0  0  0
 10 11  1  0  0  0
 10 12  2  0  0  0
 12 13  1  0  0  0
 12 17  1  0  0  0
 13 14  1  0  0  0
 13 15  2  0  0  0
 15 16  1  0  0  0
 17 18  1  0  0  0
 17 19  1  0  0  0
 19 20  1  0  0  0
 19 21  1  0  0  0
 19 22  1  0  0  0
 22 23  1  0  0  0
 22 29  2  0  0  0
 23 24  1  0  0  0
 23 25  2  0  0  0
 25 26  1  0  0  0
 25 36  1  0  0  0
 26 27  1  0  0  0
 26 28  2  0  0  0
 28 29  1  0  0  0
 28 31  1  0  0  0
 29 30  1  0  0  0
 31 32  1  0  0  0
 32 33  1  0  0  0
 32 34  1  0  0  0
 32 35  1  0  0  0
 36 37  1  0  0  0
 37 38  1  0  0  0
 37 39  1  0  0  0
 37 40  1  0  0  0
 41 42  1  0  0  0
 41 43  1  0  0  0
M  END
>  <ACTIVITY>
6.08

>  <SET>
1

>  <Min_dist>
999.9

>  <Avg_dist>
999.9

$$$$
15-5
  Cerius2 12110214133D 1   1.00000                          
Structure written by Cerius2 SD Exporter
 43 45  0  0  0  0  0  0  0  0999 V2000
   10.1840    2.7610   12.8740 N   0  0  0  0  0  0
   10.7490    2.0630   11.8900 C   0  0  0  0  0  0
   12.0310    2.1580   11.5340 N   0  0  0  0  0  0
   12.8010    3.0230   12.2080 C   0  0  0  0  0  0
   12.3180    3.8050   13.2570 C   0  0  0  0  0  0
   10.9670    3.6070   13.5620 C   0  0  0  0  0  0
   10.3230    4.3240   14.5550 N   0  0  0  0  0  0
   10.8260    4.5120   15.4160 H   0  0  0  0  0  0
    9.3410    4.0970   14.6820 H   0  0  0  0  0  0
   13.1910    4.7150   13.9160 C   0  0  0  0  0  0
   12.8000    5.3290   14.7250 H   0  0  0  0  0  0
   14.5370    4.8480   13.5580 C   0  0  0  0  0  0
   14.9920    4.0520   12.5110 C   0  0  0  0  0  0
   16.0240    4.1020   12.1720 H   0  0  0  0  0  0
   14.1340    3.1580   11.8530 C   0  0  0  0  0  0
   14.5320    2.5560   11.0370 H   0  0  0  0  0  0
   15.3260    5.7470   14.2400 N   0  0  0  0  0  0
   15.2620    5.7790   15.2560 H   0  0  0  0  0  0
   16.3200    6.6360   13.6500 C   0  0  0  0  0  0
   17.2060    6.0420   13.3910 H   0  0  0  0  0  0
   16.6580    7.3630   14.3940 H   0  0  0  0  0  0
   15.8200    7.2820   12.3710 C   0  0  0  0  0  0
   14.4450    7.5260   12.2130 C   0  0  0  0  0  0
   13.7490    7.2740   13.0130 H   0  0  0  0  0  0
   13.9500    8.0970   11.0410 C   0  0  0  0  0  0
   12.8810    8.2820   10.9470 H   0  0  0  0  0  0
   14.8120    8.4260    9.9980 C   0  0  0  0  0  0
   16.1800    8.1740   10.1330 C   0  0  0  0  0  0
   16.8520    8.4200    9.3190 H   0  0  0  0  0  0
   16.6900    7.6000   11.3100 C   0  0  0  0  0  0
   18.0150    7.3070   11.5120 O   0  0  0  0  0  0
   18.9260    7.5780   10.4490 C   0  0  0  0  0  0
   19.9300    7.3130   10.7960 H   0  0  0  0  0  0
   18.9320    8.6440   10.1970 H   0  0  0  0  0  0
   18.7020    6.9600    9.5740 H   0  0  0  0  0  0
   14.2000    8.9780    8.9060 O   0  0  0  0  0  0
   15.0350    9.3350    7.8060 C   0  0  0  0  0  0
   14.3960    9.7650    7.0290 H   0  0  0  0  0  0
   15.5270    8.4530    7.3840 H   0  0  0  0  0  0
   15.7640   10.0980    8.0970 H   0  0  0  0  0  0
    9.9660    1.1920   11.1980 N   0  0  0  0  0  0
   10.3650    0.6480   10.4470 H   0  0  0  0  0  0
    8.9920    1.0940   11.4400 H   0  0  0  0  0  0
  1  2  1  0  0  0
  1  6  2  0  0  0
  2  3  2  0  0  0
  2 41  1  0  0  0
  3  4  1  0  0  0
  4  5  2  0  0  0
  4 15  1  0  0  0
  5  6  1  0  0  0
  5 10  1  0  0  0
  6  7  1  0  0  0
  7  8  1  0  0  0
  7  9  1  0  0  0
 10 11  1  0  0  0
 10 12  2  0  0  0
 12 13  1  0  0  0
 12 17  1  0  0  0
 13 14  1  0  0  0
 13 15  2  0  0  0
 15 16  1  0  0  0
 17 18  1  0  0  0
 17 19  1  0  0  0
 19 20  1  0  0  0
 19 21  1  0  0  0
 19 22  1  0  0  0
 22 23  1  0  0  0
 22 30  2  0  0  0
 23 24  1  0  0  0
 23 25  2  0  0  0
 25 26  1  0  0  0
 25 27  1  0  0  0
 27 28  2  0  0  0
 27 36  1  0  0  0
 28 29  1  0  0  0
 28 30  1  0  0  0
 30 31  1  0  0  0
 31 32  1  0  0  0
 32 33  1  0  0  0
 32 34  1  0  0  0
 32 35  1  0  0  0
 36 37  1  0  0  0
 37 38  1  0  0  0
 37 39  1  0  0  0
 37 40  1  0  0  0
 41 42  1  0  0  0
 41 43  1  0  0  0
M  END
>  <ACTIVITY>
5.92

>  <SET>
1

>  <Min_dist>
999.9

>  <Avg_dist>
999.9

$$$$
15-6
  Cerius2 12110214133D 1   1.00000                          
Structure written by Cerius2 SD Exporter
 47 49  0  0  0  0  0  0  0  0999 V2000
   10.1780    2.7580   12.8690 N   0  0  0  0  0  0
   10.7450    2.0620   11.8850 C   0  0  0  0  0  0
   12.0270    2.1580   11.5320 N   0  0  0  0  0  0
   12.7960    3.0200   12.2090 C   0  0  0  0  0  0
   12.3120    3.8000   13.2590 C   0  0  0  0  0  0
   10.9600    3.6020   13.5600 C   0  0  0  0  0  0
   10.3150    4.3160   14.5560 N   0  0  0  0  0  0
   10.8170    4.5000   15.4180 H   0  0  0  0  0  0
    9.3330    4.0880   14.6800 H   0  0  0  0  0  0
   13.1850    4.7060   13.9230 C   0  0  0  0  0  0
   12.7910    5.3200   14.7320 H   0  0  0  0  0  0
   14.5320    4.8390   13.5690 C   0  0  0  0  0  0
   14.9880    4.0460   12.5200 C   0  0  0  0  0  0
   16.0180    4.0980   12.1780 H   0  0  0  0  0  0
   14.1300    3.1550   11.8580 C   0  0  0  0  0  0
   14.5290    2.5560   11.0400 H   0  0  0  0  0  0
   15.3180    5.7380   14.2540 N   0  0  0  0  0  0
   15.2330    5.7790   15.2680 H   0  0  0  0  0  0
   16.3590    6.5820   13.6880 C   0  0  0  0  0  0
   17.2230    5.9550   13.4370 H   0  0  0  0  0  0
   16.7270    7.3100   14.4200 H   0  0  0  0  0  0
   15.8860    7.2510   12.4140 C   0  0  0  0  0  0
   16.8020    7.5460   11.3870 C   0  0  0  0  0  0
   17.8430    7.2740   11.5420 H   0  0  0  0  0  0
   16.3810    8.1670   10.2100 C   0  0  0  0  0  0
   15.0180    8.4760   10.0590 C   0  0  0  0  0  0
   14.0890    8.2130   11.0810 C   0  0  0  0  0  0
   14.5330    7.5990   12.2540 C   0  0  0  0  0  0
   13.8470    7.3810   13.0680 H   0  0  0  0  0  0
   12.7950    8.5940   10.8340 O   0  0  0  0  0  0
   12.5340    9.2490    9.5950 C   0  0  0  0  0  0
   11.4750    9.5260    9.5820 H   0  0  0  0  0  0
   12.7140    8.5760    8.7500 H   0  0  0  0  0  0
   13.1200   10.1700    9.5040 H   0  0  0  0  0  0
   14.5940    9.1180    8.9140 O   0  0  0  0  0  0
   15.6980    9.2860    8.0170 C   0  0  0  0  0  0
   15.3210    9.7750    7.1140 H   0  0  0  0  0  0
   16.1250    8.3200    7.7260 H   0  0  0  0  0  0
   16.4690    9.9280    8.4540 H   0  0  0  0  0  0
   17.1980    8.5080    9.1630 O   0  0  0  0  0  0
   18.5830    8.1930    9.2900 C   0  0  0  0  0  0
   19.0880    8.5480    8.3870 H   0  0  0  0  0  0
   18.7360    7.1110    9.3540 H   0  0  0  0  0  0
   19.0270    8.7100   10.1460 H   0  0  0  0  0  0
    9.9630    1.1920   11.1900 N   0  0  0  0  0  0
   10.3650    0.6450   10.4420 H   0  0  0  0  0  0
    8.9890    1.0910   11.4330 H   0  0  0  0  0  0
  1  2  1  0  0  0
  1  6  2  0  0  0
  2  3  2  0  0  0
  2 45  1  0  0  0
  3  4  1  0  0  0
  4  5  2  0  0  0
  4 15  1  0  0  0
  5  6  1  0  0  0
  5 10  1  0  0  0
  6  7  1  0  0  0
  7  8  1  0  0  0
  7  9  1  0  0  0
 10 11  1  0  0  0
 10 12  2  0  0  0
 12 13  1  0  0  0
 12 17  1  0  0  0
 13 14  1  0  0  0
 13 15  2  0  0  0
 15 16  1  0  0  0
 17 18  1  0  0  0
 17 19  1  0  0  0
 19 20  1  0  0  0
 19 21  1  0  0  0
 19 22  1  0  0  0
 22 23  1  0  0  0
 22 28  2  0  0  0
 23 24  1  0  0  0
 23 25  2  0  0  0
 25 26  1  0  0  0
 25 40  1  0  0  0
 26 27  2  0  0  0
 26 35  1  0  0  0
 27 28  1  0  0  0
 27 30  1  0  0  0
 28 29  1  0  0  0
 30 31  1  0  0  0
 31 32  1  0  0  0
 31 33  1  0  0  0
 31 34  1  0  0  0
 35 36  1  0  0  0
 36 37  1  0  0  0
 36 38  1  0  0  0
 36 39  1  0  0  0
 40 41  1  0  0  0
 41 42  1  0  0  0
 41 43  1  0  0  0
 41 44  1  0  0  0
 45 46  1  0  0  0
 45 47  1  0  0  0
M  END
>  <ACTIVITY>
6.05

>  <SET>
1

>  <Min_dist>
999.9

>  <Avg_dist>
999.9

$$$$
15-7
  Cerius2 12110214133D 1   1.00000                          
Structure written by Cerius2 SD Exporter
 47 49  0  0  0  0  0  0  0  0999 V2000
   10.1780    2.7430   12.8510 N   0  0  0  0  0  0
   10.7660    2.0610   11.8700 C   0  0  0  0  0  0
   12.0500    2.1740   11.5340 N   0  0  0  0  0  0
   12.7990    3.0440   12.2250 C   0  0  0  0  0  0
   12.2930    3.8130   13.2730 C   0  0  0  0  0  0
   10.9400    3.5940   13.5560 C   0  0  0  0  0  0
   10.2720    4.2940   14.5460 N   0  0  0  0  0  0
   10.7580    4.4810   15.4170 H   0  0  0  0  0  0
    9.2910    4.0530   14.6550 H   0  0  0  0  0  0
   13.1420    4.7310   13.9530 C   0  0  0  0  0  0
   12.7180    5.3260   14.7580 H   0  0  0  0  0  0
   14.4870    4.8870   13.6110 C   0  0  0  0  0  0
   14.9680    4.0970   12.5660 C   0  0  0  0  0  0
   16.0100    4.1730   12.2560 H   0  0  0  0  0  0
   14.1350    3.1960   11.8890 C   0  0  0  0  0  0
   14.5530    2.6050   11.0760 H   0  0  0  0  0  0
   15.3460    5.7610   14.2390 N   0  0  0  0  0  0
   15.2880    5.8540   15.2520 H   0  0  0  0  0  0
   16.3830    6.5570   13.5960 C   0  0  0  0  0  0
   17.2010    5.8890   13.2980 H   0  0  0  0  0  0
   16.8120    7.2560   14.3220 H   0  0  0  0  0  0
   15.8850    7.2520   12.3460 C   0  0  0  0  0  0
   14.5340    7.6260   12.2350 C   0  0  0  0  0  0
   13.8410    7.4230   13.0520 H   0  0  0  0  0  0
   14.0610    8.2830   11.0980 C   0  0  0  0  0  0
   13.0160    8.5820   11.0440 H   0  0  0  0  0  0
   14.9330    8.5770   10.0510 C   0  0  0  0  0  0
   16.2650    8.1510   10.0980 C   0  0  0  0  0  0
   16.7320    7.4890   11.2480 C   0  0  0  0  0  0
   18.0560    7.1240   11.3310 O   0  0  0  0  0  0
   18.2430    5.8070   10.7980 C   0  0  0  0  0  0
   19.2820    5.5190   10.9840 H   0  0  0  0  0  0
   18.0750    5.7890    9.7170 H   0  0  0  0  0  0
   17.5940    5.0790   11.2970 H   0  0  0  0  0  0
   17.1760    8.4120    9.1040 O   0  0  0  0  0  0
   18.4750    7.8770    9.3710 C   0  0  0  0  0  0
   18.5770    6.8870    8.9170 H   0  0  0  0  0  0
   18.7030    7.8380   10.4430 H   0  0  0  0  0  0
   19.2080    8.5370    8.8970 H   0  0  0  0  0  0
   14.4300    9.2610    8.9750 O   0  0  0  0  0  0
   15.4640    9.4720    8.0070 C   0  0  0  0  0  0
   15.0230   10.0090    7.1610 H   0  0  0  0  0  0
   15.8610    8.5210    7.6360 H   0  0  0  0  0  0
   16.2700   10.0890    8.4190 H   0  0  0  0  0  0
   10.0030    1.1860   11.1590 N   0  0  0  0  0  0
   10.4180    0.6560   10.4070 H   0  0  0  0  0  0
    9.0250    1.0780   11.3850 H   0  0  0  0  0  0
  1  2  1  0  0  0
  1  6  2  0  0  0
  2  3  2  0  0  0
  2 45  1  0  0  0
  3  4  1  0  0  0
  4  5  2  0  0  0
  4 15  1  0  0  0
  5  6  1  0  0  0
  5 10  1  0  0  0
  6  7  1  0  0  0
  7  8  1  0  0  0
  7  9  1  0  0  0
 10 11  1  0  0  0
 10 12  2  0  0  0
 12 13  1  0  0  0
 12 17  1  0  0  0
 13 14  1  0  0  0
 13 15  2  0  0  0
 15 16  1  0  0  0
 17 18  1  0  0  0
 17 19  1  0  0  0
 19 20  1  0  0  0
 19 21  1  0  0  0
 19 22  1  0  0  0
 22 23  1  0  0  0
 22 29  2  0  0  0
 23 24  1  0  0  0
 23 25  2  0  0  0
 25 26  1  0  0  0
 25 27  1  0  0  0
 27 28  2  0  0  0
 27 40  1  0  0  0
 28 29  1  0  0  0
 28 35  1  0  0  0
 29 30  1  0  0  0
 30 31  1  0  0  0
 31 32  1  0  0  0
 31 33  1  0  0  0
 31 34  1  0  0  0
 35 36  1  0  0  0
 36 37  1  0  0  0
 36 38  1  0  0  0
 36 39  1  0  0  0
 40 41  1  0  0  0
 41 42  1  0  0  0
 41 43  1  0  0  0
 41 44  1  0  0  0
 45 46  1  0  0  0
 45 47  1  0  0  0
M  END
>  <ACTIVITY>
5.89

>  <SET>
1

>  <Min_dist>
999.9

>  <Avg_dist>
999.9

$$$$
16-10
  Cerius2 12110214133D 1   1.00000                          
Structure written by Cerius2 SD Exporter
 44 46  0  0  0  0  0  0  0  0999 V2000
   10.5030    2.8110   13.2830 N   0  0  0  0  0  0
   10.6620    2.0300   12.2120 C   0  0  0  0  0  0
   11.7470    1.9760   11.4510 N   0  0  0  0  0  0
   12.7170    2.8170   11.8410 C   0  0  0  0  0  0
   12.6810    3.6940   12.9150 C   0  0  0  0  0  0
   11.4920    3.6450   13.6700 C   0  0  0  0  0  0
   11.2450    4.3770   14.8050 N   0  0  0  0  0  0
   11.9250    4.9620   15.2630 H   0  0  0  0  0  0
   10.3580    4.2380   15.2750 H   0  0  0  0  0  0
   13.9130    4.4680   12.9920 C   0  0  0  0  0  0
   14.8100    4.0660   12.0140 C   0  0  0  0  0  0
   15.8140    4.4360   11.8450 H   0  0  0  0  0  0
   14.1840    2.8640   10.9830 S   0  0  0  0  0  0
   14.1940    5.5440   14.0140 C   0  0  0  0  0  0
   14.5700    5.0350   14.9110 H   0  0  0  0  0  0
   13.2480    6.0350   14.2680 H   0  0  0  0  0  0
   15.1300    6.5900   13.6220 N   0  0  0  0  0  0
   15.9450    6.7160   14.2200 H   0  0  0  0  0  0
   15.1720    7.2180   12.3850 C   0  0  0  0  0  0
   16.4110    7.6120   11.8280 C   0  0  0  0  0  0
   16.4730    8.2590   10.5860 C   0  0  0  0  0  0
   15.2890    8.5880    9.9180 C   0  0  0  0  0  0
   14.0460    8.2050   10.4380 C   0  0  0  0  0  0
   14.0020    7.5300   11.6660 C   0  0  0  0  0  0
   13.0430    7.2370   12.0800 H   0  0  0  0  0  0
   12.9510    8.5380    9.6820 O   0  0  0  0  0  0
   13.1890    9.0880    8.3890 C   0  0  0  0  0  0
   12.2160    9.2880    7.9290 H   0  0  0  0  0  0
   13.7200    8.3760    7.7500 H   0  0  0  0  0  0
   13.7260   10.0400    8.4590 H   0  0  0  0  0  0
   15.3440    9.2440    8.7090 O   0  0  0  0  0  0
   16.7090    9.4710    8.3390 C   0  0  0  0  0  0
   16.7110   10.0130    7.3890 H   0  0  0  0  0  0
   17.2410    8.5250    8.1910 H   0  0  0  0  0  0
   17.2250   10.0870    9.0830 H   0  0  0  0  0  0
   17.6870    8.6390   10.0620 O   0  0  0  0  0  0
   18.7540    8.2040   10.9120 C   0  0  0  0  0  0
   19.6760    8.6690   10.5530 H   0  0  0  0  0  0
   18.8800    7.1180   10.8600 H   0  0  0  0  0  0
   18.5970    8.5180   11.9500 H   0  0  0  0  0  0
   18.0310    7.2470   12.7790 Br  0  0  0  0  0  0
    9.6220    1.2160   11.8780 N   0  0  0  0  0  0
    9.6980    0.6070   11.0770 H   0  0  0  0  0  0
    8.7800    1.2290   12.4350 H   0  0  0  0  0  0
  1  2  2  0  0  0
  1  6  1  0  0  0
  2  3  1  0  0  0
  2 42  1  0  0  0
  3  4  2  0  0  0
  4  5  1  0  0  0
  4 13  1  0  0  0
  5  6  2  0  0  0
  5 10  1  0  0  0
  6  7  1  0  0  0
  7  8  1  0  0  0
  7  9  1  0  0  0
 10 11  2  0  0  0
 10 14  1  0  0  0
 11 12  1  0  0  0
 11 13  1  0  0  0
 14 15  1  0  0  0
 14 16  1  0  0  0
 14 17  1  0  0  0
 17 18  1  0  0  0
 17 19  1  0  0  0
 19 20  1  0  0  0
 19 24  2  0  0  0
 20 21  2  0  0  0
 20 41  1  0  0  0
 21 22  1  0  0  0
 21 36  1  0  0  0
 22 23  2  0  0  0
 22 31  1  0  0  0
 23 24  1  0  0  0
 23 26  1  0  0  0
 24 25  1  0  0  0
 26 27  1  0  0  0
 27 28  1  0  0  0
 27 29  1  0  0  0
 27 30  1  0  0  0
 31 32  1  0  0  0
 32 33  1  0  0  0
 32 34  1  0  0  0
 32 35  1  0  0  0
 36 37  1  0  0  0
 37 38  1  0  0  0
 37 39  1  0  0  0
 37 40  1  0  0  0
 42 43  1  0  0  0
 42 44  1  0  0  0
M  END
>  <ACTIVITY>
4.37

>  <SET>
1

>  <Min_dist>
999.9

>  <Avg_dist>
999.9

$$$$
16-11
  Cerius2 12110214133D 1   1.00000                          
Structure written by Cerius2 SD Exporter
 47 49  0  0  0  0  0  0  0  0999 V2000
   10.1410    2.6150   12.8960 N   0  0  0  0  0  0
   10.7420    1.9490   11.9100 C   0  0  0  0  0  0
   12.0130    2.1210   11.5450 N   0  0  0  0  0  0
   12.7350    3.0330   12.2090 C   0  0  0  0  0  0
   12.2100    3.7890   13.2610 C   0  0  0  0  0  0
   10.8750    3.5100   13.5750 C   0  0  0  0  0  0
   10.1960    4.1890   14.5720 N   0  0  0  0  0  0
   10.6920    4.4070   15.4300 H   0  0  0  0  0  0
    9.2300    3.9020   14.7060 H   0  0  0  0  0  0
   13.0260    4.7520   13.9130 C   0  0  0  0  0  0
   12.6110    5.3550   14.7200 H   0  0  0  0  0  0
   14.3600    4.9500   13.5330 C   0  0  0  0  0  0
   14.8660    4.1880   12.4800 C   0  0  0  0  0  0
   15.8930    4.3260   12.1440 H   0  0  0  0  0  0
   14.0560    3.2450   11.8370 C   0  0  0  0  0  0
   14.4770    2.6650   11.0170 H   0  0  0  0  0  0
   15.2160    5.9900   14.2170 C   0  0  0  0  0  0
   15.5470    5.6010   15.1860 H   0  0  0  0  0  0
   14.6140    6.8840   14.4290 H   0  0  0  0  0  0
   16.3350    6.3360   13.3470 N   0  0  0  0  0  0
   16.9830    5.5610   13.2040 H   0  0  0  0  0  0
   16.0490    7.0880   12.2020 C   0  0  0  0  0  0
   14.7630    7.6440   12.0870 C   0  0  0  0  0  0
   14.0150    7.4430   12.8520 H   0  0  0  0  0  0
   14.4280    8.4600   11.0070 C   0  0  0  0  0  0
   15.3590    8.7140    9.9990 C   0  0  0  0  0  0
   16.6610    8.2150   10.1170 C   0  0  0  0  0  0
   17.0010    7.3850   11.2020 C   0  0  0  0  0  0
   18.7360    6.5830   11.2450 Br  0  0  0  0  0  0
   17.5800    8.4680    9.1240 O   0  0  0  0  0  0
   18.8110    7.7910    9.4040 C   0  0  0  0  0  0
   19.4520    7.8910    8.5230 H   0  0  0  0  0  0
   18.6490    6.7230    9.5870 H   0  0  0  0  0  0
   19.3280    8.2480   10.2530 H   0  0  0  0  0  0
   15.0100    9.4960    8.9260 O   0  0  0  0  0  0
   16.1270    9.6330    8.0400 C   0  0  0  0  0  0
   15.8130   10.2660    7.2050 H   0  0  0  0  0  0
   16.4320    8.6620    7.6340 H   0  0  0  0  0  0
   16.9710   10.1210    8.5380 H   0  0  0  0  0  0
   13.1470    8.9420   10.9240 O   0  0  0  0  0  0
   13.0000    9.7420    9.7460 C   0  0  0  0  0  0
   11.9760   10.1270    9.7290 H   0  0  0  0  0  0
   13.1540    9.1470    8.8390 H   0  0  0  0  0  0
   13.6850   10.5980    9.7630 H   0  0  0  0  0  0
   10.0080    1.0300   11.2250 N   0  0  0  0  0  0
   10.4340    0.5100   10.4730 H   0  0  0  0  0  0
    9.0430    0.8750   11.4740 H   0  0  0  0  0  0
  1  2  1  0  0  0
  1  6  2  0  0  0
  2  3  2  0  0  0
  2 45  1  0  0  0
  3  4  1  0  0  0
  4  5  2  0  0  0
  4 15  1  0  0  0
  5  6  1  0  0  0
  5 10  1  0  0  0
  6  7  1  0  0  0
  7  8  1  0  0  0
  7  9  1  0  0  0
 10 11  1  0  0  0
 10 12  2  0  0  0
 12 13  1  0  0  0
 12 17  1  0  0  0
 13 14  1  0  0  0
 13 15  2  0  0  0
 15 16  1  0  0  0
 17 18  1  0  0  0
 17 19  1  0  0  0
 17 20  1  0  0  0
 20 21  1  0  0  0
 20 22  1  0  0  0
 22 23  1  0  0  0
 22 28  2  0  0  0
 23 24  1  0  0  0
 23 25  2  0  0  0
 25 26  1  0  0  0
 25 40  1  0  0  0
 26 27  2  0  0  0
 26 35  1  0  0  0
 27 28  1  0  0  0
 27 30  1  0  0  0
 28 29  1  0  0  0
 30 31  1  0  0  0
 31 32  1  0  0  0
 31 33  1  0  0  0
 31 34  1  0  0  0
 35 36  1  0  0  0
 36 37  1  0  0  0
 36 38  1  0  0  0
 36 39  1  0  0  0
 40 41  1  0  0  0
 41 42  1  0  0  0
 41 43  1  0  0  0
 41 44  1  0  0  0
 45 46  1  0  0  0
 45 47  1  0  0  0
M  END
>  <ACTIVITY>
6.48

>  <SET>
1

>  <Min_dist>
999.9

>  <Avg_dist>
999.9

$$$$
16-12
  Cerius2 12110214133D 1   1.00000                          
Structure written by Cerius2 SD Exporter
 45 47  0  0  0  0  0  0  0  0999 V2000
   10.4600    2.7830   13.2850 N   0  0  0  0  0  0
   10.6640    1.9720   12.2430 C   0  0  0  0  0  0
   11.7460    1.9610   11.4750 N   0  0  0  0  0  0
   12.6700    2.8640   11.8370 C   0  0  0  0  0  0
   12.5940    3.7600   12.8920 C   0  0  0  0  0  0
   11.3990    3.6880   13.6360 C   0  0  0  0  0  0
   11.0960    4.4770   14.7170 N   0  0  0  0  0  0
   11.7070    5.1970   15.0710 H   0  0  0  0  0  0
   10.2040    4.3420   15.1790 H   0  0  0  0  0  0
   13.8030    4.5760   12.9710 C   0  0  0  0  0  0
   14.6910    4.2350   11.9630 C   0  0  0  0  0  0
   15.6650    4.6590   11.7590 H   0  0  0  0  0  0
   14.1180    2.9830   10.9580 S   0  0  0  0  0  0
   14.0380    5.6460   14.0150 C   0  0  0  0  0  0
   14.1480    5.1500   14.9880 H   0  0  0  0  0  0
   13.1350    6.2680   14.0720 H   0  0  0  0  0  0
   15.2600    6.5440   13.7870 C   0  0  0  0  0  0
   15.3030    7.3150   14.5700 H   0  0  0  0  0  0
   16.1940    5.9830   13.9010 H   0  0  0  0  0  0
   15.2200    7.2260   12.4320 C   0  0  0  0  0  0
   14.0270    7.5130   11.7420 C   0  0  0  0  0  0
   13.0290    7.2530   12.1470 H   0  0  0  0  0  0
   14.0780    8.1750   10.5050 C   0  0  0  0  0  0
   15.3150    8.4990    9.9300 C   0  0  0  0  0  0
   16.5110    8.2490   10.6150 C   0  0  0  0  0  0
   16.4520    7.6160   11.8600 C   0  0  0  0  0  0
   18.1220    7.3460   12.8100 Br  0  0  0  0  0  0
   17.6620    8.6530    9.9910 O   0  0  0  0  0  0
   18.3000    7.7140    9.1260 C   0  0  0  0  0  0
   19.1950    8.1930    8.7170 H   0  0  0  0  0  0
   17.6490    7.4500    8.2860 H   0  0  0  0  0  0
   18.6190    6.8250    9.6780 H   0  0  0  0  0  0
   15.3550    9.1230    8.7030 O   0  0  0  0  0  0
   16.7070    9.4660    8.3770 C   0  0  0  0  0  0
   16.6980    9.9660    7.4040 H   0  0  0  0  0  0
   17.3340    8.5720    8.2950 H   0  0  0  0  0  0
   17.1280   10.1610    9.1120 H   0  0  0  0  0  0
   12.9160    8.4460    9.8180 O   0  0  0  0  0  0
   13.2190    9.0280    8.5440 C   0  0  0  0  0  0
   12.2800    9.3900    8.1140 H   0  0  0  0  0  0
   13.6390    8.2840    7.8620 H   0  0  0  0  0  0
   13.8990    9.8820    8.6420 H   0  0  0  0  0  0
    9.6770    1.0810   11.9480 N   0  0  0  0  0  0
    9.7930    0.4420   11.1750 H   0  0  0  0  0  0
    8.8440    1.0530   12.5170 H   0  0  0  0  0  0
  1  2  2  0  0  0
  1  6  1  0  0  0
  2  3  1  0  0  0
  2 43  1  0  0  0
  3  4  2  0  0  0
  4  5  1  0  0  0
  4 13  1  0  0  0
  5  6  2  0  0  0
  5 10  1  0  0  0
  6  7  1  0  0  0
  7  8  1  0  0  0
  7  9  1  0  0  0
 10 11  2  0  0  0
 10 14  1  0  0  0
 11 12  1  0  0  0
 11 13  1  0  0  0
 14 15  1  0  0  0
 14 16  1  0  0  0
 14 17  1  0  0  0
 17 18  1  0  0  0
 17 19  1  0  0  0
 17 20  1  0  0  0
 20 21  1  0  0  0
 20 26  2  0  0  0
 21 22  1  0  0  0
 21 23  2  0  0  0
 23 24  1  0  0  0
 23 38  1  0  0  0
 24 25  2  0  0  0
 24 33  1  0  0  0
 25 26  1  0  0  0
 25 28  1  0  0  0
 26 27  1  0  0  0
 28 29  1  0  0  0
 29 30  1  0  0  0
 29 31  1  0  0  0
 29 32  1  0  0  0
 33 34  1  0  0  0
 34 35  1  0  0  0
 34 36  1  0  0  0
 34 37  1  0  0  0
 38 39  1  0  0  0
 39 40  1  0  0  0
 39 41  1  0  0  0
 39 42  1  0  0  0
 43 44  1  0  0  0
 43 45  1  0  0  0
M  END
>  <ACTIVITY>
5.55

>  <SET>
1

>  <Min_dist>
999.9

>  <Avg_dist>
999.9

$$$$
16-8a
  Cerius2 12110214133D 1   1.00000                          
Structure written by Cerius2 SD Exporter
 45 47  0  0  0  0  0  0  0  0999 V2000
   10.2390    2.6440   13.0220 N   0  0  0  0  0  0
   10.8300    1.8510   12.1230 C   0  0  0  0  0  0
   12.0630    1.9970   11.6570 N   0  0  0  0  0  0
   12.7090    3.0540   12.1740 C   0  0  0  0  0  0
   12.2220    3.9570   13.1030 C   0  0  0  0  0  0
   10.9050    3.7020   13.5340 C   0  0  0  0  0  0
   10.2220    4.4520   14.4590 N   0  0  0  0  0  0
   10.6240    5.2450   14.9370 H   0  0  0  0  0  0
    9.2780    4.1790   14.7050 H   0  0  0  0  0  0
   13.2190    4.9750   13.4070 C   0  0  0  0  0  0
   14.4100    4.7460   12.7230 C   0  0  0  0  0  0
   14.2990    3.3870   11.6880 S   0  0  0  0  0  0
   15.7080    5.5280   12.7670 C   0  0  0  0  0  0
   16.4900    4.8300   12.4540 H   0  0  0  0  0  0
   15.9610    5.8200   13.7940 H   0  0  0  0  0  0
   15.6980    6.7960   11.9220 C   0  0  0  0  0  0
   16.8570    7.3460   11.3390 C   0  0  0  0  0  0
   16.7690    8.5170   10.5660 C   0  0  0  0  0  0
   15.5440    9.1870   10.4360 C   0  0  0  0  0  0
   14.3800    8.6620   11.0080 C   0  0  0  0  0  0
   14.4720    7.4860   11.7570 C   0  0  0  0  0  0
   13.5870    7.0800   12.2400 H   0  0  0  0  0  0
   13.2250    9.3680   10.7930 O   0  0  0  0  0  0
   13.2380   10.3320    9.7420 C   0  0  0  0  0  0
   12.2810   10.8630    9.7650 H   0  0  0  0  0  0
   13.3250    9.8450    8.7660 H   0  0  0  0  0  0
   14.0330   11.0710    9.8910 H   0  0  0  0  0  0
   15.4700   10.3410    9.6890 O   0  0  0  0  0  0
   16.6720   10.5080    8.9280 C   0  0  0  0  0  0
   16.5830   11.4420    8.3660 H   0  0  0  0  0  0
   16.8030    9.6900    8.2110 H   0  0  0  0  0  0
   17.5480   10.5860    9.5810 H   0  0  0  0  0  0
   17.8990    9.0540    9.9920 O   0  0  0  0  0  0
   18.0530    8.5670    8.6530 C   0  0  0  0  0  0
   19.0460    8.8650    8.3040 H   0  0  0  0  0  0
   17.3110    9.0140    7.9850 H   0  0  0  0  0  0
   17.9930    7.4740    8.6110 H   0  0  0  0  0  0
   18.5760    6.5510   11.5880 Br  0  0  0  0  0  0
   12.9890    6.1190   14.3470 C   0  0  0  0  0  0
   13.8110    6.8390   14.3340 H   0  0  0  0  0  0
   12.8810    5.7510   15.3720 H   0  0  0  0  0  0
   12.0850    6.6680   14.0660 H   0  0  0  0  0  0
   10.1010    0.8030   11.6480 N   0  0  0  0  0  0
   10.5060    0.1790   10.9660 H   0  0  0  0  0  0
    9.1560    0.6630   11.9750 H   0  0  0  0  0  0
  1  2  2  0  0  0
  1  6  1  0  0  0
  2  3  1  0  0  0
  2 43  1  0  0  0
  3  4  2  0  0  0
  4  5  1  0  0  0
  4 12  1  0  0  0
  5  6  2  0  0  0
  5 10  1  0  0  0
  6  7  1  0  0  0
  7  8  1  0  0  0
  7  9  1  0  0  0
 10 11  2  0  0  0
 10 39  1  0  0  0
 11 12  1  0  0  0
 11 13  1  0  0  0
 13 14  1  0  0  0
 13 15  1  0  0  0
 13 16  1  0  0  0
 16 17  1  0  0  0
 16 21  2  0  0  0
 17 18  2  0  0  0
 17 38  1  0  0  0
 18 19  1  0  0  0
 18 33  1  0  0  0
 19 20  2  0  0  0
 19 28  1  0  0  0
 20 21  1  0  0  0
 20 23  1  0  0  0
 21 22  1  0  0  0
 23 24  1  0  0  0
 24 25  1  0  0  0
 24 26  1  0  0  0
 24 27  1  0  0  0
 28 29  1  0  0  0
 29 30  1  0  0  0
 29 31  1  0  0  0
 29 32  1  0  0  0
 33 34  1  0  0  0
 34 35  1  0  0  0
 34 36  1  0  0  0
 34 37  1  0  0  0
 39 40  1  0  0  0
 39 41  1  0  0  0
 39 42  1  0  0  0
 43 44  1  0  0  0
 43 45  1  0  0  0
M  END
>  <ACTIVITY>
6.03

>  <SET>
2

>  <Min_dist>
0.22

>  <Avg_dist>
0.65

$$$$
16-9a
  Cerius2 12110214133D 1   1.00000                          
Structure written by Cerius2 SD Exporter
 47 49  0  0  0  0  0  0  0  0999 V2000
   10.1280    2.5700   12.8710 N   0  0  0  0  0  0
   10.7620    1.9330   11.8950 C   0  0  0  0  0  0
   12.0280    2.1560   11.5610 N   0  0  0  0  0  0
   12.7090    3.0810   12.2480 C   0  0  0  0  0  0
   12.1660    3.8290   13.3010 C   0  0  0  0  0  0
   10.8150    3.5000   13.5600 C   0  0  0  0  0  0
   10.0720    4.1100   14.5670 N   0  0  0  0  0  0
   10.4500    3.9480   15.5000 H   0  0  0  0  0  0
    9.9760    5.1170   14.4410 H   0  0  0  0  0  0
   13.0110    4.7950   13.9570 C   0  0  0  0  0  0
   14.3530    4.9840   13.5680 C   0  0  0  0  0  0
   14.8420    4.2210   12.5050 C   0  0  0  0  0  0
   15.8670    4.3480   12.1590 H   0  0  0  0  0  0
   14.0250    3.2890   11.8700 C   0  0  0  0  0  0
   14.4410    2.7080   11.0460 H   0  0  0  0  0  0
   15.2780    5.9920   14.2140 C   0  0  0  0  0  0
   15.6410    5.5860   15.1650 H   0  0  0  0  0  0
   14.7350    6.9070   14.4810 H   0  0  0  0  0  0
   16.3810    6.2930   13.3050 N   0  0  0  0  0  0
   16.9800    5.4860   13.1250 H   0  0  0  0  0  0
   16.0810    7.0600   12.1730 C   0  0  0  0  0  0
   14.7930    7.6140   12.0780 C   0  0  0  0  0  0
   14.0530    7.4020   12.8480 H   0  0  0  0  0  0
   14.4470    8.4450   11.0120 C   0  0  0  0  0  0
   15.3680    8.7150   10.0000 C   0  0  0  0  0  0
   16.6720    8.2160   10.0980 C   0  0  0  0  0  0
   17.0230    7.3720   11.1680 C   0  0  0  0  0  0
   18.7620    6.5750   11.1880 Br  0  0  0  0  0  0
   17.5820    8.4860    9.1020 O   0  0  0  0  0  0
   18.8180    7.8130    9.3640 C   0  0  0  0  0  0
   19.4520    7.9270    8.4790 H   0  0  0  0  0  0
   18.6650    6.7420    9.5360 H   0  0  0  0  0  0
   19.3400    8.2630   10.2140 H   0  0  0  0  0  0
   15.0070    9.5130    8.9430 O   0  0  0  0  0  0
   16.1050    9.6420    8.0330 C   0  0  0  0  0  0
   15.7790   10.2810    7.2070 H   0  0  0  0  0  0
   16.3910    8.6700    7.6170 H   0  0  0  0  0  0
   16.9650   10.1200    8.5140 H   0  0  0  0  0  0
   13.1650    8.9270   10.9460 O   0  0  0  0  0  0
   13.0040    9.7260    9.7690 C   0  0  0  0  0  0
   11.9770   10.1020    9.7590 H   0  0  0  0  0  0
   13.1580    9.1320    8.8610 H   0  0  0  0  0  0
   13.6810   10.5870    9.7810 H   0  0  0  0  0  0
   12.3900    5.7810   15.2540 Cl  0  0  0  0  0  0
   10.0760    0.9920   11.1920 N   0  0  0  0  0  0
   10.5350    0.4920   10.4440 H   0  0  0  0  0  0
    9.1130    0.7990   11.4220 H   0  0  0  0  0  0
  1  2  1  0  0  0
  1  6  2  0  0  0
  2  3  2  0  0  0
  2 45  1  0  0  0
  3  4  1  0  0  0
  4  5  2  0  0  0
  4 14  1  0  0  0
  5  6  1  0  0  0
  5 10  1  0  0  0
  6  7  1  0  0  0
  7  8  1  0  0  0
  7  9  1  0  0  0
 10 11  2  0  0  0
 10 44  1  0  0  0
 11 12  1  0  0  0
 11 16  1  0  0  0
 12 13  1  0  0  0
 12 14  2  0  0  0
 14 15  1  0  0  0
 16 17  1  0  0  0
 16 18  1  0  0  0
 16 19  1  0  0  0
 19 20  1  0  0  0
 19 21  1  0  0  0
 21 22  1  0  0  0
 21 27  2  0  0  0
 22 23  1  0  0  0
 22 24  2  0  0  0
 24 25  1  0  0  0
 24 39  1  0  0  0
 25 26  2  0  0  0
 25 34  1  0  0  0
 26 27  1  0  0  0
 26 29  1  0  0  0
 27 28  1  0  0  0
 29 30  1  0  0  0
 30 31  1  0  0  0
 30 32  1  0  0  0
 30 33  1  0  0  0
 34 35  1  0  0  0
 35 36  1  0  0  0
 35 37  1  0  0  0
 35 38  1  0  0  0
 39 40  1  0  0  0
 40 41  1  0  0  0
 40 42  1  0  0  0
 40 43  1  0  0  0
 45 46  1  0  0  0
 45 47  1  0  0  0
M  END
>  <ACTIVITY>
8.01

>  <SET>
2

>  <Min_dist>
0.06

>  <Avg_dist>
0.51

$$$$
18-3
  Cerius2 12110214133D 1   1.00000                          
Structure written by Cerius2 SD Exporter
 46 50  0  0  0  0  0  0  0  0999 V2000
   10.6990    2.1190   11.8230 C   0  0  0  0  0  0
   11.9820    2.1880   11.3660 N   0  0  0  0  0  0
   12.9270    2.9330   12.0190 C   0  0  0  0  0  0
   12.5730    3.6930   13.1940 C   0  0  0  0  0  0
   11.2230    3.6060   13.6450 C   0  0  0  0  0  0
   10.3340    2.8280   12.9360 N   0  0  0  0  0  0
   10.8140    4.2770   14.7430 N   0  0  0  0  0  0
   11.3960    4.7880   15.2000 H   0  0  0  0  0  0
    9.9590    4.2140   15.0170 H   0  0  0  0  0  0
   13.5520    4.4390   13.8550 C   0  0  0  0  0  0
   13.3280    4.9300   14.6370 H   0  0  0  0  0  0
   14.8410    4.4680   13.3790 C   0  0  0  0  0  0
   15.1680    3.7130   12.1960 C   0  0  0  0  0  0
   16.0550    3.7230   11.8570 H   0  0  0  0  0  0
   14.2110    2.9800   11.5530 N   0  0  0  0  0  0
   15.9880    5.2640   14.1130 C   0  0  0  0  0  0
   15.6070    5.9640   14.6300 H   0  0  0  0  0  0
   16.4440    4.6690   14.6970 H   0  0  0  0  0  0
   17.0270    5.9210   13.1700 N   0  0  0  0  0  0
   18.2400    6.1850   13.9470 C   0  0  0  0  0  0
   18.2430    5.9070   15.3710 C   0  0  0  0  0  0
   17.4290    5.7000   15.8160 H   0  0  0  0  0  0
   19.4480    5.9390   16.1110 C   0  0  0  0  0  0
   19.4310    5.8040   17.0510 H   0  0  0  0  0  0
   20.6680    6.1720   15.4440 C   0  0  0  0  0  0
   21.4840    6.1650   15.9300 H   0  0  0  0  0  0
   20.6910    6.4180   14.0530 C   0  0  0  0  0  0
   21.5200    6.5380   13.6050 H   0  0  0  0  0  0
   19.5040    6.4970   13.2740 C   0  0  0  0  0  0
   19.6950    6.7300   11.7650 C   0  0  0  0  0  0
   20.5450    6.5880   11.3660 H   0  0  0  0  0  0
   18.7770    7.1320   10.8540 C   0  0  0  0  0  0
   19.0300    7.2480    9.9450 H   0  0  0  0  0  0
   17.2990    7.4470   11.0980 C   0  0  0  0  0  0
   16.6440    8.1990   10.0570 C   0  0  0  0  0  0
   17.1320    8.4720    9.2890 H   0  0  0  0  0  0
   15.2680    8.5500   10.1430 C   0  0  0  0  0  0
   14.8640    9.0630    9.4520 H   0  0  0  0  0  0
   14.4930    8.1380   11.2620 C   0  0  0  0  0  0
   13.5860    8.4110   11.3380 H   0  0  0  0  0  0
   15.0780    7.3220   12.2580 C   0  0  0  0  0  0
   14.5500    7.0030   12.9810 H   0  0  0  0  0  0
   16.4770    6.9470   12.2150 C   0  0  0  0  0  0
    9.8030    1.3470   11.1730 N   0  0  0  0  0  0
   10.0550    0.8820   10.4450 H   0  0  0  0  0  0
    8.9550    1.2960   11.4690 H   0  0  0  0  0  0
  1  2  2  0  0  0
  1  6  1  0  0  0
  1 44  1  0  0  0
  2  3  1  0  0  0
  3  4  2  0  0  0
  3 15  1  0  0  0
  4  5  1  0  0  0
  4 10  1  0  0  0
  5  6  2  0  0  0
  5  7  1  0  0  0
  7  8  1  0  0  0
  7  9  1  0  0  0
 10 11  1  0  0  0
 10 12  2  0  0  0
 12 13  1  0  0  0
 12 16  1  0  0  0
 13 14  1  0  0  0
 13 15  2  0  0  0
 16 17  1  0  0  0
 16 18  1  0  0  0
 16 19  1  0  0  0
 19 20  1  0  0  0
 19 43  1  0  0  0
 20 21  1  0  0  0
 20 29  2  0  0  0
 21 22  1  0  0  0
 21 23  2  0  0  0
 23 24  1  0  0  0
 23 25  1  0  0  0
 25 26  1  0  0  0
 25 27  2  0  0  0
 27 28  1  0  0  0
 27 29  1  0  0  0
 29 30  1  0  0  0
 30 31  1  0  0  0
 30 32  2  0  0  0
 32 33  1  0  0  0
 32 34  1  0  0  0
 34 35  1  0  0  0
 34 43  2  0  0  0
 35 36  1  0  0  0
 35 37  2  0  0  0
 37 38  1  0  0  0
 37 39  1  0  0  0
 39 40  1  0  0  0
 39 41  2  0  0  0
 41 42  1  0  0  0
 41 43  1  0  0  0
 44 45  1  0  0  0
 44 46  1  0  0  0
M  END
>  <ACTIVITY>
6.72

>  <SET>
2

>  <Min_dist>
0.18

>  <Avg_dist>
0.53

$$$$
18-4
  Cerius2 12110214133D 1   1.00000                          
Structure written by Cerius2 SD Exporter
 46 50  0  0  0  0  0  0  0  0999 V2000
   10.6990    2.1190   11.8230 C   0  0  0  0  0  0
   11.9820    2.1880   11.3660 N   0  0  0  0  0  0
   12.9270    2.9330   12.0190 C   0  0  0  0  0  0
   12.5730    3.6930   13.1940 C   0  0  0  0  0  0
   11.2230    3.6060   13.6450 C   0  0  0  0  0  0
   10.3340    2.8280   12.9360 N   0  0  0  0  0  0
   10.8140    4.2770   14.7430 N   0  0  0  0  0  0
   11.3960    4.7880   15.2000 H   0  0  0  0  0  0
    9.9590    4.2140   15.0170 H   0  0  0  0  0  0
   13.5520    4.4390   13.8550 N   0  0  0  0  0  0
   14.8410    4.4680   13.3790 C   0  0  0  0  0  0
   15.1680    3.7130   12.1960 C   0  0  0  0  0  0
   16.0550    3.7230   11.8570 H   0  0  0  0  0  0
   14.2110    2.9800   11.5530 C   0  0  0  0  0  0
   14.4750    2.4250   10.6540 H   0  0  0  0  0  0
   15.9880    5.2640   14.1130 C   0  0  0  0  0  0
   15.6070    5.9640   14.6300 H   0  0  0  0  0  0
   16.4440    4.6690   14.6970 H   0  0  0  0  0  0
   17.0270    5.9210   13.1700 N   0  0  0  0  0  0
   18.2400    6.1850   13.9470 C   0  0  0  0  0  0
   18.2430    5.9070   15.3710 C   0  0  0  0  0  0
   17.4290    5.7000   15.8160 H   0  0  0  0  0  0
   19.4480    5.9390   16.1110 C   0  0  0  0  0  0
   19.4310    5.8040   17.0510 H   0  0  0  0  0  0
   20.6680    6.1720   15.4440 C   0  0  0  0  0  0
   21.4840    6.1650   15.9300 H   0  0  0  0  0  0
   20.6910    6.4180   14.0530 C   0  0  0  0  0  0
   21.5200    6.5380   13.6050 H   0  0  0  0  0  0
   19.5040    6.4970   13.2740 C   0  0  0  0  0  0
   19.6950    6.7300   11.7650 C   0  0  0  0  0  0
   20.5450    6.5880   11.3660 H   0  0  0  0  0  0
   18.7770    7.1320   10.8540 C   0  0  0  0  0  0
   19.0300    7.2480    9.9450 H   0  0  0  0  0  0
   17.2990    7.4470   11.0980 C   0  0  0  0  0  0
   16.6440    8.1990   10.0570 C   0  0  0  0  0  0
   17.1320    8.4720    9.2890 H   0  0  0  0  0  0
   15.2680    8.5500   10.1430 C   0  0  0  0  0  0
   14.8640    9.0630    9.4520 H   0  0  0  0  0  0
   14.4930    8.1380   11.2620 C   0  0  0  0  0  0
   13.5860    8.4110   11.3380 H   0  0  0  0  0  0
   15.0780    7.3220   12.2580 C   0  0  0  0  0  0
   14.5500    7.0030   12.9810 H   0  0  0  0  0  0
   16.4770    6.9470   12.2150 C   0  0  0  0  0  0
    9.8030    1.3470   11.1730 N   0  0  0  0  0  0
   10.0550    0.8820   10.4450 H   0  0  0  0  0  0
    8.9550    1.2960   11.4690 H   0  0  0  0  0  0
  1  2  2  0  0  0
  1  6  1  0  0  0
  1 44  1  0  0  0
  2  3  1  0  0  0
  3  4  2  0  0  0
  3 14  1  0  0  0
  4  5  1  0  0  0
  4 10  1  0  0  0
  5  6  2  0  0  0
  5  7  1  0  0  0
  7  8  1  0  0  0
  7  9  1  0  0  0
 10 11  2  0  0  0
 11 12  1  0  0  0
 11 16  1  0  0  0
 12 13  1  0  0  0
 12 14  2  0  0  0
 14 15  1  0  0  0
 16 17  1  0  0  0
 16 18  1  0  0  0
 16 19  1  0  0  0
 19 20  1  0  0  0
 19 43  1  0  0  0
 20 21  1  0  0  0
 20 29  2  0  0  0
 21 22  1  0  0  0
 21 23  2  0  0  0
 23 24  1  0  0  0
 23 25  1  0  0  0
 25 26  1  0  0  0
 25 27  2  0  0  0
 27 28  1  0  0  0
 27 29  1  0  0  0
 29 30  1  0  0  0
 30 31  1  0  0  0
 30 32  2  0  0  0
 32 33  1  0  0  0
 32 34  1  0  0  0
 34 35  1  0  0  0
 34 43  2  0  0  0
 35 36  1  0  0  0
 35 37  2  0  0  0
 37 38  1  0  0  0
 37 39  1  0  0  0
 39 40  1  0  0  0
 39 41  2  0  0  0
 41 42  1  0  0  0
 41 43  1  0  0  0
 44 45  1  0  0  0
 44 46  1  0  0  0
M  END
>  <ACTIVITY>
7.28

>  <SET>
2

>  <Min_dist>
0.13

>  <Avg_dist>
0.55

$$$$
18-5
  Cerius2 12110214133D 1   1.00000                          
Structure written by Cerius2 SD Exporter
 47 51  0  0  0  0  0  0  0  0999 V2000
   10.6990    2.1190   11.8230 C   0  0  0  0  0  0
   11.9820    2.1880   11.3660 N   0  0  0  0  0  0
   12.9270    2.9330   12.0190 C   0  0  0  0  0  0
   12.5730    3.6930   13.1940 C   0  0  0  0  0  0
   11.2230    3.6060   13.6450 C   0  0  0  0  0  0
   10.3340    2.8280   12.9360 N   0  0  0  0  0  0
   10.8140    4.2770   14.7430 N   0  0  0  0  0  0
   11.3960    4.7880   15.2000 H   0  0  0  0  0  0
    9.9590    4.2140   15.0170 H   0  0  0  0  0  0
   13.5520    4.4390   13.8550 C   0  0  0  0  0  0
   13.3280    4.9300   14.6370 H   0  0  0  0  0  0
   14.8410    4.4680   13.3790 C   0  0  0  0  0  0
   15.1680    3.7130   12.1960 C   0  0  0  0  0  0
   16.0550    3.7230   11.8570 H   0  0  0  0  0  0
   14.2110    2.9800   11.5530 C   0  0  0  0  0  0
   14.4330    2.4930   10.7680 H   0  0  0  0  0  0
   15.9880    5.2640   14.1130 N   0  0  0  0  0  0
   16.0020    5.3090   15.0120 H   0  0  0  0  0  0
   17.0270    5.9210   13.1700 C   0  0  0  0  0  0
   17.2850    5.2070   12.5980 H   0  0  0  0  0  0
   18.2400    6.1850   13.9470 C   0  0  0  0  0  0
   18.2430    5.9070   15.3710 C   0  0  0  0  0  0
   17.4290    5.7000   15.8160 H   0  0  0  0  0  0
   19.4480    5.9390   16.1110 C   0  0  0  0  0  0
   19.4310    5.8040   17.0510 H   0  0  0  0  0  0
   20.6680    6.1720   15.4440 C   0  0  0  0  0  0
   21.4840    6.1650   15.9300 H   0  0  0  0  0  0
   20.6910    6.4180   14.0530 C   0  0  0  0  0  0
   21.5200    6.5380   13.6050 H   0  0  0  0  0  0
   19.5040    6.4970   13.2740 C   0  0  0  0  0  0
   19.6950    6.7300   11.7650 C   0  0  0  0  0  0
   20.5450    6.5880   11.3660 H   0  0  0  0  0  0
   18.7770    7.1320   10.8540 C   0  0  0  0  0  0
   19.0300    7.2480    9.9450 H   0  0  0  0  0  0
   17.2990    7.4470   11.0980 C   0  0  0  0  0  0
   16.6440    8.1990   10.0570 C   0  0  0  0  0  0
   17.1320    8.4720    9.2890 H   0  0  0  0  0  0
   15.2680    8.5500   10.1430 C   0  0  0  0  0  0
   14.8640    9.0630    9.4520 H   0  0  0  0  0  0
   14.4930    8.1380   11.2620 C   0  0  0  0  0  0
   13.5860    8.4110   11.3380 H   0  0  0  0  0  0
   15.0780    7.3220   12.2580 C   0  0  0  0  0  0
   14.5500    7.0030   12.9810 H   0  0  0  0  0  0
   16.4770    6.9470   12.2150 C   0  0  0  0  0  0
    9.8030    1.3470   11.1730 N   0  0  0  0  0  0
   10.0550    0.8820   10.4450 H   0  0  0  0  0  0
    8.9550    1.2960   11.4690 H   0  0  0  0  0  0
  1  2  2  0  0  0
  1  6  1  0  0  0
  1 45  1  0  0  0
  2  3  1  0  0  0
  3  4  2  0  0  0
  3 15  1  0  0  0
  4  5  1  0  0  0
  4 10  1  0  0  0
  5  6  2  0  0  0
  5  7  1  0  0  0
  7  8  1  0  0  0
  7  9  1  0  0  0
 10 11  1  0  0  0
 10 12  2  0  0  0
 12 13  1  0  0  0
 12 17  1  0  0  0
 13 14  1  0  0  0
 13 15  2  0  0  0
 15 16  1  0  0  0
 17 18  1  0  0  0
 17 19  1  0  0  0
 19 20  1  0  0  0
 19 21  1  0  0  0
 19 44  1  0  0  0
 21 22  1  0  0  0
 21 30  2  0  0  0
 22 23  1  0  0  0
 22 24  2  0  0  0
 24 25  1  0  0  0
 24 26  1  0  0  0
 26 27  1  0  0  0
 26 28  2  0  0  0
 28 29  1  0  0  0
 28 30  1  0  0  0
 30 31  1  0  0  0
 31 32  1  0  0  0
 31 33  2  0  0  0
 33 34  1  0  0  0
 33 35  1  0  0  0
 35 36  1  0  0  0
 35 44  2  0  0  0
 36 37  1  0  0  0
 36 38  2  0  0  0
 38 39  1  0  0  0
 38 40  1  0  0  0
 40 41  1  0  0  0
 40 42  2  0  0  0
 42 43  1  0  0  0
 42 44  1  0  0  0
 45 46  1  0  0  0
 45 47  1  0  0  0
M  END
>  <ACTIVITY>
5.82

>  <SET>
2

>  <Min_dist>
0.38

>  <Avg_dist>
0.6

$$$$
18-6
  Cerius2 12110214133D 1   1.00000                          
Structure written by Cerius2 SD Exporter
 49 53  0  0  0  0  0  0  0  0999 V2000
   10.6990    2.1190   11.8230 C   0  0  0  0  0  0
   11.9820    2.1880   11.3660 N   0  0  0  0  0  0
   12.9270    2.9330   12.0190 C   0  0  0  0  0  0
   12.5730    3.6930   13.1940 C   0  0  0  0  0  0
   11.2230    3.6060   13.6450 C   0  0  0  0  0  0
   10.3340    2.8280   12.9360 N   0  0  0  0  0  0
   10.8140    4.2770   14.7430 N   0  0  0  0  0  0
   11.3960    4.7880   15.2000 H   0  0  0  0  0  0
    9.9590    4.2140   15.0170 H   0  0  0  0  0  0
   13.5520    4.4390   13.8550 C   0  0  0  0  0  0
   13.3280    4.9300   14.6370 H   0  0  0  0  0  0
   14.8410    4.4680   13.3790 C   0  0  0  0  0  0
   15.1680    3.7130   12.1960 C   0  0  0  0  0  0
   16.0550    3.7230   11.8570 H   0  0  0  0  0  0
   14.2110    2.9800   11.5530 C   0  0  0  0  0  0
   14.4330    2.4930   10.7680 H   0  0  0  0  0  0
   15.9880    5.2640   14.1130 N   0  0  0  0  0  0
   16.0020    5.3090   15.0120 H   0  0  0  0  0  0
   17.0270    5.9210   13.1700 C   0  0  0  0  0  0
   17.2850    5.2070   12.5980 H   0  0  0  0  0  0
   18.2056    6.5800   13.9056 C   0  0  0  0  0  0
   18.0425    7.1382   15.1804 C   0  0  0  0  0  0
   17.0575    7.2471   15.6199 H   0  0  0  0  0  0
   19.1495    7.5780   15.9105 C   0  0  0  0  0  0
   19.0220    7.9605   16.9186 H   0  0  0  0  0  0
   20.4226    7.5251   15.3398 C   0  0  0  0  0  0
   21.2893    7.8427   15.9110 H   0  0  0  0  0  0
   20.5747    7.0689   14.0289 C   0  0  0  0  0  0
   21.5677    7.0572   13.5922 H   0  0  0  0  0  0
   19.4634    6.6411   13.2917 C   0  0  0  0  0  0
   19.6094    6.2604   11.8117 C   0  0  0  0  0  0
   20.6698    6.3293   11.5180 H   0  0  0  0  0  0
   19.3143    5.2176   11.6284 H   0  0  0  0  0  0
   18.8216    7.2509   10.9099 C   0  0  0  0  0  0
   19.2689    8.2503   11.0322 H   0  0  0  0  0  0
   18.9892    6.9331    9.8673 H   0  0  0  0  0  0
   17.2990    7.4470   11.0980 C   0  0  0  0  0  0
   16.6440    8.1990   10.0570 C   0  0  0  0  0  0
   17.1320    8.4720    9.2890 H   0  0  0  0  0  0
   15.2680    8.5500   10.1430 C   0  0  0  0  0  0
   14.8640    9.0630    9.4520 H   0  0  0  0  0  0
   14.4930    8.1380   11.2620 C   0  0  0  0  0  0
   13.5860    8.4110   11.3380 H   0  0  0  0  0  0
   15.0780    7.3220   12.2580 C   0  0  0  0  0  0
   14.5500    7.0030   12.9810 H   0  0  0  0  0  0
   16.4770    6.9470   12.2150 C   0  0  0  0  0  0
    9.8030    1.3470   11.1730 N   0  0  0  0  0  0
   10.0550    0.8820   10.4450 H   0  0  0  0  0  0
    8.9550    1.2960   11.4690 H   0  0  0  0  0  0
  1  2  2  0  0  0
  1  6  1  0  0  0
  1 47  1  0  0  0
  2  3  1  0  0  0
  3  4  2  0  0  0
  3 15  1  0  0  0
  4  5  1  0  0  0
  4 10  1  0  0  0
  5  6  2  0  0  0
  5  7  1  0  0  0
  7  8  1  0  0  0
  7  9  1  0  0  0
 10 11  1  0  0  0
 10 12  2  0  0  0
 12 13  1  0  0  0
 12 17  1  0  0  0
 13 14  1  0  0  0
 13 15  2  0  0  0
 15 16  1  0  0  0
 17 18  1  0  0  0
 17 19  1  0  0  0
 19 20  1  0  0  0
 19 21  1  0  0  0
 19 46  1  0  0  0
 21 22  1  0  0  0
 21 30  2  0  0  0
 22 23  1  0  0  0
 22 24  2  0  0  0
 24 25  1  0  0  0
 24 26  1  0  0  0
 26 27  1  0  0  0
 26 28  2  0  0  0
 28 29  1  0  0  0
 28 30  1  0  0  0
 30 31  1  0  0  0
 31 32  1  0  0  0
 31 33  1  0  0  0
 31 34  1  0  0  0
 34 35  1  0  0  0
 34 36  1  0  0  0
 34 37  1  0  0  0
 37 38  1  0  0  0
 37 46  2  0  0  0
 38 39  1  0  0  0
 38 40  2  0  0  0
 40 41  1  0  0  0
 40 42  1  0  0  0
 42 43  1  0  0  0
 42 44  2  0  0  0
 44 45  1  0  0  0
 44 46  1  0  0  0
 47 48  1  0  0  0
 47 49  1  0  0  0
M  END
>  <ACTIVITY>
7.72

>  <SET>
2

>  <Min_dist>
0.38

>  <Avg_dist>
0.6

$$$$
19-1
  Cerius2 12110214133D 1   1.00000                          
Structure written by Cerius2 SD Exporter
 51 53  0  0  0  0  0  0  0  0999 V2000
   12.2000    3.8600   13.2730 C   0  0  0  0  0  0
   10.8450    3.4660   13.6300 C   0  0  0  0  0  0
   10.1440    2.5940   12.8960 N   0  0  0  0  0  0
   10.6980    1.9790   11.8240 C   0  0  0  0  0  0
   12.0400    2.1470   11.5440 N   0  0  0  0  0  0
   12.7710    3.0540   12.3160 C   0  0  0  0  0  0
   14.2620    3.0500   12.0220 C   0  0  0  0  0  0
   14.5770    2.0210   11.7850 H   0  0  0  0  0  0
   14.4710    3.6520   11.1200 H   0  0  0  0  0  0
   15.0210    3.6230   13.2260 C   0  0  0  0  0  0
   16.0900    3.7360   12.9740 H   0  0  0  0  0  0
   14.9700    2.9340   14.0880 H   0  0  0  0  0  0
   14.3780    4.9850   13.5720 C   0  0  0  0  0  0
   14.1740    5.4270   12.5810 H   0  0  0  0  0  0
   12.9590    4.8530   14.1790 C   0  0  0  0  0  0
   13.0260    4.4130   15.1920 H   0  0  0  0  0  0
   12.5200    5.6950   14.2030 H   0  0  0  0  0  0
   15.3640    5.9040   14.3000 C   0  0  0  0  0  0
   14.8670    6.7660   14.7780 H   0  0  0  0  0  0
   15.8530    5.3580   15.1230 H   0  0  0  0  0  0
   16.3870    6.4120   13.4140 N   0  0  0  0  0  0
   17.2290    5.8570   13.3820 H   0  0  0  0  0  0
   16.0360    7.0980   12.2490 C   0  0  0  0  0  0
   14.7390    7.6590   12.0820 C   0  0  0  0  0  0
   13.9350    7.5460   12.8290 H   0  0  0  0  0  0
   14.4550    8.4760   10.9900 C   0  0  0  0  0  0
   15.4170    8.7250   10.0190 C   0  0  0  0  0  0
   16.6720    8.2010   10.0950 C   0  0  0  0  0  0
   17.0030    7.4330   11.2800 C   0  0  0  0  0  0
   17.9040    7.1550   11.3930 H   0  0  0  0  0  0
   17.6310    8.4120    9.1150 O   0  0  0  0  0  0
   18.9000    7.7940    9.3410 C   0  0  0  0  0  0
   19.3640    8.1630   10.2690 H   0  0  0  0  0  0
   18.8030    6.7000    9.4060 H   0  0  0  0  0  0
   19.5410    8.0510    8.4890 H   0  0  0  0  0  0
   15.0560    9.4900    8.8990 O   0  0  0  0  0  0
   16.0460    9.7460    7.9020 C   0  0  0  0  0  0
   16.2010    8.8750    7.2470 H   0  0  0  0  0  0
   15.6770   10.5820    7.2930 H   0  0  0  0  0  0
   17.0110   10.0270    8.3490 H   0  0  0  0  0  0
   13.1540    8.9830   10.8180 O   0  0  0  0  0  0
   12.8360    9.8200    9.7100 C   0  0  0  0  0  0
   13.7120   10.3640    9.3280 H   0  0  0  0  0  0
   12.4090    9.2210    8.8890 H   0  0  0  0  0  0
   12.0860   10.5490   10.0500 H   0  0  0  0  0  0
   10.0000    1.2030   11.0730 N   0  0  0  0  0  0
    9.1310    1.0630   11.2570 H   0  0  0  0  0  0
   10.3810    0.8010   10.3640 H   0  0  0  0  0  0
   10.1820    3.9600   14.7110 N   0  0  0  0  0  0
   10.5820    4.5620   15.2480 H   0  0  0  0  0  0
    9.3440    3.6840   14.8900 H   0  0  0  0  0  0
  1  2  1  0  0  0
  1  6  2  0  0  0
  1 15  1  0  0  0
  2  3  2  0  0  0
  2 49  1  0  0  0
  3  4  1  0  0  0
  4  5  2  0  0  0
  4 46  1  0  0  0
  5  6  1  0  0  0
  6  7  1  0  0  0
  7  8  1  0  0  0
  7  9  1  0  0  0
  7 10  1  0  0  0
 10 11  1  0  0  0
 10 12  1  0  0  0
 10 13  1  0  0  0
 13 14  1  0  0  0
 13 15  1  0  0  0
 13 18  1  0  0  0
 15 16  1  0  0  0
 15 17  1  0  0  0
 18 19  1  0  0  0
 18 20  1  0  0  0
 18 21  1  0  0  0
 21 22  1  0  0  0
 21 23  1  0  0  0
 23 24  1  0  0  0
 23 29  2  0  0  0
 24 25  1  0  0  0
 24 26  2  0  0  0
 26 27  1  0  0  0
 26 41  1  0  0  0
 27 28  2  0  0  0
 27 36  1  0  0  0
 28 29  1  0  0  0
 28 31  1  0  0  0
 29 30  1  0  0  0
 31 32  1  0  0  0
 32 33  1  0  0  0
 32 34  1  0  0  0
 32 35  1  0  0  0
 36 37  1  0  0  0
 37 38  1  0  0  0
 37 39  1  0  0  0
 37 40  1  0  0  0
 41 42  1  0  0  0
 42 43  1  0  0  0
 42 44  1  0  0  0
 42 45  1  0  0  0
 46 47  1  0  0  0
 46 48  1  0  0  0
 49 50  1  0  0  0
 49 51  1  0  0  0
M  END
>  <ACTIVITY>
6.54

>  <SET>
1

>  <Min_dist>
999.9

>  <Avg_dist>
999.9

$$$$
19-10
  Cerius2 12110214133D 1   1.00000                          
Structure written by Cerius2 SD Exporter
 42 44  0  0  0  0  0  0  0  0999 V2000
   12.2000    3.8600   13.2730 C   0  0  0  0  0  0
   10.8450    3.4660   13.6300 C   0  0  0  0  0  0
   10.1440    2.5940   12.8960 N   0  0  0  0  0  0
   10.6980    1.9790   11.8240 C   0  0  0  0  0  0
   12.0400    2.1470   11.5440 N   0  0  0  0  0  0
   12.7710    3.0540   12.3160 C   0  0  0  0  0  0
   14.2620    3.0500   12.0220 C   0  0  0  0  0  0
   14.5770    2.0210   11.7850 H   0  0  0  0  0  0
   14.4710    3.6520   11.1200 H   0  0  0  0  0  0
   15.0210    3.6230   13.2260 C   0  0  0  0  0  0
   16.0900    3.7360   12.9740 H   0  0  0  0  0  0
   14.9700    2.9340   14.0880 H   0  0  0  0  0  0
   14.3780    4.9850   13.5720 C   0  0  0  0  0  0
   14.1740    5.4270   12.5810 H   0  0  0  0  0  0
   12.9590    4.8530   14.1790 C   0  0  0  0  0  0
   13.0260    4.4130   15.1920 H   0  0  0  0  0  0
   12.5200    5.6950   14.2030 H   0  0  0  0  0  0
   15.3640    5.9040   14.3000 C   0  0  0  0  0  0
   14.8670    6.7660   14.7780 H   0  0  0  0  0  0
   15.8530    5.3580   15.1230 H   0  0  0  0  0  0
   16.3870    6.4120   13.4140 N   0  0  0  0  0  0
   16.0360    7.0980   12.2490 C   0  0  0  0  0  0
   14.7390    7.6590   12.0820 C   0  0  0  0  0  0
   13.9350    7.5460   12.8290 H   0  0  0  0  0  0
   14.4550    8.4760   10.9900 C   0  0  0  0  0  0
   13.4460    8.9240   10.8840 H   0  0  0  0  0  0
   15.4170    8.7250   10.0190 C   0  0  0  0  0  0
   16.6720    8.2010   10.0950 C   0  0  0  0  0  0
   17.0030    7.4330   11.2800 C   0  0  0  0  0  0
   18.0380    7.0530   11.3730 H   0  0  0  0  0  0
   17.9120    8.4600    8.9360 Cl  0  0  0  0  0  0
   14.9260    9.7210    8.6840 Cl  0  0  0  0  0  0
   17.5010    5.6540   13.3250 C   0  0  0  0  0  0
   17.5840    5.0250   14.2120 H   0  0  0  0  0  0
   17.4430    5.0250   12.4370 H   0  0  0  0  0  0
   18.3750    6.3010   13.2560 H   0  0  0  0  0  0
   10.0000    1.2030   11.0730 N   0  0  0  0  0  0
    9.1310    1.0630   11.2570 H   0  0  0  0  0  0
   10.3810    0.8010   10.3640 H   0  0  0  0  0  0
   10.1820    3.9600   14.7110 N   0  0  0  0  0  0
   10.5820    4.5620   15.2480 H   0  0  0  0  0  0
    9.3440    3.6840   14.8900 H   0  0  0  0  0  0
  1  2  1  0  0  0
  1  6  2  0  0  0
  1 15  1  0  0  0
  2  3  2  0  0  0
  2 40  1  0  0  0
  3  4  1  0  0  0
  4  5  2  0  0  0
  4 37  1  0  0  0
  5  6  1  0  0  0
  6  7  1  0  0  0
  7  8  1  0  0  0
  7  9  1  0  0  0
  7 10  1  0  0  0
 10 11  1  0  0  0
 10 12  1  0  0  0
 10 13  1  0  0  0
 13 14  1  0  0  0
 13 15  1  0  0  0
 13 18  1  0  0  0
 15 16  1  0  0  0
 15 17  1  0  0  0
 18 19  1  0  0  0
 18 20  1  0  0  0
 18 21  1  0  0  0
 21 22  1  0  0  0
 21 33  1  0  0  0
 22 23  1  0  0  0
 22 29  2  0  0  0
 23 24  1  0  0  0
 23 25  2  0  0  0
 25 26  1  0  0  0
 25 27  1  0  0  0
 27 28  2  0  0  0
 27 32  1  0  0  0
 28 29  1  0  0  0
 28 31  1  0  0  0
 29 30  1  0  0  0
 33 34  1  0  0  0
 33 35  1  0  0  0
 33 36  1  0  0  0
 37 38  1  0  0  0
 37 39  1  0  0  0
 40 41  1  0  0  0
 40 42  1  0  0  0
M  END
>  <ACTIVITY>
7.47

>  <SET>
2

>  <Min_dist>
0.07

>  <Avg_dist>
0.55

$$$$
19-11
  Cerius2 12110214133D 1   1.00000                          
Structure written by Cerius2 SD Exporter
 39 41  0  0  0  0  0  0  0  0999 V2000
   12.2000    3.8600   13.2730 C   0  0  0  0  0  0
   10.8450    3.4660   13.6300 C   0  0  0  0  0  0
   10.1440    2.5940   12.8960 N   0  0  0  0  0  0
   10.6980    1.9790   11.8240 C   0  0  0  0  0  0
   12.0400    2.1470   11.5440 N   0  0  0  0  0  0
   12.7710    3.0540   12.3160 C   0  0  0  0  0  0
   14.2620    3.0500   12.0220 C   0  0  0  0  0  0
   14.5770    2.0210   11.7850 H   0  0  0  0  0  0
   14.4710    3.6520   11.1200 H   0  0  0  0  0  0
   15.0210    3.6230   13.2260 C   0  0  0  0  0  0
   16.0900    3.7360   12.9740 H   0  0  0  0  0  0
   14.9700    2.9340   14.0880 H   0  0  0  0  0  0
   14.3780    4.9850   13.5720 C   0  0  0  0  0  0
   14.1740    5.4270   12.5810 H   0  0  0  0  0  0
   12.9590    4.8530   14.1790 C   0  0  0  0  0  0
   13.0260    4.4130   15.1920 H   0  0  0  0  0  0
   12.5200    5.6950   14.2030 H   0  0  0  0  0  0
   15.3640    5.9040   14.3000 C   0  0  0  0  0  0
   14.8670    6.7660   14.7780 H   0  0  0  0  0  0
   15.8530    5.3580   15.1230 H   0  0  0  0  0  0
   16.3870    6.4120   13.4140 N   0  0  0  0  0  0
   17.2160    5.8470   13.3480 H   0  0  0  0  0  0
   16.0360    7.0980   12.2490 C   0  0  0  0  0  0
   14.7390    7.6590   12.0820 C   0  0  0  0  0  0
   13.9350    7.5460   12.8290 H   0  0  0  0  0  0
   14.4550    8.4760   10.9900 C   0  0  0  0  0  0
   15.4170    8.7250   10.0190 C   0  0  0  0  0  0
   15.1330    9.3580    9.1540 H   0  0  0  0  0  0
   16.6720    8.2010   10.0950 C   0  0  0  0  0  0
   17.4460    8.4030    9.3310 H   0  0  0  0  0  0
   17.0030    7.4330   11.2800 C   0  0  0  0  0  0
   18.6360    6.8600   11.3820 Cl  0  0  0  0  0  0
   12.8790    9.1680   10.8290 Cl  0  0  0  0  0  0
   10.0000    1.2030   11.0730 N   0  0  0  0  0  0
    9.1310    1.0630   11.2570 H   0  0  0  0  0  0
   10.3810    0.8010   10.3640 H   0  0  0  0  0  0
   10.1820    3.9600   14.7110 N   0  0  0  0  0  0
   10.5820    4.5620   15.2480 H   0  0  0  0  0  0
    9.3440    3.6840   14.8900 H   0  0  0  0  0  0
  1  2  1  0  0  0
  1  6  2  0  0  0
  1 15  1  0  0  0
  2  3  2  0  0  0
  2 37  1  0  0  0
  3  4  1  0  0  0
  4  5  2  0  0  0
  4 34  1  0  0  0
  5  6  1  0  0  0
  6  7  1  0  0  0
  7  8  1  0  0  0
  7  9  1  0  0  0
  7 10  1  0  0  0
 10 11  1  0  0  0
 10 12  1  0  0  0
 10 13  1  0  0  0
 13 14  1  0  0  0
 13 15  1  0  0  0
 13 18  1  0  0  0
 15 16  1  0  0  0
 15 17  1  0  0  0
 18 19  1  0  0  0
 18 20  1  0  0  0
 18 21  1  0  0  0
 21 22  1  0  0  0
 21 23  1  0  0  0
 23 24  1  0  0  0
 23 31  2  0  0  0
 24 25  1  0  0  0
 24 26  2  0  0  0
 26 27  1  0  0  0
 26 33  1  0  0  0
 27 28  1  0  0  0
 27 29  2  0  0  0
 29 30  1  0  0  0
 29 31  1  0  0  0
 31 32  1  0  0  0
 34 35  1  0  0  0
 34 36  1  0  0  0
 37 38  1  0  0  0
 37 39  1  0  0  0
M  END
>  <ACTIVITY>
6.62

>  <SET>
1

>  <Min_dist>
999.9

>  <Avg_dist>
999.9

$$$$
19-12
  Cerius2 12110214133D 1   1.00000                          
Structure written by Cerius2 SD Exporter
 39 41  0  0  0  0  0  0  0  0999 V2000
   12.2000    3.8600   13.2730 C   0  0  0  0  0  0
   10.8450    3.4660   13.6300 C   0  0  0  0  0  0
   10.1440    2.5940   12.8960 N   0  0  0  0  0  0
   10.6980    1.9790   11.8240 C   0  0  0  0  0  0
   12.0400    2.1470   11.5440 N   0  0  0  0  0  0
   12.7710    3.0540   12.3160 C   0  0  0  0  0  0
   14.2620    3.0500   12.0220 C   0  0  0  0  0  0
   14.5770    2.0210   11.7850 H   0  0  0  0  0  0
   14.4710    3.6520   11.1200 H   0  0  0  0  0  0
   15.0210    3.6230   13.2260 C   0  0  0  0  0  0
   16.0900    3.7360   12.9740 H   0  0  0  0  0  0
   14.9700    2.9340   14.0880 H   0  0  0  0  0  0
   14.3780    4.9850   13.5720 C   0  0  0  0  0  0
   14.1740    5.4270   12.5810 H   0  0  0  0  0  0
   12.9590    4.8530   14.1790 C   0  0  0  0  0  0
   13.0260    4.4130   15.1920 H   0  0  0  0  0  0
   12.5200    5.6950   14.2030 H   0  0  0  0  0  0
   15.3640    5.9040   14.3000 C   0  0  0  0  0  0
   14.8670    6.7660   14.7780 H   0  0  0  0  0  0
   15.8530    5.3580   15.1230 H   0  0  0  0  0  0
   16.3870    6.4120   13.4140 N   0  0  0  0  0  0
   17.2160    5.8470   13.3480 H   0  0  0  0  0  0
   16.0360    7.0980   12.2490 C   0  0  0  0  0  0
   14.7390    7.6590   12.0820 C   0  0  0  0  0  0
   14.4550    8.4760   10.9900 C   0  0  0  0  0  0
   13.4570    8.9490   10.8710 H   0  0  0  0  0  0
   15.4170    8.7250   10.0190 C   0  0  0  0  0  0
   15.1330    9.3580    9.1540 H   0  0  0  0  0  0
   16.6720    8.2010   10.0950 C   0  0  0  0  0  0
   17.4460    8.4030    9.3310 H   0  0  0  0  0  0
   17.0030    7.4330   11.2800 C   0  0  0  0  0  0
   18.6360    6.8600   11.3820 Cl  0  0  0  0  0  0
   13.4160    7.9080   13.2010 Cl  0  0  0  0  0  0
   10.0000    1.2030   11.0730 N   0  0  0  0  0  0
    9.1310    1.0630   11.2570 H   0  0  0  0  0  0
   10.3810    0.8010   10.3640 H   0  0  0  0  0  0
   10.1820    3.9600   14.7110 N   0  0  0  0  0  0
   10.5820    4.5620   15.2480 H   0  0  0  0  0  0
    9.3440    3.6840   14.8900 H   0  0  0  0  0  0
  1  2  1  0  0  0
  1  6  2  0  0  0
  1 15  1  0  0  0
  2  3  2  0  0  0
  2 37  1  0  0  0
  3  4  1  0  0  0
  4  5  2  0  0  0
  4 34  1  0  0  0
  5  6  1  0  0  0
  6  7  1  0  0  0
  7  8  1  0  0  0
  7  9  1  0  0  0
  7 10  1  0  0  0
 10 11  1  0  0  0
 10 12  1  0  0  0
 10 13  1  0  0  0
 13 14  1  0  0  0
 13 15  1  0  0  0
 13 18  1  0  0  0
 15 16  1  0  0  0
 15 17  1  0  0  0
 18 19  1  0  0  0
 18 20  1  0  0  0
 18 21  1  0  0  0
 21 22  1  0  0  0
 21 23  1  0  0  0
 23 24  1  0  0  0
 23 31  2  0  0  0
 24 25  2  0  0  0
 24 33  1  0  0  0
 25 26  1  0  0  0
 25 27  1  0  0  0
 27 28  1  0  0  0
 27 29  2  0  0  0
 29 30  1  0  0  0
 29 31  1  0  0  0
 31 32  1  0  0  0
 34 35  1  0  0  0
 34 36  1  0  0  0
 37 38  1  0  0  0
 37 39  1  0  0  0
M  END
>  <ACTIVITY>
6.96

>  <SET>
1

>  <Min_dist>
999.9

>  <Avg_dist>
999.9

$$$$
19-13
  Cerius2 12110214133D 1   1.00000                          
Structure written by Cerius2 SD Exporter
 39 41  0  0  0  0  0  0  0  0999 V2000
   12.2000    3.8600   13.2730 C   0  0  0  0  0  0
   10.8450    3.4660   13.6300 C   0  0  0  0  0  0
   10.1440    2.5940   12.8960 N   0  0  0  0  0  0
   10.6980    1.9790   11.8240 C   0  0  0  0  0  0
   12.0400    2.1470   11.5440 N   0  0  0  0  0  0
   12.7710    3.0540   12.3160 C   0  0  0  0  0  0
   14.2620    3.0500   12.0220 C   0  0  0  0  0  0
   14.5770    2.0210   11.7850 H   0  0  0  0  0  0
   14.4710    3.6520   11.1200 H   0  0  0  0  0  0
   15.0210    3.6230   13.2260 C   0  0  0  0  0  0
   16.0900    3.7360   12.9740 H   0  0  0  0  0  0
   14.9700    2.9340   14.0880 H   0  0  0  0  0  0
   14.3780    4.9850   13.5720 C   0  0  0  0  0  0
   14.1740    5.4270   12.5810 H   0  0  0  0  0  0
   12.9590    4.8530   14.1790 C   0  0  0  0  0  0
   13.0260    4.4130   15.1920 H   0  0  0  0  0  0
   12.5200    5.6950   14.2030 H   0  0  0  0  0  0
   15.3640    5.9040   14.3000 C   0  0  0  0  0  0
   14.8670    6.7660   14.7780 H   0  0  0  0  0  0
   15.8530    5.3580   15.1230 H   0  0  0  0  0  0
   16.3870    6.4120   13.4140 N   0  0  0  0  0  0
   17.2160    5.8470   13.3480 H   0  0  0  0  0  0
   16.0360    7.0980   12.2490 C   0  0  0  0  0  0
   14.7390    7.6590   12.0820 C   0  0  0  0  0  0
   13.9350    7.5460   12.8290 H   0  0  0  0  0  0
   14.4550    8.4760   10.9900 C   0  0  0  0  0  0
   13.4470    8.9260   10.8810 H   0  0  0  0  0  0
   15.4170    8.7250   10.0190 C   0  0  0  0  0  0
   16.6720    8.2010   10.0950 C   0  0  0  0  0  0
   17.4460    8.4030    9.3310 H   0  0  0  0  0  0
   17.0030    7.4330   11.2800 C   0  0  0  0  0  0
   18.0370    7.0520   11.3790 H   0  0  0  0  0  0
   14.9890    9.7140    8.6580 Cl  0  0  0  0  0  0
   10.0000    1.2030   11.0730 N   0  0  0  0  0  0
    9.1310    1.0630   11.2570 H   0  0  0  0  0  0
   10.3810    0.8010   10.3640 H   0  0  0  0  0  0
   10.1820    3.9600   14.7110 N   0  0  0  0  0  0
   10.5820    4.5620   15.2480 H   0  0  0  0  0  0
    9.3440    3.6840   14.8900 H   0  0  0  0  0  0
  1  2  1  0  0  0
  1  6  2  0  0  0
  1 15  1  0  0  0
  2  3  2  0  0  0
  2 37  1  0  0  0
  3  4  1  0  0  0
  4  5  2  0  0  0
  4 34  1  0  0  0
  5  6  1  0  0  0
  6  7  1  0  0  0
  7  8  1  0  0  0
  7  9  1  0  0  0
  7 10  1  0  0  0
 10 11  1  0  0  0
 10 12  1  0  0  0
 10 13  1  0  0  0
 13 14  1  0  0  0
 13 15  1  0  0  0
 13 18  1  0  0  0
 15 16  1  0  0  0
 15 17  1  0  0  0
 18 19  1  0  0  0
 18 20  1  0  0  0
 18 21  1  0  0  0
 21 22  1  0  0  0
 21 23  1  0  0  0
 23 24  1  0  0  0
 23 31  2  0  0  0
 24 25  1  0  0  0
 24 26  2  0  0  0
 26 27  1  0  0  0
 26 28  1  0  0  0
 28 29  2  0  0  0
 28 33  1  0  0  0
 29 30  1  0  0  0
 29 31  1  0  0  0
 31 32  1  0  0  0
 34 35  1  0  0  0
 34 36  1  0  0  0
 37 38  1  0  0  0
 37 39  1  0  0  0
M  END
>  <ACTIVITY>
6.89

>  <SET>
1

>  <Min_dist>
999.9

>  <Avg_dist>
999.9

$$$$
19-14
  Cerius2 12110214133D 1   1.00000                          
Structure written by Cerius2 SD Exporter
 42 44  0  0  0  0  0  0  0  0999 V2000
   12.2000    3.8600   13.2730 C   0  0  0  0  0  0
   10.8450    3.4660   13.6300 C   0  0  0  0  0  0
   10.1440    2.5940   12.8960 N   0  0  0  0  0  0
   10.6980    1.9790   11.8240 C   0  0  0  0  0  0
   12.0400    2.1470   11.5440 N   0  0  0  0  0  0
   12.7710    3.0540   12.3160 C   0  0  0  0  0  0
   14.2620    3.0500   12.0220 C   0  0  0  0  0  0
   14.5770    2.0210   11.7850 H   0  0  0  0  0  0
   14.4710    3.6520   11.1200 H   0  0  0  0  0  0
   15.0210    3.6230   13.2260 C   0  0  0  0  0  0
   16.0900    3.7360   12.9740 H   0  0  0  0  0  0
   14.9700    2.9340   14.0880 H   0  0  0  0  0  0
   14.3780    4.9850   13.5720 C   0  0  0  0  0  0
   14.1740    5.4270   12.5810 H   0  0  0  0  0  0
   12.9590    4.8530   14.1790 C   0  0  0  0  0  0
   13.0260    4.4130   15.1920 H   0  0  0  0  0  0
   12.5200    5.6950   14.2030 H   0  0  0  0  0  0
   15.3640    5.9040   14.3000 C   0  0  0  0  0  0
   14.8670    6.7660   14.7780 H   0  0  0  0  0  0
   15.8530    5.3580   15.1230 H   0  0  0  0  0  0
   16.3870    6.4120   13.4140 N   0  0  0  0  0  0
   16.0360    7.0980   12.2490 C   0  0  0  0  0  0
   14.7390    7.6590   12.0820 C   0  0  0  0  0  0
   13.9350    7.5460   12.8290 H   0  0  0  0  0  0
   14.4550    8.4760   10.9900 C   0  0  0  0  0  0
   13.4470    8.9260   10.8810 H   0  0  0  0  0  0
   15.4170    8.7250   10.0190 C   0  0  0  0  0  0
   16.6720    8.2010   10.0950 C   0  0  0  0  0  0
   17.4460    8.4030    9.3310 H   0  0  0  0  0  0
   17.0030    7.4330   11.2800 C   0  0  0  0  0  0
   18.0370    7.0520   11.3790 H   0  0  0  0  0  0
   14.9890    9.7140    8.6580 Cl  0  0  0  0  0  0
   17.5010    5.6540   13.3250 C   0  0  0  0  0  0
   17.5840    5.0250   14.2120 H   0  0  0  0  0  0
   17.4430    5.0250   12.4370 H   0  0  0  0  0  0
   18.3750    6.3010   13.2560 H   0  0  0  0  0  0
   10.0000    1.2030   11.0730 N   0  0  0  0  0  0
    9.1310    1.0630   11.2570 H   0  0  0  0  0  0
   10.3810    0.8010   10.3640 H   0  0  0  0  0  0
   10.1820    3.9600   14.7110 N   0  0  0  0  0  0
   10.5820    4.5620   15.2480 H   0  0  0  0  0  0
    9.3440    3.6840   14.8900 H   0  0  0  0  0  0
  1  2  1  0  0  0
  1  6  2  0  0  0
  1 15  1  0  0  0
  2  3  2  0  0  0
  2 40  1  0  0  0
  3  4  1  0  0  0
  4  5  2  0  0  0
  4 37  1  0  0  0
  5  6  1  0  0  0
  6  7  1  0  0  0
  7  8  1  0  0  0
  7  9  1  0  0  0
  7 10  1  0  0  0
 10 11  1  0  0  0
 10 12  1  0  0  0
 10 13  1  0  0  0
 13 14  1  0  0  0
 13 15  1  0  0  0
 13 18  1  0  0  0
 15 16  1  0  0  0
 15 17  1  0  0  0
 18 19  1  0  0  0
 18 20  1  0  0  0
 18 21  1  0  0  0
 21 22  1  0  0  0
 21 33  1  0  0  0
 22 23  1  0  0  0
 22 30  2  0  0  0
 23 24  1  0  0  0
 23 25  2  0  0  0
 25 26  1  0  0  0
 25 27  1  0  0  0
 27 28  2  0  0  0
 27 32  1  0  0  0
 28 29  1  0  0  0
 28 30  1  0  0  0
 30 31  1  0  0  0
 33 34  1  0  0  0
 33 35  1  0  0  0
 33 36  1  0  0  0
 37 38  1  0  0  0
 37 39  1  0  0  0
 40 41  1  0  0  0
 40 42  1  0  0  0
M  END
>  <ACTIVITY>
7.17

>  <SET>
1

>  <Min_dist>
999.9

>  <Avg_dist>
999.9

$$$$
19-15
  Cerius2 12110214133D 1   1.00000                          
Structure written by Cerius2 SD Exporter
 39 41  0  0  0  0  0  0  0  0999 V2000
   12.2000    3.8600   13.2730 C   0  0  0  0  0  0
   10.8450    3.4660   13.6300 C   0  0  0  0  0  0
   10.1440    2.5940   12.8960 N   0  0  0  0  0  0
   10.6980    1.9790   11.8240 C   0  0  0  0  0  0
   12.0400    2.1470   11.5440 N   0  0  0  0  0  0
   12.7710    3.0540   12.3160 C   0  0  0  0  0  0
   14.2620    3.0500   12.0220 C   0  0  0  0  0  0
   14.5770    2.0210   11.7850 H   0  0  0  0  0  0
   14.4710    3.6520   11.1200 H   0  0  0  0  0  0
   15.0210    3.6230   13.2260 C   0  0  0  0  0  0
   16.0900    3.7360   12.9740 H   0  0  0  0  0  0
   14.9700    2.9340   14.0880 H   0  0  0  0  0  0
   14.3780    4.9850   13.5720 C   0  0  0  0  0  0
   14.1740    5.4270   12.5810 H   0  0  0  0  0  0
   12.9590    4.8530   14.1790 C   0  0  0  0  0  0
   13.0260    4.4130   15.1920 H   0  0  0  0  0  0
   12.5200    5.6950   14.2030 H   0  0  0  0  0  0
   15.3640    5.9040   14.3000 C   0  0  0  0  0  0
   14.8670    6.7660   14.7780 H   0  0  0  0  0  0
   15.8530    5.3580   15.1230 H   0  0  0  0  0  0
   16.3870    6.4120   13.4140 N   0  0  0  0  0  0
   17.2160    5.8470   13.3480 H   0  0  0  0  0  0
   16.0360    7.0980   12.2490 C   0  0  0  0  0  0
   14.7390    7.6590   12.0820 C   0  0  0  0  0  0
   13.9350    7.5460   12.8290 H   0  0  0  0  0  0
   14.4550    8.4760   10.9900 C   0  0  0  0  0  0
   13.4450    8.9220   10.8860 H   0  0  0  0  0  0
   15.4170    8.7250   10.0190 C   0  0  0  0  0  0
   15.1200    9.3580    9.1580 H   0  0  0  0  0  0
   16.6720    8.2010   10.0950 C   0  0  0  0  0  0
   17.0030    7.4330   11.2800 C   0  0  0  0  0  0
   18.0370    7.0520   11.3790 H   0  0  0  0  0  0
   17.9800    8.5400    8.7310 Br  0  0  0  0  0  0
   10.0000    1.2030   11.0730 N   0  0  0  0  0  0
    9.1310    1.0630   11.2570 H   0  0  0  0  0  0
   10.3810    0.8010   10.3640 H   0  0  0  0  0  0
   10.1820    3.9600   14.7110 N   0  0  0  0  0  0
   10.5820    4.5620   15.2480 H   0  0  0  0  0  0
    9.3440    3.6840   14.8900 H   0  0  0  0  0  0
  1  2  1  0  0  0
  1  6  2  0  0  0
  1 15  1  0  0  0
  2  3  2  0  0  0
  2 37  1  0  0  0
  3  4  1  0  0  0
  4  5  2  0  0  0
  4 34  1  0  0  0
  5  6  1  0  0  0
  6  7  1  0  0  0
  7  8  1  0  0  0
  7  9  1  0  0  0
  7 10  1  0  0  0
 10 11  1  0  0  0
 10 12  1  0  0  0
 10 13  1  0  0  0
 13 14  1  0  0  0
 13 15  1  0  0  0
 13 18  1  0  0  0
 15 16  1  0  0  0
 15 17  1  0  0  0
 18 19  1  0  0  0
 18 20  1  0  0  0
 18 21  1  0  0  0
 21 22  1  0  0  0
 21 23  1  0  0  0
 23 24  1  0  0  0
 23 31  2  0  0  0
 24 25  1  0  0  0
 24 26  2  0  0  0
 26 27  1  0  0  0
 26 28  1  0  0  0
 28 29  1  0  0  0
 28 30  2  0  0  0
 30 31  1  0  0  0
 30 33  1  0  0  0
 31 32  1  0  0  0
 34 35  1  0  0  0
 34 36  1  0  0  0
 37 38  1  0  0  0
 37 39  1  0  0  0
M  END
>  <ACTIVITY>
6.64

>  <SET>
1

>  <Min_dist>
999.9

>  <Avg_dist>
999.9

$$$$
19-19
  Cerius2 12110214133D 1   1.00000                          
Structure written by Cerius2 SD Exporter
 45 48  0  0  0  0  0  0  0  0999 V2000
   12.2000    3.8600   13.2730 C   0  0  0  0  0  0
   10.8450    3.4660   13.6300 C   0  0  0  0  0  0
   10.1440    2.5940   12.8960 N   0  0  0  0  0  0
   10.6980    1.9790   11.8240 C   0  0  0  0  0  0
   12.0400    2.1470   11.5440 N   0  0  0  0  0  0
   12.7710    3.0540   12.3160 C   0  0  0  0  0  0
   14.2620    3.0500   12.0220 C   0  0  0  0  0  0
   14.5770    2.0210   11.7850 H   0  0  0  0  0  0
   14.4710    3.6520   11.1200 H   0  0  0  0  0  0
   15.0210    3.6230   13.2260 C   0  0  0  0  0  0
   16.0900    3.7360   12.9740 H   0  0  0  0  0  0
   14.9700    2.9340   14.0880 H   0  0  0  0  0  0
   14.3780    4.9850   13.5720 C   0  0  0  0  0  0
   14.1740    5.4270   12.5810 H   0  0  0  0  0  0
   12.9590    4.8530   14.1790 C   0  0  0  0  0  0
   13.0260    4.4130   15.1920 H   0  0  0  0  0  0
   12.5200    5.6950   14.2030 H   0  0  0  0  0  0
   15.3640    5.9040   14.3000 C   0  0  0  0  0  0
   14.8670    6.7660   14.7780 H   0  0  0  0  0  0
   15.8530    5.3580   15.1230 H   0  0  0  0  0  0
   16.3870    6.4120   13.4140 N   0  0  0  0  0  0
   17.2160    5.8470   13.3480 H   0  0  0  0  0  0
   16.0360    7.0980   12.2490 C   0  0  0  0  0  0
   14.7390    7.6590   12.0820 C   0  0  0  0  0  0
   13.9350    7.5460   12.8290 H   0  0  0  0  0  0
   14.4550    8.4760   10.9900 C   0  0  0  0  0  0
   13.4470    8.9260   10.8810 H   0  0  0  0  0  0
   15.4170    8.7250   10.0190 C   0  0  0  0  0  0
   15.2080    9.2760    9.2740 H   0  0  0  0  0  0
   16.6720    8.2010   10.0950 C   0  0  0  0  0  0
   17.0030    7.4330   11.2800 C   0  0  0  0  0  0
   18.3470    6.9680   11.3440 C   0  0  0  0  0  0
   18.6780    6.3700   12.2170 H   0  0  0  0  0  0
   19.2760    7.2150   10.3580 C   0  0  0  0  0  0
   20.3060    6.8220   10.4630 H   0  0  0  0  0  0
   18.9270    7.9710    9.2010 C   0  0  0  0  0  0
   19.6830    8.1640    8.4180 H   0  0  0  0  0  0
   17.6510    8.4550    9.0870 C   0  0  0  0  0  0
   17.3590    9.0610    8.2060 H   0  0  0  0  0  0
   10.0000    1.2030   11.0730 N   0  0  0  0  0  0
    9.1310    1.0630   11.2570 H   0  0  0  0  0  0
   10.3810    0.8010   10.3640 H   0  0  0  0  0  0
   10.1820    3.9600   14.7110 N   0  0  0  0  0  0
   10.5820    4.5620   15.2480 H   0  0  0  0  0  0
    9.3440    3.6840   14.8900 H   0  0  0  0  0  0
  1  2  1  0  0  0
  1  6  2  0  0  0
  1 15  1  0  0  0
  2  3  2  0  0  0
  2 43  1  0  0  0
  3  4  1  0  0  0
  4  5  2  0  0  0
  4 40  1  0  0  0
  5  6  1  0  0  0
  6  7  1  0  0  0
  7  8  1  0  0  0
  7  9  1  0  0  0
  7 10  1  0  0  0
 10 11  1  0  0  0
 10 12  1  0  0  0
 10 13  1  0  0  0
 13 14  1  0  0  0
 13 15  1  0  0  0
 13 18  1  0  0  0
 15 16  1  0  0  0
 15 17  1  0  0  0
 18 19  1  0  0  0
 18 20  1  0  0  0
 18 21  1  0  0  0
 21 22  1  0  0  0
 21 23  1  0  0  0
 23 24  2  0  0  0
 23 31  1  0  0  0
 24 25  1  0  0  0
 24 26  1  0  0  0
 26 27  1  0  0  0
 26 28  2  0  0  0
 28 29  1  0  0  0
 28 30  1  0  0  0
 30 31  2  0  0  0
 30 38  1  0  0  0
 31 32  1  0  0  0
 32 33  1  0  0  0
 32 34  2  0  0  0
 34 35  1  0  0  0
 34 36  1  0  0  0
 36 37  1  0  0  0
 36 38  2  0  0  0
 38 39  1  0  0  0
 40 41  1  0  0  0
 40 42  1  0  0  0
 43 44  1  0  0  0
 43 45  1  0  0  0
M  END
>  <ACTIVITY>
6.86

>  <SET>
1

>  <Min_dist>
999.9

>  <Avg_dist>
999.9

$$$$
19-2
  Cerius2 12110214133D 1   1.00000                          
Structure written by Cerius2 SD Exporter
 54 56  0  0  0  0  0  0  0  0999 V2000
   12.2000    3.8600   13.2730 C   0  0  0  0  0  0
   10.8450    3.4660   13.6300 C   0  0  0  0  0  0
   10.1440    2.5940   12.8960 N   0  0  0  0  0  0
   10.6980    1.9790   11.8240 C   0  0  0  0  0  0
   12.0400    2.1470   11.5440 N   0  0  0  0  0  0
   12.7710    3.0540   12.3160 C   0  0  0  0  0  0
   14.2620    3.0500   12.0220 C   0  0  0  0  0  0
   14.5770    2.0210   11.7850 H   0  0  0  0  0  0
   14.4710    3.6520   11.1200 H   0  0  0  0  0  0
   15.0210    3.6230   13.2260 C   0  0  0  0  0  0
   16.0900    3.7360   12.9740 H   0  0  0  0  0  0
   14.9700    2.9340   14.0880 H   0  0  0  0  0  0
   14.3780    4.9850   13.5720 C   0  0  0  0  0  0
   14.1740    5.4270   12.5810 H   0  0  0  0  0  0
   12.9590    4.8530   14.1790 C   0  0  0  0  0  0
   13.0260    4.4130   15.1920 H   0  0  0  0  0  0
   12.5200    5.6950   14.2030 H   0  0  0  0  0  0
   15.3640    5.9040   14.3000 C   0  0  0  0  0  0
   14.8670    6.7660   14.7780 H   0  0  0  0  0  0
   15.8530    5.3580   15.1230 H   0  0  0  0  0  0
   16.3870    6.4120   13.4140 N   0  0  0  0  0  0
   16.0360    7.0980   12.2490 C   0  0  0  0  0  0
   14.7390    7.6590   12.0820 C   0  0  0  0  0  0
   13.9350    7.5460   12.8290 H   0  0  0  0  0  0
   14.4550    8.4760   10.9900 C   0  0  0  0  0  0
   15.4170    8.7250   10.0190 C   0  0  0  0  0  0
   16.6720    8.2010   10.0950 C   0  0  0  0  0  0
   17.0030    7.4330   11.2800 C   0  0  0  0  0  0
   17.9040    7.1550   11.3930 H   0  0  0  0  0  0
   17.6310    8.4120    9.1150 O   0  0  0  0  0  0
   18.9000    7.7940    9.3410 C   0  0  0  0  0  0
   19.3640    8.1630   10.2690 H   0  0  0  0  0  0
   18.8030    6.7000    9.4060 H   0  0  0  0  0  0
   19.5410    8.0510    8.4890 H   0  0  0  0  0  0
   15.0560    9.4900    8.8990 O   0  0  0  0  0  0
   16.0460    9.7460    7.9020 C   0  0  0  0  0  0
   16.2010    8.8750    7.2470 H   0  0  0  0  0  0
   15.6770   10.5820    7.2930 H   0  0  0  0  0  0
   17.0110   10.0270    8.3490 H   0  0  0  0  0  0
   13.1540    8.9830   10.8180 O   0  0  0  0  0  0
   12.8360    9.8200    9.7100 C   0  0  0  0  0  0
   13.7120   10.3640    9.3280 H   0  0  0  0  0  0
   12.4090    9.2210    8.8890 H   0  0  0  0  0  0
   12.0860   10.5490   10.0500 H   0  0  0  0  0  0
   17.6890    6.2200   13.7180 C   0  0  0  0  0  0
   17.7650    5.6600   14.6500 H   0  0  0  0  0  0
   18.1710    5.6600   12.9170 H   0  0  0  0  0  0
   18.1800    7.1860   13.8330 H   0  0  0  0  0  0
   10.0000    1.2030   11.0730 N   0  0  0  0  0  0
    9.1310    1.0630   11.2570 H   0  0  0  0  0  0
   10.3810    0.8010   10.3640 H   0  0  0  0  0  0
   10.1820    3.9600   14.7110 N   0  0  0  0  0  0
   10.5820    4.5620   15.2480 H   0  0  0  0  0  0
    9.3440    3.6840   14.8900 H   0  0  0  0  0  0
  1  2  1  0  0  0
  1  6  2  0  0  0
  1 15  1  0  0  0
  2  3  2  0  0  0
  2 52  1  0  0  0
  3  4  1  0  0  0
  4  5  2  0  0  0
  4 49  1  0  0  0
  5  6  1  0  0  0
  6  7  1  0  0  0
  7  8  1  0  0  0
  7  9  1  0  0  0
  7 10  1  0  0  0
 10 11  1  0  0  0
 10 12  1  0  0  0
 10 13  1  0  0  0
 13 14  1  0  0  0
 13 15  1  0  0  0
 13 18  1  0  0  0
 15 16  1  0  0  0
 15 17  1  0  0  0
 18 19  1  0  0  0
 18 20  1  0  0  0
 18 21  1  0  0  0
 21 22  1  0  0  0
 21 45  1  0  0  0
 22 23  1  0  0  0
 22 28  2  0  0  0
 23 24  1  0  0  0
 23 25  2  0  0  0
 25 26  1  0  0  0
 25 40  1  0  0  0
 26 27  2  0  0  0
 26 35  1  0  0  0
 27 28  1  0  0  0
 27 30  1  0  0  0
 28 29  1  0  0  0
 30 31  1  0  0  0
 31 32  1  0  0  0
 31 33  1  0  0  0
 31 34  1  0  0  0
 35 36  1  0  0  0
 36 37  1  0  0  0
 36 38  1  0  0  0
 36 39  1  0  0  0
 40 41  1  0  0  0
 41 42  1  0  0  0
 41 43  1  0  0  0
 41 44  1  0  0  0
 45 46  1  0  0  0
 45 47  1  0  0  0
 45 48  1  0  0  0
 49 50  1  0  0  0
 49 51  1  0  0  0
 52 53  1  0  0  0
 52 54  1  0  0  0
M  END
>  <ACTIVITY>
7.42

>  <SET>
1

>  <Min_dist>
999.9

>  <Avg_dist>
999.9

$$$$
19-20
  Cerius2 12110214133D 1   1.00000                          
Structure written by Cerius2 SD Exporter
 48 51  0  0  0  0  0  0  0  0999 V2000
   12.2000    3.8600   13.2730 C   0  0  0  0  0  0
   10.8450    3.4660   13.6300 C   0  0  0  0  0  0
   10.1440    2.5940   12.8960 N   0  0  0  0  0  0
   10.6980    1.9790   11.8240 C   0  0  0  0  0  0
   12.0400    2.1470   11.5440 N   0  0  0  0  0  0
   12.7710    3.0540   12.3160 C   0  0  0  0  0  0
   14.2620    3.0500   12.0220 C   0  0  0  0  0  0
   14.5770    2.0210   11.7850 H   0  0  0  0  0  0
   14.4710    3.6520   11.1200 H   0  0  0  0  0  0
   15.0210    3.6230   13.2260 C   0  0  0  0  0  0
   16.0900    3.7360   12.9740 H   0  0  0  0  0  0
   14.9700    2.9340   14.0880 H   0  0  0  0  0  0
   14.3780    4.9850   13.5720 C   0  0  0  0  0  0
   14.1740    5.4270   12.5810 H   0  0  0  0  0  0
   12.9590    4.8530   14.1790 C   0  0  0  0  0  0
   13.0260    4.4130   15.1920 H   0  0  0  0  0  0
   12.5200    5.6950   14.2030 H   0  0  0  0  0  0
   15.3640    5.9040   14.3000 C   0  0  0  0  0  0
   14.8670    6.7660   14.7780 H   0  0  0  0  0  0
   15.8530    5.3580   15.1230 H   0  0  0  0  0  0
   16.3870    6.4120   13.4140 N   0  0  0  0  0  0
   16.0360    7.0980   12.2490 C   0  0  0  0  0  0
   14.7390    7.6590   12.0820 C   0  0  0  0  0  0
   13.9350    7.5460   12.8290 H   0  0  0  0  0  0
   14.4550    8.4760   10.9900 C   0  0  0  0  0  0
   13.4470    8.9260   10.8810 H   0  0  0  0  0  0
   15.4170    8.7250   10.0190 C   0  0  0  0  0  0
   15.2080    9.2760    9.2740 H   0  0  0  0  0  0
   16.6720    8.2010   10.0950 C   0  0  0  0  0  0
   17.0030    7.4330   11.2800 C   0  0  0  0  0  0
   18.3470    6.9680   11.3440 C   0  0  0  0  0  0
   18.6780    6.3700   12.2170 H   0  0  0  0  0  0
   19.2760    7.2150   10.3580 C   0  0  0  0  0  0
   20.3060    6.8220   10.4630 H   0  0  0  0  0  0
   18.9270    7.9710    9.2010 C   0  0  0  0  0  0
   19.6830    8.1640    8.4180 H   0  0  0  0  0  0
   17.6510    8.4550    9.0870 C   0  0  0  0  0  0
   17.3590    9.0610    8.2060 H   0  0  0  0  0  0
   17.5010    5.6540   13.3250 C   0  0  0  0  0  0
   17.5840    5.0250   14.2120 H   0  0  0  0  0  0
   17.4430    5.0250   12.4370 H   0  0  0  0  0  0
   18.3750    6.3010   13.2560 H   0  0  0  0  0  0
   10.0000    1.2030   11.0730 N   0  0  0  0  0  0
    9.1310    1.0630   11.2570 H   0  0  0  0  0  0
   10.3810    0.8010   10.3640 H   0  0  0  0  0  0
   10.1820    3.9600   14.7110 N   0  0  0  0  0  0
   10.5820    4.5620   15.2480 H   0  0  0  0  0  0
    9.3440    3.6840   14.8900 H   0  0  0  0  0  0
  1  2  1  0  0  0
  1  6  2  0  0  0
  1 15  1  0  0  0
  2  3  2  0  0  0
  2 46  1  0  0  0
  3  4  1  0  0  0
  4  5  2  0  0  0
  4 43  1  0  0  0
  5  6  1  0  0  0
  6  7  1  0  0  0
  7  8  1  0  0  0
  7  9  1  0  0  0
  7 10  1  0  0  0
 10 11  1  0  0  0
 10 12  1  0  0  0
 10 13  1  0  0  0
 13 14  1  0  0  0
 13 15  1  0  0  0
 13 18  1  0  0  0
 15 16  1  0  0  0
 15 17  1  0  0  0
 18 19  1  0  0  0
 18 20  1  0  0  0
 18 21  1  0  0  0
 21 22  1  0  0  0
 21 39  1  0  0  0
 22 23  2  0  0  0
 22 30  1  0  0  0
 23 24  1  0  0  0
 23 25  1  0  0  0
 25 26  1  0  0  0
 25 27  2  0  0  0
 27 28  1  0  0  0
 27 29  1  0  0  0
 29 30  2  0  0  0
 29 37  1  0  0  0
 30 31  1  0  0  0
 31 32  1  0  0  0
 31 33  2  0  0  0
 33 34  1  0  0  0
 33 35  1  0  0  0
 35 36  1  0  0  0
 35 37  2  0  0  0
 37 38  1  0  0  0
 39 40  1  0  0  0
 39 41  1  0  0  0
 39 42  1  0  0  0
 43 44  1  0  0  0
 43 45  1  0  0  0
 46 47  1  0  0  0
 46 48  1  0  0  0
M  END
>  <ACTIVITY>
7.33

>  <SET>
1

>  <Min_dist>
999.9

>  <Avg_dist>
999.9

$$$$
19-3
  Cerius2 12110214133D 1   1.00000                          
Structure written by Cerius2 SD Exporter
 53 55  0  0  0  0  0  0  0  0999 V2000
   12.2000    3.8600   13.2730 C   0  0  0  0  0  0
   10.8450    3.4660   13.6300 C   0  0  0  0  0  0
   10.1440    2.5940   12.8960 N   0  0  0  0  0  0
   10.6980    1.9790   11.8240 C   0  0  0  0  0  0
   12.0400    2.1470   11.5440 N   0  0  0  0  0  0
   12.7710    3.0540   12.3160 C   0  0  0  0  0  0
   14.2620    3.0500   12.0220 C   0  0  0  0  0  0
   14.5770    2.0210   11.7850 H   0  0  0  0  0  0
   14.4710    3.6520   11.1200 H   0  0  0  0  0  0
   15.0210    3.6230   13.2260 C   0  0  0  0  0  0
   16.0900    3.7360   12.9740 H   0  0  0  0  0  0
   14.9700    2.9340   14.0880 H   0  0  0  0  0  0
   14.3780    4.9850   13.5720 C   0  0  0  0  0  0
   14.1740    5.4270   12.5810 H   0  0  0  0  0  0
   12.9590    4.8530   14.1790 C   0  0  0  0  0  0
   13.0260    4.4130   15.1920 H   0  0  0  0  0  0
   12.5200    5.6950   14.2030 H   0  0  0  0  0  0
   15.3640    5.9040   14.3000 C   0  0  0  0  0  0
   14.8670    6.7660   14.7780 H   0  0  0  0  0  0
   15.8530    5.3580   15.1230 H   0  0  0  0  0  0
   16.3870    6.4120   13.4140 N   0  0  0  0  0  0
   16.0360    7.0980   12.2490 C   0  0  0  0  0  0
   14.7390    7.6590   12.0820 C   0  0  0  0  0  0
   13.9350    7.5460   12.8290 H   0  0  0  0  0  0
   14.4550    8.4760   10.9900 C   0  0  0  0  0  0
   15.4170    8.7250   10.0190 C   0  0  0  0  0  0
   16.6720    8.2010   10.0950 C   0  0  0  0  0  0
   17.0030    7.4330   11.2800 C   0  0  0  0  0  0
   17.9040    7.1550   11.3930 H   0  0  0  0  0  0
   17.6310    8.4120    9.1150 O   0  0  0  0  0  0
   18.9000    7.7940    9.3410 C   0  0  0  0  0  0
   19.3640    8.1630   10.2690 H   0  0  0  0  0  0
   18.8030    6.7000    9.4060 H   0  0  0  0  0  0
   19.5410    8.0510    8.4890 H   0  0  0  0  0  0
   15.0560    9.4900    8.8990 O   0  0  0  0  0  0
   16.0460    9.7460    7.9020 C   0  0  0  0  0  0
   16.2010    8.8750    7.2470 H   0  0  0  0  0  0
   15.6770   10.5820    7.2930 H   0  0  0  0  0  0
   17.0110   10.0270    8.3490 H   0  0  0  0  0  0
   13.1540    8.9830   10.8180 O   0  0  0  0  0  0
   12.8360    9.8200    9.7100 C   0  0  0  0  0  0
   13.7120   10.3640    9.3280 H   0  0  0  0  0  0
   12.4090    9.2210    8.8890 H   0  0  0  0  0  0
   12.0860   10.5490   10.0500 H   0  0  0  0  0  0
   17.7000    6.0430   13.6020 C   0  0  0  0  0  0
   18.8480    5.7240   13.7680 C   0  0  0  0  0  0
   19.8520    5.4450   13.9120 H   0  0  0  0  0  0
   10.0000    1.2030   11.0730 N   0  0  0  0  0  0
    9.1310    1.0630   11.2570 H   0  0  0  0  0  0
   10.3810    0.8010   10.3640 H   0  0  0  0  0  0
   10.1820    3.9600   14.7110 N   0  0  0  0  0  0
   10.5820    4.5620   15.2480 H   0  0  0  0  0  0
    9.3440    3.6840   14.8900 H   0  0  0  0  0  0
  1  2  1  0  0  0
  1  6  2  0  0  0
  1 15  1  0  0  0
  2  3  2  0  0  0
  2 51  1  0  0  0
  3  4  1  0  0  0
  4  5  2  0  0  0
  4 48  1  0  0  0
  5  6  1  0  0  0
  6  7  1  0  0  0
  7  8  1  0  0  0
  7  9  1  0  0  0
  7 10  1  0  0  0
 10 11  1  0  0  0
 10 12  1  0  0  0
 10 13  1  0  0  0
 13 14  1  0  0  0
 13 15  1  0  0  0
 13 18  1  0  0  0
 15 16  1  0  0  0
 15 17  1  0  0  0
 18 19  1  0  0  0
 18 20  1  0  0  0
 18 21  1  0  0  0
 21 22  1  0  0  0
 21 45  1  0  0  0
 22 23  1  0  0  0
 22 28  2  0  0  0
 23 24  1  0  0  0
 23 25  2  0  0  0
 25 26  1  0  0  0
 25 40  1  0  0  0
 26 27  2  0  0  0
 26 35  1  0  0  0
 27 28  1  0  0  0
 27 30  1  0  0  0
 28 29  1  0  0  0
 30 31  1  0  0  0
 31 32  1  0  0  0
 31 33  1  0  0  0
 31 34  1  0  0  0
 35 36  1  0  0  0
 36 37  1  0  0  0
 36 38  1  0  0  0
 36 39  1  0  0  0
 40 41  1  0  0  0
 41 42  1  0  0  0
 41 43  1  0  0  0
 41 44  1  0  0  0
 45 46  3  0  0  0
 46 47  1  0  0  0
 48 49  1  0  0  0
 48 50  1  0  0  0
 51 52  1  0  0  0
 51 53  1  0  0  0
M  END
>  <ACTIVITY>
7.13

>  <SET>
2

>  <Min_dist>
0.08

>  <Avg_dist>
0.55

$$$$
19-4
  Cerius2 12110214133D 1   1.00000                          
Structure written by Cerius2 SD Exporter
 47 49  0  0  0  0  0  0  0  0999 V2000
   12.2000    3.8600   13.2730 C   0  0  0  0  0  0
   10.8450    3.4660   13.6300 C   0  0  0  0  0  0
   10.1440    2.5940   12.8960 N   0  0  0  0  0  0
   10.6980    1.9790   11.8240 C   0  0  0  0  0  0
   12.0400    2.1470   11.5440 N   0  0  0  0  0  0
   12.7710    3.0540   12.3160 C   0  0  0  0  0  0
   14.2620    3.0500   12.0220 C   0  0  0  0  0  0
   14.5770    2.0210   11.7850 H   0  0  0  0  0  0
   14.4710    3.6520   11.1200 H   0  0  0  0  0  0
   15.0210    3.6230   13.2260 C   0  0  0  0  0  0
   16.0900    3.7360   12.9740 H   0  0  0  0  0  0
   14.9700    2.9340   14.0880 H   0  0  0  0  0  0
   14.3780    4.9850   13.5720 C   0  0  0  0  0  0
   14.1740    5.4270   12.5810 H   0  0  0  0  0  0
   12.9590    4.8530   14.1790 C   0  0  0  0  0  0
   13.0260    4.4130   15.1920 H   0  0  0  0  0  0
   12.5200    5.6950   14.2030 H   0  0  0  0  0  0
   15.3640    5.9040   14.3000 C   0  0  0  0  0  0
   14.8670    6.7660   14.7780 H   0  0  0  0  0  0
   15.8530    5.3580   15.1230 H   0  0  0  0  0  0
   16.3870    6.4120   13.4140 N   0  0  0  0  0  0
   17.2550    6.2840   13.6170 H   0  0  0  0  0  0
   16.0360    7.0980   12.2490 C   0  0  0  0  0  0
   14.7390    7.6590   12.0820 C   0  0  0  0  0  0
   13.9350    7.5460   12.8290 H   0  0  0  0  0  0
   14.4550    8.4760   10.9900 C   0  0  0  0  0  0
   15.4170    8.7250   10.0190 C   0  0  0  0  0  0
   15.2080    9.2760    9.2740 H   0  0  0  0  0  0
   16.6720    8.2010   10.0950 C   0  0  0  0  0  0
   17.2900    8.3450    9.3890 H   0  0  0  0  0  0
   17.0030    7.4330   11.2800 C   0  0  0  0  0  0
   18.2370    7.0520   11.4350 O   0  0  0  0  0  0
   19.2280    7.3800   10.4700 C   0  0  0  0  0  0
   18.7870    7.9670    9.6630 H   0  0  0  0  0  0
   20.0180    7.9600   10.9470 H   0  0  0  0  0  0
   19.6510    6.4630   10.0590 H   0  0  0  0  0  0
   13.1540    8.9830   10.8180 O   0  0  0  0  0  0
   12.8360    9.8200    9.7100 C   0  0  0  0  0  0
   13.7120   10.3640    9.3280 H   0  0  0  0  0  0
   12.4090    9.2210    8.8890 H   0  0  0  0  0  0
   12.0860   10.5490   10.0500 H   0  0  0  0  0  0
   10.0000    1.2030   11.0730 N   0  0  0  0  0  0
    9.1310    1.0630   11.2570 H   0  0  0  0  0  0
   10.3810    0.8010   10.3640 H   0  0  0  0  0  0
   10.1820    3.9600   14.7110 N   0  0  0  0  0  0
   10.5820    4.5620   15.2480 H   0  0  0  0  0  0
    9.3440    3.6840   14.8900 H   0  0  0  0  0  0
  1  2  1  0  0  0
  1  6  2  0  0  0
  1 15  1  0  0  0
  2  3  2  0  0  0
  2 45  1  0  0  0
  3  4  1  0  0  0
  4  5  2  0  0  0
  4 42  1  0  0  0
  5  6  1  0  0  0
  6  7  1  0  0  0
  7  8  1  0  0  0
  7  9  1  0  0  0
  7 10  1  0  0  0
 10 11  1  0  0  0
 10 12  1  0  0  0
 10 13  1  0  0  0
 13 14  1  0  0  0
 13 15  1  0  0  0
 13 18  1  0  0  0
 15 16  1  0  0  0
 15 17  1  0  0  0
 18 19  1  0  0  0
 18 20  1  0  0  0
 18 21  1  0  0  0
 21 22  1  0  0  0
 21 23  1  0  0  0
 23 24  1  0  0  0
 23 31  2  0  0  0
 24 25  1  0  0  0
 24 26  2  0  0  0
 26 27  1  0  0  0
 26 37  1  0  0  0
 27 28  1  0  0  0
 27 29  2  0  0  0
 29 30  1  0  0  0
 29 31  1  0  0  0
 31 32  1  0  0  0
 32 33  1  0  0  0
 33 34  1  0  0  0
 33 35  1  0  0  0
 33 36  1  0  0  0
 37 38  1  0  0  0
 38 39  1  0  0  0
 38 40  1  0  0  0
 38 41  1  0  0  0
 42 43  1  0  0  0
 42 44  1  0  0  0
 45 46  1  0  0  0
 45 47  1  0  0  0
M  END
>  <ACTIVITY>
6.25

>  <SET>
2

>  <Min_dist>
0.03

>  <Avg_dist>
0.52

$$$$
19-5
  Cerius2 12110214133D 1   1.00000                          
Structure written by Cerius2 SD Exporter
 50 52  0  0  0  0  0  0  0  0999 V2000
   12.2000    3.8600   13.2730 C   0  0  0  0  0  0
   10.8450    3.4660   13.6300 C   0  0  0  0  0  0
   10.1440    2.5940   12.8960 N   0  0  0  0  0  0
   10.6980    1.9790   11.8240 C   0  0  0  0  0  0
   12.0400    2.1470   11.5440 N   0  0  0  0  0  0
   12.7710    3.0540   12.3160 C   0  0  0  0  0  0
   14.2620    3.0500   12.0220 C   0  0  0  0  0  0
   14.5770    2.0210   11.7850 H   0  0  0  0  0  0
   14.4710    3.6520   11.1200 H   0  0  0  0  0  0
   15.0210    3.6230   13.2260 C   0  0  0  0  0  0
   16.0900    3.7360   12.9740 H   0  0  0  0  0  0
   14.9700    2.9340   14.0880 H   0  0  0  0  0  0
   14.3780    4.9850   13.5720 C   0  0  0  0  0  0
   14.1740    5.4270   12.5810 H   0  0  0  0  0  0
   12.9590    4.8530   14.1790 C   0  0  0  0  0  0
   13.0260    4.4130   15.1920 H   0  0  0  0  0  0
   12.5200    5.6950   14.2030 H   0  0  0  0  0  0
   15.3640    5.9040   14.3000 C   0  0  0  0  0  0
   14.8670    6.7660   14.7780 H   0  0  0  0  0  0
   15.8530    5.3580   15.1230 H   0  0  0  0  0  0
   16.3870    6.4120   13.4140 N   0  0  0  0  0  0
   16.0360    7.0980   12.2490 C   0  0  0  0  0  0
   14.7390    7.6590   12.0820 C   0  0  0  0  0  0
   13.9350    7.5460   12.8290 H   0  0  0  0  0  0
   14.4550    8.4760   10.9900 C   0  0  0  0  0  0
   15.4170    8.7250   10.0190 C   0  0  0  0  0  0
   15.2080    9.2760    9.2740 H   0  0  0  0  0  0
   16.6720    8.2010   10.0950 C   0  0  0  0  0  0
   17.2900    8.3450    9.3890 H   0  0  0  0  0  0
   17.0030    7.4330   11.2800 C   0  0  0  0  0  0
   18.2370    7.0520   11.4350 O   0  0  0  0  0  0
   19.2280    7.3800   10.4700 C   0  0  0  0  0  0
   18.7870    7.9670    9.6630 H   0  0  0  0  0  0
   20.0180    7.9600   10.9470 H   0  0  0  0  0  0
   19.6510    6.4630   10.0590 H   0  0  0  0  0  0
   13.1540    8.9830   10.8180 O   0  0  0  0  0  0
   12.8360    9.8200    9.7100 C   0  0  0  0  0  0
   13.7120   10.3640    9.3280 H   0  0  0  0  0  0
   12.4090    9.2210    8.8890 H   0  0  0  0  0  0
   12.0860   10.5490   10.0500 H   0  0  0  0  0  0
   17.6890    6.2200   13.7180 C   0  0  0  0  0  0
   17.7650    5.6600   14.6500 H   0  0  0  0  0  0
   18.1710    5.6600   12.9170 H   0  0  0  0  0  0
   18.1800    7.1860   13.8330 H   0  0  0  0  0  0
   10.0000    1.2030   11.0730 N   0  0  0  0  0  0
    9.1310    1.0630   11.2570 H   0  0  0  0  0  0
   10.3810    0.8010   10.3640 H   0  0  0  0  0  0
   10.1820    3.9600   14.7110 N   0  0  0  0  0  0
   10.5820    4.5620   15.2480 H   0  0  0  0  0  0
    9.3440    3.6840   14.8900 H   0  0  0  0  0  0
  1  2  1  0  0  0
  1  6  2  0  0  0
  1 15  1  0  0  0
  2  3  2  0  0  0
  2 48  1  0  0  0
  3  4  1  0  0  0
  4  5  2  0  0  0
  4 45  1  0  0  0
  5  6  1  0  0  0
  6  7  1  0  0  0
  7  8  1  0  0  0
  7  9  1  0  0  0
  7 10  1  0  0  0
 10 11  1  0  0  0
 10 12  1  0  0  0
 10 13  1  0  0  0
 13 14  1  0  0  0
 13 15  1  0  0  0
 13 18  1  0  0  0
 15 16  1  0  0  0
 15 17  1  0  0  0
 18 19  1  0  0  0
 18 20  1  0  0  0
 18 21  1  0  0  0
 21 22  1  0  0  0
 21 41  1  0  0  0
 22 23  1  0  0  0
 22 30  2  0  0  0
 23 24  1  0  0  0
 23 25  2  0  0  0
 25 26  1  0  0  0
 25 36  1  0  0  0
 26 27  1  0  0  0
 26 28  2  0  0  0
 28 29  1  0  0  0
 28 30  1  0  0  0
 30 31  1  0  0  0
 31 32  1  0  0  0
 32 33  1  0  0  0
 32 34  1  0  0  0
 32 35  1  0  0  0
 36 37  1  0  0  0
 37 38  1  0  0  0
 37 39  1  0  0  0
 37 40  1  0  0  0
 41 42  1  0  0  0
 41 43  1  0  0  0
 41 44  1  0  0  0
 45 46  1  0  0  0
 45 47  1  0  0  0
 48 49  1  0  0  0
 48 50  1  0  0  0
M  END
>  <ACTIVITY>
6.59

>  <SET>
1

>  <Min_dist>
999.9

>  <Avg_dist>
999.9

$$$$
19-6
  Cerius2 12110214133D 1   1.00000                          
Structure written by Cerius2 SD Exporter
 53 55  0  0  0  0  0  0  0  0999 V2000
   12.2000    3.8600   13.2730 C   0  0  0  0  0  0
   10.8450    3.4660   13.6300 C   0  0  0  0  0  0
   10.1440    2.5940   12.8960 N   0  0  0  0  0  0
   10.6980    1.9790   11.8240 C   0  0  0  0  0  0
   12.0400    2.1470   11.5440 N   0  0  0  0  0  0
   12.7710    3.0540   12.3160 C   0  0  0  0  0  0
   14.2620    3.0500   12.0220 C   0  0  0  0  0  0
   14.5770    2.0210   11.7850 H   0  0  0  0  0  0
   14.4710    3.6520   11.1200 H   0  0  0  0  0  0
   15.0210    3.6230   13.2260 C   0  0  0  0  0  0
   16.0900    3.7360   12.9740 H   0  0  0  0  0  0
   14.9700    2.9340   14.0880 H   0  0  0  0  0  0
   14.3780    4.9850   13.5720 C   0  0  0  0  0  0
   14.1740    5.4270   12.5810 H   0  0  0  0  0  0
   12.9590    4.8530   14.1790 C   0  0  0  0  0  0
   13.0260    4.4130   15.1920 H   0  0  0  0  0  0
   12.5200    5.6950   14.2030 H   0  0  0  0  0  0
   15.3640    5.9040   14.3000 C   0  0  0  0  0  0
   14.8670    6.7660   14.7780 H   0  0  0  0  0  0
   15.8530    5.3580   15.1230 H   0  0  0  0  0  0
   16.3870    6.4120   13.4140 N   0  0  0  0  0  0
   16.0360    7.0980   12.2490 C   0  0  0  0  0  0
   14.7390    7.6590   12.0820 C   0  0  0  0  0  0
   13.9350    7.5460   12.8290 H   0  0  0  0  0  0
   14.4550    8.4760   10.9900 C   0  0  0  0  0  0
   15.4170    8.7250   10.0190 C   0  0  0  0  0  0
   15.1900    9.2690    9.0860 H   0  0  0  0  0  0
   16.6720    8.2010   10.0950 C   0  0  0  0  0  0
   17.2250    8.3960    9.1640 H   0  0  0  0  0  0
   17.0030    7.4330   11.2800 C   0  0  0  0  0  0
   18.2370    7.0520   11.4350 O   0  0  0  0  0  0
   19.2280    7.3800   10.4700 C   0  0  0  0  0  0
   18.7870    7.9670    9.6630 H   0  0  0  0  0  0
   20.0180    7.9600   10.9470 H   0  0  0  0  0  0
   19.6510    6.4630   10.0590 H   0  0  0  0  0  0
   13.1540    8.9830   10.8180 O   0  0  0  0  0  0
   12.8360    9.8200    9.7100 C   0  0  0  0  0  0
   13.7120   10.3640    9.3280 H   0  0  0  0  0  0
   12.4090    9.2210    8.8890 H   0  0  0  0  0  0
   12.0860   10.5490   10.0500 H   0  0  0  0  0  0
   17.7200    6.3960   14.0180 C   0  0  0  0  0  0
   17.6930    6.0510   15.0600 H   0  0  0  0  0  0
   18.1650    7.4040   14.0310 H   0  0  0  0  0  0
   18.4630    5.4970   13.0810 C   0  0  0  0  0  0
   19.5560    5.5250   13.1790 H   0  0  0  0  0  0
   18.0910    4.4700   13.0140 H   0  0  0  0  0  0
   18.1040    6.1490   12.1050 H   0  0  0  0  0  0
   10.0000    1.2030   11.0730 N   0  0  0  0  0  0
    9.1310    1.0630   11.2570 H   0  0  0  0  0  0
   10.3810    0.8010   10.3640 H   0  0  0  0  0  0
   10.1820    3.9600   14.7110 N   0  0  0  0  0  0
   10.5820    4.5620   15.2480 H   0  0  0  0  0  0
    9.3440    3.6840   14.8900 H   0  0  0  0  0  0
  1  2  1  0  0  0
  1  6  2  0  0  0
  1 15  1  0  0  0
  2  3  2  0  0  0
  2 51  1  0  0  0
  3  4  1  0  0  0
  4  5  2  0  0  0
  4 48  1  0  0  0
  5  6  1  0  0  0
  6  7  1  0  0  0
  7  8  1  0  0  0
  7  9  1  0  0  0
  7 10  1  0  0  0
 10 11  1  0  0  0
 10 12  1  0  0  0
 10 13  1  0  0  0
 13 14  1  0  0  0
 13 15  1  0  0  0
 13 18  1  0  0  0
 15 16  1  0  0  0
 15 17  1  0  0  0
 18 19  1  0  0  0
 18 20  1  0  0  0
 18 21  1  0  0  0
 21 22  1  0  0  0
 21 41  1  0  0  0
 22 23  1  0  0  0
 22 30  2  0  0  0
 23 24  1  0  0  0
 23 25  2  0  0  0
 25 26  1  0  0  0
 25 36  1  0  0  0
 26 27  1  0  0  0
 26 28  2  0  0  0
 28 29  1  0  0  0
 28 30  1  0  0  0
 30 31  1  0  0  0
 31 32  1  0  0  0
 32 33  1  0  0  0
 32 34  1  0  0  0
 32 35  1  0  0  0
 36 37  1  0  0  0
 37 38  1  0  0  0
 37 39  1  0  0  0
 37 40  1  0  0  0
 41 42  1  0  0  0
 41 43  1  0  0  0
 41 44  1  0  0  0
 44 45  1  0  0  0
 44 46  1  0  0  0
 44 47  1  0  0  0
 48 49  1  0  0  0
 48 50  1  0  0  0
 51 52  1  0  0  0
 51 53  1  0  0  0
M  END
>  <ACTIVITY>
7.15

>  <SET>
1

>  <Min_dist>
999.9

>  <Avg_dist>
999.9

$$$$
19-7
  Cerius2 12110214133D 1   1.00000                          
Structure written by Cerius2 SD Exporter
 53 55  0  0  0  0  0  0  0  0999 V2000
   12.2000    3.8600   13.2730 C   0  0  0  0  0  0
   10.8450    3.4660   13.6300 C   0  0  0  0  0  0
   10.1440    2.5940   12.8960 N   0  0  0  0  0  0
   10.6980    1.9790   11.8240 C   0  0  0  0  0  0
   12.0400    2.1470   11.5440 N   0  0  0  0  0  0
   12.7710    3.0540   12.3160 C   0  0  0  0  0  0
   14.2620    3.0500   12.0220 C   0  0  0  0  0  0
   14.5770    2.0210   11.7850 H   0  0  0  0  0  0
   14.4710    3.6520   11.1200 H   0  0  0  0  0  0
   15.0210    3.6230   13.2260 C   0  0  0  0  0  0
   16.0900    3.7360   12.9740 H   0  0  0  0  0  0
   14.9700    2.9340   14.0880 H   0  0  0  0  0  0
   14.3780    4.9850   13.5720 C   0  0  0  0  0  0
   14.1740    5.4270   12.5810 H   0  0  0  0  0  0
   12.9590    4.8530   14.1790 C   0  0  0  0  0  0
   13.0260    4.4130   15.1920 H   0  0  0  0  0  0
   12.5200    5.6950   14.2030 H   0  0  0  0  0  0
   15.3640    5.9040   14.3000 C   0  0  0  0  0  0
   14.8670    6.7660   14.7780 H   0  0  0  0  0  0
   15.8530    5.3580   15.1230 H   0  0  0  0  0  0
   16.3870    6.4120   13.4140 N   0  0  0  0  0  0
   17.2160    5.8470   13.3480 H   0  0  0  0  0  0
   16.0360    7.0980   12.2490 C   0  0  0  0  0  0
   14.7390    7.6590   12.0820 C   0  0  0  0  0  0
   13.9350    7.5460   12.8290 H   0  0  0  0  0  0
   14.4550    8.4760   10.9900 C   0  0  0  0  0  0
   15.4170    8.7250   10.0190 C   0  0  0  0  0  0
   15.2080    9.2760    9.2740 H   0  0  0  0  0  0
   16.6720    8.2010   10.0950 C   0  0  0  0  0  0
   17.2900    8.3450    9.3890 H   0  0  0  0  0  0
   17.0030    7.4330   11.2800 C   0  0  0  0  0  0
   18.2370    7.0520   11.4350 O   0  0  0  0  0  0
   19.3270    7.3130   10.5450 C   0  0  0  0  0  0
   19.4900    8.3930   10.3970 H   0  0  0  0  0  0
   18.9750    6.9210    9.5770 H   0  0  0  0  0  0
   20.6410    6.6110   10.9110 C   0  0  0  0  0  0
   21.4020    6.7830   10.1340 H   0  0  0  0  0  0
   21.0420    6.9740   11.8710 H   0  0  0  0  0  0
   20.4800    5.5250   11.0040 H   0  0  0  0  0  0
   13.1840    8.9890   10.9440 O   0  0  0  0  0  0
   12.7570    9.8110    9.8590 C   0  0  0  0  0  0
   13.3900   10.7120    9.7880 H   0  0  0  0  0  0
   12.8560    9.2680    8.9040 H   0  0  0  0  0  0
   11.2970   10.2120   10.0830 C   0  0  0  0  0  0
   10.9160   10.8490    9.2700 H   0  0  0  0  0  0
   10.6600    9.3140   10.1430 H   0  0  0  0  0  0
   11.1930   10.7650   11.0300 H   0  0  0  0  0  0
   10.0000    1.2030   11.0730 N   0  0  0  0  0  0
    9.1310    1.0630   11.2570 H   0  0  0  0  0  0
   10.3810    0.8010   10.3640 H   0  0  0  0  0  0
   10.1820    3.9600   14.7110 N   0  0  0  0  0  0
   10.5820    4.5620   15.2480 H   0  0  0  0  0  0
    9.3440    3.6840   14.8900 H   0  0  0  0  0  0
  1  2  1  0  0  0
  1  6  2  0  0  0
  1 15  1  0  0  0
  2  3  2  0  0  0
  2 51  1  0  0  0
  3  4  1  0  0  0
  4  5  2  0  0  0
  4 48  1  0  0  0
  5  6  1  0  0  0
  6  7  1  0  0  0
  7  8  1  0  0  0
  7  9  1  0  0  0
  7 10  1  0  0  0
 10 11  1  0  0  0
 10 12  1  0  0  0
 10 13  1  0  0  0
 13 14  1  0  0  0
 13 15  1  0  0  0
 13 18  1  0  0  0
 15 16  1  0  0  0
 15 17  1  0  0  0
 18 19  1  0  0  0
 18 20  1  0  0  0
 18 21  1  0  0  0
 21 22  1  0  0  0
 21 23  1  0  0  0
 23 24  1  0  0  0
 23 31  2  0  0  0
 24 25  1  0  0  0
 24 26  2  0  0  0
 26 27  1  0  0  0
 26 40  1  0  0  0
 27 28  1  0  0  0
 27 29  2  0  0  0
 29 30  1  0  0  0
 29 31  1  0  0  0
 31 32  1  0  0  0
 32 33  1  0  0  0
 33 34  1  0  0  0
 33 35  1  0  0  0
 33 36  1  0  0  0
 36 37  1  0  0  0
 36 38  1  0  0  0
 36 39  1  0  0  0
 40 41  1  0  0  0
 41 42  1  0  0  0
 41 43  1  0  0  0
 41 44  1  0  0  0
 44 45  1  0  0  0
 44 46  1  0  0  0
 44 47  1  0  0  0
 48 49  1  0  0  0
 48 50  1  0  0  0
 51 52  1  0  0  0
 51 53  1  0  0  0
M  END
>  <ACTIVITY>
5.83

>  <SET>
1

>  <Min_dist>
999.9

>  <Avg_dist>
999.9

$$$$
19-8
  Cerius2 12110214133D 1   1.00000                          
Structure written by Cerius2 SD Exporter
 56 58  0  0  0  0  0  0  0  0999 V2000
   12.2000    3.8600   13.2730 C   0  0  0  0  0  0
   10.8450    3.4660   13.6300 C   0  0  0  0  0  0
   10.1440    2.5940   12.8960 N   0  0  0  0  0  0
   10.6980    1.9790   11.8240 C   0  0  0  0  0  0
   12.0400    2.1470   11.5440 N   0  0  0  0  0  0
   12.7710    3.0540   12.3160 C   0  0  0  0  0  0
   14.2620    3.0500   12.0220 C   0  0  0  0  0  0
   14.5770    2.0210   11.7850 H   0  0  0  0  0  0
   14.4710    3.6520   11.1200 H   0  0  0  0  0  0
   15.0210    3.6230   13.2260 C   0  0  0  0  0  0
   16.0900    3.7360   12.9740 H   0  0  0  0  0  0
   14.9700    2.9340   14.0880 H   0  0  0  0  0  0
   14.3780    4.9850   13.5720 C   0  0  0  0  0  0
   14.1740    5.4270   12.5810 H   0  0  0  0  0  0
   12.9590    4.8530   14.1790 C   0  0  0  0  0  0
   13.0260    4.4130   15.1920 H   0  0  0  0  0  0
   12.5200    5.6950   14.2030 H   0  0  0  0  0  0
   15.3640    5.9040   14.3000 C   0  0  0  0  0  0
   14.8670    6.7660   14.7780 H   0  0  0  0  0  0
   15.8530    5.3580   15.1230 H   0  0  0  0  0  0
   16.3870    6.4120   13.4140 N   0  0  0  0  0  0
   16.0360    7.0980   12.2490 C   0  0  0  0  0  0
   14.7390    7.6590   12.0820 C   0  0  0  0  0  0
   13.9350    7.5460   12.8290 H   0  0  0  0  0  0
   14.4550    8.4760   10.9900 C   0  0  0  0  0  0
   15.4170    8.7250   10.0190 C   0  0  0  0  0  0
   15.2080    9.2760    9.2740 H   0  0  0  0  0  0
   16.6720    8.2010   10.0950 C   0  0  0  0  0  0
   17.2900    8.3450    9.3890 H   0  0  0  0  0  0
   17.0030    7.4330   11.2800 C   0  0  0  0  0  0
   18.2370    7.0520   11.4350 O   0  0  0  0  0  0
   19.3270    7.3130   10.5450 C   0  0  0  0  0  0
   19.4210    8.3860   10.3100 H   0  0  0  0  0  0
   19.0240    6.8190    9.6070 H   0  0  0  0  0  0
   20.6770    6.7350   10.9910 C   0  0  0  0  0  0
   21.4410    6.8950   10.2160 H   0  0  0  0  0  0
   21.0310    7.2030   11.9230 H   0  0  0  0  0  0
   20.5870    5.6520   11.1710 H   0  0  0  0  0  0
   13.1840    8.9890   10.9440 O   0  0  0  0  0  0
   12.7570    9.8110    9.8590 C   0  0  0  0  0  0
   13.3900   10.7120    9.7880 H   0  0  0  0  0  0
   12.8560    9.2680    8.9040 H   0  0  0  0  0  0
   11.2970   10.2120   10.0830 C   0  0  0  0  0  0
   10.9160   10.8490    9.2700 H   0  0  0  0  0  0
   10.6600    9.3140   10.1430 H   0  0  0  0  0  0
   11.1930   10.7650   11.0300 H   0  0  0  0  0  0
   17.6200    6.8060   14.1140 C   0  0  0  0  0  0
   17.5200    6.6600   15.1990 H   0  0  0  0  0  0
   18.4740    6.1950   13.7790 H   0  0  0  0  0  0
   17.8470    7.8690   13.9490 H   0  0  0  0  0  0
   10.0000    1.2030   11.0730 N   0  0  0  0  0  0
    9.1310    1.0630   11.2570 H   0  0  0  0  0  0
   10.3810    0.8010   10.3640 H   0  0  0  0  0  0
   10.1820    3.9600   14.7110 N   0  0  0  0  0  0
   10.5820    4.5620   15.2480 H   0  0  0  0  0  0
    9.3440    3.6840   14.8900 H   0  0  0  0  0  0
  1  2  1  0  0  0
  1  6  2  0  0  0
  1 15  1  0  0  0
  2  3  2  0  0  0
  2 54  1  0  0  0
  3  4  1  0  0  0
  4  5  2  0  0  0
  4 51  1  0  0  0
  5  6  1  0  0  0
  6  7  1  0  0  0
  7  8  1  0  0  0
  7  9  1  0  0  0
  7 10  1  0  0  0
 10 11  1  0  0  0
 10 12  1  0  0  0
 10 13  1  0  0  0
 13 14  1  0  0  0
 13 15  1  0  0  0
 13 18  1  0  0  0
 15 16  1  0  0  0
 15 17  1  0  0  0
 18 19  1  0  0  0
 18 20  1  0  0  0
 18 21  1  0  0  0
 21 22  1  0  0  0
 21 47  1  0  0  0
 22 23  1  0  0  0
 22 30  2  0  0  0
 23 24  1  0  0  0
 23 25  2  0  0  0
 25 26  1  0  0  0
 25 39  1  0  0  0
 26 27  1  0  0  0
 26 28  2  0  0  0
 28 29  1  0  0  0
 28 30  1  0  0  0
 30 31  1  0  0  0
 31 32  1  0  0  0
 32 33  1  0  0  0
 32 34  1  0  0  0
 32 35  1  0  0  0
 35 36  1  0  0  0
 35 37  1  0  0  0
 35 38  1  0  0  0
 39 40  1  0  0  0
 40 41  1  0  0  0
 40 42  1  0  0  0
 40 43  1  0  0  0
 43 44  1  0  0  0
 43 45  1  0  0  0
 43 46  1  0  0  0
 47 48  1  0  0  0
 47 49  1  0  0  0
 47 50  1  0  0  0
 51 52  1  0  0  0
 51 53  1  0  0  0
 54 55  1  0  0  0
 54 56  1  0  0  0
M  END
>  <ACTIVITY>
6.94

>  <SET>
1

>  <Min_dist>
999.9

>  <Avg_dist>
999.9

$$$$
19-9
  Cerius2 12110214133D 1   1.00000                          
Structure written by Cerius2 SD Exporter
 39 41  0  0  0  0  0  0  0  0999 V2000
   12.2000    3.8600   13.2730 C   0  0  0  0  0  0
   10.8450    3.4660   13.6300 C   0  0  0  0  0  0
   10.1440    2.5940   12.8960 N   0  0  0  0  0  0
   10.6980    1.9790   11.8240 C   0  0  0  0  0  0
   12.0400    2.1470   11.5440 N   0  0  0  0  0  0
   12.7710    3.0540   12.3160 C   0  0  0  0  0  0
   14.2620    3.0500   12.0220 C   0  0  0  0  0  0
   14.5770    2.0210   11.7850 H   0  0  0  0  0  0
   14.4710    3.6520   11.1200 H   0  0  0  0  0  0
   15.0210    3.6230   13.2260 C   0  0  0  0  0  0
   16.0900    3.7360   12.9740 H   0  0  0  0  0  0
   14.9700    2.9340   14.0880 H   0  0  0  0  0  0
   14.3780    4.9850   13.5720 C   0  0  0  0  0  0
   14.1740    5.4270   12.5810 H   0  0  0  0  0  0
   12.9590    4.8530   14.1790 C   0  0  0  0  0  0
   13.0260    4.4130   15.1920 H   0  0  0  0  0  0
   12.5200    5.6950   14.2030 H   0  0  0  0  0  0
   15.3640    5.9040   14.3000 C   0  0  0  0  0  0
   14.8670    6.7660   14.7780 H   0  0  0  0  0  0
   15.8530    5.3580   15.1230 H   0  0  0  0  0  0
   16.3870    6.4120   13.4140 N   0  0  0  0  0  0
   17.2160    5.8470   13.3480 H   0  0  0  0  0  0
   16.0360    7.0980   12.2490 C   0  0  0  0  0  0
   14.7390    7.6590   12.0820 C   0  0  0  0  0  0
   13.9350    7.5460   12.8290 H   0  0  0  0  0  0
   14.4550    8.4760   10.9900 C   0  0  0  0  0  0
   13.4460    8.9240   10.8840 H   0  0  0  0  0  0
   15.4170    8.7250   10.0190 C   0  0  0  0  0  0
   16.6720    8.2010   10.0950 C   0  0  0  0  0  0
   17.0030    7.4330   11.2800 C   0  0  0  0  0  0
   18.0380    7.0530   11.3730 H   0  0  0  0  0  0
   17.9120    8.4600    8.9360 Cl  0  0  0  0  0  0
   14.9260    9.7210    8.6840 Cl  0  0  0  0  0  0
   10.0000    1.2030   11.0730 N   0  0  0  0  0  0
    9.1310    1.0630   11.2570 H   0  0  0  0  0  0
   10.3810    0.8010   10.3640 H   0  0  0  0  0  0
   10.1820    3.9600   14.7110 N   0  0  0  0  0  0
   10.5820    4.5620   15.2480 H   0  0  0  0  0  0
    9.3440    3.6840   14.8900 H   0  0  0  0  0  0
  1  2  1  0  0  0
  1  6  2  0  0  0
  1 15  1  0  0  0
  2  3  2  0  0  0
  2 37  1  0  0  0
  3  4  1  0  0  0
  4  5  2  0  0  0
  4 34  1  0  0  0
  5  6  1  0  0  0
  6  7  1  0  0  0
  7  8  1  0  0  0
  7  9  1  0  0  0
  7 10  1  0  0  0
 10 11  1  0  0  0
 10 12  1  0  0  0
 10 13  1  0  0  0
 13 14  1  0  0  0
 13 15  1  0  0  0
 13 18  1  0  0  0
 15 16  1  0  0  0
 15 17  1  0  0  0
 18 19  1  0  0  0
 18 20  1  0  0  0
 18 21  1  0  0  0
 21 22  1  0  0  0
 21 23  1  0  0  0
 23 24  1  0  0  0
 23 30  2  0  0  0
 24 25  1  0  0  0
 24 26  2  0  0  0
 26 27  1  0  0  0
 26 28  1  0  0  0
 28 29  2  0  0  0
 28 33  1  0  0  0
 29 30  1  0  0  0
 29 32  1  0  0  0
 30 31  1  0  0  0
 34 35  1  0  0  0
 34 36  1  0  0  0
 37 38  1  0  0  0
 37 39  1  0  0  0
M  END
>  <ACTIVITY>
6.82

>  <SET>
1

>  <Min_dist>
999.9

>  <Avg_dist>
999.9

$$$$
20-5a
  Cerius2 12110214133D 1   1.00000                          
Structure written by Cerius2 SD Exporter
 37 39  0  0  0  0  0  0  0  0999 V2000
   12.4010    3.9580   12.9870 C   0  0  0  0  0  0
   11.0840    3.7940   13.5830 C   0  0  0  0  0  0
   10.2390    2.8370   13.1810 N   0  0  0  0  0  0
   10.6060    1.9280   12.2470 C   0  0  0  0  0  0
   11.9070    1.8940   11.7840 N   0  0  0  0  0  0
   12.7880    2.8900   12.2110 C   0  0  0  0  0  0
   14.2250    2.6740   11.7630 C   0  0  0  0  0  0
   14.4410    1.5930   11.7640 H   0  0  0  0  0  0
   14.3500    3.0120   10.7190 H   0  0  0  0  0  0
   15.1710    3.4520   12.6860 C   0  0  0  0  0  0
   16.2010    3.3980   12.2950 H   0  0  0  0  0  0
   15.1910    3.0050   13.6960 H   0  0  0  0  0  0
   14.6660    4.9120   12.7410 C   0  0  0  0  0  0
   14.3610    5.1120   11.6990 H   0  0  0  0  0  0
   13.3340    5.0670   13.5180 C   0  0  0  0  0  0
   13.5070    4.8860   14.5950 H   0  0  0  0  0  0
   12.9560    5.9270   13.3740 H   0  0  0  0  0  0
   15.7500    5.9080   13.1780 C   0  0  0  0  0  0
   15.5670    6.3650   14.1650 H   0  0  0  0  0  0
   16.7850    5.5610   13.3140 H   0  0  0  0  0  0
   15.6400    7.0030   12.0830 C   0  0  0  0  0  0
   16.8000    7.4570   11.4800 C   0  0  0  0  0  0
   17.6320    7.0430   11.6780 H   0  0  0  0  0  0
   16.7110    8.5190   10.5940 C   0  0  0  0  0  0
   17.4910    8.8400   10.1580 H   0  0  0  0  0  0
   15.4850    9.1280   10.3320 C   0  0  0  0  0  0
   15.4340    9.8480    9.7140 H   0  0  0  0  0  0
   14.3730    8.6590   10.9840 C   0  0  0  0  0  0
   13.5280    9.0670   10.8350 H   0  0  0  0  0  0
   14.4370    7.6050   11.8590 C   0  0  0  0  0  0
   13.6590    7.2930   12.3060 H   0  0  0  0  0  0
    9.7670    1.0600   11.8040 N   0  0  0  0  0  0
    8.9220    1.0520   12.1140 H   0  0  0  0  0  0
   10.0250    0.4620   11.1830 H   0  0  0  0  0  0
   10.6020    4.5990   14.5690 N   0  0  0  0  0  0
   11.1060    5.2740   14.8850 H   0  0  0  0  0  0
    9.7800    4.4550   14.9060 H   0  0  0  0  0  0
  1  2  1  0  0  0
  1  6  2  0  0  0
  1 15  1  0  0  0
  2  3  2  0  0  0
  2 35  1  0  0  0
  3  4  1  0  0  0
  4  5  2  0  0  0
  4 32  1  0  0  0
  5  6  1  0  0  0
  6  7  1  0  0  0
  7  8  1  0  0  0
  7  9  1  0  0  0
  7 10  1  0  0  0
 10 11  1  0  0  0
 10 12  1  0  0  0
 10 13  1  0  0  0
 13 14  1  0  0  0
 13 15  1  0  0  0
 13 18  1  0  0  0
 15 16  1  0  0  0
 15 17  1  0  0  0
 18 19  1  0  0  0
 18 20  1  0  0  0
 18 21  1  0  0  0
 21 22  1  0  0  0
 21 30  2  0  0  0
 22 23  1  0  0  0
 22 24  2  0  0  0
 24 25  1  0  0  0
 24 26  1  0  0  0
 26 27  1  0  0  0
 26 28  2  0  0  0
 28 29  1  0  0  0
 28 30  1  0  0  0
 30 31  1  0  0  0
 32 33  1  0  0  0
 32 34  1  0  0  0
 35 36  1  0  0  0
 35 37  1  0  0  0
M  END
>  <ACTIVITY>
6.74

>  <SET>
1

>  <Min_dist>
999.9

>  <Avg_dist>
999.9

$$$$
20-5b
  Cerius2 12110214133D 1   1.00000                          
Structure written by Cerius2 SD Exporter
 40 42  0  0  0  0  0  0  0  0999 V2000
   12.4010    3.9580   12.9870 C   0  0  0  0  0  0
   11.0840    3.7940   13.5830 C   0  0  0  0  0  0
   10.2390    2.8370   13.1810 N   0  0  0  0  0  0
   10.6060    1.9280   12.2470 C   0  0  0  0  0  0
   11.9070    1.8940   11.7840 N   0  0  0  0  0  0
   12.7880    2.8900   12.2110 C   0  0  0  0  0  0
   14.2250    2.6740   11.7630 C   0  0  0  0  0  0
   14.4410    1.5930   11.7640 H   0  0  0  0  0  0
   14.3500    3.0120   10.7190 H   0  0  0  0  0  0
   15.1710    3.4520   12.6860 C   0  0  0  0  0  0
   16.2010    3.3980   12.2950 H   0  0  0  0  0  0
   15.1910    3.0050   13.6960 H   0  0  0  0  0  0
   14.6660    4.9120   12.7410 C   0  0  0  0  0  0
   14.3610    5.1120   11.6990 H   0  0  0  0  0  0
   13.3340    5.0670   13.5180 C   0  0  0  0  0  0
   13.5070    4.8860   14.5950 H   0  0  0  0  0  0
   12.9560    5.9270   13.3740 H   0  0  0  0  0  0
   15.7500    5.9080   13.1780 C   0  0  0  0  0  0
   15.5670    6.3650   14.1650 H   0  0  0  0  0  0
   16.7850    5.5610   13.3140 H   0  0  0  0  0  0
   15.6400    7.0030   12.0830 C   0  0  0  0  0  0
   16.8000    7.4570   11.4800 C   0  0  0  0  0  0
   16.7110    8.5190   10.5940 C   0  0  0  0  0  0
   17.4910    8.8400   10.1580 H   0  0  0  0  0  0
   15.4850    9.1280   10.3320 C   0  0  0  0  0  0
   15.4340    9.8480    9.7140 H   0  0  0  0  0  0
   14.3730    8.6590   10.9840 C   0  0  0  0  0  0
   13.5280    9.0670   10.8350 H   0  0  0  0  0  0
   14.4370    7.6050   11.8590 C   0  0  0  0  0  0
   13.6590    7.2930   12.3060 H   0  0  0  0  0  0
   18.1830    6.8540   11.7080 C   0  0  0  0  0  0
   18.9270    7.3290   11.0510 H   0  0  0  0  0  0
   18.5150    6.9970   12.7490 H   0  0  0  0  0  0
   18.1880    5.7740   11.4950 H   0  0  0  0  0  0
    9.7670    1.0600   11.8040 N   0  0  0  0  0  0
    8.9220    1.0520   12.1140 H   0  0  0  0  0  0
   10.0250    0.4620   11.1830 H   0  0  0  0  0  0
   10.6020    4.5990   14.5690 N   0  0  0  0  0  0
   11.1060    5.2740   14.8850 H   0  0  0  0  0  0
    9.7800    4.4550   14.9060 H   0  0  0  0  0  0
  1  2  1  0  0  0
  1  6  2  0  0  0
  1 15  1  0  0  0
  2  3  2  0  0  0
  2 38  1  0  0  0
  3  4  1  0  0  0
  4  5  2  0  0  0
  4 35  1  0  0  0
  5  6  1  0  0  0
  6  7  1  0  0  0
  7  8  1  0  0  0
  7  9  1  0  0  0
  7 10  1  0  0  0
 10 11  1  0  0  0
 10 12  1  0  0  0
 10 13  1  0  0  0
 13 14  1  0  0  0
 13 15  1  0  0  0
 13 18  1  0  0  0
 15 16  1  0  0  0
 15 17  1  0  0  0
 18 19  1  0  0  0
 18 20  1  0  0  0
 18 21  1  0  0  0
 21 22  1  0  0  0
 21 29  2  0  0  0
 22 23  2  0  0  0
 22 31  1  0  0  0
 23 24  1  0  0  0
 23 25  1  0  0  0
 25 26  1  0  0  0
 25 27  2  0  0  0
 27 28  1  0  0  0
 27 29  1  0  0  0
 29 30  1  0  0  0
 31 32  1  0  0  0
 31 33  1  0  0  0
 31 34  1  0  0  0
 35 36  1  0  0  0
 35 37  1  0  0  0
 38 39  1  0  0  0
 38 40  1  0  0  0
M  END
>  <ACTIVITY>
6.96

>  <SET>
2

>  <Min_dist>
0.1

>  <Avg_dist>
0.62

$$$$
20-5c
  Cerius2 12110214133D 1   1.00000                          
Structure written by Cerius2 SD Exporter
 40 42  0  0  0  0  0  0  0  0999 V2000
   12.4010    3.9580   12.9870 C   0  0  0  0  0  0
   11.0840    3.7940   13.5830 C   0  0  0  0  0  0
   10.2390    2.8370   13.1810 N   0  0  0  0  0  0
   10.6060    1.9280   12.2470 C   0  0  0  0  0  0
   11.9070    1.8940   11.7840 N   0  0  0  0  0  0
   12.7880    2.8900   12.2110 C   0  0  0  0  0  0
   14.2250    2.6740   11.7630 C   0  0  0  0  0  0
   14.4410    1.5930   11.7640 H   0  0  0  0  0  0
   14.3500    3.0120   10.7190 H   0  0  0  0  0  0
   15.1710    3.4520   12.6860 C   0  0  0  0  0  0
   16.2010    3.3980   12.2950 H   0  0  0  0  0  0
   15.1910    3.0050   13.6960 H   0  0  0  0  0  0
   14.6660    4.9120   12.7410 C   0  0  0  0  0  0
   14.3610    5.1120   11.6990 H   0  0  0  0  0  0
   13.3340    5.0670   13.5180 C   0  0  0  0  0  0
   13.5070    4.8860   14.5950 H   0  0  0  0  0  0
   12.9560    5.9270   13.3740 H   0  0  0  0  0  0
   15.7500    5.9080   13.1780 C   0  0  0  0  0  0
   15.5670    6.3650   14.1650 H   0  0  0  0  0  0
   16.7850    5.5610   13.3140 H   0  0  0  0  0  0
   15.6400    7.0030   12.0830 C   0  0  0  0  0  0
   16.8000    7.4570   11.4800 C   0  0  0  0  0  0
   17.7710    6.9650   11.7120 H   0  0  0  0  0  0
   16.7110    8.5190   10.5940 C   0  0  0  0  0  0
   15.4850    9.1280   10.3320 C   0  0  0  0  0  0
   15.4340    9.8480    9.7140 H   0  0  0  0  0  0
   14.3730    8.6590   10.9840 C   0  0  0  0  0  0
   13.3910    9.1410   10.7930 H   0  0  0  0  0  0
   14.4370    7.6050   11.8590 C   0  0  0  0  0  0
   13.6590    7.2930   12.3060 H   0  0  0  0  0  0
   17.9650    9.0240    9.8970 C   0  0  0  0  0  0
   17.7450    9.3180    8.8600 H   0  0  0  0  0  0
   18.3770    9.9030   10.4180 H   0  0  0  0  0  0
   18.7440    8.2470    9.8730 H   0  0  0  0  0  0
    9.7670    1.0600   11.8040 N   0  0  0  0  0  0
    8.9220    1.0520   12.1140 H   0  0  0  0  0  0
   10.0250    0.4620   11.1830 H   0  0  0  0  0  0
   10.6020    4.5990   14.5690 N   0  0  0  0  0  0
   11.1060    5.2740   14.8850 H   0  0  0  0  0  0
    9.7800    4.4550   14.9060 H   0  0  0  0  0  0
  1  2  1  0  0  0
  1  6  2  0  0  0
  1 15  1  0  0  0
  2  3  2  0  0  0
  2 38  1  0  0  0
  3  4  1  0  0  0
  4  5  2  0  0  0
  4 35  1  0  0  0
  5  6  1  0  0  0
  6  7  1  0  0  0
  7  8  1  0  0  0
  7  9  1  0  0  0
  7 10  1  0  0  0
 10 11  1  0  0  0
 10 12  1  0  0  0
 10 13  1  0  0  0
 13 14  1  0  0  0
 13 15  1  0  0  0
 13 18  1  0  0  0
 15 16  1  0  0  0
 15 17  1  0  0  0
 18 19  1  0  0  0
 18 20  1  0  0  0
 18 21  1  0  0  0
 21 22  1  0  0  0
 21 29  2  0  0  0
 22 23  1  0  0  0
 22 24  2  0  0  0
 24 25  1  0  0  0
 24 31  1  0  0  0
 25 26  1  0  0  0
 25 27  2  0  0  0
 27 28  1  0  0  0
 27 29  1  0  0  0
 29 30  1  0  0  0
 31 32  1  0  0  0
 31 33  1  0  0  0
 31 34  1  0  0  0
 35 36  1  0  0  0
 35 37  1  0  0  0
 38 39  1  0  0  0
 38 40  1  0  0  0
M  END
>  <ACTIVITY>
6.96

>  <SET>
1

>  <Min_dist>
999.9

>  <Avg_dist>
999.9

$$$$
20-5d
  Cerius2 12110214133D 1   1.00000                          
Structure written by Cerius2 SD Exporter
 41 43  0  0  0  0  0  0  0  0999 V2000
   12.4010    3.9580   12.9870 C   0  0  0  0  0  0
   11.0840    3.7940   13.5830 C   0  0  0  0  0  0
   10.2390    2.8370   13.1810 N   0  0  0  0  0  0
   10.6060    1.9280   12.2470 C   0  0  0  0  0  0
   11.9070    1.8940   11.7840 N   0  0  0  0  0  0
   12.7880    2.8900   12.2110 C   0  0  0  0  0  0
   14.2250    2.6740   11.7630 C   0  0  0  0  0  0
   14.4410    1.5930   11.7640 H   0  0  0  0  0  0
   14.3500    3.0120   10.7190 H   0  0  0  0  0  0
   15.1710    3.4520   12.6860 C   0  0  0  0  0  0
   16.2010    3.3980   12.2950 H   0  0  0  0  0  0
   15.1910    3.0050   13.6960 H   0  0  0  0  0  0
   14.6660    4.9120   12.7410 C   0  0  0  0  0  0
   14.3610    5.1120   11.6990 H   0  0  0  0  0  0
   13.3340    5.0670   13.5180 C   0  0  0  0  0  0
   13.5070    4.8860   14.5950 H   0  0  0  0  0  0
   12.9560    5.9270   13.3740 H   0  0  0  0  0  0
   15.7500    5.9080   13.1780 C   0  0  0  0  0  0
   15.5670    6.3650   14.1650 H   0  0  0  0  0  0
   16.7850    5.5610   13.3140 H   0  0  0  0  0  0
   15.6400    7.0030   12.0830 C   0  0  0  0  0  0
   16.8000    7.4570   11.4800 C   0  0  0  0  0  0
   17.9220    6.7580   11.8700 O   0  0  0  0  0  0
   19.1990    7.0840   11.3560 C   0  0  0  0  0  0
   19.8490    6.5020   11.7320 H   0  0  0  0  0  0
   19.1950    6.9850   10.4110 H   0  0  0  0  0  0
   19.4100    7.9820   11.5800 H   0  0  0  0  0  0
   16.7110    8.5190   10.5940 C   0  0  0  0  0  0
   17.4910    8.8400   10.1580 H   0  0  0  0  0  0
   15.4850    9.1280   10.3320 C   0  0  0  0  0  0
   15.4340    9.8480    9.7140 H   0  0  0  0  0  0
   14.3730    8.6590   10.9840 C   0  0  0  0  0  0
   13.5280    9.0670   10.8350 H   0  0  0  0  0  0
   14.4370    7.6050   11.8590 C   0  0  0  0  0  0
   13.6590    7.2930   12.3060 H   0  0  0  0  0  0
    9.7670    1.0600   11.8040 N   0  0  0  0  0  0
    8.9220    1.0520   12.1140 H   0  0  0  0  0  0
   10.0250    0.4620   11.1830 H   0  0  0  0  0  0
   10.6020    4.5990   14.5690 N   0  0  0  0  0  0
   11.1060    5.2740   14.8850 H   0  0  0  0  0  0
    9.7800    4.4550   14.9060 H   0  0  0  0  0  0
  1  2  1  0  0  0
  1  6  2  0  0  0
  1 15  1  0  0  0
  2  3  2  0  0  0
  2 39  1  0  0  0
  3  4  1  0  0  0
  4  5  2  0  0  0
  4 36  1  0  0  0
  5  6  1  0  0  0
  6  7  1  0  0  0
  7  8  1  0  0  0
  7  9  1  0  0  0
  7 10  1  0  0  0
 10 11  1  0  0  0
 10 12  1  0  0  0
 10 13  1  0  0  0
 13 14  1  0  0  0
 13 15  1  0  0  0
 13 18  1  0  0  0
 15 16  1  0  0  0
 15 17  1  0  0  0
 18 19  1  0  0  0
 18 20  1  0  0  0
 18 21  1  0  0  0
 21 22  1  0  0  0
 21 34  2  0  0  0
 22 23  1  0  0  0
 22 28  2  0  0  0
 23 24  1  0  0  0
 24 25  1  0  0  0
 24 26  1  0  0  0
 24 27  1  0  0  0
 28 29  1  0  0  0
 28 30  1  0  0  0
 30 31  1  0  0  0
 30 32  2  0  0  0
 32 33  1  0  0  0
 32 34  1  0  0  0
 34 35  1  0  0  0
 36 37  1  0  0  0
 36 38  1  0  0  0
 39 40  1  0  0  0
 39 41  1  0  0  0
M  END
>  <ACTIVITY>
6.92

>  <SET>
1

>  <Min_dist>
999.9

>  <Avg_dist>
999.9

$$$$
20-5e
  Cerius2 12110214133D 1   1.00000                          
Structure written by Cerius2 SD Exporter
 41 43  0  0  0  0  0  0  0  0999 V2000
   12.4010    3.9580   12.9870 C   0  0  0  0  0  0
   11.0840    3.7940   13.5830 C   0  0  0  0  0  0
   10.2390    2.8370   13.1810 N   0  0  0  0  0  0
   10.6060    1.9280   12.2470 C   0  0  0  0  0  0
   11.9070    1.8940   11.7840 N   0  0  0  0  0  0
   12.7880    2.8900   12.2110 C   0  0  0  0  0  0
   14.2250    2.6740   11.7630 C   0  0  0  0  0  0
   14.4410    1.5930   11.7640 H   0  0  0  0  0  0
   14.3500    3.0120   10.7190 H   0  0  0  0  0  0
   15.1710    3.4520   12.6860 C   0  0  0  0  0  0
   16.2010    3.3980   12.2950 H   0  0  0  0  0  0
   15.1910    3.0050   13.6960 H   0  0  0  0  0  0
   14.6660    4.9120   12.7410 C   0  0  0  0  0  0
   14.3610    5.1120   11.6990 H   0  0  0  0  0  0
   13.3340    5.0670   13.5180 C   0  0  0  0  0  0
   13.5070    4.8860   14.5950 H   0  0  0  0  0  0
   12.9560    5.9270   13.3740 H   0  0  0  0  0  0
   15.7500    5.9080   13.1780 C   0  0  0  0  0  0
   15.5670    6.3650   14.1650 H   0  0  0  0  0  0
   16.7850    5.5610   13.3140 H   0  0  0  0  0  0
   15.6400    7.0030   12.0830 C   0  0  0  0  0  0
   16.8000    7.4570   11.4800 C   0  0  0  0  0  0
   17.6320    7.0430   11.6780 H   0  0  0  0  0  0
   16.7110    8.5190   10.5940 C   0  0  0  0  0  0
   15.4850    9.1280   10.3320 C   0  0  0  0  0  0
   15.4340    9.8480    9.7140 H   0  0  0  0  0  0
   14.3730    8.6590   10.9840 C   0  0  0  0  0  0
   13.5280    9.0670   10.8350 H   0  0  0  0  0  0
   14.4370    7.6050   11.8590 C   0  0  0  0  0  0
   13.6590    7.2930   12.3060 H   0  0  0  0  0  0
   17.7780    8.9580    9.9970 O   0  0  0  0  0  0
   19.0470    8.3630   10.2390 C   0  0  0  0  0  0
   18.9470    7.5400   10.9470 H   0  0  0  0  0  0
   19.4530    7.9850    9.3010 H   0  0  0  0  0  0
   19.7250    9.1110   10.6490 H   0  0  0  0  0  0
    9.7670    1.0600   11.8040 N   0  0  0  0  0  0
    8.9220    1.0520   12.1140 H   0  0  0  0  0  0
   10.0250    0.4620   11.1830 H   0  0  0  0  0  0
   10.6020    4.5990   14.5690 N   0  0  0  0  0  0
   11.1060    5.2740   14.8850 H   0  0  0  0  0  0
    9.7800    4.4550   14.9060 H   0  0  0  0  0  0
  1  2  1  0  0  0
  1  6  2  0  0  0
  1 15  1  0  0  0
  2  3  2  0  0  0
  2 39  1  0  0  0
  3  4  1  0  0  0
  4  5  2  0  0  0
  4 36  1  0  0  0
  5  6  1  0  0  0
  6  7  1  0  0  0
  7  8  1  0  0  0
  7  9  1  0  0  0
  7 10  1  0  0  0
 10 11  1  0  0  0
 10 12  1  0  0  0
 10 13  1  0  0  0
 13 14  1  0  0  0
 13 15  1  0  0  0
 13 18  1  0  0  0
 15 16  1  0  0  0
 15 17  1  0  0  0
 18 19  1  0  0  0
 18 20  1  0  0  0
 18 21  1  0  0  0
 21 22  1  0  0  0
 21 29  2  0  0  0
 22 23  1  0  0  0
 22 24  2  0  0  0
 24 25  1  0  0  0
 24 31  1  0  0  0
 25 26  1  0  0  0
 25 27  2  0  0  0
 27 28  1  0  0  0
 27 29  1  0  0  0
 29 30  1  0  0  0
 31 32  1  0  0  0
 32 33  1  0  0  0
 32 34  1  0  0  0
 32 35  1  0  0  0
 36 37  1  0  0  0
 36 38  1  0  0  0
 39 40  1  0  0  0
 39 41  1  0  0  0
M  END
>  <ACTIVITY>
6.96

>  <SET>
1

>  <Min_dist>
999.9

>  <Avg_dist>
999.9

$$$$
20-5f
  Cerius2 12110214133D 1   1.00000                          
Structure written by Cerius2 SD Exporter
 41 43  0  0  0  0  0  0  0  0999 V2000
   12.4010    3.9580   12.9870 C   0  0  0  0  0  0
   11.0840    3.7940   13.5830 C   0  0  0  0  0  0
   10.2390    2.8370   13.1810 N   0  0  0  0  0  0
   10.6060    1.9280   12.2470 C   0  0  0  0  0  0
   11.9070    1.8940   11.7840 N   0  0  0  0  0  0
   12.7880    2.8900   12.2110 C   0  0  0  0  0  0
   14.2250    2.6740   11.7630 C   0  0  0  0  0  0
   14.4410    1.5930   11.7640 H   0  0  0  0  0  0
   14.3500    3.0120   10.7190 H   0  0  0  0  0  0
   15.1710    3.4520   12.6860 C   0  0  0  0  0  0
   16.2010    3.3980   12.2950 H   0  0  0  0  0  0
   15.1910    3.0050   13.6960 H   0  0  0  0  0  0
   14.6660    4.9120   12.7410 C   0  0  0  0  0  0
   14.3610    5.1120   11.6990 H   0  0  0  0  0  0
   13.3340    5.0670   13.5180 C   0  0  0  0  0  0
   13.5070    4.8860   14.5950 H   0  0  0  0  0  0
   12.9560    5.9270   13.3740 H   0  0  0  0  0  0
   15.7500    5.9080   13.1780 C   0  0  0  0  0  0
   15.5670    6.3650   14.1650 H   0  0  0  0  0  0
   16.7850    5.5610   13.3140 H   0  0  0  0  0  0
   15.6400    7.0030   12.0830 C   0  0  0  0  0  0
   16.8000    7.4570   11.4800 C   0  0  0  0  0  0
   17.6320    7.0430   11.6780 H   0  0  0  0  0  0
   16.7110    8.5190   10.5940 C   0  0  0  0  0  0
   17.4910    8.8400   10.1580 H   0  0  0  0  0  0
   15.4850    9.1280   10.3320 C   0  0  0  0  0  0
   14.3730    8.6590   10.9840 C   0  0  0  0  0  0
   13.5280    9.0670   10.8350 H   0  0  0  0  0  0
   14.4370    7.6050   11.8590 C   0  0  0  0  0  0
   13.6590    7.2930   12.3060 H   0  0  0  0  0  0
   15.4160   10.1130    9.4870 O   0  0  0  0  0  0
   16.5800   10.5850    8.8200 C   0  0  0  0  0  0
   17.4490   10.0010    9.1240 H   0  0  0  0  0  0
   16.4410   10.4920    7.7430 H   0  0  0  0  0  0
   16.7420   11.6330    9.0730 H   0  0  0  0  0  0
    9.7670    1.0600   11.8040 N   0  0  0  0  0  0
    8.9220    1.0520   12.1140 H   0  0  0  0  0  0
   10.0250    0.4620   11.1830 H   0  0  0  0  0  0
   10.6020    4.5990   14.5690 N   0  0  0  0  0  0
   11.1060    5.2740   14.8850 H   0  0  0  0  0  0
    9.7800    4.4550   14.9060 H   0  0  0  0  0  0
  1  2  1  0  0  0
  1  6  2  0  0  0
  1 15  1  0  0  0
  2  3  2  0  0  0
  2 39  1  0  0  0
  3  4  1  0  0  0
  4  5  2  0  0  0
  4 36  1  0  0  0
  5  6  1  0  0  0
  6  7  1  0  0  0
  7  8  1  0  0  0
  7  9  1  0  0  0
  7 10  1  0  0  0
 10 11  1  0  0  0
 10 12  1  0  0  0
 10 13  1  0  0  0
 13 14  1  0  0  0
 13 15  1  0  0  0
 13 18  1  0  0  0
 15 16  1  0  0  0
 15 17  1  0  0  0
 18 19  1  0  0  0
 18 20  1  0  0  0
 18 21  1  0  0  0
 21 22  1  0  0  0
 21 29  2  0  0  0
 22 23  1  0  0  0
 22 24  2  0  0  0
 24 25  1  0  0  0
 24 26  1  0  0  0
 26 27  2  0  0  0
 26 31  1  0  0  0
 27 28  1  0  0  0
 27 29  1  0  0  0
 29 30  1  0  0  0
 31 32  1  0  0  0
 32 33  1  0  0  0
 32 34  1  0  0  0
 32 35  1  0  0  0
 36 37  1  0  0  0
 36 38  1  0  0  0
 39 40  1  0  0  0
 39 41  1  0  0  0
M  END
>  <ACTIVITY>
7.11

>  <SET>
1

>  <Min_dist>
999.9

>  <Avg_dist>
999.9

$$$$
20-5g
  Cerius2 12110214133D 1   1.00000                          
Structure written by Cerius2 SD Exporter
 40 42  0  0  0  0  0  0  0  0999 V2000
   12.4010    3.9580   12.9870 C   0  0  0  0  0  0
   11.0840    3.7940   13.5830 C   0  0  0  0  0  0
   10.2390    2.8370   13.1810 N   0  0  0  0  0  0
   10.6060    1.9280   12.2470 C   0  0  0  0  0  0
   11.9070    1.8940   11.7840 N   0  0  0  0  0  0
   12.7880    2.8900   12.2110 C   0  0  0  0  0  0
   14.2250    2.6740   11.7630 C   0  0  0  0  0  0
   14.4410    1.5930   11.7640 H   0  0  0  0  0  0
   14.3500    3.0120   10.7190 H   0  0  0  0  0  0
   15.1710    3.4520   12.6860 C   0  0  0  0  0  0
   16.2010    3.3980   12.2950 H   0  0  0  0  0  0
   15.1910    3.0050   13.6960 H   0  0  0  0  0  0
   14.6660    4.9120   12.7410 C   0  0  0  0  0  0
   14.3610    5.1120   11.6990 H   0  0  0  0  0  0
   13.3340    5.0670   13.5180 C   0  0  0  0  0  0
   13.5070    4.8860   14.5950 H   0  0  0  0  0  0
   12.9560    5.9270   13.3740 H   0  0  0  0  0  0
   15.7500    5.9080   13.1780 C   0  0  0  0  0  0
   15.5670    6.3650   14.1650 H   0  0  0  0  0  0
   16.7850    5.5610   13.3140 H   0  0  0  0  0  0
   15.6400    7.0030   12.0830 C   0  0  0  0  0  0
   16.8000    7.4570   11.4800 C   0  0  0  0  0  0
   17.7740    6.9680   11.7000 H   0  0  0  0  0  0
   16.7110    8.5190   10.5940 C   0  0  0  0  0  0
   15.4850    9.1280   10.3320 C   0  0  0  0  0  0
   15.4340    9.8480    9.7140 H   0  0  0  0  0  0
   14.3730    8.6590   10.9840 C   0  0  0  0  0  0
   13.3910    9.1410   10.7940 H   0  0  0  0  0  0
   14.4370    7.6050   11.8590 C   0  0  0  0  0  0
   13.6590    7.2930   12.3060 H   0  0  0  0  0  0
   17.9830    9.0210    9.8840 C   0  0  0  0  0  0
   19.0620    8.8900   10.6420 F   0  0  0  0  0  0
   18.2360    8.3630    8.7610 F   0  0  0  0  0  0
   17.8980   10.3010    9.5530 F   0  0  0  0  0  0
    9.7670    1.0600   11.8040 N   0  0  0  0  0  0
    8.9220    1.0520   12.1140 H   0  0  0  0  0  0
   10.0250    0.4620   11.1830 H   0  0  0  0  0  0
   10.6020    4.5990   14.5690 N   0  0  0  0  0  0
   11.1060    5.2740   14.8850 H   0  0  0  0  0  0
    9.7800    4.4550   14.9060 H   0  0  0  0  0  0
  1  2  1  0  0  0
  1  6  2  0  0  0
  1 15  1  0  0  0
  2  3  2  0  0  0
  2 38  1  0  0  0
  3  4  1  0  0  0
  4  5  2  0  0  0
  4 35  1  0  0  0
  5  6  1  0  0  0
  6  7  1  0  0  0
  7  8  1  0  0  0
  7  9  1  0  0  0
  7 10  1  0  0  0
 10 11  1  0  0  0
 10 12  1  0  0  0
 10 13  1  0  0  0
 13 14  1  0  0  0
 13 15  1  0  0  0
 13 18  1  0  0  0
 15 16  1  0  0  0
 15 17  1  0  0  0
 18 19  1  0  0  0
 18 20  1  0  0  0
 18 21  1  0  0  0
 21 22  1  0  0  0
 21 29  2  0  0  0
 22 23  1  0  0  0
 22 24  2  0  0  0
 24 25  1  0  0  0
 24 31  1  0  0  0
 25 26  1  0  0  0
 25 27  2  0  0  0
 27 28  1  0  0  0
 27 29  1  0  0  0
 29 30  1  0  0  0
 31 32  1  0  0  0
 31 33  1  0  0  0
 31 34  1  0  0  0
 35 36  1  0  0  0
 35 37  1  0  0  0
 38 39  1  0  0  0
 38 40  1  0  0  0
M  END
>  <ACTIVITY>
6.72

>  <SET>
1

>  <Min_dist>
999.9

>  <Avg_dist>
999.9

$$$$
20-5h
  Cerius2 12110214133D 1   1.00000                          
Structure written by Cerius2 SD Exporter
 41 43  0  0  0  0  0  0  0  0999 V2000
   12.4010    3.9580   12.9870 C   0  0  0  0  0  0
   11.0840    3.7940   13.5830 C   0  0  0  0  0  0
   10.2390    2.8370   13.1810 N   0  0  0  0  0  0
   10.6060    1.9280   12.2470 C   0  0  0  0  0  0
   11.9070    1.8940   11.7840 N   0  0  0  0  0  0
   12.7880    2.8900   12.2110 C   0  0  0  0  0  0
   14.2250    2.6740   11.7630 C   0  0  0  0  0  0
   14.4410    1.5930   11.7640 H   0  0  0  0  0  0
   14.3500    3.0120   10.7190 H   0  0  0  0  0  0
   15.1710    3.4520   12.6860 C   0  0  0  0  0  0
   16.2010    3.3980   12.2950 H   0  0  0  0  0  0
   15.1910    3.0050   13.6960 H   0  0  0  0  0  0
   14.6660    4.9120   12.7410 C   0  0  0  0  0  0
   14.3610    5.1120   11.6990 H   0  0  0  0  0  0
   13.3340    5.0670   13.5180 C   0  0  0  0  0  0
   13.5070    4.8860   14.5950 H   0  0  0  0  0  0
   12.9560    5.9270   13.3740 H   0  0  0  0  0  0
   15.7500    5.9080   13.1780 C   0  0  0  0  0  0
   15.5670    6.3650   14.1650 H   0  0  0  0  0  0
   16.7850    5.5610   13.3140 H   0  0  0  0  0  0
   15.6400    7.0030   12.0830 C   0  0  0  0  0  0
   16.8000    7.4570   11.4800 C   0  0  0  0  0  0
   17.6320    7.0430   11.6780 H   0  0  0  0  0  0
   16.7110    8.5190   10.5940 C   0  0  0  0  0  0
   15.4850    9.1280   10.3320 C   0  0  0  0  0  0
   15.4340    9.8480    9.7140 H   0  0  0  0  0  0
   14.3730    8.6590   10.9840 C   0  0  0  0  0  0
   13.5280    9.0670   10.8350 H   0  0  0  0  0  0
   14.4370    7.6050   11.8590 C   0  0  0  0  0  0
   13.6590    7.2930   12.3060 H   0  0  0  0  0  0
   17.7780    8.9580    9.9970 O   0  0  0  0  0  0
   19.1070    8.4480   10.1010 C   0  0  0  0  0  0
   19.1620    7.1870    9.7160 F   0  0  0  0  0  0
   19.9000    9.1550    9.3160 F   0  0  0  0  0  0
   19.5580    8.5510   11.3380 F   0  0  0  0  0  0
    9.7670    1.0600   11.8040 N   0  0  0  0  0  0
    8.9220    1.0520   12.1140 H   0  0  0  0  0  0
   10.0250    0.4620   11.1830 H   0  0  0  0  0  0
   10.6020    4.5990   14.5690 N   0  0  0  0  0  0
   11.1060    5.2740   14.8850 H   0  0  0  0  0  0
    9.7800    4.4550   14.9060 H   0  0  0  0  0  0
  1  2  1  0  0  0
  1  6  2  0  0  0
  1 15  1  0  0  0
  2  3  2  0  0  0
  2 39  1  0  0  0
  3  4  1  0  0  0
  4  5  2  0  0  0
  4 36  1  0  0  0
  5  6  1  0  0  0
  6  7  1  0  0  0
  7  8  1  0  0  0
  7  9  1  0  0  0
  7 10  1  0  0  0
 10 11  1  0  0  0
 10 12  1  0  0  0
 10 13  1  0  0  0
 13 14  1  0  0  0
 13 15  1  0  0  0
 13 18  1  0  0  0
 15 16  1  0  0  0
 15 17  1  0  0  0
 18 19  1  0  0  0
 18 20  1  0  0  0
 18 21  1  0  0  0
 21 22  1  0  0  0
 21 29  2  0  0  0
 22 23  1  0  0  0
 22 24  2  0  0  0
 24 25  1  0  0  0
 24 31  1  0  0  0
 25 26  1  0  0  0
 25 27  2  0  0  0
 27 28  1  0  0  0
 27 29  1  0  0  0
 29 30  1  0  0  0
 31 32  1  0  0  0
 32 33  1  0  0  0
 32 34  1  0  0  0
 32 35  1  0  0  0
 36 37  1  0  0  0
 36 38  1  0  0  0
 39 40  1  0  0  0
 39 41  1  0  0  0
M  END
>  <ACTIVITY>
7.1

>  <SET>
2

>  <Min_dist>
0.05

>  <Avg_dist>
0.6

$$$$
20-5i
  Cerius2 12110214133D 1   1.00000                          
Structure written by Cerius2 SD Exporter
 41 43  0  0  0  0  0  0  0  0999 V2000
   12.4010    3.9580   12.9870 C   0  0  0  0  0  0
   11.0840    3.7940   13.5830 C   0  0  0  0  0  0
   10.2390    2.8370   13.1810 N   0  0  0  0  0  0
   10.6060    1.9280   12.2470 C   0  0  0  0  0  0
   11.9070    1.8940   11.7840 N   0  0  0  0  0  0
   12.7880    2.8900   12.2110 C   0  0  0  0  0  0
   14.2250    2.6740   11.7630 C   0  0  0  0  0  0
   14.4410    1.5930   11.7640 H   0  0  0  0  0  0
   14.3500    3.0120   10.7190 H   0  0  0  0  0  0
   15.1710    3.4520   12.6860 C   0  0  0  0  0  0
   16.2010    3.3980   12.2950 H   0  0  0  0  0  0
   15.1910    3.0050   13.6960 H   0  0  0  0  0  0
   14.6660    4.9120   12.7410 C   0  0  0  0  0  0
   14.3610    5.1120   11.6990 H   0  0  0  0  0  0
   13.3340    5.0670   13.5180 C   0  0  0  0  0  0
   13.5070    4.8860   14.5950 H   0  0  0  0  0  0
   12.9560    5.9270   13.3740 H   0  0  0  0  0  0
   15.7500    5.9080   13.1780 C   0  0  0  0  0  0
   15.5670    6.3650   14.1650 H   0  0  0  0  0  0
   16.7850    5.5610   13.3140 H   0  0  0  0  0  0
   15.6400    7.0030   12.0830 C   0  0  0  0  0  0
   16.8000    7.4570   11.4800 C   0  0  0  0  0  0
   17.6320    7.0430   11.6780 H   0  0  0  0  0  0
   16.7110    8.5190   10.5940 C   0  0  0  0  0  0
   17.4910    8.8400   10.1580 H   0  0  0  0  0  0
   15.4850    9.1280   10.3320 C   0  0  0  0  0  0
   14.3730    8.6590   10.9840 C   0  0  0  0  0  0
   13.5280    9.0670   10.8350 H   0  0  0  0  0  0
   14.4370    7.6050   11.8590 C   0  0  0  0  0  0
   13.6590    7.2930   12.3060 H   0  0  0  0  0  0
   15.4160   10.1130    9.4870 O   0  0  0  0  0  0
   16.6830   10.4310    8.9080 C   0  0  0  0  0  0
   17.5420   10.8260    9.8320 F   0  0  0  0  0  0
   17.1880    9.3940    8.2620 F   0  0  0  0  0  0
   16.5240   11.4170    8.0440 F   0  0  0  0  0  0
    9.7670    1.0600   11.8040 N   0  0  0  0  0  0
    8.9220    1.0520   12.1140 H   0  0  0  0  0  0
   10.0250    0.4620   11.1830 H   0  0  0  0  0  0
   10.6020    4.5990   14.5690 N   0  0  0  0  0  0
   11.1060    5.2740   14.8850 H   0  0  0  0  0  0
    9.7800    4.4550   14.9060 H   0  0  0  0  0  0
  1  2  1  0  0  0
  1  6  2  0  0  0
  1 15  1  0  0  0
  2  3  2  0  0  0
  2 39  1  0  0  0
  3  4  1  0  0  0
  4  5  2  0  0  0
  4 36  1  0  0  0
  5  6  1  0  0  0
  6  7  1  0  0  0
  7  8  1  0  0  0
  7  9  1  0  0  0
  7 10  1  0  0  0
 10 11  1  0  0  0
 10 12  1  0  0  0
 10 13  1  0  0  0
 13 14  1  0  0  0
 13 15  1  0  0  0
 13 18  1  0  0  0
 15 16  1  0  0  0
 15 17  1  0  0  0
 18 19  1  0  0  0
 18 20  1  0  0  0
 18 21  1  0  0  0
 21 22  1  0  0  0
 21 29  2  0  0  0
 22 23  1  0  0  0
 22 24  2  0  0  0
 24 25  1  0  0  0
 24 26  1  0  0  0
 26 27  2  0  0  0
 26 31  1  0  0  0
 27 28  1  0  0  0
 27 29  1  0  0  0
 29 30  1  0  0  0
 31 32  1  0  0  0
 32 33  1  0  0  0
 32 34  1  0  0  0
 32 35  1  0  0  0
 36 37  1  0  0  0
 36 38  1  0  0  0
 39 40  1  0  0  0
 39 41  1  0  0  0
M  END
>  <ACTIVITY>
6.77

>  <SET>
1

>  <Min_dist>
999.9

>  <Avg_dist>
999.9

$$$$
20-5j
  Cerius2 12110214133D 1   1.00000                          
Structure written by Cerius2 SD Exporter
 45 47  0  0  0  0  0  0  0  0999 V2000
   12.4010    3.9580   12.9870 C   0  0  0  0  0  0
   11.0840    3.7940   13.5830 C   0  0  0  0  0  0
   10.2390    2.8370   13.1810 N   0  0  0  0  0  0
   10.6060    1.9280   12.2470 C   0  0  0  0  0  0
   11.9070    1.8940   11.7840 N   0  0  0  0  0  0
   12.7880    2.8900   12.2110 C   0  0  0  0  0  0
   14.2250    2.6740   11.7630 C   0  0  0  0  0  0
   14.4410    1.5930   11.7640 H   0  0  0  0  0  0
   14.3500    3.0120   10.7190 H   0  0  0  0  0  0
   15.1710    3.4520   12.6860 C   0  0  0  0  0  0
   16.2010    3.3980   12.2950 H   0  0  0  0  0  0
   15.1910    3.0050   13.6960 H   0  0  0  0  0  0
   14.6660    4.9120   12.7410 C   0  0  0  0  0  0
   14.3610    5.1120   11.6990 H   0  0  0  0  0  0
   13.3340    5.0670   13.5180 C   0  0  0  0  0  0
   13.5070    4.8860   14.5950 H   0  0  0  0  0  0
   12.9560    5.9270   13.3740 H   0  0  0  0  0  0
   15.7500    5.9080   13.1780 C   0  0  0  0  0  0
   15.5670    6.3650   14.1650 H   0  0  0  0  0  0
   16.7850    5.5610   13.3140 H   0  0  0  0  0  0
   15.6400    7.0030   12.0830 C   0  0  0  0  0  0
   16.8000    7.4570   11.4800 C   0  0  0  0  0  0
   17.9220    6.7580   11.8700 O   0  0  0  0  0  0
   19.1990    7.0840   11.3560 C   0  0  0  0  0  0
   19.8490    6.5020   11.7320 H   0  0  0  0  0  0
   19.1950    6.9850   10.4110 H   0  0  0  0  0  0
   19.4100    7.9820   11.5800 H   0  0  0  0  0  0
   16.7110    8.5190   10.5940 C   0  0  0  0  0  0
   17.4910    8.8400   10.1580 H   0  0  0  0  0  0
   15.4850    9.1280   10.3320 C   0  0  0  0  0  0
   15.4340    9.8480    9.7140 H   0  0  0  0  0  0
   14.3730    8.6590   10.9840 C   0  0  0  0  0  0
   13.0340    9.1200   10.8680 O   0  0  0  0  0  0
   13.0210   10.0030    9.7340 C   0  0  0  0  0  0
   12.1430   10.3430    9.6070 H   0  0  0  0  0  0
   13.6210   10.7230    9.8860 H   0  0  0  0  0  0
   13.2900    9.5250    8.9580 H   0  0  0  0  0  0
   14.4370    7.6050   11.8590 C   0  0  0  0  0  0
   13.6590    7.2930   12.3060 H   0  0  0  0  0  0
    9.7670    1.0600   11.8040 N   0  0  0  0  0  0
    8.9220    1.0520   12.1140 H   0  0  0  0  0  0
   10.0250    0.4620   11.1830 H   0  0  0  0  0  0
   10.6020    4.5990   14.5690 N   0  0  0  0  0  0
   11.1060    5.2740   14.8850 H   0  0  0  0  0  0
    9.7800    4.4550   14.9060 H   0  0  0  0  0  0
  1  2  1  0  0  0
  1  6  2  0  0  0
  1 15  1  0  0  0
  2  3  2  0  0  0
  2 43  1  0  0  0
  3  4  1  0  0  0
  4  5  2  0  0  0
  4 40  1  0  0  0
  5  6  1  0  0  0
  6  7  1  0  0  0
  7  8  1  0  0  0
  7  9  1  0  0  0
  7 10  1  0  0  0
 10 11  1  0  0  0
 10 12  1  0  0  0
 10 13  1  0  0  0
 13 14  1  0  0  0
 13 15  1  0  0  0
 13 18  1  0  0  0
 15 16  1  0  0  0
 15 17  1  0  0  0
 18 19  1  0  0  0
 18 20  1  0  0  0
 18 21  1  0  0  0
 21 22  1  0  0  0
 21 38  2  0  0  0
 22 23  1  0  0  0
 22 28  2  0  0  0
 23 24  1  0  0  0
 24 25  1  0  0  0
 24 26  1  0  0  0
 24 27  1  0  0  0
 28 29  1  0  0  0
 28 30  1  0  0  0
 30 31  1  0  0  0
 30 32  2  0  0  0
 32 33  1  0  0  0
 32 38  1  0  0  0
 33 34  1  0  0  0
 34 35  1  0  0  0
 34 36  1  0  0  0
 34 37  1  0  0  0
 38 39  1  0  0  0
 40 41  1  0  0  0
 40 42  1  0  0  0
 43 44  1  0  0  0
 43 45  1  0  0  0
M  END
>  <ACTIVITY>
7.47

>  <SET>
1

>  <Min_dist>
999.9

>  <Avg_dist>
999.9

$$$$
20-5k
  Cerius2 12110214133D 1   1.00000                          
Structure written by Cerius2 SD Exporter
 45 47  0  0  0  0  0  0  0  0999 V2000
   12.4010    3.9580   12.9870 C   0  0  0  0  0  0
   11.0840    3.7940   13.5830 C   0  0  0  0  0  0
   10.2390    2.8370   13.1810 N   0  0  0  0  0  0
   10.6060    1.9280   12.2470 C   0  0  0  0  0  0
   11.9070    1.8940   11.7840 N   0  0  0  0  0  0
   12.7880    2.8900   12.2110 C   0  0  0  0  0  0
   14.2250    2.6740   11.7630 C   0  0  0  0  0  0
   14.4410    1.5930   11.7640 H   0  0  0  0  0  0
   14.3500    3.0120   10.7190 H   0  0  0  0  0  0
   15.1710    3.4520   12.6860 C   0  0  0  0  0  0
   16.2010    3.3980   12.2950 H   0  0  0  0  0  0
   15.1910    3.0050   13.6960 H   0  0  0  0  0  0
   14.6660    4.9120   12.7410 C   0  0  0  0  0  0
   14.3610    5.1120   11.6990 H   0  0  0  0  0  0
   13.3340    5.0670   13.5180 C   0  0  0  0  0  0
   13.5070    4.8860   14.5950 H   0  0  0  0  0  0
   12.9560    5.9270   13.3740 H   0  0  0  0  0  0
   15.7500    5.9080   13.1780 C   0  0  0  0  0  0
   15.5670    6.3650   14.1650 H   0  0  0  0  0  0
   16.7850    5.5610   13.3140 H   0  0  0  0  0  0
   15.6400    7.0030   12.0830 C   0  0  0  0  0  0
   16.8000    7.4570   11.4800 C   0  0  0  0  0  0
   17.6320    7.0430   11.6780 H   0  0  0  0  0  0
   16.7110    8.5190   10.5940 C   0  0  0  0  0  0
   15.4850    9.1280   10.3320 C   0  0  0  0  0  0
   14.3730    8.6590   10.9840 C   0  0  0  0  0  0
   13.5280    9.0670   10.8350 H   0  0  0  0  0  0
   14.4370    7.6050   11.8590 C   0  0  0  0  0  0
   13.6590    7.2930   12.3060 H   0  0  0  0  0  0
   15.4160   10.1130    9.4870 O   0  0  0  0  0  0
   16.5800   10.5850    8.8200 C   0  0  0  0  0  0
   17.4490   10.0010    9.1240 H   0  0  0  0  0  0
   16.4410   10.4920    7.7430 H   0  0  0  0  0  0
   16.7420   11.6330    9.0730 H   0  0  0  0  0  0
   17.7780    8.9580    9.9970 O   0  0  0  0  0  0
   19.0470    8.3630   10.2390 C   0  0  0  0  0  0
   18.9470    7.5400   10.9470 H   0  0  0  0  0  0
   19.4530    7.9850    9.3010 H   0  0  0  0  0  0
   19.7250    9.1110   10.6490 H   0  0  0  0  0  0
    9.7670    1.0600   11.8040 N   0  0  0  0  0  0
    8.9220    1.0520   12.1140 H   0  0  0  0  0  0
   10.0250    0.4620   11.1830 H   0  0  0  0  0  0
   10.6020    4.5990   14.5690 N   0  0  0  0  0  0
   11.1060    5.2740   14.8850 H   0  0  0  0  0  0
    9.7800    4.4550   14.9060 H   0  0  0  0  0  0
  1  2  1  0  0  0
  1  6  2  0  0  0
  1 15  1  0  0  0
  2  3  2  0  0  0
  2 43  1  0  0  0
  3  4  1  0  0  0
  4  5  2  0  0  0
  4 40  1  0  0  0
  5  6  1  0  0  0
  6  7  1  0  0  0
  7  8  1  0  0  0
  7  9  1  0  0  0
  7 10  1  0  0  0
 10 11  1  0  0  0
 10 12  1  0  0  0
 10 13  1  0  0  0
 13 14  1  0  0  0
 13 15  1  0  0  0
 13 18  1  0  0  0
 15 16  1  0  0  0
 15 17  1  0  0  0
 18 19  1  0  0  0
 18 20  1  0  0  0
 18 21  1  0  0  0
 21 22  1  0  0  0
 21 28  2  0  0  0
 22 23  1  0  0  0
 22 24  2  0  0  0
 24 25  1  0  0  0
 24 35  1  0  0  0
 25 26  2  0  0  0
 25 30  1  0  0  0
 26 27  1  0  0  0
 26 28  1  0  0  0
 28 29  1  0  0  0
 30 31  1  0  0  0
 31 32  1  0  0  0
 31 33  1  0  0  0
 31 34  1  0  0  0
 35 36  1  0  0  0
 36 37  1  0  0  0
 36 38  1  0  0  0
 36 39  1  0  0  0
 40 41  1  0  0  0
 40 42  1  0  0  0
 43 44  1  0  0  0
 43 45  1  0  0  0
M  END
>  <ACTIVITY>
7.2

>  <SET>
1

>  <Min_dist>
999.9

>  <Avg_dist>
999.9

$$$$
20-5m
  Cerius2 12110214133D 1   1.00000                          
Structure written by Cerius2 SD Exporter
 37 39  0  0  0  0  0  0  0  0999 V2000
   12.4010    3.9580   12.9870 C   0  0  0  0  0  0
   11.0840    3.7940   13.5830 C   0  0  0  0  0  0
   10.2390    2.8370   13.1810 N   0  0  0  0  0  0
   10.6060    1.9280   12.2470 C   0  0  0  0  0  0
   11.9070    1.8940   11.7840 N   0  0  0  0  0  0
   12.7880    2.8900   12.2110 C   0  0  0  0  0  0
   14.2250    2.6740   11.7630 C   0  0  0  0  0  0
   14.4410    1.5930   11.7640 H   0  0  0  0  0  0
   14.3500    3.0120   10.7190 H   0  0  0  0  0  0
   15.1710    3.4520   12.6860 C   0  0  0  0  0  0
   16.2010    3.3980   12.2950 H   0  0  0  0  0  0
   15.1910    3.0050   13.6960 H   0  0  0  0  0  0
   14.6660    4.9120   12.7410 C   0  0  0  0  0  0
   14.3610    5.1120   11.6990 H   0  0  0  0  0  0
   13.3340    5.0670   13.5180 C   0  0  0  0  0  0
   13.5070    4.8860   14.5950 H   0  0  0  0  0  0
   12.9560    5.9270   13.3740 H   0  0  0  0  0  0
   15.7500    5.9080   13.1780 C   0  0  0  0  0  0
   15.5670    6.3650   14.1650 H   0  0  0  0  0  0
   16.7850    5.5610   13.3140 H   0  0  0  0  0  0
   15.6400    7.0030   12.0830 C   0  0  0  0  0  0
   16.8000    7.4570   11.4800 C   0  0  0  0  0  0
   17.6320    7.0430   11.6780 H   0  0  0  0  0  0
   16.7110    8.5190   10.5940 C   0  0  0  0  0  0
   15.4850    9.1280   10.3320 C   0  0  0  0  0  0
   14.3730    8.6590   10.9840 C   0  0  0  0  0  0
   13.5280    9.0670   10.8350 H   0  0  0  0  0  0
   14.4370    7.6050   11.8590 C   0  0  0  0  0  0
   13.6590    7.2930   12.3060 H   0  0  0  0  0  0
   15.3060   10.4510    9.2390 Cl  0  0  0  0  0  0
   18.1740    9.0510    9.8400 Cl  0  0  0  0  0  0
    9.7670    1.0600   11.8040 N   0  0  0  0  0  0
    8.9220    1.0520   12.1140 H   0  0  0  0  0  0
   10.0250    0.4620   11.1830 H   0  0  0  0  0  0
   10.6020    4.5990   14.5690 N   0  0  0  0  0  0
   11.1060    5.2740   14.8850 H   0  0  0  0  0  0
    9.7800    4.4550   14.9060 H   0  0  0  0  0  0
  1  2  1  0  0  0
  1  6  2  0  0  0
  1 15  1  0  0  0
  2  3  2  0  0  0
  2 35  1  0  0  0
  3  4  1  0  0  0
  4  5  2  0  0  0
  4 32  1  0  0  0
  5  6  1  0  0  0
  6  7  1  0  0  0
  7  8  1  0  0  0
  7  9  1  0  0  0
  7 10  1  0  0  0
 10 11  1  0  0  0
 10 12  1  0  0  0
 10 13  1  0  0  0
 13 14  1  0  0  0
 13 15  1  0  0  0
 13 18  1  0  0  0
 15 16  1  0  0  0
 15 17  1  0  0  0
 18 19  1  0  0  0
 18 20  1  0  0  0
 18 21  1  0  0  0
 21 22  1  0  0  0
 21 28  2  0  0  0
 22 23  1  0  0  0
 22 24  2  0  0  0
 24 25  1  0  0  0
 24 31  1  0  0  0
 25 26  2  0  0  0
 25 30  1  0  0  0
 26 27  1  0  0  0
 26 28  1  0  0  0
 28 29  1  0  0  0
 32 33  1  0  0  0
 32 34  1  0  0  0
 35 36  1  0  0  0
 35 37  1  0  0  0
M  END
>  <ACTIVITY>
5.14

>  <SET>
1

>  <Min_dist>
999.9

>  <Avg_dist>
999.9

$$$$
20-9a
  Cerius2 12110214133D 1   1.00000                          
Structure written by Cerius2 SD Exporter
 30 31  0  0  0  0  0  0  0  0999 V2000
   12.2000    3.8600   13.2730 C   0  0  0  0  0  0
   10.8450    3.4660   13.6300 C   0  0  0  0  0  0
   10.1440    2.5940   12.8960 N   0  0  0  0  0  0
   10.6980    1.9790   11.8240 C   0  0  0  0  0  0
   12.0400    2.1470   11.5440 N   0  0  0  0  0  0
   12.7710    3.0540   12.3160 C   0  0  0  0  0  0
   14.2620    3.0500   12.0220 C   0  0  0  0  0  0
   14.5770    2.0210   11.7850 H   0  0  0  0  0  0
   14.4710    3.6520   11.1200 H   0  0  0  0  0  0
   15.0210    3.6230   13.2260 C   0  0  0  0  0  0
   16.0900    3.7360   12.9740 H   0  0  0  0  0  0
   14.9700    2.9340   14.0880 H   0  0  0  0  0  0
   14.3780    4.9850   13.5720 C   0  0  0  0  0  0
   14.2050    5.4920   12.5970 H   0  0  0  0  0  0
   12.9590    4.8530   14.1790 C   0  0  0  0  0  0
   13.0260    4.4130   15.1920 H   0  0  0  0  0  0
   12.5200    5.6950   14.2030 H   0  0  0  0  0  0
   15.3640    5.9040   14.3000 C   0  0  0  0  0  0
   14.8670    6.7660   14.7780 H   0  0  0  0  0  0
   15.8530    5.3580   15.1230 H   0  0  0  0  0  0
   16.4640    6.4790   13.3870 C   0  0  0  0  0  0
   17.0910    5.6910   12.9420 H   0  0  0  0  0  0
   16.0270    7.0670   12.5630 H   0  0  0  0  0  0
   17.1310    7.1480   13.9550 H   0  0  0  0  0  0
   10.0000    1.2030   11.0730 N   0  0  0  0  0  0
    9.1310    1.0630   11.2570 H   0  0  0  0  0  0
   10.3810    0.8010   10.3640 H   0  0  0  0  0  0
   10.1820    3.9600   14.7110 N   0  0  0  0  0  0
   10.5820    4.5620   15.2480 H   0  0  0  0  0  0
    9.3440    3.6840   14.8900 H   0  0  0  0  0  0
  1  2  1  0  0  0
  1  6  2  0  0  0
  1 15  1  0  0  0
  2  3  2  0  0  0
  2 28  1  0  0  0
  3  4  1  0  0  0
  4  5  2  0  0  0
  4 25  1  0  0  0
  5  6  1  0  0  0
  6  7  1  0  0  0
  7  8  1  0  0  0
  7  9  1  0  0  0
  7 10  1  0  0  0
 10 11  1  0  0  0
 10 12  1  0  0  0
 10 13  1  0  0  0
 13 14  1  0  0  0
 13 15  1  0  0  0
 13 18  1  0  0  0
 15 16  1  0  0  0
 15 17  1  0  0  0
 18 19  1  0  0  0
 18 20  1  0  0  0
 18 21  1  0  0  0
 21 22  1  0  0  0
 21 23  1  0  0  0
 21 24  1  0  0  0
 25 26  1  0  0  0
 25 27  1  0  0  0
 28 29  1  0  0  0
 28 30  1  0  0  0
M  END
>  <ACTIVITY>
5.52

>  <SET>
1

>  <Min_dist>
999.9

>  <Avg_dist>
999.9

$$$$
20-9b
  Cerius2 12110214133D 1   1.00000                          
Structure written by Cerius2 SD Exporter
 36 37  0  0  0  0  0  0  0  0999 V2000
   12.2000    3.8600   13.2730 C   0  0  0  0  0  0
   10.8450    3.4660   13.6300 C   0  0  0  0  0  0
   10.1440    2.5940   12.8960 N   0  0  0  0  0  0
   10.6980    1.9790   11.8240 C   0  0  0  0  0  0
   12.0400    2.1470   11.5440 N   0  0  0  0  0  0
   12.7710    3.0540   12.3160 C   0  0  0  0  0  0
   14.2620    3.0500   12.0220 C   0  0  0  0  0  0
   14.5770    2.0210   11.7850 H   0  0  0  0  0  0
   14.4710    3.6520   11.1200 H   0  0  0  0  0  0
   15.0210    3.6230   13.2260 C   0  0  0  0  0  0
   16.0900    3.7360   12.9740 H   0  0  0  0  0  0
   14.9700    2.9340   14.0880 H   0  0  0  0  0  0
   14.3780    4.9850   13.5720 C   0  0  0  0  0  0
   14.2050    5.4920   12.5970 H   0  0  0  0  0  0
   12.9590    4.8530   14.1790 C   0  0  0  0  0  0
   13.0260    4.4130   15.1920 H   0  0  0  0  0  0
   12.5200    5.6950   14.2030 H   0  0  0  0  0  0
   15.3640    5.9040   14.3000 C   0  0  0  0  0  0
   16.5860    6.2640   13.4140 C   0  0  0  0  0  0
   17.2520    5.4120   13.2100 H   0  0  0  0  0  0
   16.2740    6.6820   12.4430 H   0  0  0  0  0  0
   17.2090    7.0270   13.9130 H   0  0  0  0  0  0
   14.6950    7.2600   14.6460 C   0  0  0  0  0  0
   15.4230    7.9500   15.1080 H   0  0  0  0  0  0
   14.2970    7.7580   13.7460 H   0  0  0  0  0  0
   13.8640    7.1520   15.3610 H   0  0  0  0  0  0
   15.8750    5.2940   15.6250 C   0  0  0  0  0  0
   16.5510    5.9970   16.1410 H   0  0  0  0  0  0
   15.0480    5.0660   16.3180 H   0  0  0  0  0  0
   16.4390    4.3600   15.4680 H   0  0  0  0  0  0
   10.0000    1.2030   11.0730 N   0  0  0  0  0  0
    9.1310    1.0630   11.2570 H   0  0  0  0  0  0
   10.3810    0.8010   10.3640 H   0  0  0  0  0  0
   10.1820    3.9600   14.7110 N   0  0  0  0  0  0
   10.5820    4.5620   15.2480 H   0  0  0  0  0  0
    9.3440    3.6840   14.8900 H   0  0  0  0  0  0
  1  2  1  0  0  0
  1  6  2  0  0  0
  1 15  1  0  0  0
  2  3  2  0  0  0
  2 34  1  0  0  0
  3  4  1  0  0  0
  4  5  2  0  0  0
  4 31  1  0  0  0
  5  6  1  0  0  0
  6  7  1  0  0  0
  7  8  1  0  0  0
  7  9  1  0  0  0
  7 10  1  0  0  0
 10 11  1  0  0  0
 10 12  1  0  0  0
 10 13  1  0  0  0
 13 14  1  0  0  0
 13 15  1  0  0  0
 13 18  1  0  0  0
 15 16  1  0  0  0
 15 17  1  0  0  0
 18 19  1  0  0  0
 18 23  1  0  0  0
 18 27  1  0  0  0
 19 20  1  0  0  0
 19 21  1  0  0  0
 19 22  1  0  0  0
 23 24  1  0  0  0
 23 25  1  0  0  0
 23 26  1  0  0  0
 27 28  1  0  0  0
 27 29  1  0  0  0
 27 30  1  0  0  0
 31 32  1  0  0  0
 31 33  1  0  0  0
 34 35  1  0  0  0
 34 36  1  0  0  0
M  END
>  <ACTIVITY>
7.19

>  <SET>
1

>  <Min_dist>
999.9

>  <Avg_dist>
999.9

$$$$
20-9c
  Cerius2 12110214133D 1   1.00000                          
Structure written by Cerius2 SD Exporter
 34 36  0  0  0  0  0  0  0  0999 V2000
   12.2000    3.8600   13.2730 C   0  0  0  0  0  0
   10.8450    3.4660   13.6300 C   0  0  0  0  0  0
   10.1440    2.5940   12.8960 N   0  0  0  0  0  0
   10.6980    1.9790   11.8240 C   0  0  0  0  0  0
   12.0400    2.1470   11.5440 N   0  0  0  0  0  0
   12.7710    3.0540   12.3160 C   0  0  0  0  0  0
   14.2620    3.0500   12.0220 C   0  0  0  0  0  0
   14.5770    2.0210   11.7850 H   0  0  0  0  0  0
   14.4710    3.6520   11.1200 H   0  0  0  0  0  0
   15.0210    3.6230   13.2260 C   0  0  0  0  0  0
   16.0900    3.7360   12.9740 H   0  0  0  0  0  0
   14.9700    2.9340   14.0880 H   0  0  0  0  0  0
   14.3780    4.9850   13.5720 C   0  0  0  0  0  0
   14.2050    5.4920   12.5970 H   0  0  0  0  0  0
   12.9590    4.8530   14.1790 C   0  0  0  0  0  0
   13.0260    4.4130   15.1920 H   0  0  0  0  0  0
   12.5200    5.6950   14.2030 H   0  0  0  0  0  0
   15.2850    5.8730   14.4220 C   0  0  0  0  0  0
   15.7090    7.1380   13.9840 C   0  0  0  0  0  0
   15.3860    7.5160   12.9930 H   0  0  0  0  0  0
   16.5400    7.9370   14.7790 C   0  0  0  0  0  0
   16.8630    8.9300   14.4110 H   0  0  0  0  0  0
   16.9650    7.4870   16.0350 C   0  0  0  0  0  0
   17.6220    8.1180   16.6640 H   0  0  0  0  0  0
   16.5470    6.2280   16.4830 C   0  0  0  0  0  0
   16.8740    5.8560   17.4730 H   0  0  0  0  0  0
   15.7170    5.4330   15.6850 C   0  0  0  0  0  0
   15.4010    4.4390   16.0610 H   0  0  0  0  0  0
   10.0000    1.2030   11.0730 N   0  0  0  0  0  0
    9.1310    1.0630   11.2570 H   0  0  0  0  0  0
   10.3810    0.8010   10.3640 H   0  0  0  0  0  0
   10.1820    3.9600   14.7110 N   0  0  0  0  0  0
   10.5820    4.5620   15.2480 H   0  0  0  0  0  0
    9.3440    3.6840   14.8900 H   0  0  0  0  0  0
  1  2  1  0  0  0
  1  6  2  0  0  0
  1 15  1  0  0  0
  2  3  2  0  0  0
  2 32  1  0  0  0
  3  4  1  0  0  0
  4  5  2  0  0  0
  4 29  1  0  0  0
  5  6  1  0  0  0
  6  7  1  0  0  0
  7  8  1  0  0  0
  7  9  1  0  0  0
  7 10  1  0  0  0
 10 11  1  0  0  0
 10 12  1  0  0  0
 10 13  1  0  0  0
 13 14  1  0  0  0
 13 15  1  0  0  0
 13 18  1  0  0  0
 15 16  1  0  0  0
 15 17  1  0  0  0
 18 19  1  0  0  0
 18 27  2  0  0  0
 19 20  1  0  0  0
 19 21  2  0  0  0
 21 22  1  0  0  0
 21 23  1  0  0  0
 23 24  1  0  0  0
 23 25  2  0  0  0
 25 26  1  0  0  0
 25 27  1  0  0  0
 27 28  1  0  0  0
 29 30  1  0  0  0
 29 31  1  0  0  0
 32 33  1  0  0  0
 32 34  1  0  0  0
M  END
>  <ACTIVITY>
5.72

>  <SET>
2

>  <Min_dist>
0.15

>  <Avg_dist>
0.63

$$$$
21-10
  Cerius2 12110214133D 1   1.00000                          
Structure written by Cerius2 SD Exporter
 38 40  0  0  0  0  0  0  0  0999 V2000
   10.1560    2.6370   12.9080 N   0  0  0  0  0  0
   10.7220    1.9640   11.9080 C   0  0  0  0  0  0
   11.9890    2.1160   11.5240 N   0  0  0  0  0  0
   12.7360    3.0110   12.1940 C   0  0  0  0  0  0
   12.2680    3.7810   13.2610 C   0  0  0  0  0  0
   10.9310    3.5190   13.5730 C   0  0  0  0  0  0
   10.2870    4.2320   14.5780 N   0  0  0  0  0  0
   10.8580    4.5690   15.3480 H   0  0  0  0  0  0
    9.3310    3.9690   14.7880 H   0  0  0  0  0  0
   13.0440    4.6870   13.9330 N   0  0  0  0  0  0
   14.3360    4.8460   13.5480 C   0  0  0  0  0  0
   14.8700    4.1240   12.4910 C   0  0  0  0  0  0
   15.9020    4.2690   12.1810 H   0  0  0  0  0  0
   14.0580    3.2060   11.8250 C   0  0  0  0  0  0
   14.4730    2.6350   10.9960 H   0  0  0  0  0  0
   15.1860    5.8710   14.2800 C   0  0  0  0  0  0
   15.6130    5.3970   15.1720 H   0  0  0  0  0  0
   14.5410    6.6930   14.6120 H   0  0  0  0  0  0
   16.2400    6.3870   13.4130 N   0  0  0  0  0  0
   17.1790    6.0300   13.5820 H   0  0  0  0  0  0
   16.0180    7.1560   12.2900 C   0  0  0  0  0  0
   14.7450    7.7000   12.0810 C   0  0  0  0  0  0
   13.9510    7.5290   12.8060 H   0  0  0  0  0  0
   14.4580    8.4700   10.9470 C   0  0  0  0  0  0
   13.4570    8.8790   10.8210 H   0  0  0  0  0  0
   15.4390    8.7100    9.9870 C   0  0  0  0  0  0
   16.7080    8.1690   10.1740 C   0  0  0  0  0  0
   17.5110    8.3210    9.4570 H   0  0  0  0  0  0
   16.9880    7.3980   11.3130 C   0  0  0  0  0  0
   17.9940    6.9950   11.4130 H   0  0  0  0  0  0
   15.0370    9.4750    8.9280 O   0  0  0  0  0  0
   16.0140    9.7440    7.9230 C   0  0  0  0  0  0
   15.5400   10.3630    7.1550 H   0  0  0  0  0  0
   16.3520    8.8180    7.4450 H   0  0  0  0  0  0
   16.8570   10.3090    8.3350 H   0  0  0  0  0  0
    9.9600    1.0630   11.2330 N   0  0  0  0  0  0
   10.3610    0.5390   10.4700 H   0  0  0  0  0  0
    8.9960    0.9240   11.4980 H   0  0  0  0  0  0
  1  2  1  0  0  0
  1  6  2  0  0  0
  2  3  2  0  0  0
  2 36  1  0  0  0
  3  4  1  0  0  0
  4  5  2  0  0  0
  4 14  1  0  0  0
  5  6  1  0  0  0
  5 10  1  0  0  0
  6  7  1  0  0  0
  7  8  1  0  0  0
  7  9  1  0  0  0
 10 11  2  0  0  0
 11 12  1  0  0  0
 11 16  1  0  0  0
 12 13  1  0  0  0
 12 14  2  0  0  0
 14 15  1  0  0  0
 16 17  1  0  0  0
 16 18  1  0  0  0
 16 19  1  0  0  0
 19 20  1  0  0  0
 19 21  1  0  0  0
 21 22  1  0  0  0
 21 29  2  0  0  0
 22 23  1  0  0  0
 22 24  2  0  0  0
 24 25  1  0  0  0
 24 26  1  0  0  0
 26 27  2  0  0  0
 26 31  1  0  0  0
 27 28  1  0  0  0
 27 29  1  0  0  0
 29 30  1  0  0  0
 31 32  1  0  0  0
 32 33  1  0  0  0
 32 34  1  0  0  0
 32 35  1  0  0  0
 36 37  1  0  0  0
 36 38  1  0  0  0
M  END
>  <ACTIVITY>
7.14

>  <SET>
1

>  <Min_dist>
999.9

>  <Avg_dist>
999.9

$$$$
21-11
  Cerius2 12110214133D 1   1.00000                          
Structure written by Cerius2 SD Exporter
 41 43  0  0  0  0  0  0  0  0999 V2000
   10.1560    2.6480   12.9210 N   0  0  0  0  0  0
   10.7080    1.9670   11.9180 C   0  0  0  0  0  0
   11.9730    2.1050   11.5240 N   0  0  0  0  0  0
   12.7350    2.9940   12.1870 C   0  0  0  0  0  0
   12.2830    3.7700   13.2550 C   0  0  0  0  0  0
   10.9460    3.5230   13.5780 C   0  0  0  0  0  0
   10.3180    4.2470   14.5860 N   0  0  0  0  0  0
   10.9010    4.5850   15.3470 H   0  0  0  0  0  0
    9.3610    3.9950   14.8060 H   0  0  0  0  0  0
   13.0740    4.6690   13.9180 N   0  0  0  0  0  0
   14.3660    4.8180   13.5220 C   0  0  0  0  0  0
   14.8840    4.0850   12.4640 C   0  0  0  0  0  0
   15.9160    4.2070   12.1460 H   0  0  0  0  0  0
   14.0560    3.1750   11.8070 C   0  0  0  0  0  0
   14.4590    2.5960   10.9780 H   0  0  0  0  0  0
   15.2410    5.8250   14.2620 C   0  0  0  0  0  0
   15.6780    5.2630   15.0970 H   0  0  0  0  0  0
   14.6270    6.6240   14.6950 H   0  0  0  0  0  0
   16.2960    6.4340   13.4220 N   0  0  0  0  0  0
   15.9800    7.1880   12.2990 C   0  0  0  0  0  0
   16.9180    7.4620   11.2930 C   0  0  0  0  0  0
   17.9450    7.1110   11.3700 H   0  0  0  0  0  0
   16.5910    8.2260   10.1620 C   0  0  0  0  0  0
   17.3570    8.4160    9.4110 H   0  0  0  0  0  0
   15.3100    8.7440    9.9980 C   0  0  0  0  0  0
   14.3590    8.4900   10.9800 C   0  0  0  0  0  0
   13.3410    8.8640   10.9080 H   0  0  0  0  0  0
   14.6960    7.7250   12.1090 C   0  0  0  0  0  0
   13.9060    7.5430   12.8370 H   0  0  0  0  0  0
   15.1190    9.4690    8.8560 O   0  0  0  0  0  0
   16.2500    9.6270    8.0010 C   0  0  0  0  0  0
   15.9350   10.2250    7.1400 H   0  0  0  0  0  0
   16.5970    8.6580    7.6260 H   0  0  0  0  0  0
   17.0540   10.1690    8.5080 H   0  0  0  0  0  0
   17.6960    6.1240   13.7200 C   0  0  0  0  0  0
   18.1680    6.9590   14.2490 H   0  0  0  0  0  0
   18.2620    5.9130   12.8050 H   0  0  0  0  0  0
   17.7890    5.2290   14.3430 H   0  0  0  0  0  0
    9.9300    1.0750   11.2490 N   0  0  0  0  0  0
   10.3190    0.5480   10.4810 H   0  0  0  0  0  0
    8.9660    0.9510   11.5190 H   0  0  0  0  0  0
  1  2  1  0  0  0
  1  6  2  0  0  0
  2  3  2  0  0  0
  2 39  1  0  0  0
  3  4  1  0  0  0
  4  5  2  0  0  0
  4 14  1  0  0  0
  5  6  1  0  0  0
  5 10  1  0  0  0
  6  7  1  0  0  0
  7  8  1  0  0  0
  7  9  1  0  0  0
 10 11  2  0  0  0
 11 12  1  0  0  0
 11 16  1  0  0  0
 12 13  1  0  0  0
 12 14  2  0  0  0
 14 15  1  0  0  0
 16 17  1  0  0  0
 16 18  1  0  0  0
 16 19  1  0  0  0
 19 20  1  0  0  0
 19 35  1  0  0  0
 20 21  1  0  0  0
 20 28  2  0  0  0
 21 22  1  0  0  0
 21 23  2  0  0  0
 23 24  1  0  0  0
 23 25  1  0  0  0
 25 26  2  0  0  0
 25 30  1  0  0  0
 26 27  1  0  0  0
 26 28  1  0  0  0
 28 29  1  0  0  0
 30 31  1  0  0  0
 31 32  1  0  0  0
 31 33  1  0  0  0
 31 34  1  0  0  0
 35 36  1  0  0  0
 35 37  1  0  0  0
 35 38  1  0  0  0
 39 40  1  0  0  0
 39 41  1  0  0  0
M  END
>  <ACTIVITY>
7.74

>  <SET>
1

>  <Min_dist>
999.9

>  <Avg_dist>
999.9

$$$$
21-12
  Cerius2 12110214133D 1   1.00000                          
Structure written by Cerius2 SD Exporter
 34 36  0  0  0  0  0  0  0  0999 V2000
   10.1640    2.6310   12.9080 N   0  0  0  0  0  0
   10.7370    1.9570   11.9140 C   0  0  0  0  0  0
   12.0030    2.1180   11.5300 N   0  0  0  0  0  0
   12.7410    3.0250   12.1940 C   0  0  0  0  0  0
   12.2640    3.7990   13.2550 C   0  0  0  0  0  0
   10.9300    3.5250   13.5680 C   0  0  0  0  0  0
   10.2790    4.2380   14.5690 N   0  0  0  0  0  0
   10.8460    4.5840   15.3370 H   0  0  0  0  0  0
    9.3260    3.9660   14.7800 H   0  0  0  0  0  0
   13.0300    4.7180   13.9200 N   0  0  0  0  0  0
   14.3210    4.8870   13.5320 C   0  0  0  0  0  0
   14.8640    4.1610   12.4830 C   0  0  0  0  0  0
   15.8930    4.3170   12.1700 H   0  0  0  0  0  0
   14.0610    3.2300   11.8240 C   0  0  0  0  0  0
   14.4820    2.6560   11.0000 H   0  0  0  0  0  0
   15.1570    5.9310   14.2520 C   0  0  0  0  0  0
   15.4640    5.5260   15.2210 H   0  0  0  0  0  0
   14.5310    6.8080   14.4560 H   0  0  0  0  0  0
   16.2910    6.3310   13.4150 N   0  0  0  0  0  0
   16.9850    5.5900   13.3110 H   0  0  0  0  0  0
   16.0300    7.0770   12.2630 C   0  0  0  0  0  0
   14.7480    7.6320   12.1120 C   0  0  0  0  0  0
   13.9800    7.4420   12.8610 H   0  0  0  0  0  0
   14.4310    8.4450   11.0200 C   0  0  0  0  0  0
   13.4300    8.8640   10.9290 H   0  0  0  0  0  0
   15.3930    8.7240   10.0550 C   0  0  0  0  0  0
   15.1480    9.3560    9.2040 H   0  0  0  0  0  0
   16.6720    8.1850   10.1800 C   0  0  0  0  0  0
   17.4160    8.3970    9.4150 H   0  0  0  0  0  0
   16.9910    7.3700   11.2740 C   0  0  0  0  0  0
   18.5800    6.6790   11.3090 Cl  0  0  0  0  0  0
    9.9840    1.0460   11.2430 N   0  0  0  0  0  0
   10.3910    0.5220   10.4820 H   0  0  0  0  0  0
    9.0200    0.9010   11.5050 H   0  0  0  0  0  0
  1  2  1  0  0  0
  1  6  2  0  0  0
  2  3  2  0  0  0
  2 32  1  0  0  0
  3  4  1  0  0  0
  4  5  2  0  0  0
  4 14  1  0  0  0
  5  6  1  0  0  0
  5 10  1  0  0  0
  6  7  1  0  0  0
  7  8  1  0  0  0
  7  9  1  0  0  0
 10 11  2  0  0  0
 11 12  1  0  0  0
 11 16  1  0  0  0
 12 13  1  0  0  0
 12 14  2  0  0  0
 14 15  1  0  0  0
 16 17  1  0  0  0
 16 18  1  0  0  0
 16 19  1  0  0  0
 19 20  1  0  0  0
 19 21  1  0  0  0
 21 22  1  0  0  0
 21 30  2  0  0  0
 22 23  1  0  0  0
 22 24  2  0  0  0
 24 25  1  0  0  0
 24 26  1  0  0  0
 26 27  1  0  0  0
 26 28  2  0  0  0
 28 29  1  0  0  0
 28 30  1  0  0  0
 30 31  1  0  0  0
 32 33  1  0  0  0
 32 34  1  0  0  0
M  END
>  <ACTIVITY>
6.85

>  <SET>
1

>  <Min_dist>
999.9

>  <Avg_dist>
999.9

$$$$
21-13
  Cerius2 12110214133D 1   1.00000                          
Structure written by Cerius2 SD Exporter
 37 39  0  0  0  0  0  0  0  0999 V2000
   10.1590    2.6340   12.9160 N   0  0  0  0  0  0
   10.7240    1.9540   11.9200 C   0  0  0  0  0  0
   11.9880    2.1080   11.5280 N   0  0  0  0  0  0
   12.7340    3.0140   12.1860 C   0  0  0  0  0  0
   12.2670    3.7900   13.2480 C   0  0  0  0  0  0
   10.9330    3.5250   13.5690 C   0  0  0  0  0  0
   10.2910    4.2470   14.5690 N   0  0  0  0  0  0
   10.8660    4.5940   15.3320 H   0  0  0  0  0  0
    9.3370    3.9820   14.7870 H   0  0  0  0  0  0
   13.0430    4.7060   13.9070 N   0  0  0  0  0  0
   14.3320    4.8720   13.5120 C   0  0  0  0  0  0
   14.8660    4.1390   12.4620 C   0  0  0  0  0  0
   15.8980    4.2730   12.1490 H   0  0  0  0  0  0
   14.0530    3.2120   11.8080 C   0  0  0  0  0  0
   14.4670    2.6330   10.9850 H   0  0  0  0  0  0
   15.1900    5.8840   14.2600 C   0  0  0  0  0  0
   15.5630    5.3710   15.1570 H   0  0  0  0  0  0
   14.5740    6.7230   14.6060 H   0  0  0  0  0  0
   16.3190    6.3740   13.4440 N   0  0  0  0  0  0
   16.0060    7.1320   12.3030 C   0  0  0  0  0  0
   14.7290    7.7000   12.1440 C   0  0  0  0  0  0
   13.9620    7.5600   12.9030 H   0  0  0  0  0  0
   14.3990    8.4390   11.0020 C   0  0  0  0  0  0
   13.4020    8.8650   10.9030 H   0  0  0  0  0  0
   15.3380    8.6240    9.9920 C   0  0  0  0  0  0
   15.0800    9.1990    9.1050 H   0  0  0  0  0  0
   16.6100    8.0720   10.1220 C   0  0  0  0  0  0
   17.3410    8.2240    9.3310 H   0  0  0  0  0  0
   16.9420    7.3320   11.2640 C   0  0  0  0  0  0
   18.5560    6.7090   11.3690 Cl  0  0  0  0  0  0
   17.4640    5.4790   13.2660 C   0  0  0  0  0  0
   18.2940    5.9700   12.7460 H   0  0  0  0  0  0
   17.1740    4.5940   12.6890 H   0  0  0  0  0  0
   17.8520    5.1450   14.2330 H   0  0  0  0  0  0
    9.9630    1.0430   11.2570 N   0  0  0  0  0  0
   10.3630    0.5120   10.4980 H   0  0  0  0  0  0
    9.0010    0.9010   11.5290 H   0  0  0  0  0  0
  1  2  1  0  0  0
  1  6  2  0  0  0
  2  3  2  0  0  0
  2 35  1  0  0  0
  3  4  1  0  0  0
  4  5  2  0  0  0
  4 14  1  0  0  0
  5  6  1  0  0  0
  5 10  1  0  0  0
  6  7  1  0  0  0
  7  8  1  0  0  0
  7  9  1  0  0  0
 10 11  2  0  0  0
 11 12  1  0  0  0
 11 16  1  0  0  0
 12 13  1  0  0  0
 12 14  2  0  0  0
 14 15  1  0  0  0
 16 17  1  0  0  0
 16 18  1  0  0  0
 16 19  1  0  0  0
 19 20  1  0  0  0
 19 31  1  0  0  0
 20 21  1  0  0  0
 20 29  2  0  0  0
 21 22  1  0  0  0
 21 23  2  0  0  0
 23 24  1  0  0  0
 23 25  1  0  0  0
 25 26  1  0  0  0
 25 27  2  0  0  0
 27 28  1  0  0  0
 27 29  1  0  0  0
 29 30  1  0  0  0
 31 32  1  0  0  0
 31 33  1  0  0  0
 31 34  1  0  0  0
 35 36  1  0  0  0
 35 37  1  0  0  0
M  END
>  <ACTIVITY>
6.92

>  <SET>
1

>  <Min_dist>
999.9

>  <Avg_dist>
999.9

$$$$
21-14
  Cerius2 12110214133D 1   1.00000                          
Structure written by Cerius2 SD Exporter
 34 36  0  0  0  0  0  0  0  0999 V2000
   10.1570    2.6390   12.9090 N   0  0  0  0  0  0
   10.7220    1.9650   11.9090 C   0  0  0  0  0  0
   11.9890    2.1160   11.5240 N   0  0  0  0  0  0
   12.7370    3.0110   12.1930 C   0  0  0  0  0  0
   12.2700    3.7800   13.2610 C   0  0  0  0  0  0
   10.9330    3.5200   13.5730 C   0  0  0  0  0  0
   10.2910    4.2350   14.5790 N   0  0  0  0  0  0
   10.8630    4.5730   15.3480 H   0  0  0  0  0  0
    9.3350    3.9740   14.7890 H   0  0  0  0  0  0
   13.0480    4.6850   13.9340 N   0  0  0  0  0  0
   14.3400    4.8420   13.5470 C   0  0  0  0  0  0
   14.8720    4.1210   12.4890 C   0  0  0  0  0  0
   15.9040    4.2660   12.1770 H   0  0  0  0  0  0
   14.0580    3.2060   11.8220 C   0  0  0  0  0  0
   14.4720    2.6360   10.9920 H   0  0  0  0  0  0
   15.1920    5.8640   14.2820 C   0  0  0  0  0  0
   15.6230    5.3850   15.1700 H   0  0  0  0  0  0
   14.5480    6.6840   14.6210 H   0  0  0  0  0  0
   16.2420    6.3860   13.4140 N   0  0  0  0  0  0
   17.1840    6.0350   13.5820 H   0  0  0  0  0  0
   16.0160    7.1560   12.2910 C   0  0  0  0  0  0
   14.7370    7.6970   12.0900 C   0  0  0  0  0  0
   13.9490    7.5200   12.8220 H   0  0  0  0  0  0
   14.4360    8.4670   10.9620 C   0  0  0  0  0  0
   13.4360    8.8770   10.8340 H   0  0  0  0  0  0
   15.4160    8.7060   10.0040 C   0  0  0  0  0  0
   15.1820    9.3050    9.1270 H   0  0  0  0  0  0
   16.6880    8.1700   10.1830 C   0  0  0  0  0  0
   16.9860    7.3990   11.3120 C   0  0  0  0  0  0
   17.9890    6.9960   11.4130 H   0  0  0  0  0  0
   17.9070    8.4570    9.0000 Cl  0  0  0  0  0  0
    9.9590    1.0640   11.2360 N   0  0  0  0  0  0
   10.3610    0.5360   10.4750 H   0  0  0  0  0  0
    8.9960    0.9230   11.5040 H   0  0  0  0  0  0
  1  2  1  0  0  0
  1  6  2  0  0  0
  2  3  2  0  0  0
  2 32  1  0  0  0
  3  4  1  0  0  0
  4  5  2  0  0  0
  4 14  1  0  0  0
  5  6  1  0  0  0
  5 10  1  0  0  0
  6  7  1  0  0  0
  7  8  1  0  0  0
  7  9  1  0  0  0
 10 11  2  0  0  0
 11 12  1  0  0  0
 11 16  1  0  0  0
 12 13  1  0  0  0
 12 14  2  0  0  0
 14 15  1  0  0  0
 16 17  1  0  0  0
 16 18  1  0  0  0
 16 19  1  0  0  0
 19 20  1  0  0  0
 19 21  1  0  0  0
 21 22  1  0  0  0
 21 29  2  0  0  0
 22 23  1  0  0  0
 22 24  2  0  0  0
 24 25  1  0  0  0
 24 26  1  0  0  0
 26 27  1  0  0  0
 26 28  2  0  0  0
 28 29  1  0  0  0
 28 31  1  0  0  0
 29 30  1  0  0  0
 32 33  1  0  0  0
 32 34  1  0  0  0
M  END
>  <ACTIVITY>
6.85

>  <SET>
1

>  <Min_dist>
999.9

>  <Avg_dist>
999.9

$$$$
21-15
  Cerius2 12110214133D 1   1.00000                          
Structure written by Cerius2 SD Exporter
 42 44  0  0  0  0  0  0  0  0999 V2000
   10.1590    2.6400   12.9090 N   0  0  0  0  0  0
   10.7250    1.9670   11.9090 C   0  0  0  0  0  0
   11.9920    2.1170   11.5250 N   0  0  0  0  0  0
   12.7400    3.0120   12.1950 C   0  0  0  0  0  0
   12.2730    3.7820   13.2630 C   0  0  0  0  0  0
   10.9350    3.5210   13.5740 C   0  0  0  0  0  0
   10.2920    4.2350   14.5790 N   0  0  0  0  0  0
   10.8630    4.5740   15.3480 H   0  0  0  0  0  0
    9.3360    3.9740   14.7890 H   0  0  0  0  0  0
   13.0500    4.6880   13.9340 N   0  0  0  0  0  0
   14.3420    4.8460   13.5470 C   0  0  0  0  0  0
   14.8750    4.1240   12.4890 C   0  0  0  0  0  0
   15.9050    4.2700   12.1750 H   0  0  0  0  0  0
   14.0610    3.2060   11.8250 C   0  0  0  0  0  0
   14.4750    2.6360   10.9950 H   0  0  0  0  0  0
   15.1910    5.8810   14.2710 C   0  0  0  0  0  0
   15.6200    5.4080   15.1620 H   0  0  0  0  0  0
   14.5350    6.6990   14.5910 H   0  0  0  0  0  0
   16.2360    6.3890   13.3920 N   0  0  0  0  0  0
   17.1740    6.0340   13.5770 H   0  0  0  0  0  0
   16.0530    7.1590   12.2550 C   0  0  0  0  0  0
   14.7650    7.6870   12.0570 C   0  0  0  0  0  0
   13.9790    7.4950   12.7870 H   0  0  0  0  0  0
   14.4480    8.4600   10.9380 C   0  0  0  0  0  0
   13.4380    8.8510   10.8280 H   0  0  0  0  0  0
   15.4130    8.7290    9.9750 C   0  0  0  0  0  0
   16.6980    8.2110   10.1390 C   0  0  0  0  0  0
   17.4520    8.4210    9.3890 H   0  0  0  0  0  0
   17.0270    7.4270   11.2630 C   0  0  0  0  0  0
   18.2820    6.9030   11.4640 O   0  0  0  0  0  0
   19.3040    7.2170   10.5230 C   0  0  0  0  0  0
   20.2060    6.6720   10.8180 H   0  0  0  0  0  0
   19.5410    8.2860   10.5430 H   0  0  0  0  0  0
   19.0300    6.8850    9.5160 H   0  0  0  0  0  0
   14.9790    9.4980    8.9310 O   0  0  0  0  0  0
   15.9240    9.7880    7.9020 C   0  0  0  0  0  0
   15.4210   10.4080    7.1540 H   0  0  0  0  0  0
   16.2570    8.8700    7.4050 H   0  0  0  0  0  0
   16.7710   10.3590    8.2950 H   0  0  0  0  0  0
    9.9610    1.0690   11.2320 N   0  0  0  0  0  0
   10.3620    0.5450   10.4680 H   0  0  0  0  0  0
    8.9960    0.9320   11.4960 H   0  0  0  0  0  0
  1  2  1  0  0  0
  1  6  2  0  0  0
  2  3  2  0  0  0
  2 40  1  0  0  0
  3  4  1  0  0  0
  4  5  2  0  0  0
  4 14  1  0  0  0
  5  6  1  0  0  0
  5 10  1  0  0  0
  6  7  1  0  0  0
  7  8  1  0  0  0
  7  9  1  0  0  0
 10 11  2  0  0  0
 11 12  1  0  0  0
 11 16  1  0  0  0
 12 13  1  0  0  0
 12 14  2  0  0  0
 14 15  1  0  0  0
 16 17  1  0  0  0
 16 18  1  0  0  0
 16 19  1  0  0  0
 19 20  1  0  0  0
 19 21  1  0  0  0
 21 22  1  0  0  0
 21 29  2  0  0  0
 22 23  1  0  0  0
 22 24  2  0  0  0
 24 25  1  0  0  0
 24 26  1  0  0  0
 26 27  2  0  0  0
 26 35  1  0  0  0
 27 28  1  0  0  0
 27 29  1  0  0  0
 29 30  1  0  0  0
 30 31  1  0  0  0
 31 32  1  0  0  0
 31 33  1  0  0  0
 31 34  1  0  0  0
 35 36  1  0  0  0
 36 37  1  0  0  0
 36 38  1  0  0  0
 36 39  1  0  0  0
 40 41  1  0  0  0
 40 42  1  0  0  0
M  END
>  <ACTIVITY>
6.49

>  <SET>
1

>  <Min_dist>
999.9

>  <Avg_dist>
999.9

$$$$
21-16
  Cerius2 12110214133D 1   1.00000                          
Structure written by Cerius2 SD Exporter
 45 47  0  0  0  0  0  0  0  0999 V2000
   10.1600    2.6240   12.9170 N   0  0  0  0  0  0
   10.7310    1.9410   11.9270 C   0  0  0  0  0  0
   11.9940    2.1030   11.5340 N   0  0  0  0  0  0
   12.7320    3.0210   12.1830 C   0  0  0  0  0  0
   12.2580    3.8030   13.2380 C   0  0  0  0  0  0
   10.9260    3.5290   13.5620 C   0  0  0  0  0  0
   10.2770    4.2530   14.5560 N   0  0  0  0  0  0
   10.8480    4.6120   15.3160 H   0  0  0  0  0  0
    9.3260    3.9810   14.7760 H   0  0  0  0  0  0
   13.0250    4.7320   13.8880 N   0  0  0  0  0  0
   14.3130    4.9070   13.4910 C   0  0  0  0  0  0
   14.8530    4.1680   12.4470 C   0  0  0  0  0  0
   15.8830    4.3090   12.1320 H   0  0  0  0  0  0
   14.0480    3.2280   11.8030 C   0  0  0  0  0  0
   14.4670    2.6450   10.9850 H   0  0  0  0  0  0
   15.1610    5.9390   14.2240 C   0  0  0  0  0  0
   15.5520    5.4330   15.1180 H   0  0  0  0  0  0
   14.5330    6.7680   14.5730 H   0  0  0  0  0  0
   16.2730    6.4520   13.3970 N   0  0  0  0  0  0
   15.9580    7.2030   12.2520 C   0  0  0  0  0  0
   14.6810    7.7610   12.0830 C   0  0  0  0  0  0
   13.9060    7.6200   12.8340 H   0  0  0  0  0  0
   14.3560    8.4920   10.9370 C   0  0  0  0  0  0
   13.3540    8.9060   10.8380 H   0  0  0  0  0  0
   15.2950    8.6840    9.9280 C   0  0  0  0  0  0
   16.5730    8.1400   10.0700 C   0  0  0  0  0  0
   17.3090    8.2930    9.2900 H   0  0  0  0  0  0
   16.9120    7.4050   11.2200 C   0  0  0  0  0  0
   18.1600    6.8670   11.4440 O   0  0  0  0  0  0
   19.1510    7.0430   10.4350 C   0  0  0  0  0  0
   20.0620    6.5430   10.7750 H   0  0  0  0  0  0
   19.3860    8.1040   10.2960 H   0  0  0  0  0  0
   18.8440    6.5740    9.4950 H   0  0  0  0  0  0
   14.8450    9.4150    8.8630 O   0  0  0  0  0  0
   15.7660    9.6440    7.7970 C   0  0  0  0  0  0
   15.2510   10.2360    7.0340 H   0  0  0  0  0  0
   16.0760    8.7010    7.3360 H   0  0  0  0  0  0
   16.6290   10.2230    8.1420 H   0  0  0  0  0  0
   17.4570    5.6000   13.2570 C   0  0  0  0  0  0
   18.2860    6.1110   12.7540 H   0  0  0  0  0  0
   17.2130    4.7010   12.6800 H   0  0  0  0  0  0
   17.8320    5.2860   14.2350 H   0  0  0  0  0  0
    9.9780    1.0170   11.2730 N   0  0  0  0  0  0
   10.3820    0.4850   10.5170 H   0  0  0  0  0  0
    9.0170    0.8710   11.5450 H   0  0  0  0  0  0
  1  2  1  0  0  0
  1  6  2  0  0  0
  2  3  2  0  0  0
  2 43  1  0  0  0
  3  4  1  0  0  0
  4  5  2  0  0  0
  4 14  1  0  0  0
  5  6  1  0  0  0
  5 10  1  0  0  0
  6  7  1  0  0  0
  7  8  1  0  0  0
  7  9  1  0  0  0
 10 11  2  0  0  0
 11 12  1  0  0  0
 11 16  1  0  0  0
 12 13  1  0  0  0
 12 14  2  0  0  0
 14 15  1  0  0  0
 16 17  1  0  0  0
 16 18  1  0  0  0
 16 19  1  0  0  0
 19 20  1  0  0  0
 19 39  1  0  0  0
 20 21  1  0  0  0
 20 28  2  0  0  0
 21 22  1  0  0  0
 21 23  2  0  0  0
 23 24  1  0  0  0
 23 25  1  0  0  0
 25 26  2  0  0  0
 25 34  1  0  0  0
 26 27  1  0  0  0
 26 28  1  0  0  0
 28 29  1  0  0  0
 29 30  1  0  0  0
 30 31  1  0  0  0
 30 32  1  0  0  0
 30 33  1  0  0  0
 34 35  1  0  0  0
 35 36  1  0  0  0
 35 37  1  0  0  0
 35 38  1  0  0  0
 39 40  1  0  0  0
 39 41  1  0  0  0
 39 42  1  0  0  0
 43 44  1  0  0  0
 43 45  1  0  0  0
M  END
>  <ACTIVITY>
7.8

>  <SET>
1

>  <Min_dist>
999.9

>  <Avg_dist>
999.9

$$$$
21-18
  Cerius2 12110214133D 1   1.00000                          
Structure written by Cerius2 SD Exporter
 45 47  0  0  0  0  0  0  0  0999 V2000
   10.1640    2.6250   12.9230 N   0  0  0  0  0  0
   10.7320    1.9370   11.9350 C   0  0  0  0  0  0
   11.9930    2.0990   11.5360 N   0  0  0  0  0  0
   12.7320    3.0220   12.1770 C   0  0  0  0  0  0
   12.2610    3.8080   13.2300 C   0  0  0  0  0  0
   10.9310    3.5340   13.5590 C   0  0  0  0  0  0
   10.2840    4.2640   14.5520 N   0  0  0  0  0  0
   10.8580    4.6290   15.3070 H   0  0  0  0  0  0
    9.3340    3.9920   14.7760 H   0  0  0  0  0  0
   13.0290    4.7420   13.8730 N   0  0  0  0  0  0
   14.3150    4.9150   13.4720 C   0  0  0  0  0  0
   14.8520    4.1730   12.4300 C   0  0  0  0  0  0
   15.8820    4.3140   12.1110 H   0  0  0  0  0  0
   14.0470    3.2290   11.7920 C   0  0  0  0  0  0
   14.4650    2.6430   10.9750 H   0  0  0  0  0  0
   15.1650    5.9500   14.2000 C   0  0  0  0  0  0
   15.5500    5.4510   15.1000 H   0  0  0  0  0  0
   14.5400    6.7860   14.5370 H   0  0  0  0  0  0
   16.2850    6.4500   13.3740 N   0  0  0  0  0  0
   15.9800    7.2070   12.2290 C   0  0  0  0  0  0
   14.7080    7.7870   12.0620 C   0  0  0  0  0  0
   13.9400    7.6460   12.8200 H   0  0  0  0  0  0
   14.3760    8.5300   10.9230 C   0  0  0  0  0  0
   15.3270    8.7020    9.9240 C   0  0  0  0  0  0
   15.1190    9.2700    9.0200 H   0  0  0  0  0  0
   16.6010    8.1400   10.0610 C   0  0  0  0  0  0
   17.3100    8.3080    9.2550 H   0  0  0  0  0  0
   16.9370    7.3980   11.2000 C   0  0  0  0  0  0
   18.1780    6.8440   11.4150 O   0  0  0  0  0  0
   19.1600    7.0100   10.3960 C   0  0  0  0  0  0
   20.0710    6.5030   10.7270 H   0  0  0  0  0  0
   19.4020    8.0680   10.2510 H   0  0  0  0  0  0
   18.8400    6.5410    9.4600 H   0  0  0  0  0  0
   13.1000    9.0220   10.9100 O   0  0  0  0  0  0
   12.7160    9.7870    9.7680 C   0  0  0  0  0  0
   11.6810   10.1080    9.9150 H   0  0  0  0  0  0
   12.7510    9.1780    8.8580 H   0  0  0  0  0  0
   13.3350   10.6850    9.6700 H   0  0  0  0  0  0
   17.4610    5.5860   13.2360 C   0  0  0  0  0  0
   18.2930    6.0850   12.7290 H   0  0  0  0  0  0
   17.2060    4.6860   12.6660 H   0  0  0  0  0  0
   17.8350    5.2760   14.2160 H   0  0  0  0  0  0
    9.9780    1.0080   11.2880 N   0  0  0  0  0  0
   10.3810    0.4710   10.5350 H   0  0  0  0  0  0
    9.0190    0.8610   11.5660 H   0  0  0  0  0  0
  1  2  1  0  0  0
  1  6  2  0  0  0
  2  3  2  0  0  0
  2 43  1  0  0  0
  3  4  1  0  0  0
  4  5  2  0  0  0
  4 14  1  0  0  0
  5  6  1  0  0  0
  5 10  1  0  0  0
  6  7  1  0  0  0
  7  8  1  0  0  0
  7  9  1  0  0  0
 10 11  2  0  0  0
 11 12  1  0  0  0
 11 16  1  0  0  0
 12 13  1  0  0  0
 12 14  2  0  0  0
 14 15  1  0  0  0
 16 17  1  0  0  0
 16 18  1  0  0  0
 16 19  1  0  0  0
 19 20  1  0  0  0
 19 39  1  0  0  0
 20 21  1  0  0  0
 20 28  2  0  0  0
 21 22  1  0  0  0
 21 23  2  0  0  0
 23 24  1  0  0  0
 23 34  1  0  0  0
 24 25  1  0  0  0
 24 26  2  0  0  0
 26 27  1  0  0  0
 26 28  1  0  0  0
 28 29  1  0  0  0
 29 30  1  0  0  0
 30 31  1  0  0  0
 30 32  1  0  0  0
 30 33  1  0  0  0
 34 35  1  0  0  0
 35 36  1  0  0  0
 35 37  1  0  0  0
 35 38  1  0  0  0
 39 40  1  0  0  0
 39 41  1  0  0  0
 39 42  1  0  0  0
 43 44  1  0  0  0
 43 45  1  0  0  0
M  END
>  <ACTIVITY>
7.3

>  <SET>
1

>  <Min_dist>
999.9

>  <Avg_dist>
999.9

$$$$
21-19
  Cerius2 12110214133D 1   1.00000                          
Structure written by Cerius2 SD Exporter
 42 44  0  0  0  0  0  0  0  0999 V2000
   10.1580    2.6400   12.9110 N   0  0  0  0  0  0
   10.7220    1.9640   11.9120 C   0  0  0  0  0  0
   11.9870    2.1150   11.5240 N   0  0  0  0  0  0
   12.7370    3.0110   12.1900 C   0  0  0  0  0  0
   12.2710    3.7830   13.2570 C   0  0  0  0  0  0
   10.9350    3.5220   13.5730 C   0  0  0  0  0  0
   10.2950    4.2370   14.5790 N   0  0  0  0  0  0
   10.8690    4.5750   15.3470 H   0  0  0  0  0  0
    9.3400    3.9740   14.7930 H   0  0  0  0  0  0
   13.0510    4.6890   13.9270 N   0  0  0  0  0  0
   14.3420    4.8450   13.5400 C   0  0  0  0  0  0
   14.8740    4.1200   12.4820 C   0  0  0  0  0  0
   15.9050    4.2620   12.1710 H   0  0  0  0  0  0
   14.0580    3.2040   11.8180 C   0  0  0  0  0  0
   14.4710    2.6310   10.9900 H   0  0  0  0  0  0
   15.1980    5.8630   14.2750 C   0  0  0  0  0  0
   15.6400    5.3760   15.1530 H   0  0  0  0  0  0
   14.5530    6.6750   14.6300 H   0  0  0  0  0  0
   16.2370    6.3990   13.4030 N   0  0  0  0  0  0
   17.1880    6.0820   13.5850 H   0  0  0  0  0  0
   16.0010    7.1660   12.2800 C   0  0  0  0  0  0
   14.7250    7.7170   12.1000 C   0  0  0  0  0  0
   13.9490    7.5540   12.8470 H   0  0  0  0  0  0
   14.4160    8.4820   10.9750 C   0  0  0  0  0  0
   13.4220    8.9100   10.8670 H   0  0  0  0  0  0
   15.3860    8.6900    9.9990 C   0  0  0  0  0  0
   16.6770    8.1680   10.1500 C   0  0  0  0  0  0
   16.9670    7.4000   11.2870 C   0  0  0  0  0  0
   17.9580    6.9780   11.4140 H   0  0  0  0  0  0
   17.5620    8.4570    9.1430 O   0  0  0  0  0  0
   18.8630    7.8790    9.2320 C   0  0  0  0  0  0
   19.4390    8.2210    8.3670 H   0  0  0  0  0  0
   18.8110    6.7860    9.1870 H   0  0  0  0  0  0
   19.3840    8.2180   10.1330 H   0  0  0  0  0  0
   15.0810    9.4750    8.9150 O   0  0  0  0  0  0
   16.2210    9.5850    8.0560 C   0  0  0  0  0  0
   15.9670   10.2830    7.2530 H   0  0  0  0  0  0
   16.4670    8.6190    7.6020 H   0  0  0  0  0  0
   17.0870    9.9860    8.5950 H   0  0  0  0  0  0
    9.9580    1.0600   11.2420 N   0  0  0  0  0  0
   10.3590    0.5300   10.4830 H   0  0  0  0  0  0
    8.9960    0.9180   11.5130 H   0  0  0  0  0  0
  1  2  1  0  0  0
  1  6  2  0  0  0
  2  3  2  0  0  0
  2 40  1  0  0  0
  3  4  1  0  0  0
  4  5  2  0  0  0
  4 14  1  0  0  0
  5  6  1  0  0  0
  5 10  1  0  0  0
  6  7  1  0  0  0
  7  8  1  0  0  0
  7  9  1  0  0  0
 10 11  2  0  0  0
 11 12  1  0  0  0
 11 16  1  0  0  0
 12 13  1  0  0  0
 12 14  2  0  0  0
 14 15  1  0  0  0
 16 17  1  0  0  0
 16 18  1  0  0  0
 16 19  1  0  0  0
 19 20  1  0  0  0
 19 21  1  0  0  0
 21 22  1  0  0  0
 21 28  2  0  0  0
 22 23  1  0  0  0
 22 24  2  0  0  0
 24 25  1  0  0  0
 24 26  1  0  0  0
 26 27  2  0  0  0
 26 35  1  0  0  0
 27 28  1  0  0  0
 27 30  1  0  0  0
 28 29  1  0  0  0
 30 31  1  0  0  0
 31 32  1  0  0  0
 31 33  1  0  0  0
 31 34  1  0  0  0
 35 36  1  0  0  0
 36 37  1  0  0  0
 36 38  1  0  0  0
 36 39  1  0  0  0
 40 41  1  0  0  0
 40 42  1  0  0  0
M  END
>  <ACTIVITY>
7.22

>  <SET>
1

>  <Min_dist>
999.9

>  <Avg_dist>
999.9

$$$$
21-20
  Cerius2 12110214133D 1   1.00000                          
Structure written by Cerius2 SD Exporter
 45 47  0  0  0  0  0  0  0  0999 V2000
   10.1610    2.6550   12.9240 N   0  0  0  0  0  0
   10.7080    1.9740   11.9190 C   0  0  0  0  0  0
   11.9720    2.1100   11.5210 N   0  0  0  0  0  0
   12.7380    2.9950   12.1840 C   0  0  0  0  0  0
   12.2920    3.7690   13.2570 C   0  0  0  0  0  0
   10.9540    3.5270   13.5810 C   0  0  0  0  0  0
   10.3300    4.2500   14.5910 N   0  0  0  0  0  0
   10.9130    4.5890   15.3510 H   0  0  0  0  0  0
    9.3720    4.0020   14.8110 H   0  0  0  0  0  0
   13.0890    4.6600   13.9230 N   0  0  0  0  0  0
   14.3790    4.8080   13.5210 C   0  0  0  0  0  0
   14.8940    4.0730   12.4630 C   0  0  0  0  0  0
   15.9260    4.1910   12.1440 H   0  0  0  0  0  0
   14.0600    3.1700   11.8030 C   0  0  0  0  0  0
   14.4590    2.5910   10.9720 H   0  0  0  0  0  0
   15.2610    5.8040   14.2680 C   0  0  0  0  0  0
   15.7480    5.3220   15.1250 H   0  0  0  0  0  0
   14.5700    6.5540   14.6720 H   0  0  0  0  0  0
   16.2970    6.4220   13.4130 N   0  0  0  0  0  0
   15.9690    7.1820   12.2980 C   0  0  0  0  0  0
   16.9180    7.4560   11.2970 C   0  0  0  0  0  0
   17.9270    7.0530   11.3640 H   0  0  0  0  0  0
   16.6030    8.2200   10.1700 C   0  0  0  0  0  0
   17.3600    8.3940    9.4080 H   0  0  0  0  0  0
   15.3230    8.7450   10.0300 C   0  0  0  0  0  0
   14.3400    8.4880   10.9890 C   0  0  0  0  0  0
   14.6780    7.7210   12.1150 C   0  0  0  0  0  0
   13.9340    7.5580   12.8890 H   0  0  0  0  0  0
   13.1060    9.0340   10.7450 O   0  0  0  0  0  0
   12.9740    9.8590    9.5900 C   0  0  0  0  0  0
   11.9490   10.2410    9.5690 H   0  0  0  0  0  0
   13.1320    9.2800    8.6750 H   0  0  0  0  0  0
   13.6500   10.7200    9.6400 H   0  0  0  0  0  0
   15.0200    9.4600    8.8990 O   0  0  0  0  0  0
   16.1890    9.6050    8.0850 C   0  0  0  0  0  0
   15.9240   10.2340    7.2300 H   0  0  0  0  0  0
   16.5250    8.6350    7.7020 H   0  0  0  0  0  0
   16.9970   10.1000    8.6350 H   0  0  0  0  0  0
   17.7000    6.2420   13.7890 C   0  0  0  0  0  0
   18.1520    5.4290   13.2110 H   0  0  0  0  0  0
   17.8000    6.0030   14.8530 H   0  0  0  0  0  0
   18.2780    7.1600   13.6280 H   0  0  0  0  0  0
    9.9280    1.0810   11.2540 N   0  0  0  0  0  0
   10.3160    0.5460   10.4920 H   0  0  0  0  0  0
    8.9680    0.9480   11.5360 H   0  0  0  0  0  0
  1  2  1  0  0  0
  1  6  2  0  0  0
  2  3  2  0  0  0
  2 43  1  0  0  0
  3  4  1  0  0  0
  4  5  2  0  0  0
  4 14  1  0  0  0
  5  6  1  0  0  0
  5 10  1  0  0  0
  6  7  1  0  0  0
  7  8  1  0  0  0
  7  9  1  0  0  0
 10 11  2  0  0  0
 11 12  1  0  0  0
 11 16  1  0  0  0
 12 13  1  0  0  0
 12 14  2  0  0  0
 14 15  1  0  0  0
 16 17  1  0  0  0
 16 18  1  0  0  0
 16 19  1  0  0  0
 19 20  1  0  0  0
 19 39  1  0  0  0
 20 21  1  0  0  0
 20 27  2  0  0  0
 21 22  1  0  0  0
 21 23  2  0  0  0
 23 24  1  0  0  0
 23 25  1  0  0  0
 25 26  2  0  0  0
 25 34  1  0  0  0
 26 27  1  0  0  0
 26 29  1  0  0  0
 27 28  1  0  0  0
 29 30  1  0  0  0
 30 31  1  0  0  0
 30 32  1  0  0  0
 30 33  1  0  0  0
 34 35  1  0  0  0
 35 36  1  0  0  0
 35 37  1  0  0  0
 35 38  1  0  0  0
 39 40  1  0  0  0
 39 41  1  0  0  0
 39 42  1  0  0  0
 43 44  1  0  0  0
 43 45  1  0  0  0
M  END
>  <ACTIVITY>
8.57

>  <SET>
2

>  <Min_dist>
0.07

>  <Avg_dist>
0.47

$$$$
21-21
  Cerius2 12110214133D 1   1.00000                          
Structure written by Cerius2 SD Exporter
 34 36  0  0  0  0  0  0  0  0999 V2000
   10.1640    2.6310   12.9090 N   0  0  0  0  0  0
   10.7370    1.9560   11.9150 C   0  0  0  0  0  0
   12.0030    2.1170   11.5300 N   0  0  0  0  0  0
   12.7410    3.0250   12.1930 C   0  0  0  0  0  0
   12.2640    3.7980   13.2540 C   0  0  0  0  0  0
   10.9300    3.5260   13.5670 C   0  0  0  0  0  0
   10.2800    4.2400   14.5670 N   0  0  0  0  0  0
   10.8470    4.5900   15.3340 H   0  0  0  0  0  0
    9.3260    3.9700   14.7790 H   0  0  0  0  0  0
   13.0310    4.7180   13.9190 N   0  0  0  0  0  0
   14.3210    4.8860   13.5310 C   0  0  0  0  0  0
   14.8630    4.1620   12.4800 C   0  0  0  0  0  0
   15.8920    4.3190   12.1670 H   0  0  0  0  0  0
   14.0600    3.2310   11.8210 C   0  0  0  0  0  0
   14.4810    2.6590   10.9970 H   0  0  0  0  0  0
   15.1580    5.9280   14.2530 C   0  0  0  0  0  0
   15.4690    5.5200   15.2200 H   0  0  0  0  0  0
   14.5320    6.8040   14.4630 H   0  0  0  0  0  0
   16.2890    6.3330   13.4150 N   0  0  0  0  0  0
   16.9880    5.5960   13.3130 H   0  0  0  0  0  0
   16.0280    7.0800   12.2640 C   0  0  0  0  0  0
   14.7460    7.6330   12.1140 C   0  0  0  0  0  0
   13.9780    7.4440   12.8630 H   0  0  0  0  0  0
   14.4290    8.4450   11.0210 C   0  0  0  0  0  0
   13.4270    8.8600   10.9340 H   0  0  0  0  0  0
   15.3970    8.7180   10.0600 C   0  0  0  0  0  0
   16.6760    8.1850   10.1790 C   0  0  0  0  0  0
   17.4250    8.3910    9.4190 H   0  0  0  0  0  0
   16.9900    7.3720   11.2740 C   0  0  0  0  0  0
   18.5780    6.6780   11.3110 Cl  0  0  0  0  0  0
   15.0070    9.7160    8.7130 Cl  0  0  0  0  0  0
    9.9830    1.0440   11.2460 N   0  0  0  0  0  0
   10.3900    0.5170   10.4870 H   0  0  0  0  0  0
    9.0200    0.8990   11.5110 H   0  0  0  0  0  0
  1  2  1  0  0  0
  1  6  2  0  0  0
  2  3  2  0  0  0
  2 32  1  0  0  0
  3  4  1  0  0  0
  4  5  2  0  0  0
  4 14  1  0  0  0
  5  6  1  0  0  0
  5 10  1  0  0  0
  6  7  1  0  0  0
  7  8  1  0  0  0
  7  9  1  0  0  0
 10 11  2  0  0  0
 11 12  1  0  0  0
 11 16  1  0  0  0
 12 13  1  0  0  0
 12 14  2  0  0  0
 14 15  1  0  0  0
 16 17  1  0  0  0
 16 18  1  0  0  0
 16 19  1  0  0  0
 19 20  1  0  0  0
 19 21  1  0  0  0
 21 22  1  0  0  0
 21 29  2  0  0  0
 22 23  1  0  0  0
 22 24  2  0  0  0
 24 25  1  0  0  0
 24 26  1  0  0  0
 26 27  2  0  0  0
 26 31  1  0  0  0
 27 28  1  0  0  0
 27 29  1  0  0  0
 29 30  1  0  0  0
 32 33  1  0  0  0
 32 34  1  0  0  0
M  END
>  <ACTIVITY>
7.06

>  <SET>
1

>  <Min_dist>
999.9

>  <Avg_dist>
999.9

$$$$
21-22
  Cerius2 12110214133D 1   1.00000                          
Structure written by Cerius2 SD Exporter
 37 39  0  0  0  0  0  0  0  0999 V2000
   10.1590    2.6330   12.9160 N   0  0  0  0  0  0
   10.7240    1.9530   11.9210 C   0  0  0  0  0  0
   11.9880    2.1080   11.5280 N   0  0  0  0  0  0
   12.7340    3.0130   12.1860 C   0  0  0  0  0  0
   12.2670    3.7900   13.2480 C   0  0  0  0  0  0
   10.9330    3.5250   13.5690 C   0  0  0  0  0  0
   10.2920    4.2470   14.5690 N   0  0  0  0  0  0
   10.8670    4.5960   15.3310 H   0  0  0  0  0  0
    9.3380    3.9830   14.7870 H   0  0  0  0  0  0
   13.0430    4.7060   13.9060 N   0  0  0  0  0  0
   14.3320    4.8720   13.5110 C   0  0  0  0  0  0
   14.8660    4.1390   12.4610 C   0  0  0  0  0  0
   15.8980    4.2730   12.1490 H   0  0  0  0  0  0
   14.0530    3.2120   11.8080 C   0  0  0  0  0  0
   14.4670    2.6330   10.9850 H   0  0  0  0  0  0
   15.1890    5.8840   14.2590 C   0  0  0  0  0  0
   15.5630    5.3710   15.1550 H   0  0  0  0  0  0
   14.5740    6.7240   14.6050 H   0  0  0  0  0  0
   16.3170    6.3750   13.4420 N   0  0  0  0  0  0
   16.0060    7.1330   12.3020 C   0  0  0  0  0  0
   14.7310    7.7020   12.1430 C   0  0  0  0  0  0
   13.9630    7.5630   12.9020 H   0  0  0  0  0  0
   14.4040    8.4410   11.0010 C   0  0  0  0  0  0
   13.4070    8.8660   10.9060 H   0  0  0  0  0  0
   15.3500    8.6210    9.9960 C   0  0  0  0  0  0
   16.6200    8.0700   10.1200 C   0  0  0  0  0  0
   17.3580    8.2160    9.3350 H   0  0  0  0  0  0
   16.9450    7.3320   11.2620 C   0  0  0  0  0  0
   18.5580    6.7040   11.3730 Cl  0  0  0  0  0  0
   14.9440    9.5310    8.5920 Cl  0  0  0  0  0  0
   17.4650    5.4810   13.2680 C   0  0  0  0  0  0
   18.2950    5.9720   12.7500 H   0  0  0  0  0  0
   17.1770    4.5940   12.6920 H   0  0  0  0  0  0
   17.8500    5.1490   14.2370 H   0  0  0  0  0  0
    9.9630    1.0430   11.2580 N   0  0  0  0  0  0
   10.3630    0.5140   10.4970 H   0  0  0  0  0  0
    9.0000    0.9030   11.5280 H   0  0  0  0  0  0
  1  2  1  0  0  0
  1  6  2  0  0  0
  2  3  2  0  0  0
  2 35  1  0  0  0
  3  4  1  0  0  0
  4  5  2  0  0  0
  4 14  1  0  0  0
  5  6  1  0  0  0
  5 10  1  0  0  0
  6  7  1  0  0  0
  7  8  1  0  0  0
  7  9  1  0  0  0
 10 11  2  0  0  0
 11 12  1  0  0  0
 11 16  1  0  0  0
 12 13  1  0  0  0
 12 14  2  0  0  0
 14 15  1  0  0  0
 16 17  1  0  0  0
 16 18  1  0  0  0
 16 19  1  0  0  0
 19 20  1  0  0  0
 19 31  1  0  0  0
 20 21  1  0  0  0
 20 28  2  0  0  0
 21 22  1  0  0  0
 21 23  2  0  0  0
 23 24  1  0  0  0
 23 25  1  0  0  0
 25 26  2  0  0  0
 25 30  1  0  0  0
 26 27  1  0  0  0
 26 28  1  0  0  0
 28 29  1  0  0  0
 31 32  1  0  0  0
 31 33  1  0  0  0
 31 34  1  0  0  0
 35 36  1  0  0  0
 35 37  1  0  0  0
M  END
>  <ACTIVITY>
7.24

>  <SET>
1

>  <Min_dist>
999.9

>  <Avg_dist>
999.9

$$$$
21-23
  Cerius2 12110214133D 1   1.00000                          
Structure written by Cerius2 SD Exporter
 34 36  0  0  0  0  0  0  0  0999 V2000
   10.1620    2.6390   12.9030 N   0  0  0  0  0  0
   10.7370    1.9580   11.9140 C   0  0  0  0  0  0
   12.0030    2.1170   11.5300 N   0  0  0  0  0  0
   12.7410    3.0260   12.1920 C   0  0  0  0  0  0
   12.2610    3.8070   13.2460 C   0  0  0  0  0  0
   10.9190    3.5540   13.5420 C   0  0  0  0  0  0
   10.2930    4.2090   14.5970 N   0  0  0  0  0  0
   10.6240    5.1420   14.8260 H   0  0  0  0  0  0
    9.3080    4.0180   14.7360 H   0  0  0  0  0  0
   13.0270    4.7290   13.9090 N   0  0  0  0  0  0
   14.3220    4.8860   13.5310 C   0  0  0  0  0  0
   14.8670    4.1550   12.4860 C   0  0  0  0  0  0
   15.8980    4.3050   12.1780 H   0  0  0  0  0  0
   14.0640    3.2240   11.8280 C   0  0  0  0  0  0
   14.4870    2.6450   11.0090 H   0  0  0  0  0  0
   15.1560    5.9300   14.2520 C   0  0  0  0  0  0
   15.4650    5.5300   15.2230 H   0  0  0  0  0  0
   14.5260    6.8060   14.4540 H   0  0  0  0  0  0
   16.2900    6.3300   13.4160 N   0  0  0  0  0  0
   16.9830    5.5870   13.3120 H   0  0  0  0  0  0
   16.0260    7.0760   12.2640 C   0  0  0  0  0  0
   14.7440    7.6310   12.1150 C   0  0  0  0  0  0
   13.9820    7.4370   12.8680 H   0  0  0  0  0  0
   14.4340    8.4430   11.0220 C   0  0  0  0  0  0
   15.3940    8.7240   10.0550 C   0  0  0  0  0  0
   15.1570    9.3550    9.2020 H   0  0  0  0  0  0
   16.6740    8.1840   10.1810 C   0  0  0  0  0  0
   17.4180    8.3960    9.4170 H   0  0  0  0  0  0
   16.9900    7.3700   11.2760 C   0  0  0  0  0  0
   18.5780    6.6780   11.3150 Cl  0  0  0  0  0  0
   12.8530    9.1090   10.8730 Cl  0  0  0  0  0  0
    9.9870    1.0370   11.2520 N   0  0  0  0  0  0
   10.3960    0.5040   10.4990 H   0  0  0  0  0  0
    9.0240    0.8910   11.5180 H   0  0  0  0  0  0
  1  2  1  0  0  0
  1  6  2  0  0  0
  2  3  2  0  0  0
  2 32  1  0  0  0
  3  4  1  0  0  0
  4  5  2  0  0  0
  4 14  1  0  0  0
  5  6  1  0  0  0
  5 10  1  0  0  0
  6  7  1  0  0  0
  7  8  1  0  0  0
  7  9  1  0  0  0
 10 11  2  0  0  0
 11 12  1  0  0  0
 11 16  1  0  0  0
 12 13  1  0  0  0
 12 14  2  0  0  0
 14 15  1  0  0  0
 16 17  1  0  0  0
 16 18  1  0  0  0
 16 19  1  0  0  0
 19 20  1  0  0  0
 19 21  1  0  0  0
 21 22  1  0  0  0
 21 29  2  0  0  0
 22 23  1  0  0  0
 22 24  2  0  0  0
 24 25  1  0  0  0
 24 31  1  0  0  0
 25 26  1  0  0  0
 25 27  2  0  0  0
 27 28  1  0  0  0
 27 29  1  0  0  0
 29 30  1  0  0  0
 32 33  1  0  0  0
 32 34  1  0  0  0
M  END
>  <ACTIVITY>
6.7

>  <SET>
1

>  <Min_dist>
999.9

>  <Avg_dist>
999.9

$$$$
21-24
  Cerius2 12110214133D 1   1.00000                          
Structure written by Cerius2 SD Exporter
 37 39  0  0  0  0  0  0  0  0999 V2000
   10.1570    2.6370   12.9090 N   0  0  0  0  0  0
   10.7270    1.9500   11.9210 C   0  0  0  0  0  0
   11.9910    2.1060   11.5310 N   0  0  0  0  0  0
   12.7340    3.0160   12.1850 C   0  0  0  0  0  0
   12.2600    3.8040   13.2360 C   0  0  0  0  0  0
   10.9190    3.5550   13.5390 C   0  0  0  0  0  0
   10.3000    4.2170   14.5940 N   0  0  0  0  0  0
   10.6340    5.1500   14.8180 H   0  0  0  0  0  0
    9.3150    4.0260   14.7410 H   0  0  0  0  0  0
   13.0300    4.7290   13.8890 N   0  0  0  0  0  0
   14.3230    4.8870   13.5030 C   0  0  0  0  0  0
   14.8630    4.1430   12.4650 C   0  0  0  0  0  0
   15.8950    4.2810   12.1550 H   0  0  0  0  0  0
   14.0560    3.2090   11.8160 C   0  0  0  0  0  0
   14.4750    2.6230   11.0000 H   0  0  0  0  0  0
   15.1610    5.9300   14.2260 C   0  0  0  0  0  0
   15.4490    5.5110   15.1990 H   0  0  0  0  0  0
   14.5340    6.8060   14.4380 H   0  0  0  0  0  0
   16.3460    6.3550   13.4470 N   0  0  0  0  0  0
   16.0300    7.1170   12.3060 C   0  0  0  0  0  0
   14.7420    7.6580   12.1340 C   0  0  0  0  0  0
   13.9740    7.4920   12.8850 H   0  0  0  0  0  0
   14.4290    8.4340   11.0140 C   0  0  0  0  0  0
   15.3880    8.6930   10.0400 C   0  0  0  0  0  0
   15.1470    9.2960    9.1680 H   0  0  0  0  0  0
   16.6710    8.1700   10.1850 C   0  0  0  0  0  0
   17.4180    8.3690    9.4200 H   0  0  0  0  0  0
   16.9910    7.3920   11.3050 C   0  0  0  0  0  0
   18.5950    6.7450   11.3890 Cl  0  0  0  0  0  0
   12.8430    9.0820   10.8410 Cl  0  0  0  0  0  0
   17.4390    5.3870   13.3160 C   0  0  0  0  0  0
   18.2730    5.8100   12.7430 H   0  0  0  0  0  0
   17.1010    4.4670   12.8260 H   0  0  0  0  0  0
   17.8390    5.1210   14.2990 H   0  0  0  0  0  0
    9.9720    1.0280   11.2670 N   0  0  0  0  0  0
   10.3760    0.4910   10.5150 H   0  0  0  0  0  0
    9.0100    0.8850   11.5390 H   0  0  0  0  0  0
  1  2  1  0  0  0
  1  6  2  0  0  0
  2  3  2  0  0  0
  2 35  1  0  0  0
  3  4  1  0  0  0
  4  5  2  0  0  0
  4 14  1  0  0  0
  5  6  1  0  0  0
  5 10  1  0  0  0
  6  7  1  0  0  0
  7  8  1  0  0  0
  7  9  1  0  0  0
 10 11  2  0  0  0
 11 12  1  0  0  0
 11 16  1  0  0  0
 12 13  1  0  0  0
 12 14  2  0  0  0
 14 15  1  0  0  0
 16 17  1  0  0  0
 16 18  1  0  0  0
 16 19  1  0  0  0
 19 20  1  0  0  0
 19 31  1  0  0  0
 20 21  1  0  0  0
 20 28  2  0  0  0
 21 22  1  0  0  0
 21 23  2  0  0  0
 23 24  1  0  0  0
 23 30  1  0  0  0
 24 25  1  0  0  0
 24 26  2  0  0  0
 26 27  1  0  0  0
 26 28  1  0  0  0
 28 29  1  0  0  0
 31 32  1  0  0  0
 31 33  1  0  0  0
 31 34  1  0  0  0
 35 36  1  0  0  0
 35 37  1  0  0  0
M  END
>  <ACTIVITY>
7.33

>  <SET>
2

>  <Min_dist>
0.06

>  <Avg_dist>
0.5

$$$$
21-27
  Cerius2 12110214133D 1   1.00000                          
Structure written by Cerius2 SD Exporter
 34 36  0  0  0  0  0  0  0  0999 V2000
   10.1570    2.6390   12.9090 N   0  0  0  0  0  0
   10.7220    1.9660   11.9090 C   0  0  0  0  0  0
   11.9890    2.1160   11.5240 N   0  0  0  0  0  0
   12.7370    3.0110   12.1940 C   0  0  0  0  0  0
   12.2700    3.7800   13.2620 C   0  0  0  0  0  0
   10.9330    3.5200   13.5730 C   0  0  0  0  0  0
   10.2910    4.2340   14.5790 N   0  0  0  0  0  0
   10.8630    4.5710   15.3490 H   0  0  0  0  0  0
    9.3340    3.9730   14.7890 H   0  0  0  0  0  0
   13.0490    4.6840   13.9350 N   0  0  0  0  0  0
   14.3410    4.8410   13.5490 C   0  0  0  0  0  0
   14.8730    4.1200   12.4900 C   0  0  0  0  0  0
   15.9040    4.2650   12.1780 H   0  0  0  0  0  0
   14.0590    3.2050   11.8230 C   0  0  0  0  0  0
   14.4720    2.6350   10.9930 H   0  0  0  0  0  0
   15.1920    5.8630   14.2830 C   0  0  0  0  0  0
   15.6240    5.3850   15.1700 H   0  0  0  0  0  0
   14.5460    6.6810   14.6230 H   0  0  0  0  0  0
   16.2400    6.3860   13.4130 N   0  0  0  0  0  0
   17.1810    6.0320   13.5790 H   0  0  0  0  0  0
   16.0140    7.1570   12.2920 C   0  0  0  0  0  0
   14.7360    7.6970   12.0910 C   0  0  0  0  0  0
   13.9480    7.5200   12.8220 H   0  0  0  0  0  0
   14.4360    8.4670   10.9620 C   0  0  0  0  0  0
   13.4330    8.8710   10.8450 H   0  0  0  0  0  0
   15.4160    8.7080   10.0020 C   0  0  0  0  0  0
   16.6940    8.1710   10.1770 C   0  0  0  0  0  0
   16.9830    7.4000   11.3120 C   0  0  0  0  0  0
   17.9860    6.9940   11.4180 H   0  0  0  0  0  0
   17.9630    8.4200    9.0260 Cl  0  0  0  0  0  0
   14.9900    9.6670    8.6290 Cl  0  0  0  0  0  0
    9.9590    1.0650   11.2340 N   0  0  0  0  0  0
   10.3600    0.5390   10.4720 H   0  0  0  0  0  0
    8.9950    0.9260   11.5010 H   0  0  0  0  0  0
  1  2  1  0  0  0
  1  6  2  0  0  0
  2  3  2  0  0  0
  2 32  1  0  0  0
  3  4  1  0  0  0
  4  5  2  0  0  0
  4 14  1  0  0  0
  5  6  1  0  0  0
  5 10  1  0  0  0
  6  7  1  0  0  0
  7  8  1  0  0  0
  7  9  1  0  0  0
 10 11  2  0  0  0
 11 12  1  0  0  0
 11 16  1  0  0  0
 12 13  1  0  0  0
 12 14  2  0  0  0
 14 15  1  0  0  0
 16 17  1  0  0  0
 16 18  1  0  0  0
 16 19  1  0  0  0
 19 20  1  0  0  0
 19 21  1  0  0  0
 21 22  1  0  0  0
 21 28  2  0  0  0
 22 23  1  0  0  0
 22 24  2  0  0  0
 24 25  1  0  0  0
 24 26  1  0  0  0
 26 27  2  0  0  0
 26 31  1  0  0  0
 27 28  1  0  0  0
 27 30  1  0  0  0
 28 29  1  0  0  0
 32 33  1  0  0  0
 32 34  1  0  0  0
M  END
>  <ACTIVITY>
7.27

>  <SET>
1

>  <Min_dist>
999.9

>  <Avg_dist>
999.9

$$$$
21-3
  Cerius2 12110214133D 1   1.00000                          
Structure written by Cerius2 SD Exporter
 33 35  0  0  0  0  0  0  0  0999 V2000
   10.1290    2.6040   12.8770 N   0  0  0  0  0  0
   10.7230    1.9490   11.8810 C   0  0  0  0  0  0
   11.9950    2.1230   11.5220 N   0  0  0  0  0  0
   12.7170    3.0210   12.2150 C   0  0  0  0  0  0
   12.2180    3.7720   13.2820 C   0  0  0  0  0  0
   10.8800    3.4880   13.5660 C   0  0  0  0  0  0
   10.2090    4.1810   14.5680 N   0  0  0  0  0  0
   10.7610    4.5160   15.3520 H   0  0  0  0  0  0
    9.2520    3.9030   14.7570 H   0  0  0  0  0  0
   12.9700    4.6820   13.9770 N   0  0  0  0  0  0
   14.2630    4.8690   13.6130 C   0  0  0  0  0  0
   14.8290    4.1610   12.5630 C   0  0  0  0  0  0
   15.8650    4.3180   12.2740 H   0  0  0  0  0  0
   14.0420    3.2380   11.8730 C   0  0  0  0  0  0
   14.4810    2.6810   11.0480 H   0  0  0  0  0  0
   15.0730    5.8930   14.3760 C   0  0  0  0  0  0
   15.2380    5.5430   15.4010 H   0  0  0  0  0  0
   14.5050    6.8270   14.4300 H   0  0  0  0  0  0
   16.6840    6.2100   13.5600 S   0  0  0  0  0  0
   16.1370    7.2040   12.1840 C   0  0  0  0  0  0
   14.8220    7.6740   12.0940 C   0  0  0  0  0  0
   14.0920    7.4450   12.8680 H   0  0  0  0  0  0
   14.4190    8.4380   10.9960 C   0  0  0  0  0  0
   13.3950    8.8020   10.9340 H   0  0  0  0  0  0
   15.3250    8.7300    9.9780 C   0  0  0  0  0  0
   15.0100    9.3250    9.1220 H   0  0  0  0  0  0
   16.6320    8.2550   10.0540 C   0  0  0  0  0  0
   17.3400    8.4770    9.2570 H   0  0  0  0  0  0
   17.0360    7.4900   11.1510 C   0  0  0  0  0  0
   18.0610    7.1260   11.1910 H   0  0  0  0  0  0
    9.9860    1.0460   11.1810 N   0  0  0  0  0  0
   10.4100    0.5350   10.4210 H   0  0  0  0  0  0
    9.0200    0.8910   11.4270 H   0  0  0  0  0  0
  1  2  1  0  0  0
  1  6  2  0  0  0
  2  3  2  0  0  0
  2 31  1  0  0  0
  3  4  1  0  0  0
  4  5  2  0  0  0
  4 14  1  0  0  0
  5  6  1  0  0  0
  5 10  1  0  0  0
  6  7  1  0  0  0
  7  8  1  0  0  0
  7  9  1  0  0  0
 10 11  2  0  0  0
 11 12  1  0  0  0
 11 16  1  0  0  0
 12 13  1  0  0  0
 12 14  2  0  0  0
 14 15  1  0  0  0
 16 17  1  0  0  0
 16 18  1  0  0  0
 16 19  1  0  0  0
 19 20  1  0  0  0
 20 21  1  0  0  0
 20 29  2  0  0  0
 21 22  1  0  0  0
 21 23  2  0  0  0
 23 24  1  0  0  0
 23 25  1  0  0  0
 25 26  1  0  0  0
 25 27  2  0  0  0
 27 28  1  0  0  0
 27 29  1  0  0  0
 29 30  1  0  0  0
 31 32  1  0  0  0
 31 33  1  0  0  0
M  END
>  <ACTIVITY>
6.28

>  <SET>
2

>  <Min_dist>
0.03

>  <Avg_dist>
0.56

$$$$
21-34
  Cerius2 12110214133D 1   1.00000                          
Structure written by Cerius2 SD Exporter
 39 42  0  0  0  0  0  0  0  0999 V2000
   10.1290    2.5940   12.8780 N   0  0  0  0  0  0
   10.7330    1.9250   11.8980 C   0  0  0  0  0  0
   12.0000    2.1110   11.5310 N   0  0  0  0  0  0
   12.7100    3.0340   12.2040 C   0  0  0  0  0  0
   12.2000    3.8040   13.2510 C   0  0  0  0  0  0
   10.8590    3.5240   13.5270 C   0  0  0  0  0  0
   10.2060    4.1670   14.5730 N   0  0  0  0  0  0
   10.5140    5.1070   14.8060 H   0  0  0  0  0  0
    9.2220    3.9560   14.6980 H   0  0  0  0  0  0
   12.9400    4.7380   13.9260 N   0  0  0  0  0  0
   14.2340    4.9270   13.5650 C   0  0  0  0  0  0
   14.8110    4.2010   12.5330 C   0  0  0  0  0  0
   15.8490    4.3550   12.2500 H   0  0  0  0  0  0
   14.0350    3.2560   11.8610 C   0  0  0  0  0  0
   14.4830    2.6810   11.0530 H   0  0  0  0  0  0
   15.0440    5.9420   14.3380 C   0  0  0  0  0  0
   15.1640    5.5950   15.3710 H   0  0  0  0  0  0
   14.5040    6.8950   14.3720 H   0  0  0  0  0  0
   16.7000    6.1820   13.5960 S   0  0  0  0  0  0
   16.2130    7.1650   12.1710 C   0  0  0  0  0  0
   14.8870    7.6210   12.1570 C   0  0  0  0  0  0
   14.2060    7.3820   12.9730 H   0  0  0  0  0  0
   14.4140    8.3850   11.0950 C   0  0  0  0  0  0
   13.3830    8.7320   11.0890 H   0  0  0  0  0  0
   15.2640    8.7040   10.0400 C   0  0  0  0  0  0
   14.8720    9.3020    9.2170 H   0  0  0  0  0  0
   16.5990    8.2710   10.0310 C   0  0  0  0  0  0
   17.1000    7.4930   11.1070 C   0  0  0  0  0  0
   18.4600    7.0960   11.0460 C   0  0  0  0  0  0
   18.9050    6.5070   11.8460 H   0  0  0  0  0  0
   19.2800    7.4430    9.9700 C   0  0  0  0  0  0
   20.3200    7.1210    9.9530 H   0  0  0  0  0  0
   18.7680    8.1990    8.9250 C   0  0  0  0  0  0
   19.4040    8.4720    8.0840 H   0  0  0  0  0  0
   17.4370    8.6110    8.9570 C   0  0  0  0  0  0
   17.0570    9.2070    8.1270 H   0  0  0  0  0  0
   10.0110    0.9880   11.2270 N   0  0  0  0  0  0
   10.4430    0.4620   10.4820 H   0  0  0  0  0  0
    9.0490    0.8190   11.4830 H   0  0  0  0  0  0
  1  2  1  0  0  0
  1  6  2  0  0  0
  2  3  2  0  0  0
  2 37  1  0  0  0
  3  4  1  0  0  0
  4  5  2  0  0  0
  4 14  1  0  0  0
  5  6  1  0  0  0
  5 10  1  0  0  0
  6  7  1  0  0  0
  7  8  1  0  0  0
  7  9  1  0  0  0
 10 11  2  0  0  0
 11 12  1  0  0  0
 11 16  1  0  0  0
 12 13  1  0  0  0
 12 14  2  0  0  0
 14 15  1  0  0  0
 16 17  1  0  0  0
 16 18  1  0  0  0
 16 19  1  0  0  0
 19 20  1  0  0  0
 20 21  2  0  0  0
 20 28  1  0  0  0
 21 22  1  0  0  0
 21 23  1  0  0  0
 23 24  1  0  0  0
 23 25  2  0  0  0
 25 26  1  0  0  0
 25 27  1  0  0  0
 27 28  2  0  0  0
 27 35  1  0  0  0
 28 29  1  0  0  0
 29 30  1  0  0  0
 29 31  2  0  0  0
 31 32  1  0  0  0
 31 33  1  0  0  0
 33 34  1  0  0  0
 33 35  2  0  0  0
 35 36  1  0  0  0
 37 38  1  0  0  0
 37 39  1  0  0  0
M  END
>  <ACTIVITY>
6.8

>  <SET>
1

>  <Min_dist>
999.9

>  <Avg_dist>
999.9

$$$$
21-36
  Cerius2 12110214133D 1   1.00000                          
Structure written by Cerius2 SD Exporter
 40 43  0  0  0  0  0  0  0  0999 V2000
   10.1560    2.6440   12.9060 N   0  0  0  0  0  0
   10.7210    1.9740   11.9030 C   0  0  0  0  0  0
   11.9890    2.1210   11.5220 N   0  0  0  0  0  0
   12.7400    3.0080   12.1990 C   0  0  0  0  0  0
   12.2740    3.7730   13.2700 C   0  0  0  0  0  0
   10.9350    3.5170   13.5780 C   0  0  0  0  0  0
   10.2950    4.2270   14.5880 N   0  0  0  0  0  0
   10.8670    4.5550   15.3600 H   0  0  0  0  0  0
    9.3370    3.9680   14.7950 H   0  0  0  0  0  0
   13.0550    4.6710   13.9490 N   0  0  0  0  0  0
   14.3480    4.8250   13.5660 C   0  0  0  0  0  0
   14.8800    4.1070   12.5050 C   0  0  0  0  0  0
   15.9120    4.2490   12.1960 H   0  0  0  0  0  0
   14.0630    3.1970   11.8320 C   0  0  0  0  0  0
   14.4760    2.6300   11.0010 H   0  0  0  0  0  0
   15.2020    5.8450   14.3020 C   0  0  0  0  0  0
   15.6550    5.3530   15.1710 H   0  0  0  0  0  0
   14.5540    6.6500   14.6680 H   0  0  0  0  0  0
   16.2270    6.3920   13.4190 N   0  0  0  0  0  0
   17.1560    5.9980   13.5420 H   0  0  0  0  0  0
   15.9680    7.1390   12.2750 C   0  0  0  0  0  0
   14.7060    7.7200   12.0640 C   0  0  0  0  0  0
   13.8930    7.5720   12.7730 H   0  0  0  0  0  0
   14.4340    8.4920   10.9360 C   0  0  0  0  0  0
   13.4420    8.9190   10.7950 H   0  0  0  0  0  0
   15.4280    8.7170    9.9930 C   0  0  0  0  0  0
   15.1940    9.3230    9.1190 H   0  0  0  0  0  0
   16.7100    8.1830   10.1690 C   0  0  0  0  0  0
   17.0020    7.3940   11.3160 C   0  0  0  0  0  0
   18.3280    6.9080   11.4350 C   0  0  0  0  0  0
   18.6290    6.3120   12.2940 H   0  0  0  0  0  0
   19.3070    7.1730   10.4710 C   0  0  0  0  0  0
   20.3140    6.7800   10.5990 H   0  0  0  0  0  0
   18.9930    7.9360    9.3570 C   0  0  0  0  0  0
   19.7510    8.1440    8.6040 H   0  0  0  0  0  0
   17.7030    8.4390    9.2080 C   0  0  0  0  0  0
   17.4770    9.0410    8.3280 H   0  0  0  0  0  0
    9.9540    1.0830   11.2200 N   0  0  0  0  0  0
   10.3540    0.5610   10.4540 H   0  0  0  0  0  0
    8.9890    0.9480   11.4820 H   0  0  0  0  0  0
  1  2  1  0  0  0
  1  6  2  0  0  0
  2  3  2  0  0  0
  2 38  1  0  0  0
  3  4  1  0  0  0
  4  5  2  0  0  0
  4 14  1  0  0  0
  5  6  1  0  0  0
  5 10  1  0  0  0
  6  7  1  0  0  0
  7  8  1  0  0  0
  7  9  1  0  0  0
 10 11  2  0  0  0
 11 12  1  0  0  0
 11 16  1  0  0  0
 12 13  1  0  0  0
 12 14  2  0  0  0
 14 15  1  0  0  0
 16 17  1  0  0  0
 16 18  1  0  0  0
 16 19  1  0  0  0
 19 20  1  0  0  0
 19 21  1  0  0  0
 21 22  2  0  0  0
 21 29  1  0  0  0
 22 23  1  0  0  0
 22 24  1  0  0  0
 24 25  1  0  0  0
 24 26  2  0  0  0
 26 27  1  0  0  0
 26 28  1  0  0  0
 28 29  2  0  0  0
 28 36  1  0  0  0
 29 30  1  0  0  0
 30 31  1  0  0  0
 30 32  2  0  0  0
 32 33  1  0  0  0
 32 34  1  0  0  0
 34 35  1  0  0  0
 34 36  2  0  0  0
 36 37  1  0  0  0
 38 39  1  0  0  0
 38 40  1  0  0  0
M  END
>  <ACTIVITY>
7.4

>  <SET>
2

>  <Min_dist>
0.03

>  <Avg_dist>
0.47

$$$$
21-38
  Cerius2 12110214133D 1   1.00000                          
Structure written by Cerius2 SD Exporter
 43 46  0  0  0  0  0  0  0  0999 V2000
   10.1620    2.6320   12.9170 N   0  0  0  0  0  0
   10.7280    1.9500   11.9230 C   0  0  0  0  0  0
   11.9920    2.1060   11.5310 N   0  0  0  0  0  0
   12.7360    3.0170   12.1840 C   0  0  0  0  0  0
   12.2660    3.7970   13.2420 C   0  0  0  0  0  0
   10.9330    3.5300   13.5650 C   0  0  0  0  0  0
   10.2900    4.2510   14.5650 N   0  0  0  0  0  0
   10.8640    4.6090   15.3220 H   0  0  0  0  0  0
    9.3380    3.9850   14.7850 H   0  0  0  0  0  0
   13.0390    4.7170   13.8980 N   0  0  0  0  0  0
   14.3260    4.8900   13.4990 C   0  0  0  0  0  0
   14.8630    4.1510   12.4550 C   0  0  0  0  0  0
   15.8930    4.2920   12.1370 H   0  0  0  0  0  0
   14.0540    3.2160   11.8070 C   0  0  0  0  0  0
   14.4710    2.6350   10.9870 H   0  0  0  0  0  0
   15.1720    5.9260   14.2260 C   0  0  0  0  0  0
   15.4990    5.5360   15.1990 H   0  0  0  0  0  0
   14.5110    6.7760   14.4410 H   0  0  0  0  0  0
   16.3480    6.3570   13.4370 N   0  0  0  0  0  0
   16.0170    7.1160   12.2980 C   0  0  0  0  0  0
   14.7390    7.6890   12.1740 C   0  0  0  0  0  0
   13.9950    7.5610   12.9580 H   0  0  0  0  0  0
   14.3810    8.4130   11.0380 C   0  0  0  0  0  0
   13.3850    8.8450   10.9600 H   0  0  0  0  0  0
   15.2950    8.5760   10.0010 C   0  0  0  0  0  0
   14.9930    9.1440    9.1210 H   0  0  0  0  0  0
   16.5800    8.0230   10.0850 C   0  0  0  0  0  0
   16.9570    7.2860   11.2380 C   0  0  0  0  0  0
   18.2710    6.7650   11.2800 C   0  0  0  0  0  0
   18.6090    6.2070   12.1530 H   0  0  0  0  0  0
   19.1700    6.9490   10.2260 C   0  0  0  0  0  0
   20.1740    6.5330   10.2900 H   0  0  0  0  0  0
   18.7800    7.6640    9.1020 C   0  0  0  0  0  0
   19.4770    7.8110    8.2790 H   0  0  0  0  0  0
   17.4950    8.1990    9.0330 C   0  0  0  0  0  0
   17.2110    8.7610    8.1430 H   0  0  0  0  0  0
   17.5910    6.0150   13.8370 C   0  0  0  0  0  0
   17.5300    5.4260   14.7520 H   0  0  0  0  0  0
   18.0750    5.4260   13.0570 H   0  0  0  0  0  0
   18.1740    6.9170   14.0240 H   0  0  0  0  0  0
    9.9690    1.0350   11.2640 N   0  0  0  0  0  0
   10.3700    0.5030   10.5070 H   0  0  0  0  0  0
    9.0070    0.8930   11.5360 H   0  0  0  0  0  0
  1  2  1  0  0  0
  1  6  2  0  0  0
  2  3  2  0  0  0
  2 41  1  0  0  0
  3  4  1  0  0  0
  4  5  2  0  0  0
  4 14  1  0  0  0
  5  6  1  0  0  0
  5 10  1  0  0  0
  6  7  1  0  0  0
  7  8  1  0  0  0
  7  9  1  0  0  0
 10 11  2  0  0  0
 11 12  1  0  0  0
 11 16  1  0  0  0
 12 13  1  0  0  0
 12 14  2  0  0  0
 14 15  1  0  0  0
 16 17  1  0  0  0
 16 18  1  0  0  0
 16 19  1  0  0  0
 19 20  1  0  0  0
 19 37  1  0  0  0
 20 21  2  0  0  0
 20 28  1  0  0  0
 21 22  1  0  0  0
 21 23  1  0  0  0
 23 24  1  0  0  0
 23 25  2  0  0  0
 25 26  1  0  0  0
 25 27  1  0  0  0
 27 28  2  0  0  0
 27 35  1  0  0  0
 28 29  1  0  0  0
 29 30  1  0  0  0
 29 31  2  0  0  0
 31 32  1  0  0  0
 31 33  1  0  0  0
 33 34  1  0  0  0
 33 35  2  0  0  0
 35 36  1  0  0  0
 37 38  1  0  0  0
 37 39  1  0  0  0
 37 40  1  0  0  0
 41 42  1  0  0  0
 41 43  1  0  0  0
M  END
>  <ACTIVITY>
8.14

>  <SET>
1

>  <Min_dist>
999.9

>  <Avg_dist>
999.9

$$$$
21-4
  Cerius2 12110214133D 1   1.00000                          
Structure written by Cerius2 SD Exporter
 34 36  0  0  0  0  0  0  0  0999 V2000
   10.1540    2.6370   12.9070 N   0  0  0  0  0  0
   10.7210    1.9660   11.9060 C   0  0  0  0  0  0
   11.9890    2.1170   11.5240 N   0  0  0  0  0  0
   12.7360    3.0110   12.1970 C   0  0  0  0  0  0
   12.2670    3.7780   13.2650 C   0  0  0  0  0  0
   10.9290    3.5160   13.5750 C   0  0  0  0  0  0
   10.2850    4.2260   14.5820 N   0  0  0  0  0  0
   10.8560    4.5560   15.3560 H   0  0  0  0  0  0
    9.3290    3.9630   14.7890 H   0  0  0  0  0  0
   13.0440    4.6830   13.9390 N   0  0  0  0  0  0
   14.3370    4.8470   13.5480 C   0  0  0  0  0  0
   14.8730    4.1190   12.4960 C   0  0  0  0  0  0
   15.9080    4.2540   12.1910 H   0  0  0  0  0  0
   14.0590    3.2040   11.8290 C   0  0  0  0  0  0
   14.4740    2.6300   11.0030 H   0  0  0  0  0  0
   15.2140    5.8510   14.2890 C   0  0  0  0  0  0
   15.6830    5.3390   15.1370 H   0  0  0  0  0  0
   14.5730    6.6580   14.6620 H   0  0  0  0  0  0
   16.2420    6.3980   13.4120 N   0  0  0  0  0  0
   17.1980    6.1790   13.6940 H   0  0  0  0  0  0
   16.0080    7.1510   12.2840 C   0  0  0  0  0  0
   14.7340    7.7000   12.0840 C   0  0  0  0  0  0
   13.9470    7.5290   12.8170 H   0  0  0  0  0  0
   14.4400    8.4730   10.9560 C   0  0  0  0  0  0
   13.4410    8.8860   10.8270 H   0  0  0  0  0  0
   15.4230    8.7100   10.0010 C   0  0  0  0  0  0
   15.1980    9.3100    9.1210 H   0  0  0  0  0  0
   16.6940    8.1740   10.1780 C   0  0  0  0  0  0
   17.4700    8.3550    9.4350 H   0  0  0  0  0  0
   16.9810    7.4020   11.3100 C   0  0  0  0  0  0
   17.9880    7.0030   11.4100 H   0  0  0  0  0  0
    9.9590    1.0680   11.2280 N   0  0  0  0  0  0
   10.3600    0.5450   10.4640 H   0  0  0  0  0  0
    8.9940    0.9300   11.4910 H   0  0  0  0  0  0
  1  2  1  0  0  0
  1  6  2  0  0  0
  2  3  2  0  0  0
  2 32  1  0  0  0
  3  4  1  0  0  0
  4  5  2  0  0  0
  4 14  1  0  0  0
  5  6  1  0  0  0
  5 10  1  0  0  0
  6  7  1  0  0  0
  7  8  1  0  0  0
  7  9  1  0  0  0
 10 11  2  0  0  0
 11 12  1  0  0  0
 11 16  1  0  0  0
 12 13  1  0  0  0
 12 14  2  0  0  0
 14 15  1  0  0  0
 16 17  1  0  0  0
 16 18  1  0  0  0
 16 19  1  0  0  0
 19 20  1  0  0  0
 19 21  1  0  0  0
 21 22  1  0  0  0
 21 30  2  0  0  0
 22 23  1  0  0  0
 22 24  2  0  0  0
 24 25  1  0  0  0
 24 26  1  0  0  0
 26 27  1  0  0  0
 26 28  2  0  0  0
 28 29  1  0  0  0
 28 30  1  0  0  0
 30 31  1  0  0  0
 32 33  1  0  0  0
 32 34  1  0  0  0
M  END
>  <ACTIVITY>
6.59

>  <SET>
1

>  <Min_dist>
999.9

>  <Avg_dist>
999.9

$$$$
21-40
  Cerius2 12110214133D 1   1.00000                          
Structure written by Cerius2 SD Exporter
 39 41  0  0  0  0  0  0  0  0999 V2000
   10.1540    2.6370   12.9070 N   0  0  0  0  0  0
   10.7210    1.9660   11.9060 C   0  0  0  0  0  0
   11.9890    2.1180   11.5240 N   0  0  0  0  0  0
   12.7360    3.0110   12.1970 C   0  0  0  0  0  0
   12.2670    3.7780   13.2660 C   0  0  0  0  0  0
   10.9290    3.5160   13.5750 C   0  0  0  0  0  0
   10.2850    4.2260   14.5830 N   0  0  0  0  0  0
   10.8550    4.5550   15.3560 H   0  0  0  0  0  0
    9.3290    3.9620   14.7890 H   0  0  0  0  0  0
   13.0440    4.6820   13.9400 N   0  0  0  0  0  0
   14.3370    4.8460   13.5490 C   0  0  0  0  0  0
   14.8730    4.1190   12.4970 C   0  0  0  0  0  0
   15.9080    4.2530   12.1910 H   0  0  0  0  0  0
   14.0590    3.2030   11.8300 C   0  0  0  0  0  0
   14.4740    2.6300   11.0030 H   0  0  0  0  0  0
   15.2140    5.8500   14.2900 C   0  0  0  0  0  0
   15.6830    5.3380   15.1380 H   0  0  0  0  0  0
   14.5730    6.6580   14.6620 H   0  0  0  0  0  0
   16.2420    6.3970   13.4120 N   0  0  0  0  0  0
   17.1980    6.1780   13.6960 H   0  0  0  0  0  0
   16.0090    7.1490   12.2860 C   0  0  0  0  0  0
   14.7370    7.6990   12.0850 C   0  0  0  0  0  0
   13.9500    7.5270   12.8180 H   0  0  0  0  0  0
   14.4380    8.4740   10.9550 C   0  0  0  0  0  0
   13.4310    8.8710   10.8590 H   0  0  0  0  0  0
   15.4190    8.7160    9.9920 C   0  0  0  0  0  0
   16.6950    8.1740   10.1790 C   0  0  0  0  0  0
   17.4830    8.3440    9.4480 H   0  0  0  0  0  0
   16.9820    7.4000   11.3130 C   0  0  0  0  0  0
   17.9890    7.0010   11.4130 H   0  0  0  0  0  0
   15.1530    9.5350    8.7690 C   0  0  0  0  0  0
   16.0490    9.7250    7.9430 O   0  0  0  0  0  0
   13.7780   10.1180    8.5690 C   0  0  0  0  0  0
   13.7600   10.6840    7.6330 H   0  0  0  0  0  0
   13.5350   10.8060    9.3840 H   0  0  0  0  0  0
   13.0340    9.3200    8.4960 H   0  0  0  0  0  0
    9.9590    1.0690   11.2270 N   0  0  0  0  0  0
   10.3600    0.5460   10.4620 H   0  0  0  0  0  0
    8.9940    0.9310   11.4890 H   0  0  0  0  0  0
  1  2  1  0  0  0
  1  6  2  0  0  0
  2  3  2  0  0  0
  2 37  1  0  0  0
  3  4  1  0  0  0
  4  5  2  0  0  0
  4 14  1  0  0  0
  5  6  1  0  0  0
  5 10  1  0  0  0
  6  7  1  0  0  0
  7  8  1  0  0  0
  7  9  1  0  0  0
 10 11  2  0  0  0
 11 12  1  0  0  0
 11 16  1  0  0  0
 12 13  1  0  0  0
 12 14  2  0  0  0
 14 15  1  0  0  0
 16 17  1  0  0  0
 16 18  1  0  0  0
 16 19  1  0  0  0
 19 20  1  0  0  0
 19 21  1  0  0  0
 21 22  1  0  0  0
 21 29  2  0  0  0
 22 23  1  0  0  0
 22 24  2  0  0  0
 24 25  1  0  0  0
 24 26  1  0  0  0
 26 27  2  0  0  0
 26 31  1  0  0  0
 27 28  1  0  0  0
 27 29  1  0  0  0
 29 30  1  0  0  0
 31 32  2  0  0  0
 31 33  1  0  0  0
 33 34  1  0  0  0
 33 35  1  0  0  0
 33 36  1  0  0  0
 37 38  1  0  0  0
 37 39  1  0  0  0
M  END
>  <ACTIVITY>
8.6

>  <SET>
1

>  <Min_dist>
999.9

>  <Avg_dist>
999.9

$$$$
21-41
  Cerius2 12110214133D 1   1.00000                          
Structure written by Cerius2 SD Exporter
 42 44  0  0  0  0  0  0  0  0999 V2000
   10.1490    2.6430   12.9070 N   0  0  0  0  0  0
   10.7090    1.9750   11.9000 C   0  0  0  0  0  0
   11.9800    2.1120   11.5230 N   0  0  0  0  0  0
   12.7350    2.9940   12.2010 C   0  0  0  0  0  0
   12.2720    3.7660   13.2680 C   0  0  0  0  0  0
   10.9320    3.5110   13.5810 C   0  0  0  0  0  0
   10.3000    4.2150   14.5990 N   0  0  0  0  0  0
   10.8800    4.5410   15.3690 H   0  0  0  0  0  0
    9.3430    3.9590   14.8160 H   0  0  0  0  0  0
   13.0570    4.6660   13.9390 N   0  0  0  0  0  0
   14.3510    4.8220   13.5500 C   0  0  0  0  0  0
   14.8820    4.0820   12.5050 C   0  0  0  0  0  0
   15.9160    4.2080   12.1960 H   0  0  0  0  0  0
   14.0600    3.1710   11.8390 C   0  0  0  0  0  0
   14.4710    2.5920   11.0150 H   0  0  0  0  0  0
   15.2020    5.8370   14.3030 C   0  0  0  0  0  0
   15.5830    5.3720   15.2160 H   0  0  0  0  0  0
   14.5500    6.6470   14.6570 H   0  0  0  0  0  0
   16.2580    6.4300   13.4530 N   0  0  0  0  0  0
   15.9980    7.1700   12.3080 C   0  0  0  0  0  0
   14.7290    7.7290   12.0570 C   0  0  0  0  0  0
   13.9110    7.5990   12.7650 H   0  0  0  0  0  0
   14.4430    8.4920   10.9110 C   0  0  0  0  0  0
   13.4380    8.8930   10.8000 H   0  0  0  0  0  0
   15.4330    8.7280    9.9610 C   0  0  0  0  0  0
   16.6970    8.1790   10.1740 C   0  0  0  0  0  0
   17.5000    8.3390    9.4540 H   0  0  0  0  0  0
   16.9660    7.4120   11.3220 C   0  0  0  0  0  0
   17.9720    7.0060   11.3970 H   0  0  0  0  0  0
   15.1940    9.5510    8.7350 C   0  0  0  0  0  0
   16.1060    9.7310    7.9240 O   0  0  0  0  0  0
   13.8280   10.1510    8.5110 C   0  0  0  0  0  0
   13.8520   10.7810    7.6160 H   0  0  0  0  0  0
   13.5430   10.7860    9.3540 H   0  0  0  0  0  0
   13.0900    9.3600    8.3500 H   0  0  0  0  0  0
   17.6340    6.0660   13.8120 C   0  0  0  0  0  0
   18.2730    6.9550   13.8760 H   0  0  0  0  0  0
   18.0510    5.3670   13.0790 H   0  0  0  0  0  0
   17.6820    5.5730   14.7890 H   0  0  0  0  0  0
    9.9370    1.0940   11.2100 N   0  0  0  0  0  0
   10.3340    0.5680   10.4460 H   0  0  0  0  0  0
    8.9730    0.9580   11.4750 H   0  0  0  0  0  0
  1  2  1  0  0  0
  1  6  2  0  0  0
  2  3  2  0  0  0
  2 40  1  0  0  0
  3  4  1  0  0  0
  4  5  2  0  0  0
  4 14  1  0  0  0
  5  6  1  0  0  0
  5 10  1  0  0  0
  6  7  1  0  0  0
  7  8  1  0  0  0
  7  9  1  0  0  0
 10 11  2  0  0  0
 11 12  1  0  0  0
 11 16  1  0  0  0
 12 13  1  0  0  0
 12 14  2  0  0  0
 14 15  1  0  0  0
 16 17  1  0  0  0
 16 18  1  0  0  0
 16 19  1  0  0  0
 19 20  1  0  0  0
 19 36  1  0  0  0
 20 21  1  0  0  0
 20 28  2  0  0  0
 21 22  1  0  0  0
 21 23  2  0  0  0
 23 24  1  0  0  0
 23 25  1  0  0  0
 25 26  2  0  0  0
 25 30  1  0  0  0
 26 27  1  0  0  0
 26 28  1  0  0  0
 28 29  1  0  0  0
 30 31  2  0  0  0
 30 32  1  0  0  0
 32 33  1  0  0  0
 32 34  1  0  0  0
 32 35  1  0  0  0
 36 37  1  0  0  0
 36 38  1  0  0  0
 36 39  1  0  0  0
 40 41  1  0  0  0
 40 42  1  0  0  0
M  END
>  <ACTIVITY>
8.29

>  <SET>
2

>  <Min_dist>
0.07

>  <Avg_dist>
0.5

$$$$
21-42
  Cerius2 12110214133D 1   1.00000                          
Structure written by Cerius2 SD Exporter
 41 43  0  0  0  0  0  0  0  0999 V2000
   10.1460    2.6410   12.8970 N   0  0  0  0  0  0
   10.7140    1.9800   11.8900 C   0  0  0  0  0  0
   11.9880    2.1170   11.5260 N   0  0  0  0  0  0
   12.7360    2.9950   12.2150 C   0  0  0  0  0  0
   12.2660    3.7600   13.2860 C   0  0  0  0  0  0
   10.9250    3.5030   13.5850 C   0  0  0  0  0  0
   10.2790    4.2020   14.5990 N   0  0  0  0  0  0
   10.8450    4.5220   15.3800 H   0  0  0  0  0  0
    9.3220    3.9330   14.7960 H   0  0  0  0  0  0
   13.0460    4.6590   13.9650 N   0  0  0  0  0  0
   14.3360    4.8220   13.5700 C   0  0  0  0  0  0
   14.8760    4.0840   12.5260 C   0  0  0  0  0  0
   15.9110    4.2200   12.2220 H   0  0  0  0  0  0
   14.0610    3.1730   11.8580 C   0  0  0  0  0  0
   14.4760    2.5970   11.0340 H   0  0  0  0  0  0
   15.1960    5.8590   14.2880 C   0  0  0  0  0  0
   15.5750    5.3460   15.1780 H   0  0  0  0  0  0
   14.5650    6.6870   14.6320 H   0  0  0  0  0  0
   16.2810    6.3970   13.4370 N   0  0  0  0  0  0
   16.0190    7.1710   12.2910 C   0  0  0  0  0  0
   14.7430    7.7280   12.0640 C   0  0  0  0  0  0
   13.9320    7.5730   12.7750 H   0  0  0  0  0  0
   14.4410    8.4920   10.9250 C   0  0  0  0  0  0
   13.4340    8.8900   10.8300 H   0  0  0  0  0  0
   15.4150    8.7190    9.9550 C   0  0  0  0  0  0
   16.6910    8.1870   10.1530 C   0  0  0  0  0  0
   17.4780    8.3500    9.4180 H   0  0  0  0  0  0
   16.9830    7.4300   11.3020 C   0  0  0  0  0  0
   18.0020    7.0640   11.3850 H   0  0  0  0  0  0
   15.1410    9.5120    8.7180 C   0  0  0  0  0  0
   16.0500    9.7550    7.9210 O   0  0  0  0  0  0
   13.7400   10.0080    8.4700 C   0  0  0  0  0  0
   13.6980   10.4720    7.4810 H   0  0  0  0  0  0
   13.4700   10.7610    9.2150 H   0  0  0  0  0  0
   13.0310    9.1750    8.4810 H   0  0  0  0  0  0
   17.5560    5.9150   13.6760 C   0  0  0  0  0  0
   18.6630    5.5050   13.8980 C   0  0  0  0  0  0
   19.6480    5.1500   14.0950 H   0  0  0  0  0  0
    9.9460    1.1110   11.1790 N   0  0  0  0  0  0
   10.3500    0.6070   10.4030 H   0  0  0  0  0  0
    8.9700    1.0010   11.4080 H   0  0  0  0  0  0
  1  2  1  0  0  0
  1  6  2  0  0  0
  2  3  2  0  0  0
  2 39  1  0  0  0
  3  4  1  0  0  0
  4  5  2  0  0  0
  4 14  1  0  0  0
  5  6  1  0  0  0
  5 10  1  0  0  0
  6  7  1  0  0  0
  7  8  1  0  0  0
  7  9  1  0  0  0
 10 11  2  0  0  0
 11 12  1  0  0  0
 11 16  1  0  0  0
 12 13  1  0  0  0
 12 14  2  0  0  0
 14 15  1  0  0  0
 16 17  1  0  0  0
 16 18  1  0  0  0
 16 19  1  0  0  0
 19 20  1  0  0  0
 19 36  1  0  0  0
 20 21  1  0  0  0
 20 28  2  0  0  0
 21 22  1  0  0  0
 21 23  2  0  0  0
 23 24  1  0  0  0
 23 25  1  0  0  0
 25 26  2  0  0  0
 25 30  1  0  0  0
 26 27  1  0  0  0
 26 28  1  0  0  0
 28 29  1  0  0  0
 30 31  2  0  0  0
 30 32  1  0  0  0
 32 33  1  0  0  0
 32 34  1  0  0  0
 32 35  1  0  0  0
 36 37  3  0  0  0
 37 38  1  0  0  0
 39 40  1  0  0  0
 39 41  1  0  0  0
M  END
>  <ACTIVITY>
7.82

>  <SET>
1

>  <Min_dist>
999.9

>  <Avg_dist>
999.9

$$$$
21-43
  Cerius2 12110214133D 1   1.00000                          
Structure written by Cerius2 SD Exporter
 42 44  0  0  0  0  0  0  0  0999 V2000
   10.1500    2.6370   12.9120 N   0  0  0  0  0  0
   10.7110    1.9610   11.9110 C   0  0  0  0  0  0
   11.9770    2.1080   11.5230 N   0  0  0  0  0  0
   12.7300    3.0000   12.1910 C   0  0  0  0  0  0
   12.2680    3.7720   13.2590 C   0  0  0  0  0  0
   10.9310    3.5160   13.5740 C   0  0  0  0  0  0
   10.2940    4.2350   14.5800 N   0  0  0  0  0  0
   10.8700    4.5740   15.3450 H   0  0  0  0  0  0
    9.3370    3.9780   14.7930 H   0  0  0  0  0  0
   13.0510    4.6740   13.9280 N   0  0  0  0  0  0
   14.3430    4.8320   13.5380 C   0  0  0  0  0  0
   14.8700    4.1050   12.4800 C   0  0  0  0  0  0
   15.9030    4.2340   12.1680 H   0  0  0  0  0  0
   14.0510    3.1900   11.8180 C   0  0  0  0  0  0
   14.4620    2.6150   10.9890 H   0  0  0  0  0  0
   15.2080    5.8450   14.2820 C   0  0  0  0  0  0
   15.6200    5.2930   15.1360 H   0  0  0  0  0  0
   14.5900    6.6560   14.6850 H   0  0  0  0  0  0
   16.2880    6.4300   13.4570 N   0  0  0  0  0  0
   16.0080    7.1710   12.3170 C   0  0  0  0  0  0
   16.9740    7.4200   11.3290 C   0  0  0  0  0  0
   17.9940    7.0550   11.4410 H   0  0  0  0  0  0
   16.6940    8.1720   10.1740 C   0  0  0  0  0  0
   17.5050    8.3190    9.4660 H   0  0  0  0  0  0
   15.4210    8.7060    9.9700 C   0  0  0  0  0  0
   14.4430    8.4720   10.9410 C   0  0  0  0  0  0
   13.4340    8.8660   10.8230 H   0  0  0  0  0  0
   14.7360    7.7200   12.0900 C   0  0  0  0  0  0
   13.9260    7.5590   12.7990 H   0  0  0  0  0  0
   15.0590    9.5150    8.7630 C   0  0  0  0  0  0
   15.9620    9.8820    7.9980 O   0  0  0  0  0  0
   13.5920    9.8500    8.5340 C   0  0  0  0  0  0
   13.3890   10.5930    7.4000 F   0  0  0  0  0  0
   13.0390   10.5800    9.5500 F   0  0  0  0  0  0
   12.8020    8.7420    8.3890 F   0  0  0  0  0  0
   17.6770    6.1030   13.7880 C   0  0  0  0  0  0
   18.1530    6.9410   14.3100 H   0  0  0  0  0  0
   18.2560    5.8650   12.8880 H   0  0  0  0  0  0
   17.7440    5.2200   14.4310 H   0  0  0  0  0  0
    9.9430    1.0630   11.2380 N   0  0  0  0  0  0
   10.3400    0.5370   10.4740 H   0  0  0  0  0  0
    8.9790    0.9280   11.5060 H   0  0  0  0  0  0
  1  2  1  0  0  0
  1  6  2  0  0  0
  2  3  2  0  0  0
  2 40  1  0  0  0
  3  4  1  0  0  0
  4  5  2  0  0  0
  4 14  1  0  0  0
  5  6  1  0  0  0
  5 10  1  0  0  0
  6  7  1  0  0  0
  7  8  1  0  0  0
  7  9  1  0  0  0
 10 11  2  0  0  0
 11 12  1  0  0  0
 11 16  1  0  0  0
 12 13  1  0  0  0
 12 14  2  0  0  0
 14 15  1  0  0  0
 16 17  1  0  0  0
 16 18  1  0  0  0
 16 19  1  0  0  0
 19 20  1  0  0  0
 19 36  1  0  0  0
 20 21  1  0  0  0
 20 28  2  0  0  0
 21 22  1  0  0  0
 21 23  2  0  0  0
 23 24  1  0  0  0
 23 25  1  0  0  0
 25 26  2  0  0  0
 25 30  1  0  0  0
 26 27  1  0  0  0
 26 28  1  0  0  0
 28 29  1  0  0  0
 30 31  2  0  0  0
 30 32  1  0  0  0
 32 33  1  0  0  0
 32 34  1  0  0  0
 32 35  1  0  0  0
 36 37  1  0  0  0
 36 38  1  0  0  0
 36 39  1  0  0  0
 40 41  1  0  0  0
 40 42  1  0  0  0
M  END
>  <ACTIVITY>
7.49

>  <SET>
1

>  <Min_dist>
999.9

>  <Avg_dist>
999.9

$$$$
21-44
  Cerius2 12110214133D 1   1.00000                          
Structure written by Cerius2 SD Exporter
 41 43  0  0  0  0  0  0  0  0999 V2000
   10.1490    2.6440   12.9050 N   0  0  0  0  0  0
   10.7090    1.9720   11.9020 C   0  0  0  0  0  0
   11.9790    2.1100   11.5240 N   0  0  0  0  0  0
   12.7350    2.9910   12.2020 C   0  0  0  0  0  0
   12.2750    3.7570   13.2750 C   0  0  0  0  0  0
   10.9330    3.5110   13.5800 C   0  0  0  0  0  0
   10.2940    4.2320   14.5830 N   0  0  0  0  0  0
   10.8620    4.5560   15.3600 H   0  0  0  0  0  0
    9.3320    3.9820   14.7850 H   0  0  0  0  0  0
   13.0630    4.6520   13.9510 N   0  0  0  0  0  0
   14.3550    4.8100   13.5610 C   0  0  0  0  0  0
   14.8750    4.0910   12.4940 C   0  0  0  0  0  0
   15.9030    4.2260   12.1710 H   0  0  0  0  0  0
   14.0550    3.1790   11.8290 C   0  0  0  0  0  0
   14.4630    2.6120   10.9960 H   0  0  0  0  0  0
   15.1970    5.8450   14.2960 C   0  0  0  0  0  0
   15.6200    5.4080   15.2090 H   0  0  0  0  0  0
   14.5090    6.6260   14.6480 H   0  0  0  0  0  0
   16.2670    6.4310   13.4650 N   0  0  0  0  0  0
   16.0010    7.1750   12.3040 C   0  0  0  0  0  0
   14.7290    7.7290   12.0610 C   0  0  0  0  0  0
   13.9140    7.5820   12.7690 H   0  0  0  0  0  0
   14.4410    8.4900   10.9150 C   0  0  0  0  0  0
   13.4280    8.8730   10.8090 H   0  0  0  0  0  0
   15.4290    8.7270    9.9600 C   0  0  0  0  0  0
   16.6970    8.1760   10.1690 C   0  0  0  0  0  0
   17.4960    8.3300    9.4450 H   0  0  0  0  0  0
   16.9730    7.4180   11.3200 C   0  0  0  0  0  0
   17.9840    7.0290   11.4120 H   0  0  0  0  0  0
   15.1910    9.5420    8.7300 C   0  0  0  0  0  0
   16.1620    9.8620    8.0290 O   0  0  0  0  0  0
   13.7580    9.9320    8.3950 C   0  0  0  0  0  0
   13.6820   10.8410    7.3720 F   0  0  0  0  0  0
   13.0900   10.5050    9.4420 F   0  0  0  0  0  0
   12.9950    8.8690    7.9950 F   0  0  0  0  0  0
   17.5600    6.1780   13.8800 C   0  0  0  0  0  0
   18.6780    5.9560   14.2580 C   0  0  0  0  0  0
   19.6710    5.7650   14.5950 H   0  0  0  0  0  0
    9.9350    1.0910   11.2140 N   0  0  0  0  0  0
   10.3280    0.5750   10.4410 H   0  0  0  0  0  0
    8.9660    0.9730   11.4700 H   0  0  0  0  0  0
  1  2  1  0  0  0
  1  6  2  0  0  0
  2  3  2  0  0  0
  2 39  1  0  0  0
  3  4  1  0  0  0
  4  5  2  0  0  0
  4 14  1  0  0  0
  5  6  1  0  0  0
  5 10  1  0  0  0
  6  7  1  0  0  0
  7  8  1  0  0  0
  7  9  1  0  0  0
 10 11  2  0  0  0
 11 12  1  0  0  0
 11 16  1  0  0  0
 12 13  1  0  0  0
 12 14  2  0  0  0
 14 15  1  0  0  0
 16 17  1  0  0  0
 16 18  1  0  0  0
 16 19  1  0  0  0
 19 20  1  0  0  0
 19 36  1  0  0  0
 20 21  1  0  0  0
 20 28  2  0  0  0
 21 22  1  0  0  0
 21 23  2  0  0  0
 23 24  1  0  0  0
 23 25  1  0  0  0
 25 26  2  0  0  0
 25 30  1  0  0  0
 26 27  1  0  0  0
 26 28  1  0  0  0
 28 29  1  0  0  0
 30 31  2  0  0  0
 30 32  1  0  0  0
 32 33  1  0  0  0
 32 34  1  0  0  0
 32 35  1  0  0  0
 36 37  3  0  0  0
 37 38  1  0  0  0
 39 40  1  0  0  0
 39 41  1  0  0  0
M  END
>  <ACTIVITY>
8.12

>  <SET>
1

>  <Min_dist>
999.9

>  <Avg_dist>
999.9

$$$$
21-5
  Cerius2 12110214133D 1   1.00000                          
Structure written by Cerius2 SD Exporter
 37 39  0  0  0  0  0  0  0  0999 V2000
   10.1530    2.6430   12.9130 N   0  0  0  0  0  0
   10.7130    1.9640   11.9130 C   0  0  0  0  0  0
   11.9770    2.1120   11.5200 N   0  0  0  0  0  0
   12.7320    3.0040   12.1860 C   0  0  0  0  0  0
   12.2720    3.7740   13.2560 C   0  0  0  0  0  0
   10.9360    3.5210   13.5720 C   0  0  0  0  0  0
   10.3010    4.2380   14.5820 N   0  0  0  0  0  0
   10.8780    4.5580   15.3550 H   0  0  0  0  0  0
    9.3440    3.9800   14.7930 H   0  0  0  0  0  0
   13.0570    4.6700   13.9300 N   0  0  0  0  0  0
   14.3510    4.8240   13.5430 C   0  0  0  0  0  0
   14.8750    4.1020   12.4820 C   0  0  0  0  0  0
   15.9070    4.2310   12.1680 H   0  0  0  0  0  0
   14.0530    3.1940   11.8130 C   0  0  0  0  0  0
   14.4610    2.6230   10.9810 H   0  0  0  0  0  0
   15.2050    5.8240   14.3070 C   0  0  0  0  0  0
   15.5880    5.3680   15.2240 H   0  0  0  0  0  0
   14.5460    6.6260   14.6670 H   0  0  0  0  0  0
   16.2580    6.4230   13.4580 N   0  0  0  0  0  0
   15.9940    7.1620   12.3120 C   0  0  0  0  0  0
   14.7270    7.7270   12.0690 C   0  0  0  0  0  0
   13.9060    7.5900   12.7700 H   0  0  0  0  0  0
   14.4450    8.4870   10.9240 C   0  0  0  0  0  0
   13.4490    8.9030   10.7820 H   0  0  0  0  0  0
   15.4330    8.7100    9.9760 C   0  0  0  0  0  0
   15.2210    9.3000    9.0870 H   0  0  0  0  0  0
   16.6960    8.1730   10.1790 C   0  0  0  0  0  0
   17.4840    8.3420    9.4470 H   0  0  0  0  0  0
   16.9660    7.4160   11.3290 C   0  0  0  0  0  0
   17.9820    7.0410   11.4200 H   0  0  0  0  0  0
   17.6190    6.3510   14.0040 C   0  0  0  0  0  0
   17.9520    7.3370   14.3450 H   0  0  0  0  0  0
   18.3190    5.9620   13.2570 H   0  0  0  0  0  0
   17.6750    5.6730   14.8630 H   0  0  0  0  0  0
    9.9450    1.0610   11.2480 N   0  0  0  0  0  0
   10.3440    0.5230   10.4940 H   0  0  0  0  0  0
    8.9850    0.9180   11.5270 H   0  0  0  0  0  0
  1  2  1  0  0  0
  1  6  2  0  0  0
  2  3  2  0  0  0
  2 35  1  0  0  0
  3  4  1  0  0  0
  4  5  2  0  0  0
  4 14  1  0  0  0
  5  6  1  0  0  0
  5 10  1  0  0  0
  6  7  1  0  0  0
  7  8  1  0  0  0
  7  9  1  0  0  0
 10 11  2  0  0  0
 11 12  1  0  0  0
 11 16  1  0  0  0
 12 13  1  0  0  0
 12 14  2  0  0  0
 14 15  1  0  0  0
 16 17  1  0  0  0
 16 18  1  0  0  0
 16 19  1  0  0  0
 19 20  1  0  0  0
 19 31  1  0  0  0
 20 21  1  0  0  0
 20 29  2  0  0  0
 21 22  1  0  0  0
 21 23  2  0  0  0
 23 24  1  0  0  0
 23 25  1  0  0  0
 25 26  1  0  0  0
 25 27  2  0  0  0
 27 28  1  0  0  0
 27 29  1  0  0  0
 29 30  1  0  0  0
 31 32  1  0  0  0
 31 33  1  0  0  0
 31 34  1  0  0  0
 35 36  1  0  0  0
 35 37  1  0  0  0
M  END
>  <ACTIVITY>
7.62

>  <SET>
1

>  <Min_dist>
999.9

>  <Avg_dist>
999.9

$$$$
21-6
  Cerius2 12110214133D 1   1.00000                          
Structure written by Cerius2 SD Exporter
 38 40  0  0  0  0  0  0  0  0999 V2000
   10.1610    2.6450   12.9110 N   0  0  0  0  0  0
   10.7230    1.9700   11.9100 C   0  0  0  0  0  0
   11.9900    2.1170   11.5240 N   0  0  0  0  0  0
   12.7420    3.0090   12.1940 C   0  0  0  0  0  0
   12.2780    3.7790   13.2620 C   0  0  0  0  0  0
   10.9400    3.5230   13.5750 C   0  0  0  0  0  0
   10.3020    4.2390   14.5820 N   0  0  0  0  0  0
   10.8750    4.5740   15.3510 H   0  0  0  0  0  0
    9.3450    3.9800   14.7930 H   0  0  0  0  0  0
   13.0600    4.6820   13.9340 N   0  0  0  0  0  0
   14.3510    4.8370   13.5450 C   0  0  0  0  0  0
   14.8800    4.1150   12.4850 C   0  0  0  0  0  0
   15.9110    4.2580   12.1700 H   0  0  0  0  0  0
   14.0630    3.2000   11.8200 C   0  0  0  0  0  0
   14.4740    2.6290   10.9900 H   0  0  0  0  0  0
   15.2060    5.8640   14.2740 C   0  0  0  0  0  0
   15.6450    5.3790   15.1540 H   0  0  0  0  0  0
   14.5510    6.6750   14.6130 H   0  0  0  0  0  0
   16.2410    6.3880   13.3930 N   0  0  0  0  0  0
   17.1850    6.0470   13.5720 H   0  0  0  0  0  0
   16.0390    7.1620   12.2600 C   0  0  0  0  0  0
   14.7430    7.6840   12.0800 C   0  0  0  0  0  0
   13.9690    7.4840   12.8210 H   0  0  0  0  0  0
   14.4040    8.4610   10.9710 C   0  0  0  0  0  0
   13.3930    8.8510   10.8670 H   0  0  0  0  0  0
   15.3610    8.7310   10.0050 C   0  0  0  0  0  0
   15.1050    9.3370    9.1370 H   0  0  0  0  0  0
   16.6520    8.2230   10.1470 C   0  0  0  0  0  0
   17.3660    8.4610    9.3630 H   0  0  0  0  0  0
   17.0030    7.4390   11.2600 C   0  0  0  0  0  0
   18.2630    6.9230   11.4390 O   0  0  0  0  0  0
   19.2660    7.2550   10.4820 C   0  0  0  0  0  0
   20.1870    6.7430   10.7770 H   0  0  0  0  0  0
   19.4700    8.3310   10.4830 H   0  0  0  0  0  0
   18.9930    6.8980    9.4840 H   0  0  0  0  0  0
    9.9550    1.0740   11.2350 N   0  0  0  0  0  0
   10.3530    0.5480   10.4710 H   0  0  0  0  0  0
    8.9900    0.9420   11.5000 H   0  0  0  0  0  0
  1  2  1  0  0  0
  1  6  2  0  0  0
  2  3  2  0  0  0
  2 36  1  0  0  0
  3  4  1  0  0  0
  4  5  2  0  0  0
  4 14  1  0  0  0
  5  6  1  0  0  0
  5 10  1  0  0  0
  6  7  1  0  0  0
  7  8  1  0  0  0
  7  9  1  0  0  0
 10 11  2  0  0  0
 11 12  1  0  0  0
 11 16  1  0  0  0
 12 13  1  0  0  0
 12 14  2  0  0  0
 14 15  1  0  0  0
 16 17  1  0  0  0
 16 18  1  0  0  0
 16 19  1  0  0  0
 19 20  1  0  0  0
 19 21  1  0  0  0
 21 22  1  0  0  0
 21 30  2  0  0  0
 22 23  1  0  0  0
 22 24  2  0  0  0
 24 25  1  0  0  0
 24 26  1  0  0  0
 26 27  1  0  0  0
 26 28  2  0  0  0
 28 29  1  0  0  0
 28 30  1  0  0  0
 30 31  1  0  0  0
 31 32  1  0  0  0
 32 33  1  0  0  0
 32 34  1  0  0  0
 32 35  1  0  0  0
 36 37  1  0  0  0
 36 38  1  0  0  0
M  END
>  <ACTIVITY>
6.38

>  <SET>
2

>  <Min_dist>
0.06

>  <Avg_dist>
0.46

$$$$
21-7
  Cerius2 12110214133D 1   1.00000                          
Structure written by Cerius2 SD Exporter
 41 43  0  0  0  0  0  0  0  0999 V2000
   10.1520    2.6110   12.9080 N   0  0  0  0  0  0
   10.7330    1.9320   11.9210 C   0  0  0  0  0  0
   11.9970    2.1030   11.5340 N   0  0  0  0  0  0
   12.7250    3.0250   12.1880 C   0  0  0  0  0  0
   12.2410    3.8030   13.2420 C   0  0  0  0  0  0
   10.9090    3.5200   13.5580 C   0  0  0  0  0  0
   10.2510    4.2390   14.5490 N   0  0  0  0  0  0
   10.8150    4.6040   15.3110 H   0  0  0  0  0  0
    9.3000    3.9620   14.7630 H   0  0  0  0  0  0
   12.9980    4.7360   13.8970 N   0  0  0  0  0  0
   14.2870    4.9210   13.5060 C   0  0  0  0  0  0
   14.8360    4.1870   12.4640 C   0  0  0  0  0  0
   15.8670    4.3360   12.1540 H   0  0  0  0  0  0
   14.0420    3.2410   11.8150 C   0  0  0  0  0  0
   14.4700    2.6620   10.9990 H   0  0  0  0  0  0
   15.1230    5.9600   14.2420 C   0  0  0  0  0  0
   15.4790    5.4710   15.1600 H   0  0  0  0  0  0
   14.4940    6.8040   14.5510 H   0  0  0  0  0  0
   16.2690    6.4410   13.4430 N   0  0  0  0  0  0
   15.9990    7.1810   12.2770 C   0  0  0  0  0  0
   14.7340    7.7590   12.0650 C   0  0  0  0  0  0
   13.9370    7.6390   12.7960 H   0  0  0  0  0  0
   14.4490    8.4790   10.9030 C   0  0  0  0  0  0
   13.4600    8.9130   10.7620 H   0  0  0  0  0  0
   15.4250    8.6360    9.9270 C   0  0  0  0  0  0
   15.2030    9.1970    9.0200 H   0  0  0  0  0  0
   16.6890    8.0750   10.1080 C   0  0  0  0  0  0
   17.4220    8.2280    9.3200 H   0  0  0  0  0  0
   16.9870    7.3510   11.2710 C   0  0  0  0  0  0
   18.2200    6.7970   11.5320 O   0  0  0  0  0  0
   19.2320    6.9440   10.5400 C   0  0  0  0  0  0
   20.1290    6.4330   10.9030 H   0  0  0  0  0  0
   19.4870    7.9980   10.3910 H   0  0  0  0  0  0
   18.9350    6.4670    9.6000 H   0  0  0  0  0  0
   17.4420    5.5670   13.3470 C   0  0  0  0  0  0
   18.2880    6.0500   12.8490 H   0  0  0  0  0  0
   17.1930    4.6570   12.7890 H   0  0  0  0  0  0
   17.7920    5.2730   14.3410 H   0  0  0  0  0  0
    9.9890    1.0060   11.2600 N   0  0  0  0  0  0
   10.4000    0.4780   10.5050 H   0  0  0  0  0  0
    9.0270    0.8540   11.5250 H   0  0  0  0  0  0
  1  2  1  0  0  0
  1  6  2  0  0  0
  2  3  2  0  0  0
  2 39  1  0  0  0
  3  4  1  0  0  0
  4  5  2  0  0  0
  4 14  1  0  0  0
  5  6  1  0  0  0
  5 10  1  0  0  0
  6  7  1  0  0  0
  7  8  1  0  0  0
  7  9  1  0  0  0
 10 11  2  0  0  0
 11 12  1  0  0  0
 11 16  1  0  0  0
 12 13  1  0  0  0
 12 14  2  0  0  0
 14 15  1  0  0  0
 16 17  1  0  0  0
 16 18  1  0  0  0
 16 19  1  0  0  0
 19 20  1  0  0  0
 19 35  1  0  0  0
 20 21  1  0  0  0
 20 29  2  0  0  0
 21 22  1  0  0  0
 21 23  2  0  0  0
 23 24  1  0  0  0
 23 25  1  0  0  0
 25 26  1  0  0  0
 25 27  2  0  0  0
 27 28  1  0  0  0
 27 29  1  0  0  0
 29 30  1  0  0  0
 30 31  1  0  0  0
 31 32  1  0  0  0
 31 33  1  0  0  0
 31 34  1  0  0  0
 35 36  1  0  0  0
 35 37  1  0  0  0
 35 38  1  0  0  0
 39 40  1  0  0  0
 39 41  1  0  0  0
M  END
>  <ACTIVITY>
6.92

>  <SET>
1

>  <Min_dist>
999.9

>  <Avg_dist>
999.9

$$$$
21-8
  Cerius2 12110214133D 1   1.00000                          
Structure written by Cerius2 SD Exporter
 38 40  0  0  0  0  0  0  0  0999 V2000
   10.1670    2.6530   12.9200 N   0  0  0  0  0  0
   10.7220    1.9720   11.9180 C   0  0  0  0  0  0
   11.9870    2.1140   11.5250 N   0  0  0  0  0  0
   12.7450    3.0060   12.1870 C   0  0  0  0  0  0
   12.2890    3.7830   13.2550 C   0  0  0  0  0  0
   10.9530    3.5310   13.5760 C   0  0  0  0  0  0
   10.3220    4.2510   14.5850 N   0  0  0  0  0  0
   10.9010    4.5840   15.3510 H   0  0  0  0  0  0
    9.3660    3.9950   14.8020 H   0  0  0  0  0  0
   13.0770    4.6860   13.9180 N   0  0  0  0  0  0
   14.3670    4.8350   13.5230 C   0  0  0  0  0  0
   14.8890    4.1050   12.4650 C   0  0  0  0  0  0
   15.9190    4.2420   12.1480 H   0  0  0  0  0  0
   14.0660    3.1910   11.8080 C   0  0  0  0  0  0
   14.4710    2.6150   10.9790 H   0  0  0  0  0  0
   15.2290    5.8570   14.2460 C   0  0  0  0  0  0
   15.6810    5.3740   15.1210 H   0  0  0  0  0  0
   14.5860    6.6700   14.6050 H   0  0  0  0  0  0
   16.2560    6.3920   13.3600 N   0  0  0  0  0  0
   17.2040    6.0480   13.5050 H   0  0  0  0  0  0
   16.0000    7.1700   12.2500 C   0  0  0  0  0  0
   14.7190    7.7100   12.0830 C   0  0  0  0  0  0
   13.9470    7.5280   12.8300 H   0  0  0  0  0  0
   14.3980    8.4890   10.9680 C   0  0  0  0  0  0
   13.3950    8.8990   10.8660 H   0  0  0  0  0  0
   15.3570    8.7390    9.9870 C   0  0  0  0  0  0
   15.0690    9.3490    9.1350 H   0  0  0  0  0  0
   16.6360    8.2070   10.1230 C   0  0  0  0  0  0
   16.9440    7.4260   11.2470 C   0  0  0  0  0  0
   17.9510    7.0210   11.3240 H   0  0  0  0  0  0
   17.6690    8.3690    9.2390 O   0  0  0  0  0  0
   18.9040    7.7360    9.5710 C   0  0  0  0  0  0
   19.6160    7.9570    8.7700 H   0  0  0  0  0  0
   18.7870    6.6480    9.6230 H   0  0  0  0  0  0
   19.3140    8.1380   10.5030 H   0  0  0  0  0  0
    9.9480    1.0760   11.2510 N   0  0  0  0  0  0
   10.3410    0.5450   10.4870 H   0  0  0  0  0  0
    8.9850    0.9460   11.5220 H   0  0  0  0  0  0
  1  2  1  0  0  0
  1  6  2  0  0  0
  2  3  2  0  0  0
  2 36  1  0  0  0
  3  4  1  0  0  0
  4  5  2  0  0  0
  4 14  1  0  0  0
  5  6  1  0  0  0
  5 10  1  0  0  0
  6  7  1  0  0  0
  7  8  1  0  0  0
  7  9  1  0  0  0
 10 11  2  0  0  0
 11 12  1  0  0  0
 11 16  1  0  0  0
 12 13  1  0  0  0
 12 14  2  0  0  0
 14 15  1  0  0  0
 16 17  1  0  0  0
 16 18  1  0  0  0
 16 19  1  0  0  0
 19 20  1  0  0  0
 19 21  1  0  0  0
 21 22  1  0  0  0
 21 29  2  0  0  0
 22 23  1  0  0  0
 22 24  2  0  0  0
 24 25  1  0  0  0
 24 26  1  0  0  0
 26 27  1  0  0  0
 26 28  2  0  0  0
 28 29  1  0  0  0
 28 31  1  0  0  0
 29 30  1  0  0  0
 31 32  1  0  0  0
 32 33  1  0  0  0
 32 34  1  0  0  0
 32 35  1  0  0  0
 36 37  1  0  0  0
 36 38  1  0  0  0
M  END
>  <ACTIVITY>
6.7

>  <SET>
1

>  <Min_dist>
999.9

>  <Avg_dist>
999.9

$$$$
21-9
  Cerius2 12110214133D 1   1.00000                          
Structure written by Cerius2 SD Exporter
 41 43  0  0  0  0  0  0  0  0999 V2000
   10.1500    2.6330   12.9120 N   0  0  0  0  0  0
   10.7140    1.9540   11.9150 C   0  0  0  0  0  0
   11.9790    2.1050   11.5250 N   0  0  0  0  0  0
   12.7280    3.0050   12.1870 C   0  0  0  0  0  0
   12.2630    3.7790   13.2520 C   0  0  0  0  0  0
   10.9270    3.5190   13.5700 C   0  0  0  0  0  0
   10.2870    4.2380   14.5730 N   0  0  0  0  0  0
   10.8620    4.5840   15.3360 H   0  0  0  0  0  0
    9.3320    3.9770   14.7890 H   0  0  0  0  0  0
   13.0420    4.6870   13.9170 N   0  0  0  0  0  0
   14.3340    4.8480   13.5260 C   0  0  0  0  0  0
   14.8640    4.1210   12.4710 C   0  0  0  0  0  0
   15.8960    4.2520   12.1590 H   0  0  0  0  0  0
   14.0480    3.2000   11.8120 C   0  0  0  0  0  0
   14.4610    2.6240   10.9860 H   0  0  0  0  0  0
   15.1960    5.8600   14.2760 C   0  0  0  0  0  0
   15.5970    5.3120   15.1370 H   0  0  0  0  0  0
   14.5800    6.6760   14.6700 H   0  0  0  0  0  0
   16.2820    6.4330   13.4500 N   0  0  0  0  0  0
   16.0120    7.1740   12.3070 C   0  0  0  0  0  0
   14.7480    7.7290   12.0590 C   0  0  0  0  0  0
   13.9210    7.5740   12.7490 H   0  0  0  0  0  0
   14.4830    8.4720   10.9020 C   0  0  0  0  0  0
   13.4870    8.8820   10.7410 H   0  0  0  0  0  0
   15.4810    8.6830    9.9540 C   0  0  0  0  0  0
   15.2350    9.2650    9.0710 H   0  0  0  0  0  0
   16.7470    8.1470   10.1630 C   0  0  0  0  0  0
   16.9960    7.4020   11.3270 C   0  0  0  0  0  0
   18.0040    7.0130   11.4660 H   0  0  0  0  0  0
   17.8200    8.2740    9.3240 O   0  0  0  0  0  0
   19.0340    7.6440    9.7330 C   0  0  0  0  0  0
   19.7850    7.8400    8.9620 H   0  0  0  0  0  0
   18.9070    6.5590    9.8090 H   0  0  0  0  0  0
   19.4000    8.0700   10.6730 H   0  0  0  0  0  0
   17.6680    6.1250   13.8090 C   0  0  0  0  0  0
   18.1180    6.9620   14.3530 H   0  0  0  0  0  0
   18.2710    5.9080   12.9200 H   0  0  0  0  0  0
   17.7310    5.2330   14.4420 H   0  0  0  0  0  0
    9.9510    1.0470   11.2490 N   0  0  0  0  0  0
   10.3510    0.5150   10.4910 H   0  0  0  0  0  0
    8.9890    0.9060   11.5210 H   0  0  0  0  0  0
  1  2  1  0  0  0
  1  6  2  0  0  0
  2  3  2  0  0  0
  2 39  1  0  0  0
  3  4  1  0  0  0
  4  5  2  0  0  0
  4 14  1  0  0  0
  5  6  1  0  0  0
  5 10  1  0  0  0
  6  7  1  0  0  0
  7  8  1  0  0  0
  7  9  1  0  0  0
 10 11  2  0  0  0
 11 12  1  0  0  0
 11 16  1  0  0  0
 12 13  1  0  0  0
 12 14  2  0  0  0
 14 15  1  0  0  0
 16 17  1  0  0  0
 16 18  1  0  0  0
 16 19  1  0  0  0
 19 20  1  0  0  0
 19 35  1  0  0  0
 20 21  1  0  0  0
 20 28  2  0  0  0
 21 22  1  0  0  0
 21 23  2  0  0  0
 23 24  1  0  0  0
 23 25  1  0  0  0
 25 26  1  0  0  0
 25 27  2  0  0  0
 27 28  1  0  0  0
 27 30  1  0  0  0
 28 29  1  0  0  0
 30 31  1  0  0  0
 31 32  1  0  0  0
 31 33  1  0  0  0
 31 34  1  0  0  0
 35 36  1  0  0  0
 35 37  1  0  0  0
 35 38  1  0  0  0
 39 40  1  0  0  0
 39 41  1  0  0  0
M  END
>  <ACTIVITY>
7.46

>  <SET>
1

>  <Min_dist>
999.9

>  <Avg_dist>
999.9

$$$$
22-10
  Cerius2 12110214133D 1   1.00000                          
Structure written by Cerius2 SD Exporter
 31 33  0  0  0  0  0  0  0  0999 V2000
   10.2480    2.6850   13.1180 N   0  0  0  0  0  0
   10.6710    1.6900   12.3410 C   0  0  0  0  0  0
   11.8740    1.6440   11.7710 N   0  0  0  0  0  0
   12.7070    2.6760   12.0010 C   0  0  0  0  0  0
   12.3900    3.7770   12.7950 C   0  0  0  0  0  0
   11.1080    3.7000   13.3430 C   0  0  0  0  0  0
   10.6090    4.7390   14.1210 N   0  0  0  0  0  0
   11.2800    5.2860   14.6510 H   0  0  0  0  0  0
    9.6890    4.6090   14.5260 H   0  0  0  0  0  0
   13.2520    4.8170   13.0190 N   0  0  0  0  0  0
   14.4750    4.7970   12.4550 C   0  0  0  0  0  0
   14.8520    3.7360   11.6430 C   0  0  0  0  0  0
   15.8310    3.7160   11.1710 H   0  0  0  0  0  0
   13.9640    2.6800   11.4250 C   0  0  0  0  0  0
   14.2700    1.8520   10.7900 H   0  0  0  0  0  0
   15.3820    5.8540   12.6370 N   0  0  0  0  0  0
   15.9180    5.7690   13.4990 H   0  0  0  0  0  0
   15.5370    7.0860   11.9780 C   0  0  0  0  0  0
   14.4870    7.9820   11.7480 C   0  0  0  0  0  0
   13.4760    7.7540   12.0760 H   0  0  0  0  0  0
   14.7000    9.1920   11.0770 C   0  0  0  0  0  0
   13.8670    9.8720   10.9110 H   0  0  0  0  0  0
   15.9710    9.5240   10.6170 C   0  0  0  0  0  0
   16.1360   10.4640   10.0950 H   0  0  0  0  0  0
   17.0280    8.6440   10.8260 C   0  0  0  0  0  0
   18.0250    8.8930   10.4680 H   0  0  0  0  0  0
   16.8100    7.4360   11.4980 C   0  0  0  0  0  0
   17.6560    6.7660   11.6460 H   0  0  0  0  0  0
    9.8220    0.6540   12.1110 N   0  0  0  0  0  0
   10.1140   -0.1140   11.5250 H   0  0  0  0  0  0
    8.9020    0.6590   12.5270 H   0  0  0  0  0  0
  1  2  1  0  0  0
  1  6  2  0  0  0
  2  3  2  0  0  0
  2 29  1  0  0  0
  3  4  1  0  0  0
  4  5  2  0  0  0
  4 14  1  0  0  0
  5  6  1  0  0  0
  5 10  1  0  0  0
  6  7  1  0  0  0
  7  8  1  0  0  0
  7  9  1  0  0  0
 10 11  2  0  0  0
 11 12  1  0  0  0
 11 16  1  0  0  0
 12 13  1  0  0  0
 12 14  2  0  0  0
 14 15  1  0  0  0
 16 17  1  0  0  0
 16 18  1  0  0  0
 18 19  1  0  0  0
 18 27  2  0  0  0
 19 20  1  0  0  0
 19 21  2  0  0  0
 21 22  1  0  0  0
 21 23  1  0  0  0
 23 24  1  0  0  0
 23 25  2  0  0  0
 25 26  1  0  0  0
 25 27  1  0  0  0
 27 28  1  0  0  0
 29 30  1  0  0  0
 29 31  1  0  0  0
M  END
>  <ACTIVITY>
6.37

>  <SET>
1

>  <Min_dist>
999.9

>  <Avg_dist>
999.9

$$$$
22-11
  Cerius2 12110214133D 1   1.00000                          
Structure written by Cerius2 SD Exporter
 35 37  0  0  0  0  0  0  0  0999 V2000
   10.2650    2.6920   13.1240 N   0  0  0  0  0  0
   10.6890    1.6920   12.3540 C   0  0  0  0  0  0
   11.8910    1.6440   11.7810 N   0  0  0  0  0  0
   12.7220    2.6790   12.0020 C   0  0  0  0  0  0
   12.4050    3.7850   12.7890 C   0  0  0  0  0  0
   11.1240    3.7100   13.3400 C   0  0  0  0  0  0
   10.6240    4.7540   14.1100 N   0  0  0  0  0  0
   11.2950    5.3070   14.6350 H   0  0  0  0  0  0
    9.7050    4.6250   14.5180 H   0  0  0  0  0  0
   13.2650    4.8290   13.0040 N   0  0  0  0  0  0
   14.4870    4.8060   12.4380 C   0  0  0  0  0  0
   14.8650    3.7410   11.6320 C   0  0  0  0  0  0
   15.8420    3.7200   11.1580 H   0  0  0  0  0  0
   13.9780    2.6820   11.4240 C   0  0  0  0  0  0
   14.2840    1.8500   10.7940 H   0  0  0  0  0  0
   15.3890    5.8650   12.6100 N   0  0  0  0  0  0
   15.9310    5.8090   13.4740 H   0  0  0  0  0  0
   15.5400    7.1110   11.9630 C   0  0  0  0  0  0
   14.4650    7.9670   11.6960 C   0  0  0  0  0  0
   13.4510    7.6990   11.9800 H   0  0  0  0  0  0
   14.6610    9.1860   11.0410 C   0  0  0  0  0  0
   13.8120    9.8380   10.8440 H   0  0  0  0  0  0
   15.9380    9.5640   10.6390 C   0  0  0  0  0  0
   16.0880   10.5140   10.1290 H   0  0  0  0  0  0
   17.0240    8.7250   10.8840 C   0  0  0  0  0  0
   18.0040    9.0550   10.5500 H   0  0  0  0  0  0
   16.8350    7.5020   11.5380 C   0  0  0  0  0  0
   17.8390    6.6040   11.8230 O   0  0  0  0  0  0
   19.1610    6.9630   11.4270 C   0  0  0  0  0  0
   19.8280    6.1460   11.7200 H   0  0  0  0  0  0
   19.4950    7.8680   11.9430 H   0  0  0  0  0  0
   19.2290    7.0740   10.3390 H   0  0  0  0  0  0
    9.8410    0.6520   12.1340 N   0  0  0  0  0  0
   10.1350   -0.1200   11.5530 H   0  0  0  0  0  0
    8.9230    0.6580   12.5520 H   0  0  0  0  0  0
  1  2  1  0  0  0
  1  6  2  0  0  0
  2  3  2  0  0  0
  2 33  1  0  0  0
  3  4  1  0  0  0
  4  5  2  0  0  0
  4 14  1  0  0  0
  5  6  1  0  0  0
  5 10  1  0  0  0
  6  7  1  0  0  0
  7  8  1  0  0  0
  7  9  1  0  0  0
 10 11  2  0  0  0
 11 12  1  0  0  0
 11 16  1  0  0  0
 12 13  1  0  0  0
 12 14  2  0  0  0
 14 15  1  0  0  0
 16 17  1  0  0  0
 16 18  1  0  0  0
 18 19  1  0  0  0
 18 27  2  0  0  0
 19 20  1  0  0  0
 19 21  2  0  0  0
 21 22  1  0  0  0
 21 23  1  0  0  0
 23 24  1  0  0  0
 23 25  2  0  0  0
 25 26  1  0  0  0
 25 27  1  0  0  0
 27 28  1  0  0  0
 28 29  1  0  0  0
 29 30  1  0  0  0
 29 31  1  0  0  0
 29 32  1  0  0  0
 33 34  1  0  0  0
 33 35  1  0  0  0
M  END
>  <ACTIVITY>
6.59

>  <SET>
1

>  <Min_dist>
999.9

>  <Avg_dist>
999.9

$$$$
22-12
  Cerius2 12110214133D 1   1.00000                          
Structure written by Cerius2 SD Exporter
 35 37  0  0  0  0  0  0  0  0999 V2000
   10.2240    2.6330   13.1460 N   0  0  0  0  0  0
   10.6640    1.6210   12.4000 C   0  0  0  0  0  0
   11.8730    1.5710   11.8430 N   0  0  0  0  0  0
   12.6940    2.6160   12.0520 C   0  0  0  0  0  0
   12.3600    3.7350   12.8140 C   0  0  0  0  0  0
   11.0730    3.6610   13.3510 C   0  0  0  0  0  0
   10.5570    4.7160   14.0960 N   0  0  0  0  0  0
   11.2180    5.2830   14.6190 H   0  0  0  0  0  0
    9.6350    4.5880   14.4960 H   0  0  0  0  0  0
   13.2090    4.7900   13.0180 N   0  0  0  0  0  0
   14.4380    4.7650   12.4660 C   0  0  0  0  0  0
   14.8330    3.6860   11.6860 C   0  0  0  0  0  0
   15.8160    3.6630   11.2230 H   0  0  0  0  0  0
   13.9570    2.6170   11.4890 C   0  0  0  0  0  0
   14.2760    1.7750   10.8790 H   0  0  0  0  0  0
   15.3330    5.8360   12.6270 N   0  0  0  0  0  0
   15.8640    5.7770   13.4950 H   0  0  0  0  0  0
   15.4820    7.0510   11.9380 C   0  0  0  0  0  0
   14.4300    7.9350   11.6860 C   0  0  0  0  0  0
   13.4190    7.7140   12.0180 H   0  0  0  0  0  0
   14.6420    9.1290   10.9820 C   0  0  0  0  0  0
   13.7990    9.7950   10.8040 H   0  0  0  0  0  0
   15.9100    9.4640   10.5090 C   0  0  0  0  0  0
   16.9670    8.5900   10.7440 C   0  0  0  0  0  0
   17.9760    8.7970   10.3960 H   0  0  0  0  0  0
   16.7500    7.3970   11.4480 C   0  0  0  0  0  0
   17.6000    6.7350   11.6130 H   0  0  0  0  0  0
   15.9810   10.6540    9.8400 O   0  0  0  0  0  0
   17.2630   11.0330    9.3400 C   0  0  0  0  0  0
   17.1510   11.9990    8.8390 H   0  0  0  0  0  0
   17.6250   10.3120    8.6000 H   0  0  0  0  0  0
   17.9810   11.1610   10.1570 H   0  0  0  0  0  0
    9.8260    0.5720   12.1900 N   0  0  0  0  0  0
   10.1310   -0.2090   11.6270 H   0  0  0  0  0  0
    8.9020    0.5790   12.5970 H   0  0  0  0  0  0
  1  2  1  0  0  0
  1  6  2  0  0  0
  2  3  2  0  0  0
  2 33  1  0  0  0
  3  4  1  0  0  0
  4  5  2  0  0  0
  4 14  1  0  0  0
  5  6  1  0  0  0
  5 10  1  0  0  0
  6  7  1  0  0  0
  7  8  1  0  0  0
  7  9  1  0  0  0
 10 11  2  0  0  0
 11 12  1  0  0  0
 11 16  1  0  0  0
 12 13  1  0  0  0
 12 14  2  0  0  0
 14 15  1  0  0  0
 16 17  1  0  0  0
 16 18  1  0  0  0
 18 19  1  0  0  0
 18 26  2  0  0  0
 19 20  1  0  0  0
 19 21  2  0  0  0
 21 22  1  0  0  0
 21 23  1  0  0  0
 23 24  2  0  0  0
 23 28  1  0  0  0
 24 25  1  0  0  0
 24 26  1  0  0  0
 26 27  1  0  0  0
 28 29  1  0  0  0
 29 30  1  0  0  0
 29 31  1  0  0  0
 29 32  1  0  0  0
 33 34  1  0  0  0
 33 35  1  0  0  0
M  END
>  <ACTIVITY>
5.42

>  <SET>
1

>  <Min_dist>
999.9

>  <Avg_dist>
999.9

$$$$
22-13
  Cerius2 12110214133D 1   1.00000                          
Structure written by Cerius2 SD Exporter
 31 33  0  0  0  0  0  0  0  0999 V2000
   10.2480    2.6860   13.1180 N   0  0  0  0  0  0
   10.6710    1.6910   12.3410 C   0  0  0  0  0  0
   11.8750    1.6450   11.7710 N   0  0  0  0  0  0
   12.7070    2.6760   12.0000 C   0  0  0  0  0  0
   12.3910    3.7770   12.7950 C   0  0  0  0  0  0
   11.1090    3.7010   13.3430 C   0  0  0  0  0  0
   10.6100    4.7400   14.1200 N   0  0  0  0  0  0
   11.2820    5.2870   14.6510 H   0  0  0  0  0  0
    9.6910    4.6100   14.5260 H   0  0  0  0  0  0
   13.2520    4.8180   13.0190 N   0  0  0  0  0  0
   14.4760    4.7970   12.4550 C   0  0  0  0  0  0
   14.8530    3.7360   11.6430 C   0  0  0  0  0  0
   15.8320    3.7160   11.1710 H   0  0  0  0  0  0
   13.9650    2.6800   11.4250 C   0  0  0  0  0  0
   14.2700    1.8520   10.7900 H   0  0  0  0  0  0
   15.3820    5.8540   12.6380 N   0  0  0  0  0  0
   15.9170    5.7700   13.5010 H   0  0  0  0  0  0
   15.5370    7.0850   11.9770 C   0  0  0  0  0  0
   14.4850    7.9800   11.7480 C   0  0  0  0  0  0
   13.4740    7.7510   12.0750 H   0  0  0  0  0  0
   14.6960    9.1910   11.0760 C   0  0  0  0  0  0
   13.8580    9.8650   10.9140 H   0  0  0  0  0  0
   15.9680    9.5190   10.6200 C   0  0  0  0  0  0
   17.0290    8.6440   10.8270 C   0  0  0  0  0  0
   18.0270    8.8870   10.4720 H   0  0  0  0  0  0
   16.8100    7.4360   11.4980 C   0  0  0  0  0  0
   17.6570    6.7660   11.6480 H   0  0  0  0  0  0
   16.2290   11.0050    9.7940 Cl  0  0  0  0  0  0
    9.8220    0.6550   12.1110 N   0  0  0  0  0  0
   10.1140   -0.1120   11.5250 H   0  0  0  0  0  0
    8.9020    0.6600   12.5270 H   0  0  0  0  0  0
  1  2  1  0  0  0
  1  6  2  0  0  0
  2  3  2  0  0  0
  2 29  1  0  0  0
  3  4  1  0  0  0
  4  5  2  0  0  0
  4 14  1  0  0  0
  5  6  1  0  0  0
  5 10  1  0  0  0
  6  7  1  0  0  0
  7  8  1  0  0  0
  7  9  1  0  0  0
 10 11  2  0  0  0
 11 12  1  0  0  0
 11 16  1  0  0  0
 12 13  1  0  0  0
 12 14  2  0  0  0
 14 15  1  0  0  0
 16 17  1  0  0  0
 16 18  1  0  0  0
 18 19  1  0  0  0
 18 26  2  0  0  0
 19 20  1  0  0  0
 19 21  2  0  0  0
 21 22  1  0  0  0
 21 23  1  0  0  0
 23 24  2  0  0  0
 23 28  1  0  0  0
 24 25  1  0  0  0
 24 26  1  0  0  0
 26 27  1  0  0  0
 29 30  1  0  0  0
 29 31  1  0  0  0
M  END
>  <ACTIVITY>
6.09

>  <SET>
1

>  <Min_dist>
999.9

>  <Avg_dist>
999.9

$$$$
22-14
  Cerius2 12110214133D 1   1.00000                          
Structure written by Cerius2 SD Exporter
 39 41  0  0  0  0  0  0  0  0999 V2000
   10.2680    2.7030   13.1400 N   0  0  0  0  0  0
   10.6810    1.6330   12.4640 C   0  0  0  0  0  0
   11.8850    1.5180   11.9050 N   0  0  0  0  0  0
   12.7290    2.5570   12.0390 C   0  0  0  0  0  0
   12.4250    3.7310   12.7240 C   0  0  0  0  0  0
   11.1400    3.7240   13.2700 C   0  0  0  0  0  0
   10.6520    4.8390   13.9420 N   0  0  0  0  0  0
   11.3270    5.4320   14.4160 H   0  0  0  0  0  0
    9.7290    4.7620   14.3540 H   0  0  0  0  0  0
   13.3020    4.7750   12.8530 N   0  0  0  0  0  0
   14.5320    4.6800   12.3080 C   0  0  0  0  0  0
   14.8930    3.5530   11.5910 C   0  0  0  0  0  0
   15.8490    3.4760   11.0870 H   0  0  0  0  0  0
   13.9870    2.4950   11.4680 C   0  0  0  0  0  0
   14.2790    1.6110   10.9050 H   0  0  0  0  0  0
   15.3530    5.7830   12.4970 N   0  0  0  0  0  0
   16.0890    5.5780   13.1730 H   0  0  0  0  0  0
   15.4860    7.0600   11.9170 C   0  0  0  0  0  0
   14.3980    7.9120   11.6810 C   0  0  0  0  0  0
   13.3830    7.5790   11.8740 H   0  0  0  0  0  0
   14.5720    9.1920   11.1390 C   0  0  0  0  0  0
   15.8550    9.6330   10.8280 C   0  0  0  0  0  0
   16.0400   10.6180   10.4060 H   0  0  0  0  0  0
   16.9570    8.8000   11.0480 C   0  0  0  0  0  0
   17.9380    9.1850   10.7850 H   0  0  0  0  0  0
   16.7820    7.5220   11.5870 C   0  0  0  0  0  0
   17.8020    6.6320   11.8330 O   0  0  0  0  0  0
   19.1260    7.0540   11.5110 C   0  0  0  0  0  0
   19.8060    6.2350   11.7670 H   0  0  0  0  0  0
   19.4160    7.9260   12.1050 H   0  0  0  0  0  0
   19.2270    7.2480   10.4380 H   0  0  0  0  0  0
   13.4150    9.8990   10.9600 O   0  0  0  0  0  0
   13.5400   11.2100   10.4110 C   0  0  0  0  0  0
   12.5350   11.6370   10.3360 H   0  0  0  0  0  0
   13.9630   11.1740    9.4020 H   0  0  0  0  0  0
   14.1300   11.8580   11.0680 H   0  0  0  0  0  0
    9.8190    0.5900   12.3320 N   0  0  0  0  0  0
   10.1030   -0.2350   11.8240 H   0  0  0  0  0  0
    8.8990    0.6450   12.7440 H   0  0  0  0  0  0
  1  2  1  0  0  0
  1  6  2  0  0  0
  2  3  2  0  0  0
  2 37  1  0  0  0
  3  4  1  0  0  0
  4  5  2  0  0  0
  4 14  1  0  0  0
  5  6  1  0  0  0
  5 10  1  0  0  0
  6  7  1  0  0  0
  7  8  1  0  0  0
  7  9  1  0  0  0
 10 11  2  0  0  0
 11 12  1  0  0  0
 11 16  1  0  0  0
 12 13  1  0  0  0
 12 14  2  0  0  0
 14 15  1  0  0  0
 16 17  1  0  0  0
 16 18  1  0  0  0
 18 19  1  0  0  0
 18 26  2  0  0  0
 19 20  1  0  0  0
 19 21  2  0  0  0
 21 22  1  0  0  0
 21 32  1  0  0  0
 22 23  1  0  0  0
 22 24  2  0  0  0
 24 25  1  0  0  0
 24 26  1  0  0  0
 26 27  1  0  0  0
 27 28  1  0  0  0
 28 29  1  0  0  0
 28 30  1  0  0  0
 28 31  1  0  0  0
 32 33  1  0  0  0
 33 34  1  0  0  0
 33 35  1  0  0  0
 33 36  1  0  0  0
 37 38  1  0  0  0
 37 39  1  0  0  0
M  END
>  <ACTIVITY>
5.44

>  <SET>
1

>  <Min_dist>
999.9

>  <Avg_dist>
999.9

$$$$
22-15
  Cerius2 12110214133D 1   1.00000                          
Structure written by Cerius2 SD Exporter
 39 41  0  0  0  0  0  0  0  0999 V2000
   10.2250    2.6850   13.1330 N   0  0  0  0  0  0
   10.6450    1.6290   12.4410 C   0  0  0  0  0  0
   11.8580    1.5200   11.9020 N   0  0  0  0  0  0
   12.7040    2.5500   12.0760 C   0  0  0  0  0  0
   12.3950    3.7130   12.7810 C   0  0  0  0  0  0
   11.1000    3.6980   13.3040 C   0  0  0  0  0  0
   10.6030    4.7970   13.9960 N   0  0  0  0  0  0
   11.2710    5.3620   14.5130 H   0  0  0  0  0  0
    9.6720    4.7070   14.3880 H   0  0  0  0  0  0
   13.2760    4.7500   12.9450 N   0  0  0  0  0  0
   14.5120    4.6560   12.4150 C   0  0  0  0  0  0
   14.8800    3.5370   11.6870 C   0  0  0  0  0  0
   15.8480    3.4630   11.2040 H   0  0  0  0  0  0
   13.9710    2.4890   11.5270 C   0  0  0  0  0  0
   14.2670    1.6140   10.9520 H   0  0  0  0  0  0
   15.3440    5.7540   12.6190 N   0  0  0  0  0  0
   16.0300    5.5560   13.3450 H   0  0  0  0  0  0
   15.5180    6.9820   11.9660 C   0  0  0  0  0  0
   14.4890    7.9110   11.7790 C   0  0  0  0  0  0
   13.4680    7.6780   12.0740 H   0  0  0  0  0  0
   14.7200    9.1480   11.1560 C   0  0  0  0  0  0
   13.8680    9.8110   11.0260 H   0  0  0  0  0  0
   15.9970    9.4890   10.7150 C   0  0  0  0  0  0
   17.0340    8.5710   10.9150 C   0  0  0  0  0  0
   16.7980    7.3290   11.5150 C   0  0  0  0  0  0
   17.6270    6.6350   11.6420 H   0  0  0  0  0  0
   18.3040    8.8410   10.4660 O   0  0  0  0  0  0
   19.1770    7.7520   10.7910 C   0  0  0  0  0  0
   20.1830    8.0180   10.4530 H   0  0  0  0  0  0
   18.8730    6.8380   10.2690 H   0  0  0  0  0  0
   19.2170    7.5820   11.8720 H   0  0  0  0  0  0
   16.3310   10.6610   10.0900 O   0  0  0  0  0  0
   17.6960   10.8270    9.7130 C   0  0  0  0  0  0
   17.7840   11.7870    9.1960 H   0  0  0  0  0  0
   18.0110   10.0440    9.0160 H   0  0  0  0  0  0
   18.3430   10.8600   10.5950 H   0  0  0  0  0  0
    9.7830    0.5920   12.2720 N   0  0  0  0  0  0
   10.0730   -0.2210   11.7480 H   0  0  0  0  0  0
    8.8520    0.6470   12.6590 H   0  0  0  0  0  0
  1  2  1  0  0  0
  1  6  2  0  0  0
  2  3  2  0  0  0
  2 37  1  0  0  0
  3  4  1  0  0  0
  4  5  2  0  0  0
  4 14  1  0  0  0
  5  6  1  0  0  0
  5 10  1  0  0  0
  6  7  1  0  0  0
  7  8  1  0  0  0
  7  9  1  0  0  0
 10 11  2  0  0  0
 11 12  1  0  0  0
 11 16  1  0  0  0
 12 13  1  0  0  0
 12 14  2  0  0  0
 14 15  1  0  0  0
 16 17  1  0  0  0
 16 18  1  0  0  0
 18 19  1  0  0  0
 18 25  2  0  0  0
 19 20  1  0  0  0
 19 21  2  0  0  0
 21 22  1  0  0  0
 21 23  1  0  0  0
 23 24  2  0  0  0
 23 32  1  0  0  0
 24 25  1  0  0  0
 24 27  1  0  0  0
 25 26  1  0  0  0
 27 28  1  0  0  0
 28 29  1  0  0  0
 28 30  1  0  0  0
 28 31  1  0  0  0
 32 33  1  0  0  0
 33 34  1  0  0  0
 33 35  1  0  0  0
 33 36  1  0  0  0
 37 38  1  0  0  0
 37 39  1  0  0  0
M  END
>  <ACTIVITY>
5.96

>  <SET>
1

>  <Min_dist>
999.9

>  <Avg_dist>
999.9

$$$$
22-16
  Cerius2 12110214133D 1   1.00000                          
Structure written by Cerius2 SD Exporter
 43 45  0  0  0  0  0  0  0  0999 V2000
   10.2430    2.6030   13.1740 N   0  0  0  0  0  0
   10.6830    1.5650   12.4640 C   0  0  0  0  0  0
   11.8910    1.4970   11.9060 N   0  0  0  0  0  0
   12.7100    2.5510   12.0750 C   0  0  0  0  0  0
   12.3760    3.6960   12.7970 C   0  0  0  0  0  0
   11.0910    3.6390   13.3400 C   0  0  0  0  0  0
   10.5750    4.7200   14.0460 N   0  0  0  0  0  0
   11.2370    5.3070   14.5470 H   0  0  0  0  0  0
    9.6530    4.6060   14.4530 H   0  0  0  0  0  0
   13.2240    4.7580   12.9610 N   0  0  0  0  0  0
   14.4510    4.7150   12.4080 C   0  0  0  0  0  0
   14.8470    3.6100   11.6660 C   0  0  0  0  0  0
   15.8290    3.5720   11.2030 H   0  0  0  0  0  0
   13.9720    2.5330   11.5090 C   0  0  0  0  0  0
   14.2910    1.6700   10.9290 H   0  0  0  0  0  0
   15.3450    5.7930   12.5310 N   0  0  0  0  0  0
   15.9420    5.7160   13.3530 H   0  0  0  0  0  0
   15.4190    7.0320   11.8700 C   0  0  0  0  0  0
   14.3270    7.8920   11.7120 C   0  0  0  0  0  0
   13.3480    7.6280   12.1020 H   0  0  0  0  0  0
   14.4680    9.1090   11.0370 C   0  0  0  0  0  0
   15.7090    9.5100   10.5360 C   0  0  0  0  0  0
   16.7960    8.6390   10.6310 C   0  0  0  0  0  0
   16.6510    7.4240   11.3140 C   0  0  0  0  0  0
   17.5180    6.7720   11.4080 H   0  0  0  0  0  0
   18.0550    8.9030   10.1580 O   0  0  0  0  0  0
   18.9870    7.8420   10.3840 C   0  0  0  0  0  0
   19.9810    8.2900   10.4800 H   0  0  0  0  0  0
   19.0090    7.1690    9.5220 H   0  0  0  0  0  0
   18.7780    7.2890   11.3060 H   0  0  0  0  0  0
   15.8260   10.7330    9.9280 O   0  0  0  0  0  0
   17.1770   10.9320    9.4950 C   0  0  0  0  0  0
   17.2320   11.9160    9.0200 H   0  0  0  0  0  0
   17.4690   10.1800    8.7540 H   0  0  0  0  0  0
   17.8720   10.9240   10.3410 H   0  0  0  0  0  0
   13.3760    9.9370   10.9500 O   0  0  0  0  0  0
   13.7240   11.1230   10.2270 C   0  0  0  0  0  0
   12.8320   11.7550   10.1750 H   0  0  0  0  0  0
   14.0320   10.8840    9.2030 H   0  0  0  0  0  0
   14.5100   11.6850   10.7420 H   0  0  0  0  0  0
    9.8470    0.5070   12.2950 N   0  0  0  0  0  0
   10.1520   -0.2930   11.7600 H   0  0  0  0  0  0
    8.9240    0.5280   12.7030 H   0  0  0  0  0  0
  1  2  1  0  0  0
  1  6  2  0  0  0
  2  3  2  0  0  0
  2 41  1  0  0  0
  3  4  1  0  0  0
  4  5  2  0  0  0
  4 14  1  0  0  0
  5  6  1  0  0  0
  5 10  1  0  0  0
  6  7  1  0  0  0
  7  8  1  0  0  0
  7  9  1  0  0  0
 10 11  2  0  0  0
 11 12  1  0  0  0
 11 16  1  0  0  0
 12 13  1  0  0  0
 12 14  2  0  0  0
 14 15  1  0  0  0
 16 17  1  0  0  0
 16 18  1  0  0  0
 18 19  1  0  0  0
 18 24  2  0  0  0
 19 20  1  0  0  0
 19 21  2  0  0  0
 21 22  1  0  0  0
 21 36  1  0  0  0
 22 23  2  0  0  0
 22 31  1  0  0  0
 23 24  1  0  0  0
 23 26  1  0  0  0
 24 25  1  0  0  0
 26 27  1  0  0  0
 27 28  1  0  0  0
 27 29  1  0  0  0
 27 30  1  0  0  0
 31 32  1  0  0  0
 32 33  1  0  0  0
 32 34  1  0  0  0
 32 35  1  0  0  0
 36 37  1  0  0  0
 37 38  1  0  0  0
 37 39  1  0  0  0
 37 40  1  0  0  0
 41 42  1  0  0  0
 41 43  1  0  0  0
M  END
>  <ACTIVITY>
5.49

>  <SET>
1

>  <Min_dist>
999.9

>  <Avg_dist>
999.9

$$$$
22-17
  Cerius2 12110214133D 1   1.00000                          
Structure written by Cerius2 SD Exporter
 37 40  0  0  0  0  0  0  0  0999 V2000
   10.2470    2.6840   13.1180 N   0  0  0  0  0  0
   10.6710    1.6890   12.3420 C   0  0  0  0  0  0
   11.8740    1.6430   11.7720 N   0  0  0  0  0  0
   12.7060    2.6740   12.0010 C   0  0  0  0  0  0
   12.3900    3.7760   12.7950 C   0  0  0  0  0  0
   11.1070    3.6990   13.3420 C   0  0  0  0  0  0
   10.6080    4.7390   14.1190 N   0  0  0  0  0  0
   11.2790    5.2870   14.6490 H   0  0  0  0  0  0
    9.6880    4.6090   14.5240 H   0  0  0  0  0  0
   13.2510    4.8160   13.0190 N   0  0  0  0  0  0
   14.4740    4.7950   12.4550 C   0  0  0  0  0  0
   14.8520    3.7340   11.6430 C   0  0  0  0  0  0
   15.8300    3.7140   11.1710 H   0  0  0  0  0  0
   13.9630    2.6790   11.4260 C   0  0  0  0  0  0
   14.2690    1.8500   10.7910 H   0  0  0  0  0  0
   15.3810    5.8530   12.6380 N   0  0  0  0  0  0
   15.9150    5.7670   13.5020 H   0  0  0  0  0  0
   15.5360    7.0840   11.9780 C   0  0  0  0  0  0
   14.4860    7.9780   11.7510 C   0  0  0  0  0  0
   13.4750    7.7490   12.0790 H   0  0  0  0  0  0
   14.6970    9.1890   11.0800 C   0  0  0  0  0  0
   13.8490    9.8560   10.9250 H   0  0  0  0  0  0
   15.9700    9.5390   10.6110 C   0  0  0  0  0  0
   17.0440    8.6490   10.8220 C   0  0  0  0  0  0
   16.8090    7.4360   11.4980 C   0  0  0  0  0  0
   17.6440    6.7530   11.6570 H   0  0  0  0  0  0
   18.3220    8.9950   10.3510 C   0  0  0  0  0  0
   19.1660    8.3220   10.5030 H   0  0  0  0  0  0
   18.5350   10.2020    9.6830 C   0  0  0  0  0  0
   19.5310   10.4570    9.3240 H   0  0  0  0  0  0
   17.4740   11.0790    9.4770 C   0  0  0  0  0  0
   17.6380   12.0210    8.9560 H   0  0  0  0  0  0
   16.1980   10.7500    9.9380 C   0  0  0  0  0  0
   15.3800   11.4490    9.7660 H   0  0  0  0  0  0
    9.8210    0.6530   12.1130 N   0  0  0  0  0  0
   10.1140   -0.1160   11.5280 H   0  0  0  0  0  0
    8.9010    0.6580   12.5290 H   0  0  0  0  0  0
  1  2  1  0  0  0
  1  6  2  0  0  0
  2  3  2  0  0  0
  2 35  1  0  0  0
  3  4  1  0  0  0
  4  5  2  0  0  0
  4 14  1  0  0  0
  5  6  1  0  0  0
  5 10  1  0  0  0
  6  7  1  0  0  0
  7  8  1  0  0  0
  7  9  1  0  0  0
 10 11  2  0  0  0
 11 12  1  0  0  0
 11 16  1  0  0  0
 12 13  1  0  0  0
 12 14  2  0  0  0
 14 15  1  0  0  0
 16 17  1  0  0  0
 16 18  1  0  0  0
 18 19  1  0  0  0
 18 25  2  0  0  0
 19 20  1  0  0  0
 19 21  2  0  0  0
 21 22  1  0  0  0
 21 23  1  0  0  0
 23 24  2  0  0  0
 23 33  1  0  0  0
 24 25  1  0  0  0
 24 27  1  0  0  0
 25 26  1  0  0  0
 27 28  1  0  0  0
 27 29  2  0  0  0
 29 30  1  0  0  0
 29 31  1  0  0  0
 31 32  1  0  0  0
 31 33  2  0  0  0
 33 34  1  0  0  0
 35 36  1  0  0  0
 35 37  1  0  0  0
M  END
>  <ACTIVITY>
5.7

>  <SET>
2

>  <Min_dist>
0.04

>  <Avg_dist>
0.55

$$$$
22-18
  Cerius2 12110214133D 1   1.00000                          
Structure written by Cerius2 SD Exporter
 34 36  0  0  0  0  0  0  0  0999 V2000
   10.2590    2.7520   13.0820 N   0  0  0  0  0  0
   10.6650    1.7720   12.2770 C   0  0  0  0  0  0
   11.8710    1.7150   11.7150 N   0  0  0  0  0  0
   12.7260    2.7180   11.9840 C   0  0  0  0  0  0
   12.4300    3.8000   12.8100 C   0  0  0  0  0  0
   11.1410    3.7380   13.3450 C   0  0  0  0  0  0
   10.6610    4.7640   14.1490 N   0  0  0  0  0  0
   11.3400    5.2900   14.6910 H   0  0  0  0  0  0
    9.7350    4.6470   14.5450 H   0  0  0  0  0  0
   13.3160    4.8110   13.0750 N   0  0  0  0  0  0
   14.5500    4.7820   12.5240 C   0  0  0  0  0  0
   14.9010    3.7370   11.6770 C   0  0  0  0  0  0
   15.8690    3.7110   11.1840 H   0  0  0  0  0  0
   13.9870    2.7120   11.4180 C   0  0  0  0  0  0
   14.2750    1.9010   10.7520 H   0  0  0  0  0  0
   15.4520    5.8340   12.7980 N   0  0  0  0  0  0
   15.5860    7.0310   12.0520 C   0  0  0  0  0  0
   14.4630    7.8320   11.7700 C   0  0  0  0  0  0
   13.4750    7.5410   12.1240 H   0  0  0  0  0  0
   14.5590    9.0100   11.0180 C   0  0  0  0  0  0
   13.6670    9.6020   10.8220 H   0  0  0  0  0  0
   15.7900    9.4190   10.5220 C   0  0  0  0  0  0
   15.8700   10.3340    9.9380 H   0  0  0  0  0  0
   16.9190    8.6490   10.7760 C   0  0  0  0  0  0
   17.8880    8.9610   10.3900 H   0  0  0  0  0  0
   16.8160    7.4710   11.5270 C   0  0  0  0  0  0
   17.7360    6.9170   11.6970 H   0  0  0  0  0  0
   16.0690    5.7890   14.1340 C   0  0  0  0  0  0
   15.5360    6.4560   14.8210 H   0  0  0  0  0  0
   17.1230    6.0870   14.0850 H   0  0  0  0  0  0
   16.0560    4.7960   14.5960 H   0  0  0  0  0  0
    9.7930    0.7640   12.0080 N   0  0  0  0  0  0
   10.0720    0.0070   11.4010 H   0  0  0  0  0  0
    8.8710    0.7770   12.4180 H   0  0  0  0  0  0
  1  2  1  0  0  0
  1  6  2  0  0  0
  2  3  2  0  0  0
  2 32  1  0  0  0
  3  4  1  0  0  0
  4  5  2  0  0  0
  4 14  1  0  0  0
  5  6  1  0  0  0
  5 10  1  0  0  0
  6  7  1  0  0  0
  7  8  1  0  0  0
  7  9  1  0  0  0
 10 11  2  0  0  0
 11 12  1  0  0  0
 11 16  1  0  0  0
 12 13  1  0  0  0
 12 14  2  0  0  0
 14 15  1  0  0  0
 16 17  1  0  0  0
 16 28  1  0  0  0
 17 18  1  0  0  0
 17 26  2  0  0  0
 18 19  1  0  0  0
 18 20  2  0  0  0
 20 21  1  0  0  0
 20 22  1  0  0  0
 22 23  1  0  0  0
 22 24  2  0  0  0
 24 25  1  0  0  0
 24 26  1  0  0  0
 26 27  1  0  0  0
 28 29  1  0  0  0
 28 30  1  0  0  0
 28 31  1  0  0  0
 32 33  1  0  0  0
 32 34  1  0  0  0
M  END
>  <ACTIVITY>
8.89

>  <SET>
1

>  <Min_dist>
999.9

>  <Avg_dist>
999.9

$$$$
22-19
  Cerius2 12110214133D 1   1.00000                          
Structure written by Cerius2 SD Exporter
 38 40  0  0  0  0  0  0  0  0999 V2000
   10.2360    2.7180   13.0960 N   0  0  0  0  0  0
   10.6530    1.7240   12.3140 C   0  0  0  0  0  0
   11.8650    1.6610   11.7650 N   0  0  0  0  0  0
   12.7140    2.6720   12.0240 C   0  0  0  0  0  0
   12.4060    3.7690   12.8260 C   0  0  0  0  0  0
   11.1120    3.7120   13.3490 C   0  0  0  0  0  0
   10.6200    4.7520   14.1290 N   0  0  0  0  0  0
   11.2930    5.2890   14.6700 H   0  0  0  0  0  0
    9.6910    4.6380   14.5180 H   0  0  0  0  0  0
   13.2860    4.7880   13.0790 N   0  0  0  0  0  0
   14.5240    4.7540   12.5410 C   0  0  0  0  0  0
   14.8880    3.6940   11.7170 C   0  0  0  0  0  0
   15.8610    3.6620   11.2350 H   0  0  0  0  0  0
   13.9800    2.6600   11.4700 C   0  0  0  0  0  0
   14.2770    1.8380   10.8220 H   0  0  0  0  0  0
   15.4200    5.8140   12.8030 N   0  0  0  0  0  0
   15.5580    6.9950   12.0340 C   0  0  0  0  0  0
   14.4380    7.7840   11.7170 C   0  0  0  0  0  0
   13.4450    7.4990   12.0600 H   0  0  0  0  0  0
   14.5450    8.9480   10.9430 C   0  0  0  0  0  0
   13.6480    9.5250   10.7250 H   0  0  0  0  0  0
   15.7800    9.3630   10.4510 C   0  0  0  0  0  0
   16.9040    8.6000   10.7420 C   0  0  0  0  0  0
   17.8940    8.8730   10.3860 H   0  0  0  0  0  0
   16.7910    7.4340   11.5190 C   0  0  0  0  0  0
   17.7120    6.8880   11.7140 H   0  0  0  0  0  0
   15.7520   10.5110    9.7110 O   0  0  0  0  0  0
   17.0000   10.9680    9.1900 C   0  0  0  0  0  0
   16.8080   11.8870    8.6280 H   0  0  0  0  0  0
   17.4290   10.2360    8.4980 H   0  0  0  0  0  0
   17.6980   11.2100    9.9980 H   0  0  0  0  0  0
   16.0280    5.7940   14.1430 C   0  0  0  0  0  0
   15.4980    6.4840   14.8110 H   0  0  0  0  0  0
   17.0850    6.0790   14.0950 H   0  0  0  0  0  0
   16.0000    4.8130   14.6290 H   0  0  0  0  0  0
    9.7870    0.7090   12.0560 N   0  0  0  0  0  0
   10.0740   -0.0570   11.4640 H   0  0  0  0  0  0
    8.8590    0.7280   12.4530 H   0  0  0  0  0  0
  1  2  1  0  0  0
  1  6  2  0  0  0
  2  3  2  0  0  0
  2 36  1  0  0  0
  3  4  1  0  0  0
  4  5  2  0  0  0
  4 14  1  0  0  0
  5  6  1  0  0  0
  5 10  1  0  0  0
  6  7  1  0  0  0
  7  8  1  0  0  0
  7  9  1  0  0  0
 10 11  2  0  0  0
 11 12  1  0  0  0
 11 16  1  0  0  0
 12 13  1  0  0  0
 12 14  2  0  0  0
 14 15  1  0  0  0
 16 17  1  0  0  0
 16 32  1  0  0  0
 17 18  1  0  0  0
 17 25  2  0  0  0
 18 19  1  0  0  0
 18 20  2  0  0  0
 20 21  1  0  0  0
 20 22  1  0  0  0
 22 23  2  0  0  0
 22 27  1  0  0  0
 23 24  1  0  0  0
 23 25  1  0  0  0
 25 26  1  0  0  0
 27 28  1  0  0  0
 28 29  1  0  0  0
 28 30  1  0  0  0
 28 31  1  0  0  0
 32 33  1  0  0  0
 32 34  1  0  0  0
 32 35  1  0  0  0
 36 37  1  0  0  0
 36 38  1  0  0  0
M  END
>  <ACTIVITY>
8.17

>  <SET>
2

>  <Min_dist>
0.1

>  <Avg_dist>
0.54

$$$$
22-20
  Cerius2 12110214133D 1   1.00000                          
Structure written by Cerius2 SD Exporter
 42 44  0  0  0  0  0  0  0  0999 V2000
   10.2630    2.7620   13.0880 N   0  0  0  0  0  0
   10.6510    1.7600   12.3010 C   0  0  0  0  0  0
   11.8580    1.6690   11.7440 N   0  0  0  0  0  0
   12.7310    2.6620   11.9960 C   0  0  0  0  0  0
   12.4520    3.7630   12.7990 C   0  0  0  0  0  0
   11.1630    3.7350   13.3340 C   0  0  0  0  0  0
   10.7020    4.7870   14.1180 N   0  0  0  0  0  0
   11.3930    5.3110   14.6470 H   0  0  0  0  0  0
    9.7760    4.6910   14.5190 H   0  0  0  0  0  0
   13.3520    4.7620   13.0440 N   0  0  0  0  0  0
   14.5840    4.7290   12.4860 C   0  0  0  0  0  0
   14.9240    3.6490   11.6790 C   0  0  0  0  0  0
   15.9040    3.5580   11.2220 H   0  0  0  0  0  0
   13.9960    2.6270   11.4420 C   0  0  0  0  0  0
   14.2840    1.7900   10.8100 H   0  0  0  0  0  0
   15.4720    5.7760   12.7730 N   0  0  0  0  0  0
   15.5740    6.9890   12.0430 C   0  0  0  0  0  0
   14.4090    7.7340   11.7730 C   0  0  0  0  0  0
   13.4470    7.3690   12.1300 H   0  0  0  0  0  0
   14.4530    8.9320   11.0520 C   0  0  0  0  0  0
   15.6780    9.3950   10.5820 C   0  0  0  0  0  0
   15.7640   10.3160   10.0110 H   0  0  0  0  0  0
   16.8510    8.6790   10.8460 C   0  0  0  0  0  0
   17.7820    9.0850   10.4600 H   0  0  0  0  0  0
   16.8140    7.4910   11.5860 C   0  0  0  0  0  0
   17.9330    6.7690   11.9250 O   0  0  0  0  0  0
   19.1910    7.2780   11.4870 C   0  0  0  0  0  0
   19.9740    6.6900   11.9740 H   0  0  0  0  0  0
   19.3280    8.3240   11.7840 H   0  0  0  0  0  0
   19.3030    7.1540   10.4060 H   0  0  0  0  0  0
   13.2420    9.5440   10.8760 O   0  0  0  0  0  0
   13.2430   10.7700   10.1450 C   0  0  0  0  0  0
   12.2160   11.1450   10.1230 H   0  0  0  0  0  0
   13.5630   10.6080    9.1100 H   0  0  0  0  0  0
   13.8620   11.5250   10.6390 H   0  0  0  0  0  0
   16.3670    5.6770   13.9330 C   0  0  0  0  0  0
   15.8010    5.7330   14.8690 H   0  0  0  0  0  0
   17.1250    6.4710   13.9470 H   0  0  0  0  0  0
   16.9290    4.7350   13.9090 H   0  0  0  0  0  0
    9.7570    0.7690   12.0480 N   0  0  0  0  0  0
   10.0190   -0.0070   11.4570 H   0  0  0  0  0  0
    8.8330    0.8150   12.4520 H   0  0  0  0  0  0
  1  2  1  0  0  0
  1  6  2  0  0  0
  2  3  2  0  0  0
  2 40  1  0  0  0
  3  4  1  0  0  0
  4  5  2  0  0  0
  4 14  1  0  0  0
  5  6  1  0  0  0
  5 10  1  0  0  0
  6  7  1  0  0  0
  7  8  1  0  0  0
  7  9  1  0  0  0
 10 11  2  0  0  0
 11 12  1  0  0  0
 11 16  1  0  0  0
 12 13  1  0  0  0
 12 14  2  0  0  0
 14 15  1  0  0  0
 16 17  1  0  0  0
 16 36  1  0  0  0
 17 18  1  0  0  0
 17 25  2  0  0  0
 18 19  1  0  0  0
 18 20  2  0  0  0
 20 21  1  0  0  0
 20 31  1  0  0  0
 21 22  1  0  0  0
 21 23  2  0  0  0
 23 24  1  0  0  0
 23 25  1  0  0  0
 25 26  1  0  0  0
 26 27  1  0  0  0
 27 28  1  0  0  0
 27 29  1  0  0  0
 27 30  1  0  0  0
 31 32  1  0  0  0
 32 33  1  0  0  0
 32 34  1  0  0  0
 32 35  1  0  0  0
 36 37  1  0  0  0
 36 38  1  0  0  0
 36 39  1  0  0  0
 40 41  1  0  0  0
 40 42  1  0  0  0
M  END
>  <ACTIVITY>
8.38

>  <SET>
2

>  <Min_dist>
0.08

>  <Avg_dist>
0.56

$$$$
22-21
  Cerius2 12110214133D 1   1.00000                          
Structure written by Cerius2 SD Exporter
 42 44  0  0  0  0  0  0  0  0999 V2000
   10.2280    2.6750   13.1280 N   0  0  0  0  0  0
   10.6450    1.6420   12.3980 C   0  0  0  0  0  0
   11.8570    1.5510   11.8520 N   0  0  0  0  0  0
   12.7050    2.5740   12.0580 C   0  0  0  0  0  0
   12.3980    3.7090   12.8030 C   0  0  0  0  0  0
   11.1050    3.6790   13.3300 C   0  0  0  0  0  0
   10.6150    4.7570   14.0590 N   0  0  0  0  0  0
   11.2870    5.3060   14.5880 H   0  0  0  0  0  0
    9.6850    4.6600   14.4500 H   0  0  0  0  0  0
   13.2770    4.7410   13.0020 N   0  0  0  0  0  0
   14.5200    4.6840   12.4720 C   0  0  0  0  0  0
   14.8790    3.5830   11.7030 C   0  0  0  0  0  0
   15.8510    3.5170   11.2240 H   0  0  0  0  0  0
   13.9710    2.5370   11.5060 C   0  0  0  0  0  0
   14.2710    1.6840   10.9010 H   0  0  0  0  0  0
   15.4090    5.7600   12.6840 N   0  0  0  0  0  0
   15.5040    6.9770   11.9810 C   0  0  0  0  0  0
   14.3750    7.7880   11.7830 C   0  0  0  0  0  0
   13.4000    7.4680   12.1530 H   0  0  0  0  0  0
   14.4520    9.0090   11.0950 C   0  0  0  0  0  0
   13.5350    9.5830   10.9850 H   0  0  0  0  0  0
   15.6680    9.4490   10.5790 C   0  0  0  0  0  0
   16.7950    8.6340   10.7480 C   0  0  0  0  0  0
   16.7210    7.4260   11.4510 C   0  0  0  0  0  0
   17.6320    6.8500   11.6000 H   0  0  0  0  0  0
   18.0200    9.0490   10.2840 O   0  0  0  0  0  0
   19.0100    8.0540   10.5710 C   0  0  0  0  0  0
   19.9490    8.3760   10.1120 H   0  0  0  0  0  0
   18.7370    7.0830   10.1430 H   0  0  0  0  0  0
   19.1720    7.9650   11.6510 H   0  0  0  0  0  0
   15.8630   10.6240    9.9030 O   0  0  0  0  0  0
   17.1880   10.8980    9.4500 C   0  0  0  0  0  0
   17.1660   11.8550    8.9190 H   0  0  0  0  0  0
   17.5300   10.1330    8.7460 H   0  0  0  0  0  0
   17.8780   11.0010   10.2940 H   0  0  0  0  0  0
   16.3240    5.5850   13.8210 C   0  0  0  0  0  0
   17.1160    6.3440   13.8450 H   0  0  0  0  0  0
   16.8470    4.6220   13.7720 H   0  0  0  0  0  0
   15.7730    5.6440   14.7660 H   0  0  0  0  0  0
    9.7780    0.6150   12.1910 N   0  0  0  0  0  0
   10.0650   -0.1790   11.6380 H   0  0  0  0  0  0
    8.8500    0.6550   12.5860 H   0  0  0  0  0  0
  1  2  1  0  0  0
  1  6  2  0  0  0
  2  3  2  0  0  0
  2 40  1  0  0  0
  3  4  1  0  0  0
  4  5  2  0  0  0
  4 14  1  0  0  0
  5  6  1  0  0  0
  5 10  1  0  0  0
  6  7  1  0  0  0
  7  8  1  0  0  0
  7  9  1  0  0  0
 10 11  2  0  0  0
 11 12  1  0  0  0
 11 16  1  0  0  0
 12 13  1  0  0  0
 12 14  2  0  0  0
 14 15  1  0  0  0
 16 17  1  0  0  0
 16 36  1  0  0  0
 17 18  1  0  0  0
 17 24  2  0  0  0
 18 19  1  0  0  0
 18 20  2  0  0  0
 20 21  1  0  0  0
 20 22  1  0  0  0
 22 23  2  0  0  0
 22 31  1  0  0  0
 23 24  1  0  0  0
 23 26  1  0  0  0
 24 25  1  0  0  0
 26 27  1  0  0  0
 27 28  1  0  0  0
 27 29  1  0  0  0
 27 30  1  0  0  0
 31 32  1  0  0  0
 32 33  1  0  0  0
 32 34  1  0  0  0
 32 35  1  0  0  0
 36 37  1  0  0  0
 36 38  1  0  0  0
 36 39  1  0  0  0
 40 41  1  0  0  0
 40 42  1  0  0  0
M  END
>  <ACTIVITY>
9.4

>  <SET>
2

>  <Min_dist>
0.03

>  <Avg_dist>
0.54

$$$$
22-22
  Cerius2 12110214133D 1   1.00000                          
Structure written by Cerius2 SD Exporter
 46 48  0  0  0  0  0  0  0  0999 V2000
   10.2490    2.7090   13.1160 N   0  0  0  0  0  0
   10.6610    1.6900   12.3650 C   0  0  0  0  0  0
   11.8720    1.6030   11.8180 N   0  0  0  0  0  0
   12.7260    2.6180   12.0440 C   0  0  0  0  0  0
   12.4240    3.7400   12.8130 C   0  0  0  0  0  0
   11.1310    3.7060   13.3380 C   0  0  0  0  0  0
   10.6450    4.7710   14.0870 N   0  0  0  0  0  0
   11.3210    5.3170   14.6140 H   0  0  0  0  0  0
    9.7150    4.6730   14.4790 H   0  0  0  0  0  0
   13.3090    4.7610   13.0350 N   0  0  0  0  0  0
   14.5480    4.7040   12.4980 C   0  0  0  0  0  0
   14.9060    3.6180   11.7070 C   0  0  0  0  0  0
   15.8770    3.5670   11.2240 H   0  0  0  0  0  0
   13.9920    2.5830   11.4910 C   0  0  0  0  0  0
   14.2850    1.7400   10.8680 H   0  0  0  0  0  0
   15.4460    5.7690   12.7300 N   0  0  0  0  0  0
   15.5140    6.9700   11.9790 C   0  0  0  0  0  0
   14.3550    7.7410   11.7610 C   0  0  0  0  0  0
   13.3980    7.4220   12.1670 H   0  0  0  0  0  0
   14.3920    8.9230   11.0150 C   0  0  0  0  0  0
   15.5960    9.3950   10.4910 C   0  0  0  0  0  0
   16.7490    8.6240   10.6400 C   0  0  0  0  0  0
   16.7060    7.4410   11.3950 C   0  0  0  0  0  0
   17.6410    6.9000   11.5200 H   0  0  0  0  0  0
   17.9830    8.9690   10.1520 O   0  0  0  0  0  0
   18.9990    8.0040   10.4420 C   0  0  0  0  0  0
   19.9510    8.5380   10.5130 H   0  0  0  0  0  0
   19.0820    7.2850    9.6220 H   0  0  0  0  0  0
   18.8310    7.4900   11.3950 H   0  0  0  0  0  0
   15.6160   10.5850    9.8110 O   0  0  0  0  0  0
   16.9480   10.8680    9.3670 C   0  0  0  0  0  0
   16.9240   11.8210    8.8300 H   0  0  0  0  0  0
   17.3060   10.0980    8.6760 H   0  0  0  0  0  0
   17.6350   10.9720   10.2140 H   0  0  0  0  0  0
   13.2340    9.6460   10.8800 O   0  0  0  0  0  0
   13.4790   10.8130   10.0870 C   0  0  0  0  0  0
   12.5360   11.3610   10.0010 H   0  0  0  0  0  0
   13.8070   10.5410    9.0780 H   0  0  0  0  0  0
   14.2130   11.4720   10.5630 H   0  0  0  0  0  0
   16.1120    5.7440   14.0430 C   0  0  0  0  0  0
   15.5630    6.3670   14.7590 H   0  0  0  0  0  0
   17.1430    6.1090   13.9640 H   0  0  0  0  0  0
   16.1820    4.7460   14.4870 H   0  0  0  0  0  0
    9.7890    0.6710   12.1390 N   0  0  0  0  0  0
   10.0730   -0.1160   11.5750 H   0  0  0  0  0  0
    8.8640    0.7050   12.5410 H   0  0  0  0  0  0
  1  2  1  0  0  0
  1  6  2  0  0  0
  2  3  2  0  0  0
  2 44  1  0  0  0
  3  4  1  0  0  0
  4  5  2  0  0  0
  4 14  1  0  0  0
  5  6  1  0  0  0
  5 10  1  0  0  0
  6  7  1  0  0  0
  7  8  1  0  0  0
  7  9  1  0  0  0
 10 11  2  0  0  0
 11 12  1  0  0  0
 11 16  1  0  0  0
 12 13  1  0  0  0
 12 14  2  0  0  0
 14 15  1  0  0  0
 16 17  1  0  0  0
 16 40  1  0  0  0
 17 18  1  0  0  0
 17 23  2  0  0  0
 18 19  1  0  0  0
 18 20  2  0  0  0
 20 21  1  0  0  0
 20 35  1  0  0  0
 21 22  2  0  0  0
 21 30  1  0  0  0
 22 23  1  0  0  0
 22 25  1  0  0  0
 23 24  1  0  0  0
 25 26  1  0  0  0
 26 27  1  0  0  0
 26 28  1  0  0  0
 26 29  1  0  0  0
 30 31  1  0  0  0
 31 32  1  0  0  0
 31 33  1  0  0  0
 31 34  1  0  0  0
 35 36  1  0  0  0
 36 37  1  0  0  0
 36 38  1  0  0  0
 36 39  1  0  0  0
 40 41  1  0  0  0
 40 42  1  0  0  0
 40 43  1  0  0  0
 44 45  1  0  0  0
 44 46  1  0  0  0
M  END
>  <ACTIVITY>
8.43

>  <SET>
1

>  <Min_dist>
999.9

>  <Avg_dist>
999.9

$$$$
22-23
  Cerius2 12110214133D 1   1.00000                          
Structure written by Cerius2 SD Exporter
 40 43  0  0  0  0  0  0  0  0999 V2000
   10.2610    2.7730   13.0670 N   0  0  0  0  0  0
   10.6640    1.7890   12.2660 C   0  0  0  0  0  0
   11.8720    1.7260   11.7070 N   0  0  0  0  0  0
   12.7310    2.7250   11.9790 C   0  0  0  0  0  0
   12.4370    3.8120   12.7970 C   0  0  0  0  0  0
   11.1390    3.7680   13.3110 C   0  0  0  0  0  0
   10.6940    4.7500   14.1880 N   0  0  0  0  0  0
   11.1070    5.6750   14.1000 H   0  0  0  0  0  0
    9.7300    4.6940   14.4950 H   0  0  0  0  0  0
   13.3260    4.8190   13.0570 N   0  0  0  0  0  0
   14.5640    4.7960   12.5100 C   0  0  0  0  0  0
   14.9180    3.7310   11.6900 C   0  0  0  0  0  0
   15.8990    3.6580   11.2310 H   0  0  0  0  0  0
   13.9990    2.7080   11.4310 C   0  0  0  0  0  0
   14.2940    1.8840   10.7840 H   0  0  0  0  0  0
   15.4450    5.8440   12.8170 N   0  0  0  0  0  0
   15.5850    7.0400   12.0630 C   0  0  0  0  0  0
   14.4400    7.8120   11.7980 C   0  0  0  0  0  0
   13.4720    7.5010   12.1880 H   0  0  0  0  0  0
   14.5170    8.9680   11.0270 C   0  0  0  0  0  0
   13.6200    9.5510   10.8260 H   0  0  0  0  0  0
   15.7440    9.3730   10.5080 C   0  0  0  0  0  0
   15.7820   10.2800    9.9040 H   0  0  0  0  0  0
   16.9110    8.6370   10.7600 C   0  0  0  0  0  0
   16.8490    7.4590   11.5490 C   0  0  0  0  0  0
   18.0610    6.7720   11.7970 C   0  0  0  0  0  0
   18.0680    5.8780   12.4180 H   0  0  0  0  0  0
   19.2770    7.2140   11.2710 C   0  0  0  0  0  0
   20.1920    6.6620   11.4790 H   0  0  0  0  0  0
   19.3170    8.3600   10.4890 C   0  0  0  0  0  0
   20.2620    8.7090   10.0770 H   0  0  0  0  0  0
   18.1420    9.0680   10.2370 C   0  0  0  0  0  0
   18.1970    9.9690    9.6270 H   0  0  0  0  0  0
   16.5260    5.6310   13.7870 C   0  0  0  0  0  0
   17.1330    6.5310   13.9500 H   0  0  0  0  0  0
   17.2080    4.8480   13.4360 H   0  0  0  0  0  0
   16.1220    5.3470   14.7640 H   0  0  0  0  0  0
    9.7900    0.7820   12.0010 N   0  0  0  0  0  0
   10.0690    0.0220   11.3990 H   0  0  0  0  0  0
    8.8680    0.7990   12.4100 H   0  0  0  0  0  0
  1  2  1  0  0  0
  1  6  2  0  0  0
  2  3  2  0  0  0
  2 38  1  0  0  0
  3  4  1  0  0  0
  4  5  2  0  0  0
  4 14  1  0  0  0
  5  6  1  0  0  0
  5 10  1  0  0  0
  6  7  1  0  0  0
  7  8  1  0  0  0
  7  9  1  0  0  0
 10 11  2  0  0  0
 11 12  1  0  0  0
 11 16  1  0  0  0
 12 13  1  0  0  0
 12 14  2  0  0  0
 14 15  1  0  0  0
 16 17  1  0  0  0
 16 34  1  0  0  0
 17 18  2  0  0  0
 17 25  1  0  0  0
 18 19  1  0  0  0
 18 20  1  0  0  0
 20 21  1  0  0  0
 20 22  2  0  0  0
 22 23  1  0  0  0
 22 24  1  0  0  0
 24 25  2  0  0  0
 24 32  1  0  0  0
 25 26  1  0  0  0
 26 27  1  0  0  0
 26 28  2  0  0  0
 28 29  1  0  0  0
 28 30  1  0  0  0
 30 31  1  0  0  0
 30 32  2  0  0  0
 32 33  1  0  0  0
 34 35  1  0  0  0
 34 36  1  0  0  0
 34 37  1  0  0  0
 38 39  1  0  0  0
 38 40  1  0  0  0
M  END
>  <ACTIVITY>
5.48

>  <SET>
1

>  <Min_dist>
999.9

>  <Avg_dist>
999.9

$$$$
22-25
  Cerius2 12110214133D 1   1.00000                          
Structure written by Cerius2 SD Exporter
 46 48  0  0  0  0  0  0  0  0999 V2000
   10.2110    2.7390   12.8680 N   0  0  0  0  0  0
   10.7910    2.0500   11.8870 C   0  0  0  0  0  0
   12.0680    2.1810   11.5320 N   0  0  0  0  0  0
   12.8110    3.0710   12.2140 C   0  0  0  0  0  0
   12.3300    3.8540   13.2630 C   0  0  0  0  0  0
   10.9830    3.6140   13.5450 C   0  0  0  0  0  0
   10.3280    4.3430   14.5310 N   0  0  0  0  0  0
   10.8850    4.6690   15.3160 H   0  0  0  0  0  0
    9.3630    4.0950   14.7190 H   0  0  0  0  0  0
   13.1020    4.7560   13.9460 N   0  0  0  0  0  0
   14.3970    4.8960   13.6100 C   0  0  0  0  0  0
   14.9410    4.1650   12.5680 C   0  0  0  0  0  0
   15.9800    4.2950   12.2790 H   0  0  0  0  0  0
   14.1410    3.2500   11.8800 C   0  0  0  0  0  0
   14.5750    2.6730   11.0660 H   0  0  0  0  0  0
   15.1750    5.8310   14.2600 N   0  0  0  0  0  0
   14.7140    6.4160   14.9520 H   0  0  0  0  0  0
   16.3300    6.3940   13.5910 C   0  0  0  0  0  0
   17.0370    5.6040   13.3090 H   0  0  0  0  0  0
   16.8650    7.0910   14.2480 H   0  0  0  0  0  0
   15.8780    7.1450   12.3570 C   0  0  0  0  0  0
   16.7960    7.4610   11.3360 C   0  0  0  0  0  0
   17.8300    7.1520   11.4660 H   0  0  0  0  0  0
   16.3860    8.1550   10.1910 C   0  0  0  0  0  0
   15.0390    8.5320   10.0730 C   0  0  0  0  0  0
   14.1130    8.1740   11.0590 C   0  0  0  0  0  0
   14.5310    7.5050   12.2070 C   0  0  0  0  0  0
   13.8090    7.2520   12.9820 H   0  0  0  0  0  0
   12.7930    8.5290   10.9500 O   0  0  0  0  0  0
   12.5700    9.1880    9.6990 C   0  0  0  0  0  0
   11.5090    9.4500    9.6450 H   0  0  0  0  0  0
   12.8010    8.5260    8.8580 H   0  0  0  0  0  0
   13.1520   10.1140    9.6280 H   0  0  0  0  0  0
   14.6120    9.1960    8.9470 O   0  0  0  0  0  0
   15.6850    9.2890    8.0040 C   0  0  0  0  0  0
   15.2980    9.7800    7.1060 H   0  0  0  0  0  0
   16.0520    8.2970    7.7180 H   0  0  0  0  0  0
   16.5050    9.8990    8.3970 H   0  0  0  0  0  0
   17.2040    8.5100    9.1500 O   0  0  0  0  0  0
   18.5910    8.2000    9.2760 C   0  0  0  0  0  0
   19.0940    8.5540    8.3720 H   0  0  0  0  0  0
   18.7470    7.1180    9.3440 H   0  0  0  0  0  0
   19.0340    8.7220   10.1310 H   0  0  0  0  0  0
   10.0320    1.1550   11.2000 N   0  0  0  0  0  0
   10.4430    0.6210   10.4500 H   0  0  0  0  0  0
    9.0600    1.0320   11.4430 H   0  0  0  0  0  0
  1  2  1  0  0  0
  1  6  2  0  0  0
  2  3  2  0  0  0
  2 44  1  0  0  0
  3  4  1  0  0  0
  4  5  2  0  0  0
  4 14  1  0  0  0
  5  6  1  0  0  0
  5 10  1  0  0  0
  6  7  1  0  0  0
  7  8  1  0  0  0
  7  9  1  0  0  0
 10 11  2  0  0  0
 11 12  1  0  0  0
 11 16  1  0  0  0
 12 13  1  0  0  0
 12 14  2  0  0  0
 14 15  1  0  0  0
 16 17  1  0  0  0
 16 18  1  0  0  0
 18 19  1  0  0  0
 18 20  1  0  0  0
 18 21  1  0  0  0
 21 22  1  0  0  0
 21 27  2  0  0  0
 22 23  1  0  0  0
 22 24  2  0  0  0
 24 25  1  0  0  0
 24 39  1  0  0  0
 25 26  2  0  0  0
 25 34  1  0  0  0
 26 27  1  0  0  0
 26 29  1  0  0  0
 27 28  1  0  0  0
 29 30  1  0  0  0
 30 31  1  0  0  0
 30 32  1  0  0  0
 30 33  1  0  0  0
 34 35  1  0  0  0
 35 36  1  0  0  0
 35 37  1  0  0  0
 35 38  1  0  0  0
 39 40  1  0  0  0
 40 41  1  0  0  0
 40 42  1  0  0  0
 40 43  1  0  0  0
 44 45  1  0  0  0
 44 46  1  0  0  0
M  END
>  <ACTIVITY>
5.85

>  <SET>
2

>  <Min_dist>
0.14

>  <Avg_dist>
0.48

$$$$
22-4
  Cerius2 12110214133D 1   1.00000                          
Structure written by Cerius2 SD Exporter
 34 36  0  0  0  0  0  0  0  0999 V2000
   10.2180    2.8200   12.9420 N   0  0  0  0  0  0
   10.6200    1.9650   12.0040 C   0  0  0  0  0  0
   11.8530    1.9290   11.5000 N   0  0  0  0  0  0
   12.7380    2.8260   11.9680 C   0  0  0  0  0  0
   12.4470    3.7790   12.9470 C   0  0  0  0  0  0
   11.1300    3.6990   13.4060 C   0  0  0  0  0  0
   10.6560    4.6040   14.3490 N   0  0  0  0  0  0
   11.3290    4.9920   15.0030 H   0  0  0  0  0  0
    9.7060    4.4730   14.6760 H   0  0  0  0  0  0
   13.3590    4.6880   13.4090 N   0  0  0  0  0  0
   14.6010    4.6720   12.8780 C   0  0  0  0  0  0
   14.9770    3.7540   11.9150 C   0  0  0  0  0  0
   15.9820    3.7440   11.5040 H   0  0  0  0  0  0
   14.0300    2.8320   11.4660 C   0  0  0  0  0  0
   14.3130    2.1090   10.7040 H   0  0  0  0  0  0
   15.7890    5.8590   13.4730 S   0  0  0  0  0  0
   15.7130    7.1130   12.1910 C   0  0  0  0  0  0
   14.4710    7.7000   11.8960 C   0  0  0  0  0  0
   13.5750    7.4100   12.4440 H   0  0  0  0  0  0
   14.3630    8.6620   10.8930 C   0  0  0  0  0  0
   13.3970    9.1130   10.6710 H   0  0  0  0  0  0
   15.4920    9.0430   10.1760 C   0  0  0  0  0  0
   15.4100    9.7960    9.3930 H   0  0  0  0  0  0
   16.7320    8.4620   10.4540 C   0  0  0  0  0  0
   17.5840    8.7950    9.8680 H   0  0  0  0  0  0
   16.8540    7.4870   11.4520 C   0  0  0  0  0  0
   18.0320    6.8590   11.7720 O   0  0  0  0  0  0
   19.2180    7.3310   11.1380 C   0  0  0  0  0  0
   20.0380    6.6680   11.4300 H   0  0  0  0  0  0
   19.4680    8.3420   11.4770 H   0  0  0  0  0  0
   19.1290    7.2870   10.0470 H   0  0  0  0  0  0
    9.7150    1.0710   11.5250 N   0  0  0  0  0  0
    9.9880    0.4150   10.8080 H   0  0  0  0  0  0
    8.7710    1.0750   11.8820 H   0  0  0  0  0  0
  1  2  1  0  0  0
  1  6  2  0  0  0
  2  3  2  0  0  0
  2 32  1  0  0  0
  3  4  1  0  0  0
  4  5  2  0  0  0
  4 14  1  0  0  0
  5  6  1  0  0  0
  5 10  1  0  0  0
  6  7  1  0  0  0
  7  8  1  0  0  0
  7  9  1  0  0  0
 10 11  2  0  0  0
 11 12  1  0  0  0
 11 16  1  0  0  0
 12 13  1  0  0  0
 12 14  2  0  0  0
 14 15  1  0  0  0
 16 17  1  0  0  0
 17 18  1  0  0  0
 17 26  2  0  0  0
 18 19  1  0  0  0
 18 20  2  0  0  0
 20 21  1  0  0  0
 20 22  1  0  0  0
 22 23  1  0  0  0
 22 24  2  0  0  0
 24 25  1  0  0  0
 24 26  1  0  0  0
 26 27  1  0  0  0
 27 28  1  0  0  0
 28 29  1  0  0  0
 28 30  1  0  0  0
 28 31  1  0  0  0
 32 33  1  0  0  0
 32 34  1  0  0  0
M  END
>  <ACTIVITY>
6.64

>  <SET>
1

>  <Min_dist>
999.9

>  <Avg_dist>
999.9

$$$$
22-5
  Cerius2 12110214133D 1   1.00000                          
Structure written by Cerius2 SD Exporter
 34 36  0  0  0  0  0  0  0  0999 V2000
   10.2420    2.8430   12.9670 N   0  0  0  0  0  0
   10.6220    1.9700   12.0360 C   0  0  0  0  0  0
   11.8450    1.9180   11.5110 N   0  0  0  0  0  0
   12.7460    2.8120   11.9510 C   0  0  0  0  0  0
   12.4790    3.7810   12.9220 C   0  0  0  0  0  0
   11.1690    3.7210   13.4030 C   0  0  0  0  0  0
   10.7190    4.6430   14.3410 N   0  0  0  0  0  0
   11.4050    5.0300   14.9820 H   0  0  0  0  0  0
    9.7730    4.5240   14.6850 H   0  0  0  0  0  0
   13.4080    4.6830   13.3620 N   0  0  0  0  0  0
   14.6430    4.6400   12.8180 C   0  0  0  0  0  0
   14.9970    3.7090   11.8590 C   0  0  0  0  0  0
   15.9970    3.6790   11.4390 H   0  0  0  0  0  0
   14.0310    2.7970   11.4310 C   0  0  0  0  0  0
   14.2960    2.0610   10.6750 H   0  0  0  0  0  0
   15.8420    5.8150   13.4100 S   0  0  0  0  0  0
   15.6960    7.0890   12.1720 C   0  0  0  0  0  0
   16.8190    7.5550   11.4840 C   0  0  0  0  0  0
   17.8060    7.1400   11.6810 H   0  0  0  0  0  0
   16.6890    8.5700   10.5310 C   0  0  0  0  0  0
   17.5740    8.9200   10.0020 H   0  0  0  0  0  0
   15.4410    9.1370   10.2590 C   0  0  0  0  0  0
   14.3200    8.6790   10.9500 C   0  0  0  0  0  0
   13.3290    9.0870   10.7770 H   0  0  0  0  0  0
   14.4490    7.6610   11.9050 C   0  0  0  0  0  0
   13.5600    7.3200   12.4340 H   0  0  0  0  0  0
   15.4530   10.1200    9.3090 O   0  0  0  0  0  0
   16.7300   10.5250    8.8180 C   0  0  0  0  0  0
   16.5670   11.3050    8.0690 H   0  0  0  0  0  0
   17.2450    9.6920    8.3270 H   0  0  0  0  0  0
   17.3410   10.9530    9.6200 H   0  0  0  0  0  0
    9.7030    1.0730   11.5910 N   0  0  0  0  0  0
    9.9590    0.4020   10.8820 H   0  0  0  0  0  0
    8.7660    1.0880   11.9650 H   0  0  0  0  0  0
  1  2  1  0  0  0
  1  6  2  0  0  0
  2  3  2  0  0  0
  2 32  1  0  0  0
  3  4  1  0  0  0
  4  5  2  0  0  0
  4 14  1  0  0  0
  5  6  1  0  0  0
  5 10  1  0  0  0
  6  7  1  0  0  0
  7  8  1  0  0  0
  7  9  1  0  0  0
 10 11  2  0  0  0
 11 12  1  0  0  0
 11 16  1  0  0  0
 12 13  1  0  0  0
 12 14  2  0  0  0
 14 15  1  0  0  0
 16 17  1  0  0  0
 17 18  1  0  0  0
 17 25  2  0  0  0
 18 19  1  0  0  0
 18 20  2  0  0  0
 20 21  1  0  0  0
 20 22  1  0  0  0
 22 23  2  0  0  0
 22 27  1  0  0  0
 23 24  1  0  0  0
 23 25  1  0  0  0
 25 26  1  0  0  0
 27 28  1  0  0  0
 28 29  1  0  0  0
 28 30  1  0  0  0
 28 31  1  0  0  0
 32 33  1  0  0  0
 32 34  1  0  0  0
M  END
>  <ACTIVITY>
7.12

>  <SET>
2

>  <Min_dist>
0.14

>  <Avg_dist>
0.58

$$$$
22-6
  Cerius2 12110214133D 1   1.00000                          
Structure written by Cerius2 SD Exporter
 38 40  0  0  0  0  0  0  0  0999 V2000
   10.2360    2.8470   12.9590 N   0  0  0  0  0  0
   10.6170    1.9690   12.0330 C   0  0  0  0  0  0
   11.8390    1.9170   11.5060 N   0  0  0  0  0  0
   12.7430    2.8090   11.9480 C   0  0  0  0  0  0
   12.4750    3.7810   12.9150 C   0  0  0  0  0  0
   11.1560    3.7410   13.3740 C   0  0  0  0  0  0
   10.7320    4.6110   14.3720 N   0  0  0  0  0  0
   11.1870    5.5180   14.4250 H   0  0  0  0  0  0
    9.7530    4.5670   14.6330 H   0  0  0  0  0  0
   13.4030    4.6830   13.3560 N   0  0  0  0  0  0
   14.6470    4.6220   12.8350 C   0  0  0  0  0  0
   14.9970    3.6970   11.8670 C   0  0  0  0  0  0
   15.9970    3.6670   11.4460 H   0  0  0  0  0  0
   14.0300    2.7900   11.4330 C   0  0  0  0  0  0
   14.2930    2.0560   10.6750 H   0  0  0  0  0  0
   15.8170    5.8190   13.4410 S   0  0  0  0  0  0
   15.6640    7.1020   12.2110 C   0  0  0  0  0  0
   14.4200    7.6590   11.8970 C   0  0  0  0  0  0
   13.5170    7.3160   12.4000 H   0  0  0  0  0  0
   14.3100    8.6730   10.9350 C   0  0  0  0  0  0
   13.3210    9.0780   10.7400 H   0  0  0  0  0  0
   15.4440    9.1330   10.2640 C   0  0  0  0  0  0
   16.6810    8.5400   10.5550 C   0  0  0  0  0  0
   16.7990    7.5450   11.5300 C   0  0  0  0  0  0
   17.7790    7.1270   11.7530 H   0  0  0  0  0  0
   17.8260    8.9750    9.9310 O   0  0  0  0  0  0
   18.9470    8.2090   10.3890 C   0  0  0  0  0  0
   19.8380    8.5790    9.8730 H   0  0  0  0  0  0
   18.8280    7.1470   10.1440 H   0  0  0  0  0  0
   19.1000    8.3380   11.4660 H   0  0  0  0  0  0
   15.4560   10.1290    9.3230 O   0  0  0  0  0  0
   16.7300   10.5280    8.8200 C   0  0  0  0  0  0
   16.5600   11.2870    8.0520 H   0  0  0  0  0  0
   17.2500    9.6870    8.3490 H   0  0  0  0  0  0
   17.3380   10.9810    9.6100 H   0  0  0  0  0  0
    9.7000    1.0640   11.5970 N   0  0  0  0  0  0
    9.9610    0.3810   10.9020 H   0  0  0  0  0  0
    8.7660    1.0720   11.9810 H   0  0  0  0  0  0
  1  2  1  0  0  0
  1  6  2  0  0  0
  2  3  2  0  0  0
  2 36  1  0  0  0
  3  4  1  0  0  0
  4  5  2  0  0  0
  4 14  1  0  0  0
  5  6  1  0  0  0
  5 10  1  0  0  0
  6  7  1  0  0  0
  7  8  1  0  0  0
  7  9  1  0  0  0
 10 11  2  0  0  0
 11 12  1  0  0  0
 11 16  1  0  0  0
 12 13  1  0  0  0
 12 14  2  0  0  0
 14 15  1  0  0  0
 16 17  1  0  0  0
 17 18  1  0  0  0
 17 24  2  0  0  0
 18 19  1  0  0  0
 18 20  2  0  0  0
 20 21  1  0  0  0
 20 22  1  0  0  0
 22 23  2  0  0  0
 22 31  1  0  0  0
 23 24  1  0  0  0
 23 26  1  0  0  0
 24 25  1  0  0  0
 26 27  1  0  0  0
 27 28  1  0  0  0
 27 29  1  0  0  0
 27 30  1  0  0  0
 31 32  1  0  0  0
 32 33  1  0  0  0
 32 34  1  0  0  0
 32 35  1  0  0  0
 36 37  1  0  0  0
 36 38  1  0  0  0
M  END
>  <ACTIVITY>
7.74

>  <SET>
1

>  <Min_dist>
999.9

>  <Avg_dist>
999.9

$$$$
22-7
  Cerius2 12110214133D 1   1.00000                          
Structure written by Cerius2 SD Exporter
 36 38  0  0  0  0  0  0  0  0999 V2000
   10.1880    2.7680   13.0110 N   0  0  0  0  0  0
   10.5750    1.8270   12.1510 C   0  0  0  0  0  0
   11.7970    1.7460   11.6250 N   0  0  0  0  0  0
   12.6920    2.6790   11.9900 C   0  0  0  0  0  0
   12.4170    3.7190   12.8870 C   0  0  0  0  0  0
   11.1080    3.6850   13.3730 C   0  0  0  0  0  0
   10.6530    4.6770   14.2350 N   0  0  0  0  0  0
   11.3360    5.1110   14.8490 H   0  0  0  0  0  0
    9.7070    4.5790   14.5870 H   0  0  0  0  0  0
   13.3380    4.6610   13.2520 N   0  0  0  0  0  0
   14.5730    4.5630   12.6940 C   0  0  0  0  0  0
   14.9450    3.5760   11.8060 C   0  0  0  0  0  0
   15.9440    3.5230   11.3870 H   0  0  0  0  0  0
   13.9770    2.6330   11.4610 C   0  0  0  0  0  0
   14.2370    1.8410   10.7610 H   0  0  0  0  0  0
   15.7350    5.8160   13.2360 S   0  0  0  0  0  0
   15.7000    7.2080   12.1270 C   0  0  0  0  0  0
   14.4870    7.8520   11.8450 C   0  0  0  0  0  0
   13.5470    7.5310   12.2850 H   0  0  0  0  0  0
   14.4640    8.9410   10.9750 C   0  0  0  0  0  0
   13.5240    9.4450   10.7560 H   0  0  0  0  0  0
   15.6450    9.3830   10.3850 C   0  0  0  0  0  0
   15.6270   10.2330    9.7050 H   0  0  0  0  0  0
   16.8540    8.7380   10.6600 C   0  0  0  0  0  0
   17.7460    9.1200   10.1690 H   0  0  0  0  0  0
   16.8980    7.6420   11.5320 C   0  0  0  0  0  0
   18.0420    6.9540   11.8380 O   0  0  0  0  0  0
   19.2600    7.3920   11.2360 C   0  0  0  0  0  0
   20.0600    6.7370   11.5950 H   0  0  0  0  0  0
   19.5040    8.4150   11.5420 H   0  0  0  0  0  0
   19.2160    7.3000   10.1460 H   0  0  0  0  0  0
   17.0760    5.2420   13.1320 O   0  0  0  0  0  0
   15.2690    6.2750   14.5440 O   0  0  0  0  0  0
    9.6640    0.8880   11.7830 N   0  0  0  0  0  0
    9.9280    0.1620   11.1330 H   0  0  0  0  0  0
    8.7300    0.9190   12.1630 H   0  0  0  0  0  0
  1  2  1  0  0  0
  1  6  2  0  0  0
  2  3  2  0  0  0
  2 34  1  0  0  0
  3  4  1  0  0  0
  4  5  2  0  0  0
  4 14  1  0  0  0
  5  6  1  0  0  0
  5 10  1  0  0  0
  6  7  1  0  0  0
  7  8  1  0  0  0
  7  9  1  0  0  0
 10 11  2  0  0  0
 11 12  1  0  0  0
 11 16  1  0  0  0
 12 13  1  0  0  0
 12 14  2  0  0  0
 14 15  1  0  0  0
 16 17  1  0  0  0
 16 32  2  0  0  0
 16 33  2  0  0  0
 17 18  1  0  0  0
 17 26  2  0  0  0
 18 19  1  0  0  0
 18 20  2  0  0  0
 20 21  1  0  0  0
 20 22  1  0  0  0
 22 23  1  0  0  0
 22 24  2  0  0  0
 24 25  1  0  0  0
 24 26  1  0  0  0
 26 27  1  0  0  0
 27 28  1  0  0  0
 28 29  1  0  0  0
 28 30  1  0  0  0
 28 31  1  0  0  0
 34 35  1  0  0  0
 34 36  1  0  0  0
M  END
>  <ACTIVITY>
5.85

>  <SET>
1

>  <Min_dist>
999.9

>  <Avg_dist>
999.9

$$$$
22-8
  Cerius2 12110214133D 1   1.00000                          
Structure written by Cerius2 SD Exporter
 36 38  0  0  0  0  0  0  0  0999 V2000
   10.1910    2.7870   13.0020 N   0  0  0  0  0  0
   10.5720    1.8480   12.1380 C   0  0  0  0  0  0
   11.7930    1.7620   11.6110 N   0  0  0  0  0  0
   12.6950    2.6870   11.9830 C   0  0  0  0  0  0
   12.4250    3.7260   12.8800 C   0  0  0  0  0  0
   11.1090    3.7120   13.3480 C   0  0  0  0  0  0
   10.6850    4.6480   14.2860 N   0  0  0  0  0  0
   11.1300    5.5610   14.2690 H   0  0  0  0  0  0
    9.7090    4.6130   14.5580 H   0  0  0  0  0  0
   13.3530    4.6610   13.2480 N   0  0  0  0  0  0
   14.5950    4.5500   12.7030 C   0  0  0  0  0  0
   14.9590    3.5630   11.8120 C   0  0  0  0  0  0
   15.9510    3.4960   11.3820 H   0  0  0  0  0  0
   13.9820    2.6300   11.4610 C   0  0  0  0  0  0
   14.2370    1.8380   10.7580 H   0  0  0  0  0  0
   15.7370    5.8120   13.2540 S   0  0  0  0  0  0
   15.6840    7.1860   12.1180 C   0  0  0  0  0  0
   16.8690    7.6370   11.5280 C   0  0  0  0  0  0
   17.8190    7.1490   11.7390 H   0  0  0  0  0  0
   16.8380    8.7270   10.6500 C   0  0  0  0  0  0
   17.7780    9.0470   10.2060 H   0  0  0  0  0  0
   15.6310    9.3710   10.3690 C   0  0  0  0  0  0
   14.4540    8.9170   10.9750 C   0  0  0  0  0  0
   13.5080    9.4150   10.7650 H   0  0  0  0  0  0
   14.4740    7.8300   11.8520 C   0  0  0  0  0  0
   13.5460    7.4990   12.3120 H   0  0  0  0  0  0
   15.4690   10.4420    9.5340 O   0  0  0  0  0  0
   16.6400   10.9360    8.8870 C   0  0  0  0  0  0
   16.3430   11.7810    8.2590 H   0  0  0  0  0  0
   17.0810   10.1740    8.2360 H   0  0  0  0  0  0
   17.3680   11.3040    9.6180 H   0  0  0  0  0  0
   17.0900    5.2640   13.1690 O   0  0  0  0  0  0
   15.2600    6.2920   14.5490 O   0  0  0  0  0  0
    9.6570    0.9120   11.7690 N   0  0  0  0  0  0
    9.9170    0.1870   11.1160 H   0  0  0  0  0  0
    8.7230    0.9470   12.1490 H   0  0  0  0  0  0
  1  2  1  0  0  0
  1  6  2  0  0  0
  2  3  2  0  0  0
  2 34  1  0  0  0
  3  4  1  0  0  0
  4  5  2  0  0  0
  4 14  1  0  0  0
  5  6  1  0  0  0
  5 10  1  0  0  0
  6  7  1  0  0  0
  7  8  1  0  0  0
  7  9  1  0  0  0
 10 11  2  0  0  0
 11 12  1  0  0  0
 11 16  1  0  0  0
 12 13  1  0  0  0
 12 14  2  0  0  0
 14 15  1  0  0  0
 16 17  1  0  0  0
 16 32  2  0  0  0
 16 33  2  0  0  0
 17 18  1  0  0  0
 17 25  2  0  0  0
 18 19  1  0  0  0
 18 20  2  0  0  0
 20 21  1  0  0  0
 20 22  1  0  0  0
 22 23  2  0  0  0
 22 27  1  0  0  0
 23 24  1  0  0  0
 23 25  1  0  0  0
 25 26  1  0  0  0
 27 28  1  0  0  0
 28 29  1  0  0  0
 28 30  1  0  0  0
 28 31  1  0  0  0
 34 35  1  0  0  0
 34 36  1  0  0  0
M  END
>  <ACTIVITY>
5.7

>  <SET>
1

>  <Min_dist>
999.9

>  <Avg_dist>
999.9

$$$$
22-9
  Cerius2 12110214133D 1   1.00000                          
Structure written by Cerius2 SD Exporter
 40 42  0  0  0  0  0  0  0  0999 V2000
   10.2110    2.8130   12.9850 N   0  0  0  0  0  0
   10.5830    1.9100   12.0790 C   0  0  0  0  0  0
   11.8060    1.8330   11.5540 N   0  0  0  0  0  0
   12.7160    2.7330   11.9670 C   0  0  0  0  0  0
   12.4540    3.7320   12.9120 C   0  0  0  0  0  0
   11.1440    3.6960   13.3950 C   0  0  0  0  0  0
   10.7030    4.6520   14.3020 N   0  0  0  0  0  0
   11.3930    5.0500   14.9320 H   0  0  0  0  0  0
    9.7560    4.5540   14.6500 H   0  0  0  0  0  0
   13.3830    4.6460   13.3230 N   0  0  0  0  0  0
   14.6170    4.5570   12.7630 C   0  0  0  0  0  0
   14.9780    3.6150   11.8230 C   0  0  0  0  0  0
   15.9740    3.5810   11.3950 H   0  0  0  0  0  0
   14.0000    2.6980   11.4350 C   0  0  0  0  0  0
   14.2500    1.9400   10.6950 H   0  0  0  0  0  0
   15.7640    5.8110   13.3110 S   0  0  0  0  0  0
   15.6630    7.1500   12.1390 C   0  0  0  0  0  0
   14.4070    7.6420   11.7670 C   0  0  0  0  0  0
   13.4950    7.2210   12.1890 H   0  0  0  0  0  0
   14.3120    8.6950   10.8470 C   0  0  0  0  0  0
   13.3190    9.0590   10.5970 H   0  0  0  0  0  0
   15.4660    9.2490   10.2860 C   0  0  0  0  0  0
   16.7160    8.7220   10.6540 C   0  0  0  0  0  0
   16.8260    7.6870   11.5860 C   0  0  0  0  0  0
   17.8070    7.3180   11.8730 H   0  0  0  0  0  0
   17.8750    9.2660   10.1560 O   0  0  0  0  0  0
   19.0080    8.5610   10.6750 C   0  0  0  0  0  0
   19.9060    9.0090   10.2380 H   0  0  0  0  0  0
   18.9840    7.5030   10.3960 H   0  0  0  0  0  0
   19.0710    8.6680   11.7630 H   0  0  0  0  0  0
   15.4890   10.2840    9.3870 O   0  0  0  0  0  0
   16.7660   10.7150    8.9230 C   0  0  0  0  0  0
   16.6050   11.5630    8.2510 H   0  0  0  0  0  0
   17.2630    9.9250    8.3510 H   0  0  0  0  0  0
   17.3910   11.0620    9.7520 H   0  0  0  0  0  0
   17.1230    5.2800   13.2200 O   0  0  0  0  0  0
   15.3000    6.2990   14.6080 O   0  0  0  0  0  0
    9.6530    1.0100   11.6620 N   0  0  0  0  0  0
    9.9000    0.3100   10.9790 H   0  0  0  0  0  0
    8.7180    1.0480   12.0410 H   0  0  0  0  0  0
  1  2  1  0  0  0
  1  6  2  0  0  0
  2  3  2  0  0  0
  2 38  1  0  0  0
  3  4  1  0  0  0
  4  5  2  0  0  0
  4 14  1  0  0  0
  5  6  1  0  0  0
  5 10  1  0  0  0
  6  7  1  0  0  0
  7  8  1  0  0  0
  7  9  1  0  0  0
 10 11  2  0  0  0
 11 12  1  0  0  0
 11 16  1  0  0  0
 12 13  1  0  0  0
 12 14  2  0  0  0
 14 15  1  0  0  0
 16 17  1  0  0  0
 16 36  2  0  0  0
 16 37  2  0  0  0
 17 18  1  0  0  0
 17 24  2  0  0  0
 18 19  1  0  0  0
 18 20  2  0  0  0
 20 21  1  0  0  0
 20 22  1  0  0  0
 22 23  2  0  0  0
 22 31  1  0  0  0
 23 24  1  0  0  0
 23 26  1  0  0  0
 24 25  1  0  0  0
 26 27  1  0  0  0
 27 28  1  0  0  0
 27 29  1  0  0  0
 27 30  1  0  0  0
 31 32  1  0  0  0
 32 33  1  0  0  0
 32 34  1  0  0  0
 32 35  1  0  0  0
 38 39  1  0  0  0
 38 40  1  0  0  0
M  END
>  <ACTIVITY>
6.06

>  <SET>
2

>  <Min_dist>
0.14

>  <Avg_dist>
0.6

$$$$
23-4b
  Cerius2 12110214133D 1   1.00000                          
Structure written by Cerius2 SD Exporter
 37 39  0  0  0  0  0  0  0  0999 V2000
   10.1250    2.6280   12.8050 N   0  0  0  0  0  0
   10.7980    1.9690   11.8730 C   0  0  0  0  0  0
   12.0790    2.1660   11.6040 N   0  0  0  0  0  0
   12.7350    3.0760   12.3030 C   0  0  0  0  0  0
   12.1560    3.8500   13.3160 C   0  0  0  0  0  0
   10.7890    3.5520   13.5160 C   0  0  0  0  0  0
    9.9990    4.1830   14.4660 N   0  0  0  0  0  0
   10.2760    4.0170   15.4310 H   0  0  0  0  0  0
    9.8500    5.1760   14.3060 H   0  0  0  0  0  0
   13.0020    4.8120   13.9960 C   0  0  0  0  0  0
   14.3570    4.9200   13.6230 C   0  0  0  0  0  0
   14.7900    4.0960   12.5980 C   0  0  0  0  0  0
   15.8200    4.1340   12.2450 H   0  0  0  0  0  0
   14.0110    3.1980   11.9550 N   0  0  0  0  0  0
   15.3510    5.8780   14.2400 C   0  0  0  0  0  0
   15.8580    5.3930   15.0840 H   0  0  0  0  0  0
   14.8170    6.7400   14.6570 H   0  0  0  0  0  0
   16.3320    6.2850   13.2490 N   0  0  0  0  0  0
   17.2850    5.9520   13.3790 H   0  0  0  0  0  0
   16.0620    7.0980   12.1670 C   0  0  0  0  0  0
   14.7790    7.6480   12.0410 C   0  0  0  0  0  0
   14.0160    7.4300   12.7870 H   0  0  0  0  0  0
   14.4430    8.4820   10.9690 C   0  0  0  0  0  0
   13.4360    8.8890   10.9070 H   0  0  0  0  0  0
   15.3930    8.7840    9.9960 C   0  0  0  0  0  0
   16.6780    8.2480   10.1030 C   0  0  0  0  0  0
   17.0050    7.4130   11.1820 C   0  0  0  0  0  0
   18.0130    7.0100   11.2370 H   0  0  0  0  0  0
   17.9140    8.5760    8.9360 Cl  0  0  0  0  0  0
   14.9230    9.8200    8.6940 Cl  0  0  0  0  0  0
   12.4500    5.6920   15.0910 C   0  0  0  0  0  0
   13.1830    6.3860   15.5070 H   0  0  0  0  0  0
   12.1010    5.0810   15.9290 H   0  0  0  0  0  0
   11.6380    6.3140   14.7040 H   0  0  0  0  0  0
   10.1300    1.0300   11.1490 N   0  0  0  0  0  0
   10.6140    0.5100   10.4310 H   0  0  0  0  0  0
    9.1520    0.8600   11.3330 H   0  0  0  0  0  0
  1  2  1  0  0  0
  1  6  2  0  0  0
  2  3  2  0  0  0
  2 35  1  0  0  0
  3  4  1  0  0  0
  4  5  2  0  0  0
  4 14  1  0  0  0
  5  6  1  0  0  0
  5 10  1  0  0  0
  6  7  1  0  0  0
  7  8  1  0  0  0
  7  9  1  0  0  0
 10 11  2  0  0  0
 10 31  1  0  0  0
 11 12  1  0  0  0
 11 15  1  0  0  0
 12 13  1  0  0  0
 12 14  2  0  0  0
 15 16  1  0  0  0
 15 17  1  0  0  0
 15 18  1  0  0  0
 18 19  1  0  0  0
 18 20  1  0  0  0
 20 21  1  0  0  0
 20 27  2  0  0  0
 21 22  1  0  0  0
 21 23  2  0  0  0
 23 24  1  0  0  0
 23 25  1  0  0  0
 25 26  2  0  0  0
 25 30  1  0  0  0
 26 27  1  0  0  0
 26 29  1  0  0  0
 27 28  1  0  0  0
 31 32  1  0  0  0
 31 33  1  0  0  0
 31 34  1  0  0  0
 35 36  1  0  0  0
 35 37  1  0  0  0
M  END
>  <ACTIVITY>
7.28

>  <SET>
1

>  <Min_dist>
999.9

>  <Avg_dist>
999.9

$$$$
23-6a
  Cerius2 12110214133D 1   1.00000                          
Structure written by Cerius2 SD Exporter
 51 53  0  0  0  0  0  0  0  0999 V2000
   10.1100    2.6270   12.8250 N   0  0  0  0  0  0
   10.7570    1.9650   11.8800 C   0  0  0  0  0  0
   12.0380    2.1380   11.5970 N   0  0  0  0  0  0
   12.7170    3.0380   12.2890 C   0  0  0  0  0  0
   12.1640    3.8280   13.3010 C   0  0  0  0  0  0
   10.7980    3.5400   13.5290 C   0  0  0  0  0  0
   10.0320    4.1750   14.4950 N   0  0  0  0  0  0
   10.3380    4.0250   15.4530 H   0  0  0  0  0  0
    9.8580    5.1630   14.3250 H   0  0  0  0  0  0
   13.0330    4.7910   13.9550 C   0  0  0  0  0  0
   14.3930    4.8760   13.5770 C   0  0  0  0  0  0
   14.7970    4.0150   12.5710 C   0  0  0  0  0  0
   15.8230    3.9900   12.2120 H   0  0  0  0  0  0
   13.9940    3.1300   11.9390 N   0  0  0  0  0  0
   15.3630    5.8430   14.2400 C   0  0  0  0  0  0
   15.8660    5.2870   15.0420 H   0  0  0  0  0  0
   14.8220    6.6520   14.7430 H   0  0  0  0  0  0
   16.4090    6.4110   13.3740 N   0  0  0  0  0  0
   16.0570    7.2150   12.2250 C   0  0  0  0  0  0
   16.9900    7.4930   11.2090 C   0  0  0  0  0  0
   18.0080    7.1230   11.2590 H   0  0  0  0  0  0
   16.6370    8.2290   10.0690 C   0  0  0  0  0  0
   15.3490    8.7400    9.9280 C   0  0  0  0  0  0
   14.4210    8.5120   10.9420 C   0  0  0  0  0  0
   14.7560    7.7230   12.0530 C   0  0  0  0  0  0
   13.9680    7.5550   12.7810 H   0  0  0  0  0  0
   13.1370    8.9910   10.8720 O   0  0  0  0  0  0
   12.9680    9.7860    9.6930 C   0  0  0  0  0  0
   11.9470   10.1790    9.7010 H   0  0  0  0  0  0
   13.0910    9.1920    8.7820 H   0  0  0  0  0  0
   13.6620   10.6340    9.6900 H   0  0  0  0  0  0
   15.0450    9.4830    8.8180 O   0  0  0  0  0  0
   16.2010    9.6500    7.9900 C   0  0  0  0  0  0
   15.9880   10.4530    7.2790 H   0  0  0  0  0  0
   16.4060    8.7400    7.4180 H   0  0  0  0  0  0
   17.0820    9.9400    8.5760 H   0  0  0  0  0  0
   17.5690    8.4940    9.0960 O   0  0  0  0  0  0
   18.8020    7.8170    9.3660 C   0  0  0  0  0  0
   19.3640    8.3280   10.1550 H   0  0  0  0  0  0
   19.4040    7.8430    8.4520 H   0  0  0  0  0  0
   18.6350    6.7670    9.6300 H   0  0  0  0  0  0
   17.7280    6.1350   13.7510 C   0  0  0  0  0  0
   17.7780    5.4150   14.5850 H   0  0  0  0  0  0
   18.7740    6.5890   13.2930 O   0  0  0  0  0  0
   12.4940    5.6890   15.0450 C   0  0  0  0  0  0
   12.1950    5.0930   15.9130 H   0  0  0  0  0  0
   11.6500    6.2740   14.6710 H   0  0  0  0  0  0
   13.2170    6.4220   15.4080 H   0  0  0  0  0  0
   10.0580    1.0550   11.1500 N   0  0  0  0  0  0
   10.5110    0.5520   10.4030 H   0  0  0  0  0  0
    9.0710    0.9310   11.3250 H   0  0  0  0  0  0
  1  2  1  0  0  0
  1  6  2  0  0  0
  2  3  2  0  0  0
  2 49  1  0  0  0
  3  4  1  0  0  0
  4  5  2  0  0  0
  4 14  1  0  0  0
  5  6  1  0  0  0
  5 10  1  0  0  0
  6  7  1  0  0  0
  7  8  1  0  0  0
  7  9  1  0  0  0
 10 11  2  0  0  0
 10 45  1  0  0  0
 11 12  1  0  0  0
 11 15  1  0  0  0
 12 13  1  0  0  0
 12 14  2  0  0  0
 15 16  1  0  0  0
 15 17  1  0  0  0
 15 18  1  0  0  0
 18 19  1  0  0  0
 18 42  1  0  0  0
 19 20  1  0  0  0
 19 25  2  0  0  0
 20 21  1  0  0  0
 20 22  2  0  0  0
 22 23  1  0  0  0
 22 37  1  0  0  0
 23 24  2  0  0  0
 23 32  1  0  0  0
 24 25  1  0  0  0
 24 27  1  0  0  0
 25 26  1  0  0  0
 27 28  1  0  0  0
 28 29  1  0  0  0
 28 30  1  0  0  0
 28 31  1  0  0  0
 32 33  1  0  0  0
 33 34  1  0  0  0
 33 35  1  0  0  0
 33 36  1  0  0  0
 37 38  1  0  0  0
 38 39  1  0  0  0
 38 40  1  0  0  0
 38 41  1  0  0  0
 42 43  1  0  0  0
 42 44  2  0  0  0
 45 46  1  0  0  0
 45 47  1  0  0  0
 45 48  1  0  0  0
 49 50  1  0  0  0
 49 51  1  0  0  0
M  END
>  <ACTIVITY>
6.96

>  <SET>
2

>  <Min_dist>
0.05

>  <Avg_dist>
0.52

$$$$
23-6b
  Cerius2 12110214133D 1   1.00000                          
Structure written by Cerius2 SD Exporter
 39 41  0  0  0  0  0  0  0  0999 V2000
   10.1050    2.6310   12.8130 N   0  0  0  0  0  0
   10.7620    1.9590   11.8800 C   0  0  0  0  0  0
   12.0430    2.1390   11.6000 N   0  0  0  0  0  0
   12.7150    3.0450   12.2900 C   0  0  0  0  0  0
   12.1570    3.8300   13.3040 C   0  0  0  0  0  0
   10.7860    3.5510   13.5140 C   0  0  0  0  0  0
   10.0110    4.1970   14.4650 N   0  0  0  0  0  0
   10.2770    4.0170   15.4300 H   0  0  0  0  0  0
    9.8850    5.1950   14.3120 H   0  0  0  0  0  0
   13.0250    4.7820   13.9730 C   0  0  0  0  0  0
   14.3780    4.8910   13.5800 C   0  0  0  0  0  0
   14.7880    4.0420   12.5650 C   0  0  0  0  0  0
   15.8110    4.0420   12.1950 H   0  0  0  0  0  0
   13.9900    3.1480   11.9370 N   0  0  0  0  0  0
   15.3410    5.8650   14.2410 C   0  0  0  0  0  0
   15.8140    5.3320   15.0750 H   0  0  0  0  0  0
   14.7960    6.7050   14.6870 H   0  0  0  0  0  0
   16.4120    6.4080   13.3880 N   0  0  0  0  0  0
   16.0750    7.1890   12.2220 C   0  0  0  0  0  0
   17.0120    7.4670   11.2160 C   0  0  0  0  0  0
   18.0410    7.1270   11.2770 H   0  0  0  0  0  0
   16.6790    8.2330   10.0880 C   0  0  0  0  0  0
   17.4420    8.4270    9.3370 H   0  0  0  0  0  0
   15.3940    8.7440    9.9380 C   0  0  0  0  0  0
   14.4430    8.4870   10.9240 C   0  0  0  0  0  0
   14.7830    7.7220   12.0510 C   0  0  0  0  0  0
   13.9970    7.5420   12.7790 H   0  0  0  0  0  0
   12.8210    9.0840   10.8160 Cl  0  0  0  0  0  0
   15.0480    9.6790    8.5280 Cl  0  0  0  0  0  0
   17.7220    6.1320   13.7940 C   0  0  0  0  0  0
   17.7470    5.5630   14.7400 H   0  0  0  0  0  0
   18.7810    6.4050   13.2350 O   0  0  0  0  0  0
   12.4900    5.6560   15.0840 C   0  0  0  0  0  0
   12.1070    5.0380   15.9010 H   0  0  0  0  0  0
   11.7090    6.3190   14.7010 H   0  0  0  0  0  0
   13.2450    6.3040   15.5350 H   0  0  0  0  0  0
   10.0770    1.0250   11.1650 N   0  0  0  0  0  0
   10.5490    0.4970   10.4460 H   0  0  0  0  0  0
    9.0980    0.8690   11.3550 H   0  0  0  0  0  0
  1  2  1  0  0  0
  1  6  2  0  0  0
  2  3  2  0  0  0
  2 37  1  0  0  0
  3  4  1  0  0  0
  4  5  2  0  0  0
  4 14  1  0  0  0
  5  6  1  0  0  0
  5 10  1  0  0  0
  6  7  1  0  0  0
  7  8  1  0  0  0
  7  9  1  0  0  0
 10 11  2  0  0  0
 10 33  1  0  0  0
 11 12  1  0  0  0
 11 15  1  0  0  0
 12 13  1  0  0  0
 12 14  2  0  0  0
 15 16  1  0  0  0
 15 17  1  0  0  0
 15 18  1  0  0  0
 18 19  1  0  0  0
 18 30  1  0  0  0
 19 20  1  0  0  0
 19 26  2  0  0  0
 20 21  1  0  0  0
 20 22  2  0  0  0
 22 23  1  0  0  0
 22 24  1  0  0  0
 24 25  2  0  0  0
 24 29  1  0  0  0
 25 26  1  0  0  0
 25 28  1  0  0  0
 26 27  1  0  0  0
 30 31  1  0  0  0
 30 32  2  0  0  0
 33 34  1  0  0  0
 33 35  1  0  0  0
 33 36  1  0  0  0
 37 38  1  0  0  0
 37 39  1  0  0  0
M  END
>  <ACTIVITY>
6.85

>  <SET>
2

>  <Min_dist>
0.18

>  <Avg_dist>
0.54

$$$$
23-7
  Cerius2 12110214133D 1   1.00000                          
Structure written by Cerius2 SD Exporter
 53 55  0  0  0  0  0  0  0  0999 V2000
   11.8830    2.2190   11.3530 N   0  0  0  0  0  0
   10.7040    1.9120   11.9210 C   0  0  0  0  0  0
    9.9890    0.9210   11.3560 N   0  0  0  0  0  0
   10.3400    0.4570   10.5430 H   0  0  0  0  0  0
    9.1060    0.6620   11.7480 H   0  0  0  0  0  0
   10.1790    2.5040   13.0070 N   0  0  0  0  0  0
   10.9060    3.4990   13.5500 C   0  0  0  0  0  0
   10.4150    4.1390   14.6530 N   0  0  0  0  0  0
    9.4960    3.9010   14.9720 H   0  0  0  0  0  0
   10.8770    4.9430   15.0210 H   0  0  0  0  0  0
   12.1560    3.9010   13.0510 C   0  0  0  0  0  0
   12.9740    5.0770   13.6450 C   0  0  0  0  0  0
   12.9430    4.9980   14.7460 H   0  0  0  0  0  0
   12.3160    6.4130   13.2160 C   0  0  0  0  0  0
   12.8340    7.2880   13.6390 H   0  0  0  0  0  0
   12.3380    6.5110   12.1170 H   0  0  0  0  0  0
   11.2610    6.4740   13.5270 H   0  0  0  0  0  0
   14.4310    5.0320   13.1990 C   0  0  0  0  0  0
   14.7790    4.3390   12.0810 C   0  0  0  0  0  0
   15.8190    4.3290   11.7010 H   0  0  0  0  0  0
   13.8490    3.5360   11.4190 N   0  0  0  0  0  0
   14.1680    3.0400   10.6110 H   0  0  0  0  0  0
   12.5930    3.2010   11.9310 C   0  0  0  0  0  0
   15.4090    5.8090   14.0420 C   0  0  0  0  0  0
   14.8610    6.5190   14.6840 H   0  0  0  0  0  0
   15.8820    5.1080   14.7550 H   0  0  0  0  0  0
   16.4810    6.5560   13.3590 N   0  0  0  0  0  0
   16.0700    7.2950   12.1880 C   0  0  0  0  0  0
   17.0320    7.5210   11.2180 C   0  0  0  0  0  0
   17.9150    7.1940   11.3400 H   0  0  0  0  0  0
   16.6700    8.2290   10.0840 C   0  0  0  0  0  0
   15.3740    8.7200    9.9310 C   0  0  0  0  0  0
   14.4720    8.4970   10.9400 C   0  0  0  0  0  0
   13.1100    8.8970   10.9960 O   0  0  0  0  0  0
   12.8950    9.7190    9.8370 C   0  0  0  0  0  0
   11.9930   10.0170    9.8230 H   0  0  0  0  0  0
   13.4760   10.4700    9.8700 H   0  0  0  0  0  0
   13.0740    9.2140    9.0530 H   0  0  0  0  0  0
   14.8060    7.7920   12.0680 C   0  0  0  0  0  0
   14.1710    7.6470   12.7600 H   0  0  0  0  0  0
   15.0470    9.3700    8.8540 O   0  0  0  0  0  0
   16.2620    9.5770    8.1440 C   0  0  0  0  0  0
   17.0960    9.1330    8.6880 H   0  0  0  0  0  0
   16.1870    9.1160    7.1590 H   0  0  0  0  0  0
   16.4350   10.6470    8.0290 H   0  0  0  0  0  0
   17.5440    8.4430    9.1450 O   0  0  0  0  0  0
   18.7180    7.7460    9.5430 C   0  0  0  0  0  0
   18.5480    7.2360   10.4910 H   0  0  0  0  0  0
   18.9780    7.0120    8.7800 H   0  0  0  0  0  0
   19.5390    8.4540    9.6550 H   0  0  0  0  0  0
   17.7580    6.3760   13.8480 C   0  0  0  0  0  0
   17.7670    5.7240   14.7560 H   0  0  0  0  0  0
   18.8090    6.8300   13.4200 O   0  0  0  0  0  0
  1  2  1  0  0  0
  1 23  2  0  0  0
  2  3  1  0  0  0
  2  6  2  0  0  0
  3  4  1  0  0  0
  3  5  1  0  0  0
  6  7  1  0  0  0
  7  8  1  0  0  0
  7 11  2  0  0  0
  8  9  1  0  0  0
  8 10  1  0  0  0
 11 12  1  0  0  0
 11 23  1  0  0  0
 12 13  1  0  0  0
 12 14  1  0  0  0
 12 18  1  0  0  0
 14 15  1  0  0  0
 14 16  1  0  0  0
 14 17  1  0  0  0
 18 19  2  0  0  0
 18 24  1  0  0  0
 19 20  1  0  0  0
 19 21  1  0  0  0
 21 22  1  0  0  0
 21 23  1  0  0  0
 24 25  1  0  0  0
 24 26  1  0  0  0
 24 27  1  0  0  0
 27 28  1  0  0  0
 27 51  1  0  0  0
 28 29  1  0  0  0
 28 39  2  0  0  0
 29 30  1  0  0  0
 29 31  2  0  0  0
 31 32  1  0  0  0
 31 46  1  0  0  0
 32 33  2  0  0  0
 32 41  1  0  0  0
 33 34  1  0  0  0
 33 39  1  0  0  0
 34 35  1  0  0  0
 35 36  1  0  0  0
 35 37  1  0  0  0
 35 38  1  0  0  0
 39 40  1  0  0  0
 41 42  1  0  0  0
 42 43  1  0  0  0
 42 44  1  0  0  0
 42 45  1  0  0  0
 46 47  1  0  0  0
 47 48  1  0  0  0
 47 49  1  0  0  0
 47 50  1  0  0  0
 51 52  1  0  0  0
 51 53  2  0  0  0
M  END
>  <ACTIVITY>
3.3

>  <SET>
3

>  <Min_dist>
0.28

>  <Avg_dist>
0.6

$$$$
23-8
  Cerius2 12110214133D 1   1.00000                          
Structure written by Cerius2 SD Exporter
 53 55  0  0  0  0  0  0  0  0999 V2000
   11.7950    2.0120   11.3930 N   0  0  0  0  0  0
   10.5960    1.8260   11.9750 C   0  0  0  0  0  0
    9.7990    0.8770   11.4500 N   0  0  0  0  0  0
   10.1010    0.3620   10.6480 H   0  0  0  0  0  0
    8.8980    0.7100   11.8510 H   0  0  0  0  0  0
   10.1400    2.4910   13.0450 N   0  0  0  0  0  0
   10.9440    3.4550   13.5430 C   0  0  0  0  0  0
   10.5100    4.1290   14.6500 N   0  0  0  0  0  0
    9.5880    3.9380   14.9910 H   0  0  0  0  0  0
   11.0240    4.9100   15.0000 H   0  0  0  0  0  0
   12.1980    3.7720   13.0010 C   0  0  0  0  0  0
   13.0960    4.9130   13.5500 C   0  0  0  0  0  0
   13.2220    4.7370   14.6330 H   0  0  0  0  0  0
   12.3940    6.2760   13.3280 C   0  0  0  0  0  0
   12.9980    7.1170   13.7000 H   0  0  0  0  0  0
   12.2320    6.4400   12.2480 H   0  0  0  0  0  0
   11.4120    6.3480   13.8160 H   0  0  0  0  0  0
   14.5060    4.9210   12.8670 C   0  0  0  0  0  0
   14.4370    5.5830   11.9830 H   0  0  0  0  0  0
   14.8800    3.5450   12.3060 C   0  0  0  0  0  0
   15.0220    2.8170   13.1270 H   0  0  0  0  0  0
   15.8380    3.6060   11.7620 H   0  0  0  0  0  0
   13.8440    3.1260   11.3710 N   0  0  0  0  0  0
   14.0760    2.3620   10.7620 H   0  0  0  0  0  0
   12.5770    2.9560   11.9240 C   0  0  0  0  0  0
   15.6270    5.4690   13.7870 C   0  0  0  0  0  0
   15.1560    5.7850   14.7370 H   0  0  0  0  0  0
   16.3110    4.6490   14.0700 H   0  0  0  0  0  0
   16.3890    6.6020   13.3070 N   0  0  0  0  0  0
   17.3710    6.5560   13.5000 H   0  0  0  0  0  0
   16.0380    7.3460   12.1780 C   0  0  0  0  0  0
   17.0240    7.5720   11.2330 C   0  0  0  0  0  0
   17.8990    7.2280   11.3680 H   0  0  0  0  0  0
   16.6990    8.3040   10.1020 C   0  0  0  0  0  0
   15.4150    8.8180    9.9300 C   0  0  0  0  0  0
   14.4870    8.5940   10.9150 C   0  0  0  0  0  0
   13.1300    9.0160   10.9480 O   0  0  0  0  0  0
   12.9260    9.7720    9.7430 C   0  0  0  0  0  0
   12.0280   10.0810    9.7120 H   0  0  0  0  0  0
   13.5180   10.5150    9.7320 H   0  0  0  0  0  0
   13.0970    9.2190    8.9900 H   0  0  0  0  0  0
   14.7840    7.8660   12.0390 C   0  0  0  0  0  0
   13.9920    7.7190   12.8000 H   0  0  0  0  0  0
   15.1220    9.4900    8.8570 O   0  0  0  0  0  0
   16.3250    9.5560    8.1010 C   0  0  0  0  0  0
   17.1250    9.0270    8.6210 H   0  0  0  0  0  0
   16.1640    9.0970    7.1260 H   0  0  0  0  0  0
   16.6110   10.5990    7.9660 H   0  0  0  0  0  0
   17.5960    8.5180    9.1860 O   0  0  0  0  0  0
   18.7210    7.7300    9.5550 C   0  0  0  0  0  0
   18.5090    7.1780   10.4710 H   0  0  0  0  0  0
   18.9470    7.0260    8.7540 H   0  0  0  0  0  0
   19.5810    8.3800    9.7170 H   0  0  0  0  0  0
  1  2  1  0  0  0
  1 25  2  0  0  0
  2  3  1  0  0  0
  2  6  2  0  0  0
  3  4  1  0  0  0
  3  5  1  0  0  0
  6  7  1  0  0  0
  7  8  1  0  0  0
  7 11  2  0  0  0
  8  9  1  0  0  0
  8 10  1  0  0  0
 11 12  1  0  0  0
 11 25  1  0  0  0
 12 13  1  0  0  0
 12 14  1  0  0  0
 12 18  1  0  0  0
 14 15  1  0  0  0
 14 16  1  0  0  0
 14 17  1  0  0  0
 18 19  1  0  0  0
 18 20  1  0  0  0
 18 26  1  0  0  0
 20 21  1  0  0  0
 20 22  1  0  0  0
 20 23  1  0  0  0
 23 24  1  0  0  0
 23 25  1  0  0  0
 26 27  1  0  0  0
 26 28  1  0  0  0
 26 29  1  0  0  0
 29 30  1  0  0  0
 29 31  1  0  0  0
 31 32  1  0  0  0
 31 42  2  0  0  0
 32 33  1  0  0  0
 32 34  2  0  0  0
 34 35  1  0  0  0
 34 49  1  0  0  0
 35 36  2  0  0  0
 35 44  1  0  0  0
 36 37  1  0  0  0
 36 42  1  0  0  0
 37 38  1  0  0  0
 38 39  1  0  0  0
 38 40  1  0  0  0
 38 41  1  0  0  0
 42 43  1  0  0  0
 44 45  1  0  0  0
 45 46  1  0  0  0
 45 47  1  0  0  0
 45 48  1  0  0  0
 49 50  1  0  0  0
 50 51  1  0  0  0
 50 52  1  0  0  0
 50 53  1  0  0  0
M  END
>  <ACTIVITY>
3.3

>  <SET>
3

>  <Min_dist>
0.18

>  <Avg_dist>
0.53

$$$$
23-8b
  Cerius2 12110214133D 1   1.00000                          
Structure written by Cerius2 SD Exporter
 55 57  0  0  0  0  0  0  0  0999 V2000
   11.9250    2.1850   11.4170 N   0  0  0  0  0  0
   10.6920    1.9280   11.8900 C   0  0  0  0  0  0
    9.9720    0.9880   11.2530 N   0  0  0  0  0  0
   10.3500    0.5310   10.4480 H   0  0  0  0  0  0
    9.0490    0.7730   11.5720 H   0  0  0  0  0  0
   10.1330    2.5170   12.9550 N   0  0  0  0  0  0
   10.8610    3.4730   13.5720 C   0  0  0  0  0  0
   10.3150    4.0540   14.6790 N   0  0  0  0  0  0
    9.4070    3.7560   14.9770 H   0  0  0  0  0  0
   10.8050    4.7570   15.1910 H   0  0  0  0  0  0
   12.1360    3.8720   13.1410 C   0  0  0  0  0  0
   12.9520    5.0000   13.8260 C   0  0  0  0  0  0
   13.0610    4.7080   14.8870 H   0  0  0  0  0  0
   12.2130    6.3570   13.7460 C   0  0  0  0  0  0
   12.7980    7.1620   14.2170 H   0  0  0  0  0  0
   12.0500    6.6360   12.6920 H   0  0  0  0  0  0
   11.2280    6.3530   14.2340 H   0  0  0  0  0  0
   14.3670    5.1380   13.1750 C   0  0  0  0  0  0
   14.2520    5.7870   12.2820 H   0  0  0  0  0  0
   14.8740    3.8030   12.6190 C   0  0  0  0  0  0
   14.9990    3.0530   13.4220 H   0  0  0  0  0  0
   15.8600    3.9310   12.1420 H   0  0  0  0  0  0
   13.9250    3.3600   11.6070 N   0  0  0  0  0  0
   14.2320    2.6220   10.9980 H   0  0  0  0  0  0
   12.6270    3.1250   12.0570 C   0  0  0  0  0  0
   15.4150    5.8790   14.0510 C   0  0  0  0  0  0
   14.8950    6.6020   14.7020 H   0  0  0  0  0  0
   15.8670    5.1540   14.7460 H   0  0  0  0  0  0
   16.5170    6.5540   13.3340 N   0  0  0  0  0  0
   16.1180    7.3320   12.1830 C   0  0  0  0  0  0
   17.0670    7.5580   11.2010 C   0  0  0  0  0  0
   17.9550    7.2420   11.3170 H   0  0  0  0  0  0
   16.6850    8.2490   10.0620 C   0  0  0  0  0  0
   15.3820    8.7230    9.9180 C   0  0  0  0  0  0
   14.4930    8.5010   10.9380 C   0  0  0  0  0  0
   13.1270    8.8860   11.0050 O   0  0  0  0  0  0
   12.8960    9.7100    9.8500 C   0  0  0  0  0  0
   11.9910    9.9980    9.8430 H   0  0  0  0  0  0
   13.4690   10.4670    9.8820 H   0  0  0  0  0  0
   13.0750    9.2090    9.0630 H   0  0  0  0  0  0
   14.8470    7.8130   12.0710 C   0  0  0  0  0  0
   14.0870    7.6770   12.8700 H   0  0  0  0  0  0
   15.0360    9.3560    8.8370 O   0  0  0  0  0  0
   16.2440    9.5990    8.1270 C   0  0  0  0  0  0
   17.0910    9.1840    8.6750 H   0  0  0  0  0  0
   16.1860    9.1310    7.1450 H   0  0  0  0  0  0
   16.3830   10.6740    8.0070 H   0  0  0  0  0  0
   17.5460    8.4620    9.1120 O   0  0  0  0  0  0
   18.7280    7.7720    9.4980 C   0  0  0  0  0  0
   18.5720    7.2660   10.4520 H   0  0  0  0  0  0
   18.9820    7.0350    8.7360 H   0  0  0  0  0  0
   19.5470    8.4850    9.5980 H   0  0  0  0  0  0
   17.8000    6.3380   13.7890 C   0  0  0  0  0  0
   17.8230    5.6800   14.6900 H   0  0  0  0  0  0
   18.8490    6.7690   13.3320 O   0  0  0  0  0  0
  1  2  1  0  0  0
  1 25  2  0  0  0
  2  3  1  0  0  0
  2  6  2  0  0  0
  3  4  1  0  0  0
  3  5  1  0  0  0
  6  7  1  0  0  0
  7  8  1  0  0  0
  7 11  2  0  0  0
  8  9  1  0  0  0
  8 10  1  0  0  0
 11 12  1  0  0  0
 11 25  1  0  0  0
 12 13  1  0  0  0
 12 14  1  0  0  0
 12 18  1  0  0  0
 14 15  1  0  0  0
 14 16  1  0  0  0
 14 17  1  0  0  0
 18 19  1  0  0  0
 18 20  1  0  0  0
 18 26  1  0  0  0
 20 21  1  0  0  0
 20 22  1  0  0  0
 20 23  1  0  0  0
 23 24  1  0  0  0
 23 25  1  0  0  0
 26 27  1  0  0  0
 26 28  1  0  0  0
 26 29  1  0  0  0
 29 30  1  0  0  0
 29 53  1  0  0  0
 30 31  1  0  0  0
 30 41  2  0  0  0
 31 32  1  0  0  0
 31 33  2  0  0  0
 33 34  1  0  0  0
 33 48  1  0  0  0
 34 35  2  0  0  0
 34 43  1  0  0  0
 35 36  1  0  0  0
 35 41  1  0  0  0
 36 37  1  0  0  0
 37 38  1  0  0  0
 37 39  1  0  0  0
 37 40  1  0  0  0
 41 42  1  0  0  0
 43 44  1  0  0  0
 44 45  1  0  0  0
 44 46  1  0  0  0
 44 47  1  0  0  0
 48 49  1  0  0  0
 49 50  1  0  0  0
 49 51  1  0  0  0
 49 52  1  0  0  0
 53 54  1  0  0  0
 53 55  2  0  0  0
M  END
>  <ACTIVITY>
3.3

>  <SET>
3

>  <Min_dist>
0.28

>  <Avg_dist>
0.58

$$$$
24-2a
  Cerius2 12110214133D 1   1.00000                          
Structure written by Cerius2 SD Exporter
 45 47  0  0  0  0  0  0  0  0999 V2000
   10.1210    2.6090   12.8030 N   0  0  0  0  0  0
   10.8030    1.9560   11.8750 C   0  0  0  0  0  0
   12.0820    2.1670   11.6060 N   0  0  0  0  0  0
   12.7260    3.0870   12.3030 C   0  0  0  0  0  0
   12.1370    3.8560   13.3140 C   0  0  0  0  0  0
   10.7740    3.5440   13.5120 C   0  0  0  0  0  0
    9.9750    4.1680   14.4590 N   0  0  0  0  0  0
   10.2490    4.0060   15.4250 H   0  0  0  0  0  0
    9.8160    5.1600   14.2980 H   0  0  0  0  0  0
   12.9720    4.8290   13.9940 C   0  0  0  0  0  0
   14.3250    4.9530   13.6210 C   0  0  0  0  0  0
   14.7690    4.1310   12.5980 C   0  0  0  0  0  0
   15.7980    4.1810   12.2450 H   0  0  0  0  0  0
   14.0020    3.2230   11.9570 N   0  0  0  0  0  0
   15.3090    5.9240   14.2380 C   0  0  0  0  0  0
   15.7960    5.4480   15.0980 H   0  0  0  0  0  0
   14.7590    6.7910   14.6200 H   0  0  0  0  0  0
   16.3080    6.3070   13.2570 N   0  0  0  0  0  0
   17.2470    5.9420   13.4050 H   0  0  0  0  0  0
   16.0990    7.1110   12.1440 C   0  0  0  0  0  0
   14.8030    7.6440   11.9870 C   0  0  0  0  0  0
   14.0360    7.4040   12.7240 H   0  0  0  0  0  0
   14.4550    8.4780   10.9200 C   0  0  0  0  0  0
   15.4200    8.7950    9.9740 C   0  0  0  0  0  0
   15.2060    9.4370    9.1240 H   0  0  0  0  0  0
   16.7150    8.2830   10.0990 C   0  0  0  0  0  0
   17.4320    8.5640    9.3310 H   0  0  0  0  0  0
   17.0670    7.4460   11.1700 C   0  0  0  0  0  0
   18.3260    6.9220   11.3230 O   0  0  0  0  0  0
   19.3300    7.2990   10.3850 C   0  0  0  0  0  0
   20.2520    6.7760   10.6580 H   0  0  0  0  0  0
   19.5320    8.3740   10.4350 H   0  0  0  0  0  0
   19.0590    6.9880    9.3700 H   0  0  0  0  0  0
   13.1570    8.9070   10.9220 O   0  0  0  0  0  0
   12.7600    9.7570    9.8460 C   0  0  0  0  0  0
   11.7070   10.0120    9.9960 H   0  0  0  0  0  0
   12.8440    9.2390    8.8850 H   0  0  0  0  0  0
   13.3340   10.6890    9.8480 H   0  0  0  0  0  0
   12.4070    5.7030   15.0880 C   0  0  0  0  0  0
   12.0610    5.0880   15.9240 H   0  0  0  0  0  0
   11.5920    6.3180   14.6980 H   0  0  0  0  0  0
   13.1340    6.4020   15.5080 H   0  0  0  0  0  0
   10.1480    1.0070   11.1520 N   0  0  0  0  0  0
   10.6380    0.4910   10.4370 H   0  0  0  0  0  0
    9.1720    0.8240   11.3370 H   0  0  0  0  0  0
  1  2  1  0  0  0
  1  6  2  0  0  0
  2  3  2  0  0  0
  2 43  1  0  0  0
  3  4  1  0  0  0
  4  5  2  0  0  0
  4 14  1  0  0  0
  5  6  1  0  0  0
  5 10  1  0  0  0
  6  7  1  0  0  0
  7  8  1  0  0  0
  7  9  1  0  0  0
 10 11  2  0  0  0
 10 39  1  0  0  0
 11 12  1  0  0  0
 11 15  1  0  0  0
 12 13  1  0  0  0
 12 14  2  0  0  0
 15 16  1  0  0  0
 15 17  1  0  0  0
 15 18  1  0  0  0
 18 19  1  0  0  0
 18 20  1  0  0  0
 20 21  1  0  0  0
 20 28  2  0  0  0
 21 22  1  0  0  0
 21 23  2  0  0  0
 23 24  1  0  0  0
 23 34  1  0  0  0
 24 25  1  0  0  0
 24 26  2  0  0  0
 26 27  1  0  0  0
 26 28  1  0  0  0
 28 29  1  0  0  0
 29 30  1  0  0  0
 30 31  1  0  0  0
 30 32  1  0  0  0
 30 33  1  0  0  0
 34 35  1  0  0  0
 35 36  1  0  0  0
 35 37  1  0  0  0
 35 38  1  0  0  0
 39 40  1  0  0  0
 39 41  1  0  0  0
 39 42  1  0  0  0
 43 44  1  0  0  0
 43 45  1  0  0  0
M  END
>  <ACTIVITY>
6.89

>  <SET>
1

>  <Min_dist>
999.9

>  <Avg_dist>
999.9

$$$$
24-2b
  Cerius2 12110214133D 1   1.00000                          
Structure written by Cerius2 SD Exporter
 45 47  0  0  0  0  0  0  0  0999 V2000
   10.1120    2.6470   12.7790 N   0  0  0  0  0  0
   10.7920    1.9690   11.8680 C   0  0  0  0  0  0
   12.0790    2.1510   11.6160 N   0  0  0  0  0  0
   12.7340    3.0580   12.3200 C   0  0  0  0  0  0
   12.1550    3.8340   13.3310 C   0  0  0  0  0  0
   10.7750    3.5710   13.4920 C   0  0  0  0  0  0
    9.9710    4.2370   14.4050 N   0  0  0  0  0  0
   10.1370    3.9950   15.3790 H   0  0  0  0  0  0
    9.9320    5.2470   14.2890 H   0  0  0  0  0  0
   13.0120    4.7710   14.0360 C   0  0  0  0  0  0
   14.3420    4.9470   13.6060 C   0  0  0  0  0  0
   14.7820    4.0920   12.6070 C   0  0  0  0  0  0
   15.8140    4.1260   12.2580 H   0  0  0  0  0  0
   14.0140    3.1710   11.9840 N   0  0  0  0  0  0
   15.3250    5.9360   14.2010 C   0  0  0  0  0  0
   15.7900    5.4530   15.0690 H   0  0  0  0  0  0
   14.8270    6.8490   14.5340 H   0  0  0  0  0  0
   16.3280    6.3350   13.2210 N   0  0  0  0  0  0
   17.1740    5.7660   13.1830 H   0  0  0  0  0  0
   16.0730    7.1580   12.1390 C   0  0  0  0  0  0
   14.7890    7.6960   11.9890 C   0  0  0  0  0  0
   14.0270    7.4840   12.7390 H   0  0  0  0  0  0
   14.4470    8.5050   10.8980 C   0  0  0  0  0  0
   15.4030    8.7810    9.9200 C   0  0  0  0  0  0
   15.1500    9.4070    9.0730 H   0  0  0  0  0  0
   16.6860    8.2420   10.0350 C   0  0  0  0  0  0
   17.0060    7.4340   11.1350 C   0  0  0  0  0  0
   18.0140    7.0290   11.1900 H   0  0  0  0  0  0
   17.7140    8.4240    9.1490 O   0  0  0  0  0  0
   18.9310    7.7290    9.4160 C   0  0  0  0  0  0
   19.6410    7.9840    8.6230 H   0  0  0  0  0  0
   18.7780    6.6450    9.3920 H   0  0  0  0  0  0
   19.3660    8.0500   10.3690 H   0  0  0  0  0  0
   13.1540    8.9570   10.9070 O   0  0  0  0  0  0
   12.7490    9.7840    9.8170 C   0  0  0  0  0  0
   11.7000   10.0520    9.9760 H   0  0  0  0  0  0
   12.8160    9.2430    8.8680 H   0  0  0  0  0  0
   13.3310   10.7110    9.7900 H   0  0  0  0  0  0
   12.4860    5.5600   15.2110 C   0  0  0  0  0  0
   11.9260    4.9130   15.8920 H   0  0  0  0  0  0
   11.8590    6.3870   14.8660 H   0  0  0  0  0  0
   13.2800    5.9690   15.8400 H   0  0  0  0  0  0
   10.1260    1.0300   11.1430 N   0  0  0  0  0  0
   10.6160    0.4970   10.4390 H   0  0  0  0  0  0
    9.1430    0.8730   11.3110 H   0  0  0  0  0  0
  1  2  1  0  0  0
  1  6  2  0  0  0
  2  3  2  0  0  0
  2 43  1  0  0  0
  3  4  1  0  0  0
  4  5  2  0  0  0
  4 14  1  0  0  0
  5  6  1  0  0  0
  5 10  1  0  0  0
  6  7  1  0  0  0
  7  8  1  0  0  0
  7  9  1  0  0  0
 10 11  2  0  0  0
 10 39  1  0  0  0
 11 12  1  0  0  0
 11 15  1  0  0  0
 12 13  1  0  0  0
 12 14  2  0  0  0
 15 16  1  0  0  0
 15 17  1  0  0  0
 15 18  1  0  0  0
 18 19  1  0  0  0
 18 20  1  0  0  0
 20 21  1  0  0  0
 20 27  2  0  0  0
 21 22  1  0  0  0
 21 23  2  0  0  0
 23 24  1  0  0  0
 23 34  1  0  0  0
 24 25  1  0  0  0
 24 26  2  0  0  0
 26 27  1  0  0  0
 26 29  1  0  0  0
 27 28  1  0  0  0
 29 30  1  0  0  0
 30 31  1  0  0  0
 30 32  1  0  0  0
 30 33  1  0  0  0
 34 35  1  0  0  0
 35 36  1  0  0  0
 35 37  1  0  0  0
 35 38  1  0  0  0
 39 40  1  0  0  0
 39 41  1  0  0  0
 39 42  1  0  0  0
 43 44  1  0  0  0
 43 45  1  0  0  0
M  END
>  <ACTIVITY>
7.37

>  <SET>
1

>  <Min_dist>
999.9

>  <Avg_dist>
999.9

$$$$
24-2c
  Cerius2 12110214133D 1   1.00000                          
Structure written by Cerius2 SD Exporter
 45 47  0  0  0  0  0  0  0  0999 V2000
   10.1230    2.6180   12.7970 N   0  0  0  0  0  0
   10.8050    1.9680   11.8660 C   0  0  0  0  0  0
   12.0860    2.1720   11.6060 N   0  0  0  0  0  0
   12.7330    3.0840   12.3120 C   0  0  0  0  0  0
   12.1430    3.8530   13.3230 C   0  0  0  0  0  0
   10.7780    3.5430   13.5150 C   0  0  0  0  0  0
    9.9810    4.1600   14.4690 N   0  0  0  0  0  0
   10.2560    3.9830   15.4320 H   0  0  0  0  0  0
    9.8300    5.1550   14.3200 H   0  0  0  0  0  0
   12.9770    4.8220   14.0070 C   0  0  0  0  0  0
   14.3340    4.9380   13.6430 C   0  0  0  0  0  0
   14.7800    4.1150   12.6220 C   0  0  0  0  0  0
   15.8110    4.1620   12.2750 H   0  0  0  0  0  0
   14.0110    3.2130   11.9740 N   0  0  0  0  0  0
   15.3180    5.9070   14.2610 C   0  0  0  0  0  0
   15.8050    5.4260   15.1180 H   0  0  0  0  0  0
   14.7750    6.7760   14.6480 H   0  0  0  0  0  0
   16.3140    6.2890   13.2760 N   0  0  0  0  0  0
   17.2540    5.9230   13.4220 H   0  0  0  0  0  0
   16.1070    7.0910   12.1650 C   0  0  0  0  0  0
   14.8120    7.6140   12.0020 C   0  0  0  0  0  0
   14.0340    7.3840   12.7300 H   0  0  0  0  0  0
   14.4760    8.4300   10.9190 C   0  0  0  0  0  0
   13.4610    8.8110   10.8340 H   0  0  0  0  0  0
   15.4290    8.7500    9.9590 C   0  0  0  0  0  0
   16.7240    8.2470   10.0940 C   0  0  0  0  0  0
   17.4670    8.4940    9.3460 H   0  0  0  0  0  0
   17.0730    7.4250   11.1850 C   0  0  0  0  0  0
   18.3370    6.9110   11.3540 O   0  0  0  0  0  0
   19.3470    7.2740   10.4160 C   0  0  0  0  0  0
   20.2770    6.7900   10.7280 H   0  0  0  0  0  0
   19.5170    8.3550   10.4180 H   0  0  0  0  0  0
   19.1040    6.9080    9.4130 H   0  0  0  0  0  0
   14.9760    9.5550    8.9500 O   0  0  0  0  0  0
   15.8800    9.8280    7.8810 C   0  0  0  0  0  0
   15.3650   10.4790    7.1690 H   0  0  0  0  0  0
   16.1550    8.9080    7.3560 H   0  0  0  0  0  0
   16.7660   10.3620    8.2410 H   0  0  0  0  0  0
   12.4090    5.7010   15.0950 C   0  0  0  0  0  0
   12.0660    5.0920   15.9360 H   0  0  0  0  0  0
   11.5900    6.3110   14.7010 H   0  0  0  0  0  0
   13.1310    6.4090   15.5070 H   0  0  0  0  0  0
   10.1470    1.0320   11.1300 N   0  0  0  0  0  0
   10.6390    0.5170   10.4150 H   0  0  0  0  0  0
    9.1690    0.8520   11.3090 H   0  0  0  0  0  0
  1  2  1  0  0  0
  1  6  2  0  0  0
  2  3  2  0  0  0
  2 43  1  0  0  0
  3  4  1  0  0  0
  4  5  2  0  0  0
  4 14  1  0  0  0
  5  6  1  0  0  0
  5 10  1  0  0  0
  6  7  1  0  0  0
  7  8  1  0  0  0
  7  9  1  0  0  0
 10 11  2  0  0  0
 10 39  1  0  0  0
 11 12  1  0  0  0
 11 15  1  0  0  0
 12 13  1  0  0  0
 12 14  2  0  0  0
 15 16  1  0  0  0
 15 17  1  0  0  0
 15 18  1  0  0  0
 18 19  1  0  0  0
 18 20  1  0  0  0
 20 21  1  0  0  0
 20 28  2  0  0  0
 21 22  1  0  0  0
 21 23  2  0  0  0
 23 24  1  0  0  0
 23 25  1  0  0  0
 25 26  2  0  0  0
 25 34  1  0  0  0
 26 27  1  0  0  0
 26 28  1  0  0  0
 28 29  1  0  0  0
 29 30  1  0  0  0
 30 31  1  0  0  0
 30 32  1  0  0  0
 30 33  1  0  0  0
 34 35  1  0  0  0
 35 36  1  0  0  0
 35 37  1  0  0  0
 35 38  1  0  0  0
 39 40  1  0  0  0
 39 41  1  0  0  0
 39 42  1  0  0  0
 43 44  1  0  0  0
 43 45  1  0  0  0
M  END
>  <ACTIVITY>
6.67

>  <SET>
1

>  <Min_dist>
999.9

>  <Avg_dist>
999.9

$$$$
24-2d
  Cerius2 12110214133D 1   1.00000                          
Structure written by Cerius2 SD Exporter
 45 47  0  0  0  0  0  0  0  0999 V2000
   10.1320    2.6280   12.8070 N   0  0  0  0  0  0
   10.8050    1.9700   11.8760 C   0  0  0  0  0  0
   12.0850    2.1700   11.6040 N   0  0  0  0  0  0
   12.7390    3.0830   12.3020 C   0  0  0  0  0  0
   12.1600    3.8560   13.3150 C   0  0  0  0  0  0
   10.7940    3.5550   13.5160 C   0  0  0  0  0  0
   10.0040    4.1850   14.4670 N   0  0  0  0  0  0
   10.2810    4.0190   15.4310 H   0  0  0  0  0  0
    9.8520    5.1770   14.3070 H   0  0  0  0  0  0
   13.0050    4.8210   13.9930 C   0  0  0  0  0  0
   14.3580    4.9330   13.6180 C   0  0  0  0  0  0
   14.7920    4.1090   12.5930 C   0  0  0  0  0  0
   15.8220    4.1500   12.2390 H   0  0  0  0  0  0
   14.0150    3.2080   11.9530 N   0  0  0  0  0  0
   15.3500    5.8940   14.2320 C   0  0  0  0  0  0
   15.8510    5.4150   15.0830 H   0  0  0  0  0  0
   14.8170    6.7610   14.6390 H   0  0  0  0  0  0
   16.3380    6.2900   13.2440 N   0  0  0  0  0  0
   17.2850    5.9360   13.3670 H   0  0  0  0  0  0
   16.0730    7.0890   12.1510 C   0  0  0  0  0  0
   14.7890    7.6330   12.0060 C   0  0  0  0  0  0
   14.0200    7.4210   12.7480 H   0  0  0  0  0  0
   14.4610    8.4600   10.9240 C   0  0  0  0  0  0
   13.4560    8.8690   10.8500 H   0  0  0  0  0  0
   15.4190    8.7690    9.9620 C   0  0  0  0  0  0
   16.6870    8.1940   10.0640 C   0  0  0  0  0  0
   17.0170    7.3850   11.1610 C   0  0  0  0  0  0
   18.0260    6.9830   11.2170 H   0  0  0  0  0  0
   17.6590    8.4180    9.1230 O   0  0  0  0  0  0
   18.8550    7.7180    9.4870 C   0  0  0  0  0  0
   19.6000    7.9050    8.7070 H   0  0  0  0  0  0
   18.6830    6.6370    9.5390 H   0  0  0  0  0  0
   19.2560    8.0890   10.4360 H   0  0  0  0  0  0
   14.9980    9.5830    8.9450 O   0  0  0  0  0  0
   15.9700    9.7730    7.9150 C   0  0  0  0  0  0
   15.7910   10.7560    7.4690 H   0  0  0  0  0  0
   15.8390    9.0240    7.1280 H   0  0  0  0  0  0
   16.9970    9.7610    8.2980 H   0  0  0  0  0  0
   12.4510    5.7000   15.0880 C   0  0  0  0  0  0
   13.1830    6.3970   15.5020 H   0  0  0  0  0  0
   12.1050    5.0890   15.9270 H   0  0  0  0  0  0
   11.6360    6.3200   14.7010 H   0  0  0  0  0  0
   10.1390    1.0290   11.1520 N   0  0  0  0  0  0
   10.6230    0.5100   10.4350 H   0  0  0  0  0  0
    9.1620    0.8560   11.3380 H   0  0  0  0  0  0
  1  2  1  0  0  0
  1  6  2  0  0  0
  2  3  2  0  0  0
  2 43  1  0  0  0
  3  4  1  0  0  0
  4  5  2  0  0  0
  4 14  1  0  0  0
  5  6  1  0  0  0
  5 10  1  0  0  0
  6  7  1  0  0  0
  7  8  1  0  0  0
  7  9  1  0  0  0
 10 11  2  0  0  0
 10 39  1  0  0  0
 11 12  1  0  0  0
 11 15  1  0  0  0
 12 13  1  0  0  0
 12 14  2  0  0  0
 15 16  1  0  0  0
 15 17  1  0  0  0
 15 18  1  0  0  0
 18 19  1  0  0  0
 18 20  1  0  0  0
 20 21  1  0  0  0
 20 27  2  0  0  0
 21 22  1  0  0  0
 21 23  2  0  0  0
 23 24  1  0  0  0
 23 25  1  0  0  0
 25 26  2  0  0  0
 25 34  1  0  0  0
 26 27  1  0  0  0
 26 29  1  0  0  0
 27 28  1  0  0  0
 29 30  1  0  0  0
 30 31  1  0  0  0
 30 32  1  0  0  0
 30 33  1  0  0  0
 34 35  1  0  0  0
 35 36  1  0  0  0
 35 37  1  0  0  0
 35 38  1  0  0  0
 39 40  1  0  0  0
 39 41  1  0  0  0
 39 42  1  0  0  0
 43 44  1  0  0  0
 43 45  1  0  0  0
M  END
>  <ACTIVITY>
8.12

>  <SET>
1

>  <Min_dist>
999.9

>  <Avg_dist>
999.9

$$$$
24-2e
  Cerius2 12110214133D 1   1.00000                          
Structure written by Cerius2 SD Exporter
 51 53  0  0  0  0  0  0  0  0999 V2000
   10.1230    2.5980   12.8140 N   0  0  0  0  0  0
   10.8020    1.9470   11.8810 C   0  0  0  0  0  0
   12.0760    2.1680   11.6020 N   0  0  0  0  0  0
   12.7190    3.0940   12.2920 C   0  0  0  0  0  0
   12.1320    3.8660   13.3010 C   0  0  0  0  0  0
   10.7740    3.5400   13.5140 C   0  0  0  0  0  0
    9.9820    4.1500   14.4770 N   0  0  0  0  0  0
   10.2790    3.9900   15.4370 H   0  0  0  0  0  0
    9.7990    5.1380   14.3230 H   0  0  0  0  0  0
   12.9630    4.8490   13.9690 C   0  0  0  0  0  0
   14.3200    4.9620   13.6040 C   0  0  0  0  0  0
   14.7630    4.1370   12.5840 C   0  0  0  0  0  0
   15.7950    4.1790   12.2350 H   0  0  0  0  0  0
   13.9930    3.2320   11.9410 N   0  0  0  0  0  0
   15.3140    5.9110   14.2400 C   0  0  0  0  0  0
   15.7910    5.4080   15.0900 H   0  0  0  0  0  0
   14.7710    6.7740   14.6410 H   0  0  0  0  0  0
   16.3220    6.3100   13.2750 N   0  0  0  0  0  0
   17.2530    5.9210   13.4070 H   0  0  0  0  0  0
   16.1090    7.1160   12.1650 C   0  0  0  0  0  0
   14.8130    7.6480   12.0070 C   0  0  0  0  0  0
   14.0480    7.4140   12.7470 H   0  0  0  0  0  0
   14.4620    8.4710   10.9310 C   0  0  0  0  0  0
   15.4240    8.7800    9.9790 C   0  0  0  0  0  0
   15.2100    9.4190    9.1260 H   0  0  0  0  0  0
   16.7180    8.2680   10.1020 C   0  0  0  0  0  0
   17.4440    8.5530    9.3440 H   0  0  0  0  0  0
   17.0660    7.4310   11.1750 C   0  0  0  0  0  0
   18.3330    6.9290   11.3290 O   0  0  0  0  0  0
   19.3180    7.3180   10.3670 C   0  0  0  0  0  0
   19.6420    8.3470   10.5580 H   0  0  0  0  0  0
   18.9240    7.2260    9.3480 H   0  0  0  0  0  0
   20.5050    6.3830   10.5270 C   0  0  0  0  0  0
   21.2980    6.6320    9.8160 H   0  0  0  0  0  0
   20.1990    5.3440   10.3670 H   0  0  0  0  0  0
   20.9080    6.4430   11.5430 H   0  0  0  0  0  0
   13.1620    8.8980   10.9310 O   0  0  0  0  0  0
   12.7600    9.7510    9.8540 C   0  0  0  0  0  0
   12.8800    9.2340    8.8950 H   0  0  0  0  0  0
   13.3500   10.6740    9.8630 H   0  0  0  0  0  0
   11.2940   10.0940   10.0500 C   0  0  0  0  0  0
   10.9390   10.7560    9.2550 H   0  0  0  0  0  0
   11.1380   10.5870   11.0150 H   0  0  0  0  0  0
   10.6820    9.1860   10.0520 H   0  0  0  0  0  0
   12.3940    5.7430   15.0440 C   0  0  0  0  0  0
   12.0670    5.1480   15.9020 H   0  0  0  0  0  0
   11.5620    6.3300   14.6440 H   0  0  0  0  0  0
   13.1110    6.4710   15.4300 H   0  0  0  0  0  0
   10.1490    0.9890   11.1690 N   0  0  0  0  0  0
   10.6410    0.4660   10.4600 H   0  0  0  0  0  0
    9.1800    0.7920   11.3730 H   0  0  0  0  0  0
  1  2  1  0  0  0
  1  6  2  0  0  0
  2  3  2  0  0  0
  2 49  1  0  0  0
  3  4  1  0  0  0
  4  5  2  0  0  0
  4 14  1  0  0  0
  5  6  1  0  0  0
  5 10  1  0  0  0
  6  7  1  0  0  0
  7  8  1  0  0  0
  7  9  1  0  0  0
 10 11  2  0  0  0
 10 45  1  0  0  0
 11 12  1  0  0  0
 11 15  1  0  0  0
 12 13  1  0  0  0
 12 14  2  0  0  0
 15 16  1  0  0  0
 15 17  1  0  0  0
 15 18  1  0  0  0
 18 19  1  0  0  0
 18 20  1  0  0  0
 20 21  1  0  0  0
 20 28  2  0  0  0
 21 22  1  0  0  0
 21 23  2  0  0  0
 23 24  1  0  0  0
 23 37  1  0  0  0
 24 25  1  0  0  0
 24 26  2  0  0  0
 26 27  1  0  0  0
 26 28  1  0  0  0
 28 29  1  0  0  0
 29 30  1  0  0  0
 30 31  1  0  0  0
 30 32  1  0  0  0
 30 33  1  0  0  0
 33 34  1  0  0  0
 33 35  1  0  0  0
 33 36  1  0  0  0
 37 38  1  0  0  0
 38 39  1  0  0  0
 38 40  1  0  0  0
 38 41  1  0  0  0
 41 42  1  0  0  0
 41 43  1  0  0  0
 41 44  1  0  0  0
 45 46  1  0  0  0
 45 47  1  0  0  0
 45 48  1  0  0  0
 49 50  1  0  0  0
 49 51  1  0  0  0
M  END
>  <ACTIVITY>
7.76

>  <SET>
1

>  <Min_dist>
999.9

>  <Avg_dist>
999.9

$$$$
24-3a
  Cerius2 12110214133D 1   1.00000                          
Structure written by Cerius2 SD Exporter
 48 50  0  0  0  0  0  0  0  0999 V2000
   10.1290    2.5950   12.8280 N   0  0  0  0  0  0
   10.8020    1.9430   11.8920 C   0  0  0  0  0  0
   12.0740    2.1630   11.6020 N   0  0  0  0  0  0
   12.7210    3.0940   12.2840 C   0  0  0  0  0  0
   12.1400    3.8690   13.2940 C   0  0  0  0  0  0
   10.7850    3.5380   13.5220 C   0  0  0  0  0  0
    9.9960    4.1590   14.4800 N   0  0  0  0  0  0
   10.3150    4.0420   15.4390 H   0  0  0  0  0  0
    9.7850    5.1360   14.2930 H   0  0  0  0  0  0
   12.9730    4.8610   13.9460 C   0  0  0  0  0  0
   14.3280    4.9750   13.5720 C   0  0  0  0  0  0
   14.7650    4.1420   12.5550 C   0  0  0  0  0  0
   15.7960    4.1760   12.2060 H   0  0  0  0  0  0
   13.9920    3.2330   11.9220 N   0  0  0  0  0  0
   15.3250    5.9310   14.1940 C   0  0  0  0  0  0
   15.7220    5.4510   15.0980 H   0  0  0  0  0  0
   14.8220    6.8460   14.5340 H   0  0  0  0  0  0
   16.3990    6.2860   13.2530 N   0  0  0  0  0  0
   16.0810    7.1220   12.1670 C   0  0  0  0  0  0
   14.7870    7.6550   12.0190 C   0  0  0  0  0  0
   14.0130    7.4170   12.7460 H   0  0  0  0  0  0
   14.4450    8.4750   10.9370 C   0  0  0  0  0  0
   15.4080    8.7720    9.9790 C   0  0  0  0  0  0
   15.1930    9.4030    9.1210 H   0  0  0  0  0  0
   16.7030    8.2570   10.1010 C   0  0  0  0  0  0
   17.4210    8.5220    9.3280 H   0  0  0  0  0  0
   17.0500    7.4380   11.1820 C   0  0  0  0  0  0
   18.3090    6.9220   11.3830 O   0  0  0  0  0  0
   19.3200    7.2670   10.4410 C   0  0  0  0  0  0
   20.2470    6.7750   10.7530 H   0  0  0  0  0  0
   19.5020    8.3470   10.4360 H   0  0  0  0  0  0
   19.0690    6.8990    9.4410 H   0  0  0  0  0  0
   13.1480    8.9100   10.9340 O   0  0  0  0  0  0
   12.7550    9.7540    9.8530 C   0  0  0  0  0  0
   11.7020   10.0110    9.9980 H   0  0  0  0  0  0
   12.8430    9.2310    8.8950 H   0  0  0  0  0  0
   13.3300   10.6850    9.8520 H   0  0  0  0  0  0
   17.4060    5.2660   12.9480 C   0  0  0  0  0  0
   18.2650    5.6760   12.4070 H   0  0  0  0  0  0
   16.9670    4.4670   12.3390 H   0  0  0  0  0  0
   17.7990    4.8160   13.8650 H   0  0  0  0  0  0
   12.4110    5.7570   15.0230 C   0  0  0  0  0  0
   12.1640    5.1710   15.9130 H   0  0  0  0  0  0
   11.5300    6.2890   14.6550 H   0  0  0  0  0  0
   13.1010    6.5410   15.3390 H   0  0  0  0  0  0
   10.1430    0.9860   11.1840 N   0  0  0  0  0  0
   10.6270    0.4700   10.4640 H   0  0  0  0  0  0
    9.1720    0.7960   11.3840 H   0  0  0  0  0  0
  1  2  1  0  0  0
  1  6  2  0  0  0
  2  3  2  0  0  0
  2 46  1  0  0  0
  3  4  1  0  0  0
  4  5  2  0  0  0
  4 14  1  0  0  0
  5  6  1  0  0  0
  5 10  1  0  0  0
  6  7  1  0  0  0
  7  8  1  0  0  0
  7  9  1  0  0  0
 10 11  2  0  0  0
 10 42  1  0  0  0
 11 12  1  0  0  0
 11 15  1  0  0  0
 12 13  1  0  0  0
 12 14  2  0  0  0
 15 16  1  0  0  0
 15 17  1  0  0  0
 15 18  1  0  0  0
 18 19  1  0  0  0
 18 38  1  0  0  0
 19 20  1  0  0  0
 19 27  2  0  0  0
 20 21  1  0  0  0
 20 22  2  0  0  0
 22 23  1  0  0  0
 22 33  1  0  0  0
 23 24  1  0  0  0
 23 25  2  0  0  0
 25 26  1  0  0  0
 25 27  1  0  0  0
 27 28  1  0  0  0
 28 29  1  0  0  0
 29 30  1  0  0  0
 29 31  1  0  0  0
 29 32  1  0  0  0
 33 34  1  0  0  0
 34 35  1  0  0  0
 34 36  1  0  0  0
 34 37  1  0  0  0
 38 39  1  0  0  0
 38 40  1  0  0  0
 38 41  1  0  0  0
 42 43  1  0  0  0
 42 44  1  0  0  0
 42 45  1  0  0  0
 46 47  1  0  0  0
 46 48  1  0  0  0
M  END
>  <ACTIVITY>
6.39

>  <SET>
1

>  <Min_dist>
999.9

>  <Avg_dist>
999.9

$$$$
24-3c
  Cerius2 12110214133D 1   1.00000                          
Structure written by Cerius2 SD Exporter
 48 50  0  0  0  0  0  0  0  0999 V2000
   10.1310    2.6040   12.8210 N   0  0  0  0  0  0
   10.8030    1.9520   11.8850 C   0  0  0  0  0  0
   12.0790    2.1670   11.6030 N   0  0  0  0  0  0
   12.7270    3.0910   12.2900 C   0  0  0  0  0  0
   12.1460    3.8660   13.3010 C   0  0  0  0  0  0
   10.7880    3.5420   13.5220 C   0  0  0  0  0  0
    9.9980    4.1630   14.4780 N   0  0  0  0  0  0
   10.3100    4.0390   15.4380 H   0  0  0  0  0  0
    9.7950    5.1430   14.2940 H   0  0  0  0  0  0
   12.9820    4.8510   13.9610 C   0  0  0  0  0  0
   14.3370    4.9620   13.5900 C   0  0  0  0  0  0
   14.7750    4.1300   12.5720 C   0  0  0  0  0  0
   15.8070    4.1620   12.2260 H   0  0  0  0  0  0
   14.0010    3.2250   11.9350 N   0  0  0  0  0  0
   15.3350    5.9160   14.2150 C   0  0  0  0  0  0
   15.7310    5.4330   15.1180 H   0  0  0  0  0  0
   14.8330    6.8300   14.5590 H   0  0  0  0  0  0
   16.4080    6.2740   13.2750 N   0  0  0  0  0  0
   16.0870    7.1010   12.1840 C   0  0  0  0  0  0
   14.7950    7.6260   12.0330 C   0  0  0  0  0  0
   14.0120    7.3970   12.7530 H   0  0  0  0  0  0
   14.4670    8.4340   10.9410 C   0  0  0  0  0  0
   13.4530    8.8210   10.8520 H   0  0  0  0  0  0
   15.4200    8.7390    9.9720 C   0  0  0  0  0  0
   16.7130    8.2300   10.1010 C   0  0  0  0  0  0
   17.4590    8.4690    9.3520 H   0  0  0  0  0  0
   17.0540    7.4160   11.1950 C   0  0  0  0  0  0
   18.3150    6.9040   11.4070 O   0  0  0  0  0  0
   19.3360    7.2420   10.4720 C   0  0  0  0  0  0
   20.2540    6.7360   10.7850 H   0  0  0  0  0  0
   19.5320    8.3190   10.4770 H   0  0  0  0  0  0
   19.0850    6.8850    9.4680 H   0  0  0  0  0  0
   14.9660    9.5390    8.9590 O   0  0  0  0  0  0
   15.8760    9.8180    7.8960 C   0  0  0  0  0  0
   15.3600   10.4630    7.1780 H   0  0  0  0  0  0
   16.1640    8.9000    7.3750 H   0  0  0  0  0  0
   16.7530   10.3610    8.2630 H   0  0  0  0  0  0
   17.4210    5.2570   12.9770 C   0  0  0  0  0  0
   18.2820    5.6700   12.4410 H   0  0  0  0  0  0
   16.9890    4.4560   12.3650 H   0  0  0  0  0  0
   17.8100    4.8090   13.8960 H   0  0  0  0  0  0
   12.4200    5.7430   15.0410 C   0  0  0  0  0  0
   12.1620    5.1510   15.9250 H   0  0  0  0  0  0
   11.5460    6.2850   14.6710 H   0  0  0  0  0  0
   13.1150    6.5170   15.3700 H   0  0  0  0  0  0
   10.1430    1.0020   11.1700 N   0  0  0  0  0  0
   10.6270    0.4880   10.4480 H   0  0  0  0  0  0
    9.1700    0.8170   11.3650 H   0  0  0  0  0  0
  1  2  1  0  0  0
  1  6  2  0  0  0
  2  3  2  0  0  0
  2 46  1  0  0  0
  3  4  1  0  0  0
  4  5  2  0  0  0
  4 14  1  0  0  0
  5  6  1  0  0  0
  5 10  1  0  0  0
  6  7  1  0  0  0
  7  8  1  0  0  0
  7  9  1  0  0  0
 10 11  2  0  0  0
 10 42  1  0  0  0
 11 12  1  0  0  0
 11 15  1  0  0  0
 12 13  1  0  0  0
 12 14  2  0  0  0
 15 16  1  0  0  0
 15 17  1  0  0  0
 15 18  1  0  0  0
 18 19  1  0  0  0
 18 38  1  0  0  0
 19 20  1  0  0  0
 19 27  2  0  0  0
 20 21  1  0  0  0
 20 22  2  0  0  0
 22 23  1  0  0  0
 22 24  1  0  0  0
 24 25  2  0  0  0
 24 33  1  0  0  0
 25 26  1  0  0  0
 25 27  1  0  0  0
 27 28  1  0  0  0
 28 29  1  0  0  0
 29 30  1  0  0  0
 29 31  1  0  0  0
 29 32  1  0  0  0
 33 34  1  0  0  0
 34 35  1  0  0  0
 34 36  1  0  0  0
 34 37  1  0  0  0
 38 39  1  0  0  0
 38 40  1  0  0  0
 38 41  1  0  0  0
 42 43  1  0  0  0
 42 44  1  0  0  0
 42 45  1  0  0  0
 46 47  1  0  0  0
 46 48  1  0  0  0
M  END
>  <ACTIVITY>
7.36

>  <SET>
2

>  <Min_dist>
0.07

>  <Avg_dist>
0.46

$$$$
24-3e
  Cerius2 12110214133D 1   1.00000                          
Structure written by Cerius2 SD Exporter
 54 56  0  0  0  0  0  0  0  0999 V2000
   10.1300    2.5950   12.8280 N   0  0  0  0  0  0
   10.8010    1.9450   11.8900 C   0  0  0  0  0  0
   12.0750    2.1630   11.6030 N   0  0  0  0  0  0
   12.7220    3.0920   12.2850 C   0  0  0  0  0  0
   12.1400    3.8690   13.2950 C   0  0  0  0  0  0
   10.7860    3.5370   13.5240 C   0  0  0  0  0  0
    9.9990    4.1540   14.4850 N   0  0  0  0  0  0
   10.3210    4.0390   15.4420 H   0  0  0  0  0  0
    9.7820    5.1300   14.2970 H   0  0  0  0  0  0
   12.9730    4.8620   13.9460 C   0  0  0  0  0  0
   14.3290    4.9740   13.5730 C   0  0  0  0  0  0
   14.7670    4.1390   12.5590 C   0  0  0  0  0  0
   15.7990    4.1720   12.2100 H   0  0  0  0  0  0
   13.9940    3.2300   11.9250 N   0  0  0  0  0  0
   15.3250    5.9320   14.1930 C   0  0  0  0  0  0
   15.7230    5.4530   15.0980 H   0  0  0  0  0  0
   14.8230    6.8480   14.5330 H   0  0  0  0  0  0
   16.3970    6.2860   13.2510 N   0  0  0  0  0  0
   16.0790    7.1220   12.1650 C   0  0  0  0  0  0
   14.7860    7.6550   12.0170 C   0  0  0  0  0  0
   14.0120    7.4170   12.7440 H   0  0  0  0  0  0
   14.4450    8.4760   10.9360 C   0  0  0  0  0  0
   15.4080    8.7730    9.9780 C   0  0  0  0  0  0
   15.1920    9.4030    9.1190 H   0  0  0  0  0  0
   16.7030    8.2570   10.0990 C   0  0  0  0  0  0
   17.4200    8.5210    9.3260 H   0  0  0  0  0  0
   17.0490    7.4390   11.1810 C   0  0  0  0  0  0
   18.3070    6.9230   11.3850 O   0  0  0  0  0  0
   19.3280    7.2620   10.4450 C   0  0  0  0  0  0
   19.4780    8.3470   10.4200 H   0  0  0  0  0  0
   19.0640    6.8910    9.4480 H   0  0  0  0  0  0
   20.6140    6.5950   10.8990 C   0  0  0  0  0  0
   21.4340    6.8210   10.2130 H   0  0  0  0  0  0
   20.4860    5.5090   10.9530 H   0  0  0  0  0  0
   20.8890    6.9340   11.9040 H   0  0  0  0  0  0
   13.1480    8.9120   10.9350 O   0  0  0  0  0  0
   12.7480    9.7570    9.8520 C   0  0  0  0  0  0
   12.8540    9.2270    8.8980 H   0  0  0  0  0  0
   13.3480   10.6740    9.8450 H   0  0  0  0  0  0
   11.2890   10.1200   10.0590 C   0  0  0  0  0  0
   10.9300   10.7700    9.2560 H   0  0  0  0  0  0
   11.1510   10.6330   11.0170 H   0  0  0  0  0  0
   10.6680    9.2190   10.0880 H   0  0  0  0  0  0
   17.4100    5.2710   12.9510 C   0  0  0  0  0  0
   18.2740    5.6880   12.4220 H   0  0  0  0  0  0
   16.9800    4.4750   12.3320 H   0  0  0  0  0  0
   17.7950    4.8160   13.8690 H   0  0  0  0  0  0
   12.4100    5.7610   15.0200 C   0  0  0  0  0  0
   12.1710    5.1790   15.9150 H   0  0  0  0  0  0
   11.5230    6.2840   14.6520 H   0  0  0  0  0  0
   13.0960    6.5520   15.3260 H   0  0  0  0  0  0
   10.1410    0.9920   11.1780 N   0  0  0  0  0  0
   10.6240    0.4780   10.4560 H   0  0  0  0  0  0
    9.1680    0.8060   11.3750 H   0  0  0  0  0  0
  1  2  1  0  0  0
  1  6  2  0  0  0
  2  3  2  0  0  0
  2 52  1  0  0  0
  3  4  1  0  0  0
  4  5  2  0  0  0
  4 14  1  0  0  0
  5  6  1  0  0  0
  5 10  1  0  0  0
  6  7  1  0  0  0
  7  8  1  0  0  0
  7  9  1  0  0  0
 10 11  2  0  0  0
 10 48  1  0  0  0
 11 12  1  0  0  0
 11 15  1  0  0  0
 12 13  1  0  0  0
 12 14  2  0  0  0
 15 16  1  0  0  0
 15 17  1  0  0  0
 15 18  1  0  0  0
 18 19  1  0  0  0
 18 44  1  0  0  0
 19 20  1  0  0  0
 19 27  2  0  0  0
 20 21  1  0  0  0
 20 22  2  0  0  0
 22 23  1  0  0  0
 22 36  1  0  0  0
 23 24  1  0  0  0
 23 25  2  0  0  0
 25 26  1  0  0  0
 25 27  1  0  0  0
 27 28  1  0  0  0
 28 29  1  0  0  0
 29 30  1  0  0  0
 29 31  1  0  0  0
 29 32  1  0  0  0
 32 33  1  0  0  0
 32 34  1  0  0  0
 32 35  1  0  0  0
 36 37  1  0  0  0
 37 38  1  0  0  0
 37 39  1  0  0  0
 37 40  1  0  0  0
 40 41  1  0  0  0
 40 42  1  0  0  0
 40 43  1  0  0  0
 44 45  1  0  0  0
 44 46  1  0  0  0
 44 47  1  0  0  0
 48 49  1  0  0  0
 48 50  1  0  0  0
 48 51  1  0  0  0
 52 53  1  0  0  0
 52 54  1  0  0  0
M  END
>  <ACTIVITY>
5.52

>  <SET>
2

>  <Min_dist>
0.03

>  <Avg_dist>
0.48

$$$$
24-4a
  Cerius2 12110214133D 1   1.00000                          
Structure written by Cerius2 SD Exporter
 54 56  0  0  0  0  0  0  0  0999 V2000
   10.1210    2.6820   12.7700 N   0  0  0  0  0  0
   10.7970    2.0080   11.8510 C   0  0  0  0  0  0
   12.0910    2.1570   11.6200 N   0  0  0  0  0  0
   12.7610    3.0360   12.3450 C   0  0  0  0  0  0
   12.1830    3.8060   13.3620 C   0  0  0  0  0  0
   10.7980    3.5720   13.5110 C   0  0  0  0  0  0
    9.9950    4.2550   14.4130 N   0  0  0  0  0  0
   10.1760    4.0610   15.3940 H   0  0  0  0  0  0
    9.9390    5.2580   14.2520 H   0  0  0  0  0  0
   13.0440    4.7220   14.0770 C   0  0  0  0  0  0
   14.3790    4.8830   13.6530 C   0  0  0  0  0  0
   14.8170    4.0490   12.6370 C   0  0  0  0  0  0
   15.8410    4.1020   12.2680 H   0  0  0  0  0  0
   14.0440    3.1360   12.0110 N   0  0  0  0  0  0
   15.3420    5.9140   14.2050 C   0  0  0  0  0  0
   15.8370    5.5450   15.1130 H   0  0  0  0  0  0
   14.7430    6.7780   14.5200 H   0  0  0  0  0  0
   16.3690    6.2940   13.2200 N   0  0  0  0  0  0
   16.0170    7.1130   12.1470 C   0  0  0  0  0  0
   16.9680    7.4220   11.1640 C   0  0  0  0  0  0
   17.9740    7.0170   11.2390 H   0  0  0  0  0  0
   16.6280    8.2160   10.0660 C   0  0  0  0  0  0
   15.3540    8.7830    9.9740 C   0  0  0  0  0  0
   14.3790    8.4880   10.9370 C   0  0  0  0  0  0
   14.7230    7.6520   12.0100 C   0  0  0  0  0  0
   13.9900    7.4360   12.7820 H   0  0  0  0  0  0
   13.1500    9.0690   10.7530 O   0  0  0  0  0  0
   12.9660    9.8530    9.5760 C   0  0  0  0  0  0
   11.9600   10.2790    9.6170 H   0  0  0  0  0  0
   13.0310    9.2350    8.6750 H   0  0  0  0  0  0
   13.6780   10.6840    9.5390 H   0  0  0  0  0  0
   15.0300    9.5750    8.8960 O   0  0  0  0  0  0
   16.1410    9.6500    7.9940 C   0  0  0  0  0  0
   15.8980   10.3890    7.2260 H   0  0  0  0  0  0
   16.3110    8.6880    7.4990 H   0  0  0  0  0  0
   17.0530    9.9810    8.5050 H   0  0  0  0  0  0
   17.5680    8.4810    9.1010 O   0  0  0  0  0  0
   18.7880    7.7950    9.4070 C   0  0  0  0  0  0
   19.4560    7.9010    8.5460 H   0  0  0  0  0  0
   18.6140    6.7250    9.5730 H   0  0  0  0  0  0
   19.2800    8.2420   10.2780 H   0  0  0  0  0  0
   17.7790    6.3240   13.6460 C   0  0  0  0  0  0
   17.8380    6.1450   14.7260 H   0  0  0  0  0  0
   18.2210    7.3170   13.4880 H   0  0  0  0  0  0
   18.5800    5.3170   12.9310 C   0  0  0  0  0  0
   19.2370    4.4850   12.3600 C   0  0  0  0  0  0
   19.8060    3.7420   11.8510 H   0  0  0  0  0  0
   12.5200    5.5330   15.2350 C   0  0  0  0  0  0
   12.0310    4.8800   15.9630 H   0  0  0  0  0  0
   11.8290    6.3040   14.8830 H   0  0  0  0  0  0
   13.3070    6.0340   15.8000 H   0  0  0  0  0  0
   10.1140    1.1120   11.0900 N   0  0  0  0  0  0
   10.5910    0.6010   10.3630 H   0  0  0  0  0  0
    9.1190    1.0000   11.2230 H   0  0  0  0  0  0
  1  2  1  0  0  0
  1  6  2  0  0  0
  2  3  2  0  0  0
  2 52  1  0  0  0
  3  4  1  0  0  0
  4  5  2  0  0  0
  4 14  1  0  0  0
  5  6  1  0  0  0
  5 10  1  0  0  0
  6  7  1  0  0  0
  7  8  1  0  0  0
  7  9  1  0  0  0
 10 11  2  0  0  0
 10 48  1  0  0  0
 11 12  1  0  0  0
 11 15  1  0  0  0
 12 13  1  0  0  0
 12 14  2  0  0  0
 15 16  1  0  0  0
 15 17  1  0  0  0
 15 18  1  0  0  0
 18 19  1  0  0  0
 18 42  1  0  0  0
 19 20  1  0  0  0
 19 25  2  0  0  0
 20 21  1  0  0  0
 20 22  2  0  0  0
 22 23  1  0  0  0
 22 37  1  0  0  0
 23 24  2  0  0  0
 23 32  1  0  0  0
 24 25  1  0  0  0
 24 27  1  0  0  0
 25 26  1  0  0  0
 27 28  1  0  0  0
 28 29  1  0  0  0
 28 30  1  0  0  0
 28 31  1  0  0  0
 32 33  1  0  0  0
 33 34  1  0  0  0
 33 35  1  0  0  0
 33 36  1  0  0  0
 37 38  1  0  0  0
 38 39  1  0  0  0
 38 40  1  0  0  0
 38 41  1  0  0  0
 42 43  1  0  0  0
 42 44  1  0  0  0
 42 45  1  0  0  0
 45 46  3  0  0  0
 46 47  1  0  0  0
 48 49  1  0  0  0
 48 50  1  0  0  0
 48 51  1  0  0  0
 52 53  1  0  0  0
 52 54  1  0  0  0
M  END
>  <ACTIVITY>
7.93

>  <SET>
2

>  <Min_dist>
0.08

>  <Avg_dist>
0.51

$$$$
24-4c
  Cerius2 12110214133D 1   1.00000                          
Structure written by Cerius2 SD Exporter
 55 57  0  0  0  0  0  0  0  0999 V2000
   10.1380    2.5730   12.8590 N   0  0  0  0  0  0
   10.8000    1.9210   11.9150 C   0  0  0  0  0  0
   12.0620    2.1580   11.5960 N   0  0  0  0  0  0
   12.7090    3.1060   12.2540 C   0  0  0  0  0  0
   12.1370    3.8850   13.2650 C   0  0  0  0  0  0
   10.7950    3.5330   13.5300 C   0  0  0  0  0  0
   10.0220    4.1420   14.5080 N   0  0  0  0  0  0
   10.3830    4.0590   15.4540 H   0  0  0  0  0  0
    9.7580    5.1040   14.3090 H   0  0  0  0  0  0
   12.9700    4.8990   13.8860 C   0  0  0  0  0  0
   14.3300    4.9960   13.5220 C   0  0  0  0  0  0
   14.7470    4.1750   12.4870 C   0  0  0  0  0  0
   15.7680    4.2240   12.1100 H   0  0  0  0  0  0
   13.9690    3.2600   11.8660 N   0  0  0  0  0  0
   15.3010    5.9840   14.1420 C   0  0  0  0  0  0
   15.7130    5.5920   15.0790 H   0  0  0  0  0  0
   14.7280    6.8900   14.3790 H   0  0  0  0  0  0
   16.4460    6.2880   13.2600 N   0  0  0  0  0  0
   16.1160    7.1010   12.1700 C   0  0  0  0  0  0
   14.8250    7.6430   12.0880 C   0  0  0  0  0  0
   14.0950    7.4170   12.8620 H   0  0  0  0  0  0
   14.4570    8.4580   11.0130 C   0  0  0  0  0  0
   15.3670    8.7170    9.9860 C   0  0  0  0  0  0
   16.6740    8.2330   10.0920 C   0  0  0  0  0  0
   17.0410    7.4150   11.1640 C   0  0  0  0  0  0
   18.0580    7.0330   11.2120 H   0  0  0  0  0  0
   17.6090    8.4720    9.1170 O   0  0  0  0  0  0
   18.8230    7.7760    9.4190 C   0  0  0  0  0  0
   19.5120    7.9310    8.5830 H   0  0  0  0  0  0
   18.6480    6.6990    9.5200 H   0  0  0  0  0  0
   19.2940    8.1730   10.3240 H   0  0  0  0  0  0
   14.9970    9.4700    8.9020 O   0  0  0  0  0  0
   16.1180    9.6480    8.0310 C   0  0  0  0  0  0
   15.7780   10.2210    7.1630 H   0  0  0  0  0  0
   16.5010    8.6860    7.6730 H   0  0  0  0  0  0
   16.9150   10.2170    8.5220 H   0  0  0  0  0  0
   13.1600    8.9020   10.9770 O   0  0  0  0  0  0
   12.9330    9.7170    9.8220 C   0  0  0  0  0  0
   11.9970   10.2620    9.9800 H   0  0  0  0  0  0
   12.8160    9.1020    8.9250 H   0  0  0  0  0  0
   13.7330   10.4530    9.6810 H   0  0  0  0  0  0
   17.5520    6.0180   13.4760 C   0  0  0  0  0  0
   17.5010    6.0590   14.5710 H   0  0  0  0  0  0
   17.9150    6.9990   13.1510 H   0  0  0  0  0  0
   18.5470    4.9290   13.1000 C   0  0  0  0  0  0
   19.5110    5.1160   13.5850 H   0  0  0  0  0  0
   18.7170    4.8940   12.0200 H   0  0  0  0  0  0
   18.1900    3.9450   13.4180 H   0  0  0  0  0  0
   12.4000    5.8400   14.9200 C   0  0  0  0  0  0
   12.2400    5.3140   15.8660 H   0  0  0  0  0  0
   11.4660    6.2820   14.5630 H   0  0  0  0  0  0
   13.0440    6.7000   15.1190 H   0  0  0  0  0  0
   10.1430    0.9420   11.2350 N   0  0  0  0  0  0
   10.6240    0.4160   10.5210 H   0  0  0  0  0  0
    9.1840    0.7300   11.4680 H   0  0  0  0  0  0
  1  2  1  0  0  0
  1  6  2  0  0  0
  2  3  2  0  0  0
  2 53  1  0  0  0
  3  4  1  0  0  0
  4  5  2  0  0  0
  4 14  1  0  0  0
  5  6  1  0  0  0
  5 10  1  0  0  0
  6  7  1  0  0  0
  7  8  1  0  0  0
  7  9  1  0  0  0
 10 11  2  0  0  0
 10 49  1  0  0  0
 11 12  1  0  0  0
 11 15  1  0  0  0
 12 13  1  0  0  0
 12 14  2  0  0  0
 15 16  1  0  0  0
 15 17  1  0  0  0
 15 18  1  0  0  0
 18 19  1  0  0  0
 18 42  1  0  0  0
 19 20  1  0  0  0
 19 25  2  0  0  0
 20 21  1  0  0  0
 20 22  2  0  0  0
 22 23  1  0  0  0
 22 37  1  0  0  0
 23 24  2  0  0  0
 23 32  1  0  0  0
 24 25  1  0  0  0
 24 27  1  0  0  0
 25 26  1  0  0  0
 27 28  1  0  0  0
 28 29  1  0  0  0
 28 30  1  0  0  0
 28 31  1  0  0  0
 32 33  1  0  0  0
 33 34  1  0  0  0
 33 35  1  0  0  0
 33 36  1  0  0  0
 37 38  1  0  0  0
 38 39  1  0  0  0
 38 40  1  0  0  0
 38 41  1  0  0  0
 42 43  1  0  0  0
 42 44  1  0  0  0
 42 45  1  0  0  0
 45 46  1  0  0  0
 45 47  1  0  0  0
 45 48  1  0  0  0
 49 50  1  0  0  0
 49 51  1  0  0  0
 49 52  1  0  0  0
 53 54  1  0  0  0
 53 55  1  0  0  0
M  END
>  <ACTIVITY>
7.98

>  <SET>
1

>  <Min_dist>
999.9

>  <Avg_dist>
999.9

$$$$
24-5a
  Cerius2 12110214133D 1   1.00000                          
Structure written by Cerius2 SD Exporter
 43 46  0  0  0  0  0  0  0  0999 V2000
   10.1290    2.6240   12.8160 N   0  0  0  0  0  0
   10.7930    1.9760   11.8710 C   0  0  0  0  0  0
   12.0740    2.1690   11.5990 N   0  0  0  0  0  0
   12.7360    3.0740   12.2990 C   0  0  0  0  0  0
   12.1620    3.8510   13.3120 C   0  0  0  0  0  0
   10.8000    3.5420   13.5300 C   0  0  0  0  0  0
   10.0250    4.1500   14.5080 N   0  0  0  0  0  0
   10.3420    3.9940   15.4620 H   0  0  0  0  0  0
    9.8360    5.1370   14.3540 H   0  0  0  0  0  0
   13.0080    4.8230   13.9770 C   0  0  0  0  0  0
   14.3700    4.9020   13.6270 C   0  0  0  0  0  0
   14.8000    4.0720   12.6050 C   0  0  0  0  0  0
   15.8330    4.0990   12.2610 H   0  0  0  0  0  0
   14.0140    3.1860   11.9540 N   0  0  0  0  0  0
   15.3770    5.8370   14.2560 C   0  0  0  0  0  0
   15.9000    5.3080   15.0640 H   0  0  0  0  0  0
   14.8650    6.6830   14.7280 H   0  0  0  0  0  0
   16.3320    6.2820   13.2560 N   0  0  0  0  0  0
   17.2480    5.8450   13.2880 H   0  0  0  0  0  0
   16.0290    7.1240   12.1920 C   0  0  0  0  0  0
   14.7390    7.6660   12.0500 C   0  0  0  0  0  0
   13.9430    7.4130   12.7470 H   0  0  0  0  0  0
   14.4200    8.5310   11.0050 C   0  0  0  0  0  0
   13.4090    8.9240   10.9150 H   0  0  0  0  0  0
   15.3920    8.8920   10.0810 C   0  0  0  0  0  0
   15.1200    9.5710    9.2740 H   0  0  0  0  0  0
   16.6960    8.3960   10.1910 C   0  0  0  0  0  0
   17.0350    7.5080   11.2490 C   0  0  0  0  0  0
   18.3810    7.0630   11.3010 C   0  0  0  0  0  0
   18.7170    6.3930   12.0890 H   0  0  0  0  0  0
   19.3340    7.4610   10.3580 C   0  0  0  0  0  0
   20.3560    7.0960   10.4310 H   0  0  0  0  0  0
   18.9750    8.3230    9.3320 C   0  0  0  0  0  0
   19.7130    8.6370    8.5960 H   0  0  0  0  0  0
   17.6650    8.7890    9.2510 C   0  0  0  0  0  0
   17.4040    9.4700    8.4410 H   0  0  0  0  0  0
   12.4470    5.7450   15.0320 C   0  0  0  0  0  0
   12.1490    5.1740   15.9160 H   0  0  0  0  0  0
   11.5980    6.3050   14.6300 H   0  0  0  0  0  0
   13.1560    6.5030   15.3690 H   0  0  0  0  0  0
   10.1170    1.0540   11.1330 N   0  0  0  0  0  0
   10.5930    0.5580   10.3940 H   0  0  0  0  0  0
    9.1360    0.8960   11.3050 H   0  0  0  0  0  0
  1  2  1  0  0  0
  1  6  2  0  0  0
  2  3  2  0  0  0
  2 41  1  0  0  0
  3  4  1  0  0  0
  4  5  2  0  0  0
  4 14  1  0  0  0
  5  6  1  0  0  0
  5 10  1  0  0  0
  6  7  1  0  0  0
  7  8  1  0  0  0
  7  9  1  0  0  0
 10 11  2  0  0  0
 10 37  1  0  0  0
 11 12  1  0  0  0
 11 15  1  0  0  0
 12 13  1  0  0  0
 12 14  2  0  0  0
 15 16  1  0  0  0
 15 17  1  0  0  0
 15 18  1  0  0  0
 18 19  1  0  0  0
 18 20  1  0  0  0
 20 21  2  0  0  0
 20 28  1  0  0  0
 21 22  1  0  0  0
 21 23  1  0  0  0
 23 24  1  0  0  0
 23 25  2  0  0  0
 25 26  1  0  0  0
 25 27  1  0  0  0
 27 28  2  0  0  0
 27 35  1  0  0  0
 28 29  1  0  0  0
 29 30  1  0  0  0
 29 31  2  0  0  0
 31 32  1  0  0  0
 31 33  1  0  0  0
 33 34  1  0  0  0
 33 35  2  0  0  0
 35 36  1  0  0  0
 37 38  1  0  0  0
 37 39  1  0  0  0
 37 40  1  0  0  0
 41 42  1  0  0  0
 41 43  1  0  0  0
M  END
>  <ACTIVITY>
7.53

>  <SET>
1

>  <Min_dist>
999.9

>  <Avg_dist>
999.9

$$$$
24-5b
  Cerius2 12110214133D 1   1.00000                          
Structure written by Cerius2 SD Exporter
 47 50  0  0  0  0  0  0  0  0999 V2000
   10.1290    2.6340   12.8050 N   0  0  0  0  0  0
   10.7970    1.9830   11.8650 C   0  0  0  0  0  0
   12.0790    2.1740   11.5980 N   0  0  0  0  0  0
   12.7410    3.0750   12.3050 C   0  0  0  0  0  0
   12.1640    3.8490   13.3190 C   0  0  0  0  0  0
   10.7990    3.5480   13.5250 C   0  0  0  0  0  0
   10.0170    4.1620   14.4930 N   0  0  0  0  0  0
   10.3150    3.9940   15.4510 H   0  0  0  0  0  0
    9.8470    5.1530   14.3420 H   0  0  0  0  0  0
   13.0120    4.8120   13.9960 C   0  0  0  0  0  0
   14.3720    4.8980   13.6430 C   0  0  0  0  0  0
   14.8050    4.0690   12.6200 C   0  0  0  0  0  0
   15.8390    4.0940   12.2790 H   0  0  0  0  0  0
   14.0200    3.1850   11.9650 N   0  0  0  0  0  0
   15.3730    5.8410   14.2700 C   0  0  0  0  0  0
   15.8990    5.3210   15.0810 H   0  0  0  0  0  0
   14.8500    6.6840   14.7360 H   0  0  0  0  0  0
   16.3270    6.2910   13.2690 N   0  0  0  0  0  0
   17.2360    5.8400   13.2930 H   0  0  0  0  0  0
   16.0170    7.1130   12.1910 C   0  0  0  0  0  0
   14.7270    7.6410   12.0450 C   0  0  0  0  0  0
   13.9390    7.4050   12.7580 H   0  0  0  0  0  0
   14.3860    8.4760   10.9810 C   0  0  0  0  0  0
   13.3630    8.8370   10.9360 H   0  0  0  0  0  0
   15.3380    8.8190   10.0260 C   0  0  0  0  0  0
   16.6630    8.3330   10.1430 C   0  0  0  0  0  0
   17.0130    7.4840   11.2340 C   0  0  0  0  0  0
   18.3620    7.0490   11.3100 C   0  0  0  0  0  0
   18.7010    6.4170   12.1280 H   0  0  0  0  0  0
   19.3220    7.4080   10.3600 C   0  0  0  0  0  0
   20.3450    7.0490   10.4580 H   0  0  0  0  0  0
   18.9670    8.2200    9.2980 C   0  0  0  0  0  0
   19.7050    8.5010    8.5500 H   0  0  0  0  0  0
   17.6560    8.6770    9.1940 C   0  0  0  0  0  0
   17.4100    9.3200    8.3480 H   0  0  0  0  0  0
   15.0780    9.6330    8.9480 O   0  0  0  0  0  0
   13.7840   10.2260    8.8630 C   0  0  0  0  0  0
   13.7460   10.8050    7.9350 H   0  0  0  0  0  0
   13.6140   10.9170    9.6950 H   0  0  0  0  0  0
   13.0030    9.4610    8.8100 H   0  0  0  0  0  0
   12.4540    5.7160   15.0690 C   0  0  0  0  0  0
   12.1450    5.1280   15.9380 H   0  0  0  0  0  0
   11.6120    6.2940   14.6760 H   0  0  0  0  0  0
   13.1680    6.4590   15.4300 H   0  0  0  0  0  0
   10.1240    1.0570   11.1300 N   0  0  0  0  0  0
   10.6030    0.5480   10.4010 H   0  0  0  0  0  0
    9.1440    0.8920   11.3080 H   0  0  0  0  0  0
  1  2  1  0  0  0
  1  6  2  0  0  0
  2  3  2  0  0  0
  2 45  1  0  0  0
  3  4  1  0  0  0
  4  5  2  0  0  0
  4 14  1  0  0  0
  5  6  1  0  0  0
  5 10  1  0  0  0
  6  7  1  0  0  0
  7  8  1  0  0  0
  7  9  1  0  0  0
 10 11  2  0  0  0
 10 41  1  0  0  0
 11 12  1  0  0  0
 11 15  1  0  0  0
 12 13  1  0  0  0
 12 14  2  0  0  0
 15 16  1  0  0  0
 15 17  1  0  0  0
 15 18  1  0  0  0
 18 19  1  0  0  0
 18 20  1  0  0  0
 20 21  2  0  0  0
 20 27  1  0  0  0
 21 22  1  0  0  0
 21 23  1  0  0  0
 23 24  1  0  0  0
 23 25  2  0  0  0
 25 26  1  0  0  0
 25 36  1  0  0  0
 26 27  2  0  0  0
 26 34  1  0  0  0
 27 28  1  0  0  0
 28 29  1  0  0  0
 28 30  2  0  0  0
 30 31  1  0  0  0
 30 32  1  0  0  0
 32 33  1  0  0  0
 32 34  2  0  0  0
 34 35  1  0  0  0
 36 37  1  0  0  0
 37 38  1  0  0  0
 37 39  1  0  0  0
 37 40  1  0  0  0
 41 42  1  0  0  0
 41 43  1  0  0  0
 41 44  1  0  0  0
 45 46  1  0  0  0
 45 47  1  0  0  0
M  END
>  <ACTIVITY>
7.27

>  <SET>
1

>  <Min_dist>
999.9

>  <Avg_dist>
999.9

$$$$
25-10
  Cerius2 12110214133D 1   1.00000                          
Structure written by Cerius2 SD Exporter
 37 39  0  0  0  0  0  0  0  0999 V2000
   10.1780    2.7240   12.8290 N   0  0  0  0  0  0
   10.7860    2.0560   11.8520 C   0  0  0  0  0  0
   12.0710    2.1850   11.5350 N   0  0  0  0  0  0
   12.7980    3.0460   12.2310 C   0  0  0  0  0  0
   12.2710    3.7980   13.2730 C   0  0  0  0  0  0
   10.9210    3.5750   13.5470 C   0  0  0  0  0  0
   10.2400    4.2700   14.5300 N   0  0  0  0  0  0
   10.7130    4.4530   15.4090 H   0  0  0  0  0  0
    9.2580    4.0270   14.6250 H   0  0  0  0  0  0
   13.1200    4.7110   13.9540 C   0  0  0  0  0  0
   12.6950    5.2910   14.7710 H   0  0  0  0  0  0
   14.4650    4.8670   13.6150 C   0  0  0  0  0  0
   14.8640    4.0540   12.5560 C   0  0  0  0  0  0
   15.8770    4.0960   12.1610 H   0  0  0  0  0  0
   14.0760    3.1690   11.8800 N   0  0  0  0  0  0
   15.2970    5.7560   14.2730 N   0  0  0  0  0  0
   16.3890    6.4760   13.5920 C   0  0  0  0  0  0
   17.1780    5.7590   13.3390 H   0  0  0  0  0  0
   16.8550    7.2410   14.2230 H   0  0  0  0  0  0
   15.9000    7.1950   12.3480 C   0  0  0  0  0  0
   16.7970    7.5290   11.3210 C   0  0  0  0  0  0
   17.8510    7.2680   11.4030 H   0  0  0  0  0  0
   16.3490    8.1970   10.1800 C   0  0  0  0  0  0
   17.0530    8.4490    9.3890 H   0  0  0  0  0  0
   15.0050    8.5420   10.0530 C   0  0  0  0  0  0
   14.6580    9.0610    9.1620 H   0  0  0  0  0  0
   14.1060    8.2240   11.0690 C   0  0  0  0  0  0
   13.0560    8.4950   10.9720 H   0  0  0  0  0  0
   14.5500    7.5570   12.2120 C   0  0  0  0  0  0
   13.8390    7.3130   13.0000 H   0  0  0  0  0  0
   15.0790    6.0570   15.6910 C   0  0  0  0  0  0
   15.5870    6.9800   15.9910 H   0  0  0  0  0  0
   15.4580    5.2430   16.3180 H   0  0  0  0  0  0
   14.0140    6.2110   15.9030 H   0  0  0  0  0  0
   10.0390    1.1840   11.1230 N   0  0  0  0  0  0
   10.4610    0.6740   10.3620 H   0  0  0  0  0  0
    9.0570    1.0740   11.3300 H   0  0  0  0  0  0
  1  2  1  0  0  0
  1  6  2  0  0  0
  2  3  2  0  0  0
  2 35  1  0  0  0
  3  4  1  0  0  0
  4  5  2  0  0  0
  4 15  1  0  0  0
  5  6  1  0  0  0
  5 10  1  0  0  0
  6  7  1  0  0  0
  7  8  1  0  0  0
  7  9  1  0  0  0
 10 11  1  0  0  0
 10 12  2  0  0  0
 12 13  1  0  0  0
 12 16  1  0  0  0
 13 14  1  0  0  0
 13 15  2  0  0  0
 16 17  1  0  0  0
 16 31  1  0  0  0
 17 18  1  0  0  0
 17 19  1  0  0  0
 17 20  1  0  0  0
 20 21  1  0  0  0
 20 29  2  0  0  0
 21 22  1  0  0  0
 21 23  2  0  0  0
 23 24  1  0  0  0
 23 25  1  0  0  0
 25 26  1  0  0  0
 25 27  2  0  0  0
 27 28  1  0  0  0
 27 29  1  0  0  0
 29 30  1  0  0  0
 31 32  1  0  0  0
 31 33  1  0  0  0
 31 34  1  0  0  0
 35 36  1  0  0  0
 35 37  1  0  0  0
M  END
>  <ACTIVITY>
6.85

>  <SET>
2

>  <Min_dist>
0.09

>  <Avg_dist>
0.48

$$$$
25-11
  Cerius2 12110214133D 1   1.00000                          
Structure written by Cerius2 SD Exporter
 46 48  0  0  0  0  0  0  0  0999 V2000
   10.2060    2.7450   12.8660 N   0  0  0  0  0  0
   10.8050    2.0620   11.8930 C   0  0  0  0  0  0
   12.0850    2.1920   11.5560 N   0  0  0  0  0  0
   12.8180    3.0690   12.2260 C   0  0  0  0  0  0
   12.2990    3.8380   13.2620 C   0  0  0  0  0  0
   10.9550    3.6120   13.5580 C   0  0  0  0  0  0
   10.2840    4.3190   14.5400 N   0  0  0  0  0  0
   10.7720    4.5310   15.4050 H   0  0  0  0  0  0
    9.3060    4.0710   14.6590 H   0  0  0  0  0  0
   13.1500    4.7660   13.9150 C   0  0  0  0  0  0
   12.7520    5.3810   14.7200 H   0  0  0  0  0  0
   14.4830    4.9070   13.5440 C   0  0  0  0  0  0
   14.8880    4.0810   12.5030 C   0  0  0  0  0  0
   15.9100    4.1070   12.1320 H   0  0  0  0  0  0
   14.0930    3.1860   11.8540 N   0  0  0  0  0  0
   15.2840    5.8140   14.1980 N   0  0  0  0  0  0
   15.1000    6.0180   15.1780 H   0  0  0  0  0  0
   16.3970    6.5130   13.5800 C   0  0  0  0  0  0
   17.1960    5.8100   13.3150 H   0  0  0  0  0  0
   16.8260    7.2470   14.2740 H   0  0  0  0  0  0
   15.9200    7.2230   12.3340 C   0  0  0  0  0  0
   16.8150    7.5160   11.2950 C   0  0  0  0  0  0
   17.8660    7.2480   11.3860 H   0  0  0  0  0  0
   16.3610    8.1550   10.1400 C   0  0  0  0  0  0
   15.0210    8.5390   10.0160 C   0  0  0  0  0  0
   14.1090    8.1950   11.0210 C   0  0  0  0  0  0
   14.5650    7.5610   12.1810 C   0  0  0  0  0  0
   13.8550    7.3170   12.9720 H   0  0  0  0  0  0
   12.7720    8.4940   10.9950 O   0  0  0  0  0  0
   12.3680    9.1790    9.8060 C   0  0  0  0  0  0
   11.3240    8.9160    9.6110 H   0  0  0  0  0  0
   12.9570    8.8830    8.9290 H   0  0  0  0  0  0
   12.4150   10.2610    9.9580 H   0  0  0  0  0  0
   14.6170    9.2190    8.8960 O   0  0  0  0  0  0
   15.7000    9.3000    7.9620 C   0  0  0  0  0  0
   15.3420    9.8450    7.0830 H   0  0  0  0  0  0
   16.0200    8.3040    7.6380 H   0  0  0  0  0  0
   16.5460    9.8540    8.3830 H   0  0  0  0  0  0
   17.2810    8.4680    9.1710 O   0  0  0  0  0  0
   18.5860    8.0510    9.5850 C   0  0  0  0  0  0
   19.2950    8.3520    8.8080 H   0  0  0  0  0  0
   18.6410    6.9620    9.6910 H   0  0  0  0  0  0
   18.8790    8.5410   10.5210 H   0  0  0  0  0  0
   10.0540    1.1690   11.1940 N   0  0  0  0  0  0
   10.4730    0.6320   10.4490 H   0  0  0  0  0  0
    9.0790    1.0470   11.4250 H   0  0  0  0  0  0
  1  2  1  0  0  0
  1  6  2  0  0  0
  2  3  2  0  0  0
  2 44  1  0  0  0
  3  4  1  0  0  0
  4  5  2  0  0  0
  4 15  1  0  0  0
  5  6  1  0  0  0
  5 10  1  0  0  0
  6  7  1  0  0  0
  7  8  1  0  0  0
  7  9  1  0  0  0
 10 11  1  0  0  0
 10 12  2  0  0  0
 12 13  1  0  0  0
 12 16  1  0  0  0
 13 14  1  0  0  0
 13 15  2  0  0  0
 16 17  1  0  0  0
 16 18  1  0  0  0
 18 19  1  0  0  0
 18 20  1  0  0  0
 18 21  1  0  0  0
 21 22  1  0  0  0
 21 27  2  0  0  0
 22 23  1  0  0  0
 22 24  2  0  0  0
 24 25  1  0  0  0
 24 39  1  0  0  0
 25 26  2  0  0  0
 25 34  1  0  0  0
 26 27  1  0  0  0
 26 29  1  0  0  0
 27 28  1  0  0  0
 29 30  1  0  0  0
 30 31  1  0  0  0
 30 32  1  0  0  0
 30 33  1  0  0  0
 34 35  1  0  0  0
 35 36  1  0  0  0
 35 37  1  0  0  0
 35 38  1  0  0  0
 39 40  1  0  0  0
 40 41  1  0  0  0
 40 42  1  0  0  0
 40 43  1  0  0  0
 44 45  1  0  0  0
 44 46  1  0  0  0
M  END
>  <ACTIVITY>
5.48

>  <SET>
1

>  <Min_dist>
999.9

>  <Avg_dist>
999.9

$$$$
25-12
  Cerius2 12110214133D 1   1.00000                          
Structure written by Cerius2 SD Exporter
 49 51  0  0  0  0  0  0  0  0999 V2000
   10.1840    2.7320   12.8250 N   0  0  0  0  0  0
   10.7920    2.0670   11.8460 C   0  0  0  0  0  0
   12.0770    2.1970   11.5300 N   0  0  0  0  0  0
   12.8040    3.0560   12.2280 C   0  0  0  0  0  0
   12.2780    3.8070   13.2720 C   0  0  0  0  0  0
   10.9280    3.5800   13.5460 C   0  0  0  0  0  0
   10.2470    4.2650   14.5360 N   0  0  0  0  0  0
   10.7200    4.4400   15.4170 H   0  0  0  0  0  0
    9.2660    4.0180   14.6310 H   0  0  0  0  0  0
   13.1260    4.7190   13.9590 C   0  0  0  0  0  0
   12.7010    5.2840   14.7840 H   0  0  0  0  0  0
   14.4700    4.8700   13.6190 C   0  0  0  0  0  0
   14.8720    4.0510   12.5640 C   0  0  0  0  0  0
   15.8950    4.0820   12.1940 H   0  0  0  0  0  0
   14.0840    3.1730   11.8820 N   0  0  0  0  0  0
   15.3260    5.7440   14.2690 N   0  0  0  0  0  0
   16.4090    6.4560   13.5700 C   0  0  0  0  0  0
   17.1970    5.7370   13.3160 H   0  0  0  0  0  0
   16.8700    7.2310   14.1940 H   0  0  0  0  0  0
   15.9120    7.1750   12.3280 C   0  0  0  0  0  0
   16.8050    7.5120   11.3020 C   0  0  0  0  0  0
   17.8580    7.2460   11.3780 H   0  0  0  0  0  0
   16.3480    8.1950   10.1770 C   0  0  0  0  0  0
   14.9900    8.5070   10.0410 C   0  0  0  0  0  0
   14.0850    8.2050   11.0690 C   0  0  0  0  0  0
   14.5550    7.5420   12.2090 C   0  0  0  0  0  0
   13.8880    7.2850   13.0290 H   0  0  0  0  0  0
   12.7860    8.5930   10.8630 O   0  0  0  0  0  0
   12.4910    9.2410    9.6280 C   0  0  0  0  0  0
   11.4280    9.5030    9.6360 H   0  0  0  0  0  0
   12.6630    8.5690    8.7810 H   0  0  0  0  0  0
   13.0620   10.1690    9.5240 H   0  0  0  0  0  0
   14.5550    9.1740    8.9190 O   0  0  0  0  0  0
   15.6360    9.3110    7.9890 C   0  0  0  0  0  0
   15.2530    9.8320    7.1070 H   0  0  0  0  0  0
   16.0120    8.3320    7.6700 H   0  0  0  0  0  0
   16.4490    9.9110    8.4120 H   0  0  0  0  0  0
   17.2420    8.4880    9.1790 O   0  0  0  0  0  0
   18.5560    8.0690    9.5660 C   0  0  0  0  0  0
   19.2400    8.3280    8.7520 H   0  0  0  0  0  0
   18.5950    6.9840    9.7110 H   0  0  0  0  0  0
   18.8900    8.5880   10.4700 H   0  0  0  0  0  0
   15.0470    6.1170   15.6600 C   0  0  0  0  0  0
   13.9780    6.3090   15.8110 H   0  0  0  0  0  0
   15.5670    7.0370   15.9460 H   0  0  0  0  0  0
   15.3680    5.3220   16.3410 H   0  0  0  0  0  0
   10.0460    1.1920   11.1190 N   0  0  0  0  0  0
   10.4710    0.6670   10.3690 H   0  0  0  0  0  0
    9.0670    1.0720   11.3350 H   0  0  0  0  0  0
  1  2  1  0  0  0
  1  6  2  0  0  0
  2  3  2  0  0  0
  2 47  1  0  0  0
  3  4  1  0  0  0
  4  5  2  0  0  0
  4 15  1  0  0  0
  5  6  1  0  0  0
  5 10  1  0  0  0
  6  7  1  0  0  0
  7  8  1  0  0  0
  7  9  1  0  0  0
 10 11  1  0  0  0
 10 12  2  0  0  0
 12 13  1  0  0  0
 12 16  1  0  0  0
 13 14  1  0  0  0
 13 15  2  0  0  0
 16 17  1  0  0  0
 16 43  1  0  0  0
 17 18  1  0  0  0
 17 19  1  0  0  0
 17 20  1  0  0  0
 20 21  1  0  0  0
 20 26  2  0  0  0
 21 22  1  0  0  0
 21 23  2  0  0  0
 23 24  1  0  0  0
 23 38  1  0  0  0
 24 25  2  0  0  0
 24 33  1  0  0  0
 25 26  1  0  0  0
 25 28  1  0  0  0
 26 27  1  0  0  0
 28 29  1  0  0  0
 29 30  1  0  0  0
 29 31  1  0  0  0
 29 32  1  0  0  0
 33 34  1  0  0  0
 34 35  1  0  0  0
 34 36  1  0  0  0
 34 37  1  0  0  0
 38 39  1  0  0  0
 39 40  1  0  0  0
 39 41  1  0  0  0
 39 42  1  0  0  0
 43 44  1  0  0  0
 43 45  1  0  0  0
 43 46  1  0  0  0
 47 48  1  0  0  0
 47 49  1  0  0  0
M  END
>  <ACTIVITY>
7.48

>  <SET>
1

>  <Min_dist>
999.9

>  <Avg_dist>
999.9

$$$$
25-13
  Cerius2 12110214133D 1   1.00000                          
Structure written by Cerius2 SD Exporter
 49 51  0  0  0  0  0  0  0  0999 V2000
   10.1940    2.7410   12.8650 N   0  0  0  0  0  0
   10.7910    2.0610   11.8890 C   0  0  0  0  0  0
   12.0720    2.1870   11.5550 N   0  0  0  0  0  0
   12.8090    3.0540   12.2320 C   0  0  0  0  0  0
   12.2960    3.8160   13.2740 C   0  0  0  0  0  0
   10.9470    3.6010   13.5630 C   0  0  0  0  0  0
   10.2720    4.3210   14.5320 N   0  0  0  0  0  0
   10.7500    4.5510   15.3980 H   0  0  0  0  0  0
    9.2890    4.0900   14.6410 H   0  0  0  0  0  0
   13.1560    4.7340   13.9320 C   0  0  0  0  0  0
   12.7660    5.3430   14.7460 H   0  0  0  0  0  0
   14.4870    4.8850   13.5480 C   0  0  0  0  0  0
   14.8840    4.0620   12.5040 C   0  0  0  0  0  0
   15.9030    4.0820   12.1250 H   0  0  0  0  0  0
   14.0830    3.1710   11.8550 N   0  0  0  0  0  0
   15.2860    5.7890   14.2060 N   0  0  0  0  0  0
   15.0060    6.0750   15.1430 H   0  0  0  0  0  0
   16.4210    6.5110   13.6370 C   0  0  0  0  0  0
   16.7800    7.2720   14.3420 H   0  0  0  0  0  0
   15.9510    7.2330   12.3790 C   0  0  0  0  0  0
   16.8360    7.5470   11.3340 C   0  0  0  0  0  0
   17.8840    7.2630   11.4090 H   0  0  0  0  0  0
   16.3740    8.1950   10.1900 C   0  0  0  0  0  0
   15.0100    8.4800   10.0530 C   0  0  0  0  0  0
   14.1090    8.2010   11.0910 C   0  0  0  0  0  0
   14.5890    7.5700   12.2440 C   0  0  0  0  0  0
   13.9160    7.3170   13.0580 H   0  0  0  0  0  0
   12.8040    8.5690   10.8830 O   0  0  0  0  0  0
   12.5030    9.2280    9.6520 C   0  0  0  0  0  0
   11.4240    9.4100    9.6270 H   0  0  0  0  0  0
   12.7530    8.5970    8.7910 H   0  0  0  0  0  0
   13.0070   10.1980    9.5950 H   0  0  0  0  0  0
   14.5610    9.1040    8.9110 O   0  0  0  0  0  0
   15.6570    9.3000    8.0110 C   0  0  0  0  0  0
   15.2790    9.8380    7.1360 H   0  0  0  0  0  0
   16.0640    8.3400    7.6720 H   0  0  0  0  0  0
   16.4510    9.9060    8.4640 H   0  0  0  0  0  0
   17.2140    8.5050    9.1510 O   0  0  0  0  0  0
   18.5690    8.1310    9.4240 C   0  0  0  0  0  0
   19.2060    8.6520    8.7020 H   0  0  0  0  0  0
   18.7120    7.0550    9.2880 H   0  0  0  0  0  0
   18.8770    8.4400   10.4290 H   0  0  0  0  0  0
   17.5780    5.5490   13.3510 C   0  0  0  0  0  0
   18.3930    6.0620   12.8280 H   0  0  0  0  0  0
   17.2620    4.6980   12.7390 H   0  0  0  0  0  0
   17.9810    5.1400   14.2840 H   0  0  0  0  0  0
   10.0400    1.1780   11.1750 N   0  0  0  0  0  0
   10.4600    0.6590   10.4180 H   0  0  0  0  0  0
    9.0640    1.0510   11.4000 H   0  0  0  0  0  0
  1  2  1  0  0  0
  1  6  2  0  0  0
  2  3  2  0  0  0
  2 47  1  0  0  0
  3  4  1  0  0  0
  4  5  2  0  0  0
  4 15  1  0  0  0
  5  6  1  0  0  0
  5 10  1  0  0  0
  6  7  1  0  0  0
  7  8  1  0  0  0
  7  9  1  0  0  0
 10 11  1  0  0  0
 10 12  2  0  0  0
 12 13  1  0  0  0
 12 16  1  0  0  0
 13 14  1  0  0  0
 13 15  2  0  0  0
 16 17  1  0  0  0
 16 18  1  0  0  0
 18 19  1  0  0  0
 18 20  1  0  0  0
 18 43  1  0  0  0
 20 21  1  0  0  0
 20 26  2  0  0  0
 21 22  1  0  0  0
 21 23  2  0  0  0
 23 24  1  0  0  0
 23 38  1  0  0  0
 24 25  2  0  0  0
 24 33  1  0  0  0
 25 26  1  0  0  0
 25 28  1  0  0  0
 26 27  1  0  0  0
 28 29  1  0  0  0
 29 30  1  0  0  0
 29 31  1  0  0  0
 29 32  1  0  0  0
 33 34  1  0  0  0
 34 35  1  0  0  0
 34 36  1  0  0  0
 34 37  1  0  0  0
 38 39  1  0  0  0
 39 40  1  0  0  0
 39 41  1  0  0  0
 39 42  1  0  0  0
 43 44  1  0  0  0
 43 45  1  0  0  0
 43 46  1  0  0  0
 47 48  1  0  0  0
 47 49  1  0  0  0
M  END
>  <ACTIVITY>
5.9

>  <SET>
1

>  <Min_dist>
999.9

>  <Avg_dist>
999.9

$$$$
25-14
  Cerius2 12110214133D 1   1.00000                          
Structure written by Cerius2 SD Exporter
 46 48  0  0  0  0  0  0  0  0999 V2000
   10.2070    2.7480   12.8550 N   0  0  0  0  0  0
   10.8120    2.0750   11.8790 C   0  0  0  0  0  0
   12.0940    2.2070   11.5520 N   0  0  0  0  0  0
   12.8230    3.0760   12.2350 C   0  0  0  0  0  0
   12.2980    3.8350   13.2760 C   0  0  0  0  0  0
   10.9510    3.6080   13.5610 C   0  0  0  0  0  0
   10.2750    4.3060   14.5450 N   0  0  0  0  0  0
   10.7570    4.5100   15.4140 H   0  0  0  0  0  0
    9.2960    4.0570   14.6550 H   0  0  0  0  0  0
   13.1460    4.7540   13.9450 C   0  0  0  0  0  0
   12.7450    5.3590   14.7570 H   0  0  0  0  0  0
   14.4810    4.9000   13.5820 C   0  0  0  0  0  0
   14.8930    4.0800   12.5400 C   0  0  0  0  0  0
   15.9190    4.1050   12.1780 H   0  0  0  0  0  0
   14.1010    3.1940   11.8750 N   0  0  0  0  0  0
   15.2830    5.7850   14.2650 N   0  0  0  0  0  0
   15.0680    5.9910   15.2380 H   0  0  0  0  0  0
   16.3620    6.5460   13.6540 C   0  0  0  0  0  0
   17.2030    5.8840   13.4110 H   0  0  0  0  0  0
   16.7460    7.3000   14.3520 H   0  0  0  0  0  0
   15.8720    7.2080   12.3880 C   0  0  0  0  0  0
   14.5180    7.5580   12.2730 C   0  0  0  0  0  0
   13.8320    7.3570   13.0970 H   0  0  0  0  0  0
   14.0190    8.1480   11.1060 C   0  0  0  0  0  0
   12.9560    8.3740   11.0760 H   0  0  0  0  0  0
   14.8630    8.4090   10.0230 C   0  0  0  0  0  0
   16.2320    8.1050   10.1430 C   0  0  0  0  0  0
   16.7280    7.5110   11.3180 C   0  0  0  0  0  0
   18.0520    7.1490   11.3950 O   0  0  0  0  0  0
   18.2310    5.8040   10.9370 C   0  0  0  0  0  0
   19.3060    5.6280   10.8350 H   0  0  0  0  0  0
   17.7660    5.6400    9.9590 H   0  0  0  0  0  0
   17.8390    5.0890   11.6660 H   0  0  0  0  0  0
   17.1210    8.2880    9.1070 O   0  0  0  0  0  0
   18.4560    7.9110    9.4580 C   0  0  0  0  0  0
   18.9370    7.5190    8.5570 H   0  0  0  0  0  0
   18.4890    7.1280   10.2250 H   0  0  0  0  0  0
   19.0220    8.7900    9.7810 H   0  0  0  0  0  0
   14.4450    8.9190    8.8230 O   0  0  0  0  0  0
   15.4340    9.1280    7.8160 C   0  0  0  0  0  0
   14.9280    9.5290    6.9330 H   0  0  0  0  0  0
   15.9090    8.1840    7.5290 H   0  0  0  0  0  0
   16.1750    9.8660    8.1390 H   0  0  0  0  0  0
   10.0660    1.1880   11.1670 N   0  0  0  0  0  0
   10.4910    0.6580   10.4200 H   0  0  0  0  0  0
    9.0890    1.0640   11.3900 H   0  0  0  0  0  0
  1  2  1  0  0  0
  1  6  2  0  0  0
  2  3  2  0  0  0
  2 44  1  0  0  0
  3  4  1  0  0  0
  4  5  2  0  0  0
  4 15  1  0  0  0
  5  6  1  0  0  0
  5 10  1  0  0  0
  6  7  1  0  0  0
  7  8  1  0  0  0
  7  9  1  0  0  0
 10 11  1  0  0  0
 10 12  2  0  0  0
 12 13  1  0  0  0
 12 16  1  0  0  0
 13 14  1  0  0  0
 13 15  2  0  0  0
 16 17  1  0  0  0
 16 18  1  0  0  0
 18 19  1  0  0  0
 18 20  1  0  0  0
 18 21  1  0  0  0
 21 22  1  0  0  0
 21 28  2  0  0  0
 22 23  1  0  0  0
 22 24  2  0  0  0
 24 25  1  0  0  0
 24 26  1  0  0  0
 26 27  2  0  0  0
 26 39  1  0  0  0
 27 28  1  0  0  0
 27 34  1  0  0  0
 28 29  1  0  0  0
 29 30  1  0  0  0
 30 31  1  0  0  0
 30 32  1  0  0  0
 30 33  1  0  0  0
 34 35  1  0  0  0
 35 36  1  0  0  0
 35 37  1  0  0  0
 35 38  1  0  0  0
 39 40  1  0  0  0
 40 41  1  0  0  0
 40 42  1  0  0  0
 40 43  1  0  0  0
 44 45  1  0  0  0
 44 46  1  0  0  0
M  END
>  <ACTIVITY>
5.49

>  <SET>
1

>  <Min_dist>
999.9

>  <Avg_dist>
999.9

$$$$
25-15
  Cerius2 12110214133D 1   1.00000                          
Structure written by Cerius2 SD Exporter
 49 51  0  0  0  0  0  0  0  0999 V2000
   10.2070    2.7480   12.8550 N   0  0  0  0  0  0
   10.8120    2.0750   11.8790 C   0  0  0  0  0  0
   12.0940    2.2070   11.5520 N   0  0  0  0  0  0
   12.8230    3.0760   12.2350 C   0  0  0  0  0  0
   12.2980    3.8350   13.2760 C   0  0  0  0  0  0
   10.9510    3.6080   13.5610 C   0  0  0  0  0  0
   10.2750    4.3060   14.5450 N   0  0  0  0  0  0
   10.7570    4.5100   15.4140 H   0  0  0  0  0  0
    9.2960    4.0570   14.6550 H   0  0  0  0  0  0
   13.1460    4.7540   13.9450 C   0  0  0  0  0  0
   12.7450    5.3590   14.7570 H   0  0  0  0  0  0
   14.4810    4.9000   13.5820 C   0  0  0  0  0  0
   14.8930    4.0800   12.5400 C   0  0  0  0  0  0
   15.9190    4.1050   12.1780 H   0  0  0  0  0  0
   14.1010    3.1940   11.8750 N   0  0  0  0  0  0
   15.2830    5.7850   14.2650 N   0  0  0  0  0  0
   16.3620    6.5460   13.6540 C   0  0  0  0  0  0
   17.2030    5.8840   13.4110 H   0  0  0  0  0  0
   16.7460    7.3000   14.3520 H   0  0  0  0  0  0
   15.8720    7.2080   12.3880 C   0  0  0  0  0  0
   14.5180    7.5580   12.2730 C   0  0  0  0  0  0
   13.8320    7.3570   13.0970 H   0  0  0  0  0  0
   14.0190    8.1480   11.1060 C   0  0  0  0  0  0
   12.9560    8.3740   11.0760 H   0  0  0  0  0  0
   14.8630    8.4090   10.0230 C   0  0  0  0  0  0
   16.2320    8.1050   10.1430 C   0  0  0  0  0  0
   16.7280    7.5110   11.3180 C   0  0  0  0  0  0
   18.0520    7.1490   11.3950 O   0  0  0  0  0  0
   18.2310    5.8040   10.9370 C   0  0  0  0  0  0
   19.3060    5.6280   10.8350 H   0  0  0  0  0  0
   17.7660    5.6400    9.9590 H   0  0  0  0  0  0
   17.8390    5.0890   11.6660 H   0  0  0  0  0  0
   17.1210    8.2880    9.1070 O   0  0  0  0  0  0
   18.4560    7.9110    9.4580 C   0  0  0  0  0  0
   18.9370    7.5190    8.5570 H   0  0  0  0  0  0
   18.4890    7.1280   10.2250 H   0  0  0  0  0  0
   19.0220    8.7900    9.7810 H   0  0  0  0  0  0
   14.4450    8.9190    8.8230 O   0  0  0  0  0  0
   15.4340    9.1280    7.8160 C   0  0  0  0  0  0
   14.9280    9.5290    6.9330 H   0  0  0  0  0  0
   15.9090    8.1840    7.5290 H   0  0  0  0  0  0
   16.1750    9.8660    8.1390 H   0  0  0  0  0  0
   14.9980    6.0580   15.5560 C   0  0  0  0  0  0
   14.0300    5.6280   15.8130 H   0  0  0  0  0  0
   15.7680    5.6280   16.1970 H   0  0  0  0  0  0
   14.9660    7.1380   15.7000 H   0  0  0  0  0  0
   10.0660    1.1880   11.1670 N   0  0  0  0  0  0
   10.4910    0.6580   10.4200 H   0  0  0  0  0  0
    9.0890    1.0640   11.3900 H   0  0  0  0  0  0
  1  2  1  0  0  0
  1  6  2  0  0  0
  2  3  2  0  0  0
  2 47  1  0  0  0
  3  4  1  0  0  0
  4  5  2  0  0  0
  4 15  1  0  0  0
  5  6  1  0  0  0
  5 10  1  0  0  0
  6  7  1  0  0  0
  7  8  1  0  0  0
  7  9  1  0  0  0
 10 11  1  0  0  0
 10 12  2  0  0  0
 12 13  1  0  0  0
 12 16  1  0  0  0
 13 14  1  0  0  0
 13 15  2  0  0  0
 16 17  1  0  0  0
 16 43  1  0  0  0
 17 18  1  0  0  0
 17 19  1  0  0  0
 17 20  1  0  0  0
 20 21  1  0  0  0
 20 27  2  0  0  0
 21 22  1  0  0  0
 21 23  2  0  0  0
 23 24  1  0  0  0
 23 25  1  0  0  0
 25 26  2  0  0  0
 25 38  1  0  0  0
 26 27  1  0  0  0
 26 33  1  0  0  0
 27 28  1  0  0  0
 28 29  1  0  0  0
 29 30  1  0  0  0
 29 31  1  0  0  0
 29 32  1  0  0  0
 33 34  1  0  0  0
 34 35  1  0  0  0
 34 36  1  0  0  0
 34 37  1  0  0  0
 38 39  1  0  0  0
 39 40  1  0  0  0
 39 41  1  0  0  0
 39 42  1  0  0  0
 43 44  1  0  0  0
 43 45  1  0  0  0
 43 46  1  0  0  0
 47 48  1  0  0  0
 47 49  1  0  0  0
M  END
>  <ACTIVITY>
7.52

>  <SET>
2

>  <Min_dist>
0.06

>  <Avg_dist>
0.48

$$$$
25-16
  Cerius2 12110214133D 1   1.00000                          
Structure written by Cerius2 SD Exporter
 46 48  0  0  0  0  0  0  0  0999 V2000
   10.1960    2.7110   12.8310 N   0  0  0  0  0  0
   10.8330    2.0520   11.8650 C   0  0  0  0  0  0
   12.1160    2.2140   11.5580 N   0  0  0  0  0  0
   12.8120    3.1030   12.2500 C   0  0  0  0  0  0
   12.2520    3.8530   13.2810 C   0  0  0  0  0  0
   10.9080    3.5900   13.5460 C   0  0  0  0  0  0
   10.1990    4.2700   14.5210 N   0  0  0  0  0  0
   10.6620    4.4810   15.3990 H   0  0  0  0  0  0
    9.2260    3.9960   14.6160 H   0  0  0  0  0  0
   13.0630    4.7990   13.9600 C   0  0  0  0  0  0
   12.6200    5.3940   14.7550 H   0  0  0  0  0  0
   14.3990    4.9740   13.6200 C   0  0  0  0  0  0
   14.8460    4.1610   12.5850 C   0  0  0  0  0  0
   15.8810    4.2200   12.2500 H   0  0  0  0  0  0
   14.0910    3.2520   11.9080 N   0  0  0  0  0  0
   15.2490    5.8560   14.2460 N   0  0  0  0  0  0
   15.1230    6.0390   15.2400 H   0  0  0  0  0  0
   16.3780    6.5140   13.6040 C   0  0  0  0  0  0
   17.1560    5.7840   13.3480 H   0  0  0  0  0  0
   16.8500    7.2220   14.2950 H   0  0  0  0  0  0
   15.9210    7.2310   12.3450 C   0  0  0  0  0  0
   16.8360    7.4840   11.2980 C   0  0  0  0  0  0
   16.4080    8.1310   10.1320 C   0  0  0  0  0  0
   17.1140    8.3360    9.3360 H   0  0  0  0  0  0
   15.0750    8.5180    9.9910 C   0  0  0  0  0  0
   14.1670    8.2590   11.0200 C   0  0  0  0  0  0
   13.1360    8.5730   10.8740 H   0  0  0  0  0  0
   14.5740    7.6180   12.1940 C   0  0  0  0  0  0
   13.7380    7.3290   13.2430 O   0  0  0  0  0  0
   12.3960    7.8070   13.1720 C   0  0  0  0  0  0
   11.8750    7.4720   14.0750 H   0  0  0  0  0  0
   11.8720    7.3830   12.3100 H   0  0  0  0  0  0
   12.3670    8.9020   13.1580 H   0  0  0  0  0  0
   14.5340    9.1530    8.9050 O   0  0  0  0  0  0
   15.4110    9.4470    7.8190 C   0  0  0  0  0  0
   14.8230    9.9480    7.0440 H   0  0  0  0  0  0
   15.8220    8.5290    7.3860 H   0  0  0  0  0  0
   16.2070   10.1320    8.1300 H   0  0  0  0  0  0
   18.1270    7.0700   11.5160 O   0  0  0  0  0  0
   19.1220    7.4650   10.5730 C   0  0  0  0  0  0
   20.0610    6.9840   10.8620 H   0  0  0  0  0  0
   19.2790    8.5480   10.6010 H   0  0  0  0  0  0
   18.8670    7.1230    9.5640 H   0  0  0  0  0  0
   10.1180    1.1480   11.1400 N   0  0  0  0  0  0
   10.5670    0.6290   10.4000 H   0  0  0  0  0  0
    9.1410    1.0040   11.3460 H   0  0  0  0  0  0
  1  2  1  0  0  0
  1  6  2  0  0  0
  2  3  2  0  0  0
  2 44  1  0  0  0
  3  4  1  0  0  0
  4  5  2  0  0  0
  4 15  1  0  0  0
  5  6  1  0  0  0
  5 10  1  0  0  0
  6  7  1  0  0  0
  7  8  1  0  0  0
  7  9  1  0  0  0
 10 11  1  0  0  0
 10 12  2  0  0  0
 12 13  1  0  0  0
 12 16  1  0  0  0
 13 14  1  0  0  0
 13 15  2  0  0  0
 16 17  1  0  0  0
 16 18  1  0  0  0
 18 19  1  0  0  0
 18 20  1  0  0  0
 18 21  1  0  0  0
 21 22  1  0  0  0
 21 28  2  0  0  0
 22 23  2  0  0  0
 22 39  1  0  0  0
 23 24  1  0  0  0
 23 25  1  0  0  0
 25 26  2  0  0  0
 25 34  1  0  0  0
 26 27  1  0  0  0
 26 28  1  0  0  0
 28 29  1  0  0  0
 29 30  1  0  0  0
 30 31  1  0  0  0
 30 32  1  0  0  0
 30 33  1  0  0  0
 34 35  1  0  0  0
 35 36  1  0  0  0
 35 37  1  0  0  0
 35 38  1  0  0  0
 39 40  1  0  0  0
 40 41  1  0  0  0
 40 42  1  0  0  0
 40 43  1  0  0  0
 44 45  1  0  0  0
 44 46  1  0  0  0
M  END
>  <ACTIVITY>
5.92

>  <SET>
1

>  <Min_dist>
999.9

>  <Avg_dist>
999.9

$$$$
25-19
  Cerius2 12110214133D 1   1.00000                          
Structure written by Cerius2 SD Exporter
 42 44  0  0  0  0  0  0  0  0999 V2000
   10.2020    2.7450   12.8480 N   0  0  0  0  0  0
   10.8120    2.0750   11.8730 C   0  0  0  0  0  0
   12.0960    2.2080   11.5540 N   0  0  0  0  0  0
   12.8220    3.0740   12.2460 C   0  0  0  0  0  0
   12.2910    3.8300   13.2860 C   0  0  0  0  0  0
   10.9430    3.6010   13.5620 C   0  0  0  0  0  0
   10.2610    4.2930   14.5460 N   0  0  0  0  0  0
   10.7350    4.4820   15.4240 H   0  0  0  0  0  0
    9.2810    4.0430   14.6460 H   0  0  0  0  0  0
   13.1330    4.7510   13.9640 C   0  0  0  0  0  0
   12.7120    5.3510   14.7670 H   0  0  0  0  0  0
   14.4690    4.8950   13.6120 C   0  0  0  0  0  0
   14.8850    4.0810   12.5640 C   0  0  0  0  0  0
   15.9140    4.1240   12.2120 H   0  0  0  0  0  0
   14.1010    3.1940   11.8920 N   0  0  0  0  0  0
   15.3390    5.7740   14.2150 N   0  0  0  0  0  0
   15.1930    6.0190   15.1930 H   0  0  0  0  0  0
   16.4430    6.4320   13.5360 C   0  0  0  0  0  0
   17.1930    5.6950   13.2240 H   0  0  0  0  0  0
   16.9420    7.1430   14.2070 H   0  0  0  0  0  0
   15.9270    7.1810   12.3280 C   0  0  0  0  0  0
   16.7920    7.5240   11.2790 C   0  0  0  0  0  0
   17.8460    7.2540   11.3370 H   0  0  0  0  0  0
   16.3220    8.2080   10.1560 C   0  0  0  0  0  0
   14.9700    8.5460   10.0790 C   0  0  0  0  0  0
   14.5680    9.0770    9.2210 H   0  0  0  0  0  0
   14.0880    8.1990   11.1090 C   0  0  0  0  0  0
   14.5670    7.5170   12.2290 C   0  0  0  0  0  0
   13.9080    7.2300   13.0440 H   0  0  0  0  0  0
   12.7900    8.5840   10.9010 O   0  0  0  0  0  0
   12.5000    9.2240    9.6590 C   0  0  0  0  0  0
   11.4370    9.4840    9.6610 H   0  0  0  0  0  0
   12.6770    8.5470    8.8180 H   0  0  0  0  0  0
   13.0720   10.1520    9.5520 H   0  0  0  0  0  0
   17.2750    8.4860    9.2140 O   0  0  0  0  0  0
   18.6110    8.0830    9.5110 C   0  0  0  0  0  0
   19.2420    8.3740    8.6660 H   0  0  0  0  0  0
   18.6780    6.9960    9.6200 H   0  0  0  0  0  0
   18.9870    8.5960   10.4020 H   0  0  0  0  0  0
   10.0680    1.1940   11.1520 N   0  0  0  0  0  0
   10.4930    0.6690   10.4020 H   0  0  0  0  0  0
    9.0900    1.0700   11.3710 H   0  0  0  0  0  0
  1  2  1  0  0  0
  1  6  2  0  0  0
  2  3  2  0  0  0
  2 40  1  0  0  0
  3  4  1  0  0  0
  4  5  2  0  0  0
  4 15  1  0  0  0
  5  6  1  0  0  0
  5 10  1  0  0  0
  6  7  1  0  0  0
  7  8  1  0  0  0
  7  9  1  0  0  0
 10 11  1  0  0  0
 10 12  2  0  0  0
 12 13  1  0  0  0
 12 16  1  0  0  0
 13 14  1  0  0  0
 13 15  2  0  0  0
 16 17  1  0  0  0
 16 18  1  0  0  0
 18 19  1  0  0  0
 18 20  1  0  0  0
 18 21  1  0  0  0
 21 22  1  0  0  0
 21 28  2  0  0  0
 22 23  1  0  0  0
 22 24  2  0  0  0
 24 25  1  0  0  0
 24 35  1  0  0  0
 25 26  1  0  0  0
 25 27  2  0  0  0
 27 28  1  0  0  0
 27 30  1  0  0  0
 28 29  1  0  0  0
 30 31  1  0  0  0
 31 32  1  0  0  0
 31 33  1  0  0  0
 31 34  1  0  0  0
 35 36  1  0  0  0
 36 37  1  0  0  0
 36 38  1  0  0  0
 36 39  1  0  0  0
 40 41  1  0  0  0
 40 42  1  0  0  0
M  END
>  <ACTIVITY>
5.47

>  <SET>
1

>  <Min_dist>
999.9

>  <Avg_dist>
999.9

$$$$
25-20
  Cerius2 12110214133D 1   1.00000                          
Structure written by Cerius2 SD Exporter
 45 47  0  0  0  0  0  0  0  0999 V2000
   10.1820    2.7300   12.8290 N   0  0  0  0  0  0
   10.7900    2.0620   11.8520 C   0  0  0  0  0  0
   12.0730    2.1920   11.5330 N   0  0  0  0  0  0
   12.8010    3.0530   12.2280 C   0  0  0  0  0  0
   12.2760    3.8060   13.2710 C   0  0  0  0  0  0
   10.9270    3.5810   13.5470 C   0  0  0  0  0  0
   10.2460    4.2710   14.5340 N   0  0  0  0  0  0
   10.7190    4.4570   15.4120 H   0  0  0  0  0  0
    9.2650    4.0240   14.6320 H   0  0  0  0  0  0
   13.1270    4.7170   13.9560 C   0  0  0  0  0  0
   12.7040    5.2830   14.7820 H   0  0  0  0  0  0
   14.4710    4.8660   13.6170 C   0  0  0  0  0  0
   14.8710    4.0460   12.5620 C   0  0  0  0  0  0
   15.8950    4.0740   12.1910 H   0  0  0  0  0  0
   14.0810    3.1680   11.8800 N   0  0  0  0  0  0
   15.3290    5.7360   14.2690 N   0  0  0  0  0  0
   16.4010    6.4650   13.5700 C   0  0  0  0  0  0
   17.1960    5.7560   13.3090 H   0  0  0  0  0  0
   16.8590    7.2400   14.1940 H   0  0  0  0  0  0
   15.8900    7.1840   12.3350 C   0  0  0  0  0  0
   16.7720    7.5290   11.3000 C   0  0  0  0  0  0
   17.8270    7.2660   11.3760 H   0  0  0  0  0  0
   16.3180    8.2080   10.1670 C   0  0  0  0  0  0
   14.9690    8.5490   10.0690 C   0  0  0  0  0  0
   14.5790    9.0800    9.2040 H   0  0  0  0  0  0
   14.0730    8.2170   11.0930 C   0  0  0  0  0  0
   14.5360    7.5420   12.2230 C   0  0  0  0  0  0
   13.8680    7.2750   13.0390 H   0  0  0  0  0  0
   12.7800    8.6100   10.8710 O   0  0  0  0  0  0
   12.5050    9.2400    9.6210 C   0  0  0  0  0  0
   11.4500    9.5300    9.6180 H   0  0  0  0  0  0
   12.6630    8.5460    8.7890 H   0  0  0  0  0  0
   13.1020   10.1510    9.4990 H   0  0  0  0  0  0
   17.2850    8.4780    9.2370 O   0  0  0  0  0  0
   18.6130    8.0620    9.5530 C   0  0  0  0  0  0
   19.2620    8.3680    8.7260 H   0  0  0  0  0  0
   18.6730    6.9720    9.6390 H   0  0  0  0  0  0
   18.9740    8.5550   10.4610 H   0  0  0  0  0  0
   15.0820    6.0690   15.6760 C   0  0  0  0  0  0
   15.5960    6.9910   15.9690 H   0  0  0  0  0  0
   15.4350    5.2630   16.3280 H   0  0  0  0  0  0
   14.0150    6.2390   15.8590 H   0  0  0  0  0  0
   10.0430    1.1830   11.1290 N   0  0  0  0  0  0
   10.4700    0.6550   10.3820 H   0  0  0  0  0  0
    9.0640    1.0630   11.3460 H   0  0  0  0  0  0
  1  2  1  0  0  0
  1  6  2  0  0  0
  2  3  2  0  0  0
  2 43  1  0  0  0
  3  4  1  0  0  0
  4  5  2  0  0  0
  4 15  1  0  0  0
  5  6  1  0  0  0
  5 10  1  0  0  0
  6  7  1  0  0  0
  7  8  1  0  0  0
  7  9  1  0  0  0
 10 11  1  0  0  0
 10 12  2  0  0  0
 12 13  1  0  0  0
 12 16  1  0  0  0
 13 14  1  0  0  0
 13 15  2  0  0  0
 16 17  1  0  0  0
 16 39  1  0  0  0
 17 18  1  0  0  0
 17 19  1  0  0  0
 17 20  1  0  0  0
 20 21  1  0  0  0
 20 27  2  0  0  0
 21 22  1  0  0  0
 21 23  2  0  0  0
 23 24  1  0  0  0
 23 34  1  0  0  0
 24 25  1  0  0  0
 24 26  2  0  0  0
 26 27  1  0  0  0
 26 29  1  0  0  0
 27 28  1  0  0  0
 29 30  1  0  0  0
 30 31  1  0  0  0
 30 32  1  0  0  0
 30 33  1  0  0  0
 34 35  1  0  0  0
 35 36  1  0  0  0
 35 37  1  0  0  0
 35 38  1  0  0  0
 39 40  1  0  0  0
 39 41  1  0  0  0
 39 42  1  0  0  0
 43 44  1  0  0  0
 43 45  1  0  0  0
M  END
>  <ACTIVITY>
7.14

>  <SET>
1

>  <Min_dist>
999.9

>  <Avg_dist>
999.9

$$$$
25-21
  Cerius2 12110214133D 1   1.00000                          
Structure written by Cerius2 SD Exporter
 42 44  0  0  0  0  0  0  0  0999 V2000
   10.1990    2.7270   12.8440 N   0  0  0  0  0  0
   10.8190    2.0590   11.8750 C   0  0  0  0  0  0
   12.1010    2.2070   11.5570 N   0  0  0  0  0  0
   12.8140    3.0880   12.2420 C   0  0  0  0  0  0
   12.2720    3.8450   13.2750 C   0  0  0  0  0  0
   10.9270    3.5990   13.5520 C   0  0  0  0  0  0
   10.2350    4.2880   14.5320 N   0  0  0  0  0  0
   10.7070    4.4870   15.4080 H   0  0  0  0  0  0
    9.2580    4.0260   14.6340 H   0  0  0  0  0  0
   13.1010    4.7830   13.9470 C   0  0  0  0  0  0
   12.6710    5.3810   14.7460 H   0  0  0  0  0  0
   14.4350    4.9440   13.5930 C   0  0  0  0  0  0
   14.8640    4.1210   12.5580 C   0  0  0  0  0  0
   15.8970    4.1660   12.2150 H   0  0  0  0  0  0
   14.0930    3.2210   11.8900 N   0  0  0  0  0  0
   15.3000    5.8180   14.2110 N   0  0  0  0  0  0
   15.2490    5.9250   15.2230 H   0  0  0  0  0  0
   16.3930    6.5070   13.5430 C   0  0  0  0  0  0
   17.1540    5.7870   13.2150 H   0  0  0  0  0  0
   16.8920    7.1980   14.2320 H   0  0  0  0  0  0
   15.8730    7.2450   12.3270 C   0  0  0  0  0  0
   14.5120    7.6070   12.2860 C   0  0  0  0  0  0
   13.8630    7.3460   13.1220 H   0  0  0  0  0  0
   13.9740    8.2970   11.1980 C   0  0  0  0  0  0
   14.8080    8.6380   10.1370 C   0  0  0  0  0  0
   14.4410    9.1740    9.2660 H   0  0  0  0  0  0
   16.1670    8.2960   10.1670 C   0  0  0  0  0  0
   16.7730    8.5910    9.3140 H   0  0  0  0  0  0
   16.7100    7.6050   11.2550 C   0  0  0  0  0  0
   18.0250    7.2390   11.3630 O   0  0  0  0  0  0
   18.8780    7.5180   10.2540 C   0  0  0  0  0  0
   19.8880    7.1940   10.5220 H   0  0  0  0  0  0
   18.9160    8.5920   10.0470 H   0  0  0  0  0  0
   18.5680    6.9510    9.3700 H   0  0  0  0  0  0
   12.6400    8.5750   11.2930 O   0  0  0  0  0  0
   12.0510    9.2800   10.2000 C   0  0  0  0  0  0
   10.9900    9.4210   10.4280 H   0  0  0  0  0  0
   12.1200    8.6980    9.2750 H   0  0  0  0  0  0
   12.5020   10.2710   10.0830 H   0  0  0  0  0  0
   10.0890    1.1610   11.1590 N   0  0  0  0  0  0
   10.5250    0.6360   10.4160 H   0  0  0  0  0  0
    9.1120    1.0240   11.3750 H   0  0  0  0  0  0
  1  2  1  0  0  0
  1  6  2  0  0  0
  2  3  2  0  0  0
  2 40  1  0  0  0
  3  4  1  0  0  0
  4  5  2  0  0  0
  4 15  1  0  0  0
  5  6  1  0  0  0
  5 10  1  0  0  0
  6  7  1  0  0  0
  7  8  1  0  0  0
  7  9  1  0  0  0
 10 11  1  0  0  0
 10 12  2  0  0  0
 12 13  1  0  0  0
 12 16  1  0  0  0
 13 14  1  0  0  0
 13 15  2  0  0  0
 16 17  1  0  0  0
 16 18  1  0  0  0
 18 19  1  0  0  0
 18 20  1  0  0  0
 18 21  1  0  0  0
 21 22  1  0  0  0
 21 29  2  0  0  0
 22 23  1  0  0  0
 22 24  2  0  0  0
 24 25  1  0  0  0
 24 35  1  0  0  0
 25 26  1  0  0  0
 25 27  2  0  0  0
 27 28  1  0  0  0
 27 29  1  0  0  0
 29 30  1  0  0  0
 30 31  1  0  0  0
 31 32  1  0  0  0
 31 33  1  0  0  0
 31 34  1  0  0  0
 35 36  1  0  0  0
 36 37  1  0  0  0
 36 38  1  0  0  0
 36 39  1  0  0  0
 40 41  1  0  0  0
 40 42  1  0  0  0
M  END
>  <ACTIVITY>
6.46

>  <SET>
1

>  <Min_dist>
999.9

>  <Avg_dist>
999.9

$$$$
25-22
  Cerius2 12110214133D 1   1.00000                          
Structure written by Cerius2 SD Exporter
 45 47  0  0  0  0  0  0  0  0999 V2000
   10.1600    2.6830   12.8190 N   0  0  0  0  0  0
   10.7930    2.0200   11.8540 C   0  0  0  0  0  0
   12.0770    2.1770   11.5470 N   0  0  0  0  0  0
   12.7770    3.0620   12.2400 C   0  0  0  0  0  0
   12.2250    3.8120   13.2710 C   0  0  0  0  0  0
   10.8780    3.5580   13.5340 C   0  0  0  0  0  0
   10.1730    4.2430   14.5080 N   0  0  0  0  0  0
   10.6370    4.4500   15.3870 H   0  0  0  0  0  0
    9.1970    3.9770   14.6040 H   0  0  0  0  0  0
   13.0460    4.7540   13.9510 C   0  0  0  0  0  0
   12.6020    5.3140   14.7700 H   0  0  0  0  0  0
   14.3850    4.9460   13.6110 C   0  0  0  0  0  0
   14.8170    4.1140   12.5780 C   0  0  0  0  0  0
   15.8410    4.1570   12.2130 H   0  0  0  0  0  0
   14.0560    3.2050   11.9040 N   0  0  0  0  0  0
   15.2050    5.8560   14.2610 N   0  0  0  0  0  0
   16.3570    6.4850   13.5810 C   0  0  0  0  0  0
   17.1420    5.7730   13.3030 H   0  0  0  0  0  0
   16.8350    7.1560   14.3040 H   0  0  0  0  0  0
   15.9380    7.2320   12.3260 C   0  0  0  0  0  0
   14.5840    7.5850   12.1480 C   0  0  0  0  0  0
   13.8590    7.3410   12.9240 H   0  0  0  0  0  0
   14.1470    8.2470   10.9990 C   0  0  0  0  0  0
   15.0710    8.5530   10.0040 C   0  0  0  0  0  0
   14.7820    9.0600    9.0870 H   0  0  0  0  0  0
   16.4180    8.2050   10.1600 C   0  0  0  0  0  0
   17.0970    8.4640    9.3510 H   0  0  0  0  0  0
   16.8600    7.5420   11.3100 C   0  0  0  0  0  0
   18.1560    7.1600   11.5290 O   0  0  0  0  0  0
   19.1220    7.4920   10.5340 C   0  0  0  0  0  0
   20.0950    7.1330   10.8830 H   0  0  0  0  0  0
   19.1970    8.5760   10.3990 H   0  0  0  0  0  0
   18.9010    6.9860    9.5880 H   0  0  0  0  0  0
   12.8100    8.5300   10.9680 O   0  0  0  0  0  0
   12.3200    9.1920    9.8030 C   0  0  0  0  0  0
   11.2460    9.3550    9.9380 H   0  0  0  0  0  0
   12.4540    8.5700    8.9120 H   0  0  0  0  0  0
   12.7920   10.1720    9.6780 H   0  0  0  0  0  0
   15.2230    5.9140   15.7270 C   0  0  0  0  0  0
   15.7800    6.7860   16.0870 H   0  0  0  0  0  0
   15.7060    5.0220   16.1410 H   0  0  0  0  0  0
   14.2080    5.9990   16.1290 H   0  0  0  0  0  0
   10.0790    1.1150   11.1320 N   0  0  0  0  0  0
   10.5350    0.5790   10.4080 H   0  0  0  0  0  0
    9.1050    0.9600   11.3450 H   0  0  0  0  0  0
  1  2  1  0  0  0
  1  6  2  0  0  0
  2  3  2  0  0  0
  2 43  1  0  0  0
  3  4  1  0  0  0
  4  5  2  0  0  0
  4 15  1  0  0  0
  5  6  1  0  0  0
  5 10  1  0  0  0
  6  7  1  0  0  0
  7  8  1  0  0  0
  7  9  1  0  0  0
 10 11  1  0  0  0
 10 12  2  0  0  0
 12 13  1  0  0  0
 12 16  1  0  0  0
 13 14  1  0  0  0
 13 15  2  0  0  0
 16 17  1  0  0  0
 16 39  1  0  0  0
 17 18  1  0  0  0
 17 19  1  0  0  0
 17 20  1  0  0  0
 20 21  1  0  0  0
 20 28  2  0  0  0
 21 22  1  0  0  0
 21 23  2  0  0  0
 23 24  1  0  0  0
 23 34  1  0  0  0
 24 25  1  0  0  0
 24 26  2  0  0  0
 26 27  1  0  0  0
 26 28  1  0  0  0
 28 29  1  0  0  0
 29 30  1  0  0  0
 30 31  1  0  0  0
 30 32  1  0  0  0
 30 33  1  0  0  0
 34 35  1  0  0  0
 35 36  1  0  0  0
 35 37  1  0  0  0
 35 38  1  0  0  0
 39 40  1  0  0  0
 39 41  1  0  0  0
 39 42  1  0  0  0
 43 44  1  0  0  0
 43 45  1  0  0  0
M  END
>  <ACTIVITY>
7.24

>  <SET>
1

>  <Min_dist>
999.9

>  <Avg_dist>
999.9

$$$$
25-23
  Cerius2 12110214133D 1   1.00000                          
Structure written by Cerius2 SD Exporter
 40 43  0  0  0  0  0  0  0  0999 V2000
   10.2060    2.7640   12.8660 N   0  0  0  0  0  0
   10.7940    2.0830   11.8860 C   0  0  0  0  0  0
   12.0760    2.1950   11.5510 N   0  0  0  0  0  0
   12.8230    3.0520   12.2310 C   0  0  0  0  0  0
   12.3160    3.8170   13.2750 C   0  0  0  0  0  0
   10.9680    3.6110   13.5690 C   0  0  0  0  0  0
   10.3090    4.3180   14.5580 N   0  0  0  0  0  0
   10.8000    4.5130   15.4250 H   0  0  0  0  0  0
    9.3270    4.0850   14.6740 H   0  0  0  0  0  0
   13.1820    4.7240   13.9400 C   0  0  0  0  0  0
   12.7940    5.3380   14.7500 H   0  0  0  0  0  0
   14.5170    4.8470   13.5710 C   0  0  0  0  0  0
   14.9090    4.0270   12.5210 C   0  0  0  0  0  0
   15.9310    4.0410   12.1500 H   0  0  0  0  0  0
   14.1000    3.1530   11.8610 N   0  0  0  0  0  0
   15.3310    5.7360   14.2330 N   0  0  0  0  0  0
   15.2010    5.8750   15.2330 H   0  0  0  0  0  0
   16.3940    6.5000   13.6020 C   0  0  0  0  0  0
   17.2370    5.8560   13.3220 H   0  0  0  0  0  0
   16.7930    7.2370   14.3100 H   0  0  0  0  0  0
   15.8640    7.2120   12.3710 C   0  0  0  0  0  0
   14.4930    7.5280   12.3330 C   0  0  0  0  0  0
   13.8450    7.2600   13.1680 H   0  0  0  0  0  0
   13.9410    8.1830   11.2380 C   0  0  0  0  0  0
   12.8790    8.4250   11.2250 H   0  0  0  0  0  0
   14.7480    8.5300   10.1590 C   0  0  0  0  0  0
   14.2950    9.0450    9.3120 H   0  0  0  0  0  0
   16.1160    8.2200   10.1550 C   0  0  0  0  0  0
   16.6950    7.5480   11.2630 C   0  0  0  0  0  0
   18.0760    7.2490   11.1940 C   0  0  0  0  0  0
   18.5740    6.7210   12.0060 H   0  0  0  0  0  0
   18.8520    7.6050   10.0880 C   0  0  0  0  0  0
   19.9130    7.3600   10.0660 H   0  0  0  0  0  0
   18.2690    8.2690    9.0170 C   0  0  0  0  0  0
   18.8700    8.5480    8.1530 H   0  0  0  0  0  0
   16.9100    8.5720    9.0500 C   0  0  0  0  0  0
   16.4700    9.0900    8.1970 H   0  0  0  0  0  0
   10.0290    1.2090   11.1770 N   0  0  0  0  0  0
   10.4400    0.6740   10.4270 H   0  0  0  0  0  0
    9.0520    1.1010   11.4070 H   0  0  0  0  0  0
  1  2  1  0  0  0
  1  6  2  0  0  0
  2  3  2  0  0  0
  2 38  1  0  0  0
  3  4  1  0  0  0
  4  5  2  0  0  0
  4 15  1  0  0  0
  5  6  1  0  0  0
  5 10  1  0  0  0
  6  7  1  0  0  0
  7  8  1  0  0  0
  7  9  1  0  0  0
 10 11  1  0  0  0
 10 12  2  0  0  0
 12 13  1  0  0  0
 12 16  1  0  0  0
 13 14  1  0  0  0
 13 15  2  0  0  0
 16 17  1  0  0  0
 16 18  1  0  0  0
 18 19  1  0  0  0
 18 20  1  0  0  0
 18 21  1  0  0  0
 21 22  2  0  0  0
 21 29  1  0  0  0
 22 23  1  0  0  0
 22 24  1  0  0  0
 24 25  1  0  0  0
 24 26  2  0  0  0
 26 27  1  0  0  0
 26 28  1  0  0  0
 28 29  2  0  0  0
 28 36  1  0  0  0
 29 30  1  0  0  0
 30 31  1  0  0  0
 30 32  2  0  0  0
 32 33  1  0  0  0
 32 34  1  0  0  0
 34 35  1  0  0  0
 34 36  2  0  0  0
 36 37  1  0  0  0
 38 39  1  0  0  0
 38 40  1  0  0  0
M  END
>  <ACTIVITY>
6.62

>  <SET>
1

>  <Min_dist>
999.9

>  <Avg_dist>
999.9

$$$$
25-24
  Cerius2 12110214133D 1   1.00000                          
Structure written by Cerius2 SD Exporter
 44 47  0  0  0  0  0  0  0  0999 V2000
   10.2000    2.7330   12.8410 N   0  0  0  0  0  0
   10.8200    2.0660   11.8710 C   0  0  0  0  0  0
   12.1040    2.2100   11.5560 N   0  0  0  0  0  0
   12.8180    3.0850   12.2480 C   0  0  0  0  0  0
   12.2770    3.8380   13.2850 C   0  0  0  0  0  0
   10.9300    3.5980   13.5560 C   0  0  0  0  0  0
   10.2380    4.2860   14.5360 N   0  0  0  0  0  0
   10.7070    4.4830   15.4140 H   0  0  0  0  0  0
    9.2590    4.0290   14.6320 H   0  0  0  0  0  0
   13.1080    4.7680   13.9650 C   0  0  0  0  0  0
   12.6790    5.3640   14.7650 H   0  0  0  0  0  0
   14.4430    4.9250   13.6150 C   0  0  0  0  0  0
   14.8710    4.1110   12.5720 C   0  0  0  0  0  0
   15.9030    4.1590   12.2270 H   0  0  0  0  0  0
   14.0980    3.2160   11.8980 N   0  0  0  0  0  0
   15.3070    5.8000   14.2310 N   0  0  0  0  0  0
   15.1650    6.0210   15.2150 H   0  0  0  0  0  0
   16.4410    6.4340   13.5800 C   0  0  0  0  0  0
   17.2170    5.7030   13.3230 H   0  0  0  0  0  0
   16.9100    7.1500   14.2670 H   0  0  0  0  0  0
   15.9850    7.1580   12.3250 C   0  0  0  0  0  0
   14.6230    7.4870   12.2220 C   0  0  0  0  0  0
   13.9330    7.2210   13.0230 H   0  0  0  0  0  0
   14.1260    8.1560   11.1070 C   0  0  0  0  0  0
   13.0640    8.3840   11.0910 H   0  0  0  0  0  0
   14.9800    8.5080   10.0610 C   0  0  0  0  0  0
   16.3590    8.1770   10.1250 C   0  0  0  0  0  0
   16.8690    7.4910   11.2620 C   0  0  0  0  0  0
   18.2470    7.1660   11.2800 C   0  0  0  0  0  0
   18.6830    6.6270   12.1200 H   0  0  0  0  0  0
   19.1030    7.5080   10.2320 C   0  0  0  0  0  0
   20.1570    7.2410   10.2800 H   0  0  0  0  0  0
   18.6050    8.1830    9.1300 C   0  0  0  0  0  0
   19.2640    8.4530    8.3070 H   0  0  0  0  0  0
   17.2510    8.5110    9.0790 C   0  0  0  0  0  0
   16.8900    9.0390    8.1960 H   0  0  0  0  0  0
   14.5650    9.1720    8.9300 O   0  0  0  0  0  0
   14.1320    8.3850    7.8220 C   0  0  0  0  0  0
   13.8290    9.0710    7.0250 H   0  0  0  0  0  0
   13.2600    7.7780    8.0870 H   0  0  0  0  0  0
   14.9480    7.7660    7.4360 H   0  0  0  0  0  0
   10.0880    1.1750   11.1490 N   0  0  0  0  0  0
   10.5240    0.6500   10.4050 H   0  0  0  0  0  0
    9.1100    1.0420   11.3630 H   0  0  0  0  0  0
  1  2  1  0  0  0
  1  6  2  0  0  0
  2  3  2  0  0  0
  2 42  1  0  0  0
  3  4  1  0  0  0
  4  5  2  0  0  0
  4 15  1  0  0  0
  5  6  1  0  0  0
  5 10  1  0  0  0
  6  7  1  0  0  0
  7  8  1  0  0  0
  7  9  1  0  0  0
 10 11  1  0  0  0
 10 12  2  0  0  0
 12 13  1  0  0  0
 12 16  1  0  0  0
 13 14  1  0  0  0
 13 15  2  0  0  0
 16 17  1  0  0  0
 16 18  1  0  0  0
 18 19  1  0  0  0
 18 20  1  0  0  0
 18 21  1  0  0  0
 21 22  2  0  0  0
 21 28  1  0  0  0
 22 23  1  0  0  0
 22 24  1  0  0  0
 24 25  1  0  0  0
 24 26  2  0  0  0
 26 27  1  0  0  0
 26 37  1  0  0  0
 27 28  2  0  0  0
 27 35  1  0  0  0
 28 29  1  0  0  0
 29 30  1  0  0  0
 29 31  2  0  0  0
 31 32  1  0  0  0
 31 33  1  0  0  0
 33 34  1  0  0  0
 33 35  2  0  0  0
 35 36  1  0  0  0
 37 38  1  0  0  0
 38 39  1  0  0  0
 38 40  1  0  0  0
 38 41  1  0  0  0
 42 43  1  0  0  0
 42 44  1  0  0  0
M  END
>  <ACTIVITY>
6.37

>  <SET>
1

>  <Min_dist>
999.9

>  <Avg_dist>
999.9

$$$$
25-25
  Cerius2 12110214133D 1   1.00000                          
Structure written by Cerius2 SD Exporter
 44 47  0  0  0  0  0  0  0  0999 V2000
   10.1990    2.7460   12.8450 N   0  0  0  0  0  0
   10.8090    2.0760   11.8700 C   0  0  0  0  0  0
   12.0930    2.2070   11.5530 N   0  0  0  0  0  0
   12.8190    3.0710   12.2460 C   0  0  0  0  0  0
   12.2890    3.8270   13.2860 C   0  0  0  0  0  0
   10.9400    3.6000   13.5610 C   0  0  0  0  0  0
   10.2580    4.2920   14.5460 N   0  0  0  0  0  0
   10.7320    4.4790   15.4240 H   0  0  0  0  0  0
    9.2780    4.0450   14.6440 H   0  0  0  0  0  0
   13.1320    4.7450   13.9680 C   0  0  0  0  0  0
   12.7100    5.3430   14.7720 H   0  0  0  0  0  0
   14.4670    4.8890   13.6160 C   0  0  0  0  0  0
   14.8840    4.0720   12.5710 C   0  0  0  0  0  0
   15.9180    4.1050   12.2280 H   0  0  0  0  0  0
   14.1000    3.1890   11.8940 N   0  0  0  0  0  0
   15.3460    5.7420   14.2420 N   0  0  0  0  0  0
   15.2900    5.8500   15.2530 H   0  0  0  0  0  0
   16.4340    6.4440   13.5770 C   0  0  0  0  0  0
   17.2220    5.7470   13.2650 H   0  0  0  0  0  0
   16.9170    7.1310   14.2800 H   0  0  0  0  0  0
   15.9160    7.1820   12.3510 C   0  0  0  0  0  0
   14.5440    7.5180   12.2680 C   0  0  0  0  0  0
   14.0650    8.2060   11.1540 C   0  0  0  0  0  0
   13.0200    8.4900   11.0540 H   0  0  0  0  0  0
   14.9270    8.5590   10.1160 C   0  0  0  0  0  0
   14.5170    9.0970    9.2610 H   0  0  0  0  0  0
   16.2840    8.2280   10.1620 C   0  0  0  0  0  0
   16.8020    7.5270   11.2790 C   0  0  0  0  0  0
   18.1820    7.2090   11.2550 C   0  0  0  0  0  0
   18.6430    6.6560   12.0720 H   0  0  0  0  0  0
   19.0090    7.5740   10.1880 C   0  0  0  0  0  0
   20.0650    7.3110   10.2050 H   0  0  0  0  0  0
   18.4800    8.2670    9.1090 C   0  0  0  0  0  0
   19.1190    8.5530    8.2750 H   0  0  0  0  0  0
   17.1260    8.5900    9.0960 C   0  0  0  0  0  0
   16.7280    9.1310    8.2370 H   0  0  0  0  0  0
   13.7560    7.1350   13.3250 O   0  0  0  0  0  0
   12.3670    7.4510   13.2650 C   0  0  0  0  0  0
   11.8950    7.0470   14.1660 H   0  0  0  0  0  0
   11.8910    6.9780   12.3990 H   0  0  0  0  0  0
   12.2100    8.5350   13.2640 H   0  0  0  0  0  0
   10.0640    1.1950   11.1480 N   0  0  0  0  0  0
   10.4920    0.6680   10.4010 H   0  0  0  0  0  0
    9.0860    1.0740   11.3640 H   0  0  0  0  0  0
  1  2  1  0  0  0
  1  6  2  0  0  0
  2  3  2  0  0  0
  2 42  1  0  0  0
  3  4  1  0  0  0
  4  5  2  0  0  0
  4 15  1  0  0  0
  5  6  1  0  0  0
  5 10  1  0  0  0
  6  7  1  0  0  0
  7  8  1  0  0  0
  7  9  1  0  0  0
 10 11  1  0  0  0
 10 12  2  0  0  0
 12 13  1  0  0  0
 12 16  1  0  0  0
 13 14  1  0  0  0
 13 15  2  0  0  0
 16 17  1  0  0  0
 16 18  1  0  0  0
 18 19  1  0  0  0
 18 20  1  0  0  0
 18 21  1  0  0  0
 21 22  2  0  0  0
 21 28  1  0  0  0
 22 23  1  0  0  0
 22 37  1  0  0  0
 23 24  1  0  0  0
 23 25  2  0  0  0
 25 26  1  0  0  0
 25 27  1  0  0  0
 27 28  2  0  0  0
 27 35  1  0  0  0
 28 29  1  0  0  0
 29 30  1  0  0  0
 29 31  2  0  0  0
 31 32  1  0  0  0
 31 33  1  0  0  0
 33 34  1  0  0  0
 33 35  2  0  0  0
 35 36  1  0  0  0
 37 38  1  0  0  0
 38 39  1  0  0  0
 38 40  1  0  0  0
 38 41  1  0  0  0
 42 43  1  0  0  0
 42 44  1  0  0  0
M  END
>  <ACTIVITY>
6.43

>  <SET>
1

>  <Min_dist>
999.9

>  <Avg_dist>
999.9

$$$$
25-26
  Cerius2 12110214133D 1   1.00000                          
Structure written by Cerius2 SD Exporter
 45 48  0  0  0  0  0  0  0  0999 V2000
   10.2020    2.7410   12.8490 N   0  0  0  0  0  0
   10.8170    2.0640   11.8820 C   0  0  0  0  0  0
   12.0980    2.2040   11.5570 N   0  0  0  0  0  0
   12.8190    3.0840   12.2370 C   0  0  0  0  0  0
   12.2850    3.8440   13.2730 C   0  0  0  0  0  0
   10.9380    3.6090   13.5530 C   0  0  0  0  0  0
   10.2530    4.3060   14.5320 N   0  0  0  0  0  0
   10.7260    4.4980   15.4090 H   0  0  0  0  0  0
    9.2730    4.0540   14.6320 H   0  0  0  0  0  0
   13.1220    4.7710   13.9460 C   0  0  0  0  0  0
   12.6980    5.3710   14.7480 H   0  0  0  0  0  0
   14.4570    4.9200   13.5900 C   0  0  0  0  0  0
   14.8760    4.1040   12.5460 C   0  0  0  0  0  0
   15.9070    4.1440   12.2000 H   0  0  0  0  0  0
   14.0960    3.2110   11.8780 N   0  0  0  0  0  0
   15.3360    5.7680   14.2230 N   0  0  0  0  0  0
   15.2640    5.8880   15.2330 H   0  0  0  0  0  0
   16.4430    6.4410   13.5670 C   0  0  0  0  0  0
   17.2120    5.7220   13.2550 H   0  0  0  0  0  0
   16.9170    7.1500   14.2550 H   0  0  0  0  0  0
   15.9450    7.1640   12.3350 C   0  0  0  0  0  0
   14.5910    7.5180   12.2230 C   0  0  0  0  0  0
   13.8960    7.2800   13.0270 H   0  0  0  0  0  0
   14.1220    8.1810   11.0880 C   0  0  0  0  0  0
   13.0710    8.4520   11.0130 H   0  0  0  0  0  0
   15.0020    8.4830   10.0500 C   0  0  0  0  0  0
   16.3590    8.1740   10.1640 C   0  0  0  0  0  0
   17.0570    8.4440    9.3740 H   0  0  0  0  0  0
   16.8280    7.5130   11.3020 C   0  0  0  0  0  0
   17.8870    7.2720   11.3780 H   0  0  0  0  0  0
   14.4930    9.1550    8.9630 O   0  0  0  0  0  0
   14.7170    8.6110    7.7180 C   0  0  0  0  0  0
   14.6840    7.2380    7.4540 C   0  0  0  0  0  0
   14.4940    6.5190    8.2480 H   0  0  0  0  0  0
   14.8920    6.7740    6.1540 C   0  0  0  0  0  0
   14.8740    5.7050    5.9500 H   0  0  0  0  0  0
   15.1170    7.6780    5.1160 C   0  0  0  0  0  0
   15.2820    7.3130    4.1030 H   0  0  0  0  0  0
   15.1210    9.0490    5.3730 C   0  0  0  0  0  0
   15.2830    9.7540    4.5610 H   0  0  0  0  0  0
   14.9160    9.5160    6.6730 C   0  0  0  0  0  0
   14.9170   10.5870    6.8680 H   0  0  0  0  0  0
   10.0830    1.1630   11.1740 N   0  0  0  0  0  0
   10.5200    0.6280   10.4390 H   0  0  0  0  0  0
    9.1060    1.0310   11.3940 H   0  0  0  0  0  0
  1  2  1  0  0  0
  1  6  2  0  0  0
  2  3  2  0  0  0
  2 43  1  0  0  0
  3  4  1  0  0  0
  4  5  2  0  0  0
  4 15  1  0  0  0
  5  6  1  0  0  0
  5 10  1  0  0  0
  6  7  1  0  0  0
  7  8  1  0  0  0
  7  9  1  0  0  0
 10 11  1  0  0  0
 10 12  2  0  0  0
 12 13  1  0  0  0
 12 16  1  0  0  0
 13 14  1  0  0  0
 13 15  2  0  0  0
 16 17  1  0  0  0
 16 18  1  0  0  0
 18 19  1  0  0  0
 18 20  1  0  0  0
 18 21  1  0  0  0
 21 22  1  0  0  0
 21 29  2  0  0  0
 22 23  1  0  0  0
 22 24  2  0  0  0
 24 25  1  0  0  0
 24 26  1  0  0  0
 26 27  2  0  0  0
 26 31  1  0  0  0
 27 28  1  0  0  0
 27 29  1  0  0  0
 29 30  1  0  0  0
 31 32  1  0  0  0
 32 33  1  0  0  0
 32 41  2  0  0  0
 33 34  1  0  0  0
 33 35  2  0  0  0
 35 36  1  0  0  0
 35 37  1  0  0  0
 37 38  1  0  0  0
 37 39  2  0  0  0
 39 40  1  0  0  0
 39 41  1  0  0  0
 41 42  1  0  0  0
 43 44  1  0  0  0
 43 45  1  0  0  0
M  END
>  <ACTIVITY>
5.54

>  <SET>
2

>  <Min_dist>
0.04

>  <Avg_dist>
0.46

$$$$
26-10
  Cerius2 12110214133D 1   1.00000                          
Structure written by Cerius2 SD Exporter
 51 54  0  0  0  0  0  0  0  0999 V2000
   10.1220    2.6260   12.7980 N   0  0  0  0  0  0
   10.8000    1.9660   11.8720 C   0  0  0  0  0  0
   12.0820    2.1670   11.6050 N   0  0  0  0  0  0
   12.7330    3.0800   12.3050 C   0  0  0  0  0  0
   12.1500    3.8500   13.3190 C   0  0  0  0  0  0
   10.7810    3.5530   13.5100 C   0  0  0  0  0  0
    9.9840    4.1890   14.4500 N   0  0  0  0  0  0
   10.2460    4.0200   15.4180 H   0  0  0  0  0  0
    9.8440    5.1840   14.2900 H   0  0  0  0  0  0
   12.9930    4.8090   14.0070 C   0  0  0  0  0  0
   14.3460    4.9280   13.6320 C   0  0  0  0  0  0
   14.7840    4.1090   12.6040 C   0  0  0  0  0  0
   15.8140    4.1520   12.2520 H   0  0  0  0  0  0
   14.0100    3.2080   11.9600 N   0  0  0  0  0  0
   15.3370    5.8870   14.2570 C   0  0  0  0  0  0
   15.8350    5.3960   15.1020 H   0  0  0  0  0  0
   14.7870    6.7440   14.6620 H   0  0  0  0  0  0
   16.3230    6.2930   13.2730 N   0  0  0  0  0  0
   17.2700    5.9480   13.4160 H   0  0  0  0  0  0
   16.0920    7.0960   12.1640 C   0  0  0  0  0  0
   17.1830    7.2840   11.2870 C   0  0  0  0  0  0
   18.1360    6.8150   11.5350 H   0  0  0  0  0  0
   17.1030    8.0520   10.1110 C   0  0  0  0  0  0
   15.8750    8.6520    9.8190 C   0  0  0  0  0  0
   15.7520    9.2480    8.9150 H   0  0  0  0  0  0
   14.7740    8.4890   10.6650 C   0  0  0  0  0  0
   13.8510    8.9820   10.3730 H   0  0  0  0  0  0
   14.8670    7.7180   11.8330 C   0  0  0  0  0  0
   13.8120    7.5370   12.6920 O   0  0  0  0  0  0
   12.5550    8.1080   12.3390 C   0  0  0  0  0  0
   11.8480    7.8760   13.1410 H   0  0  0  0  0  0
   12.1680    7.6650   11.4150 H   0  0  0  0  0  0
   12.6240    9.1980   12.2620 H   0  0  0  0  0  0
   18.2660    8.2120    9.2170 C   0  0  0  0  0  0
   19.0350    7.1040    8.8200 C   0  0  0  0  0  0
   18.7770    6.1030    9.1650 H   0  0  0  0  0  0
   20.1330    7.2530    7.9670 C   0  0  0  0  0  0
   20.7110    6.3790    7.6710 H   0  0  0  0  0  0
   20.4820    8.5140    7.4940 C   0  0  0  0  0  0
   21.3360    8.6310    6.8290 H   0  0  0  0  0  0
   19.7370    9.6270    7.8740 C   0  0  0  0  0  0
   20.0080   10.6160    7.5080 H   0  0  0  0  0  0
   18.6390    9.4760    8.7270 C   0  0  0  0  0  0
   18.0790   10.3660    9.0150 H   0  0  0  0  0  0
   12.4380    5.6750   15.1120 C   0  0  0  0  0  0
   12.0690    5.0520   15.9320 H   0  0  0  0  0  0
   11.6400    6.3160   14.7260 H   0  0  0  0  0  0
   13.1760    6.3460   15.5550 H   0  0  0  0  0  0
   10.1380    1.0200   11.1510 N   0  0  0  0  0  0
   10.6260    0.4930   10.4420 H   0  0  0  0  0  0
    9.1620    0.8430   11.3400 H   0  0  0  0  0  0
  1  2  1  0  0  0
  1  6  2  0  0  0
  2  3  2  0  0  0
  2 49  1  0  0  0
  3  4  1  0  0  0
  4  5  2  0  0  0
  4 14  1  0  0  0
  5  6  1  0  0  0
  5 10  1  0  0  0
  6  7  1  0  0  0
  7  8  1  0  0  0
  7  9  1  0  0  0
 10 11  2  0  0  0
 10 45  1  0  0  0
 11 12  1  0  0  0
 11 15  1  0  0  0
 12 13  1  0  0  0
 12 14  2  0  0  0
 15 16  1  0  0  0
 15 17  1  0  0  0
 15 18  1  0  0  0
 18 19  1  0  0  0
 18 20  1  0  0  0
 20 21  1  0  0  0
 20 28  2  0  0  0
 21 22  1  0  0  0
 21 23  2  0  0  0
 23 24  1  0  0  0
 23 34  1  0  0  0
 24 25  1  0  0  0
 24 26  2  0  0  0
 26 27  1  0  0  0
 26 28  1  0  0  0
 28 29  1  0  0  0
 29 30  1  0  0  0
 30 31  1  0  0  0
 30 32  1  0  0  0
 30 33  1  0  0  0
 34 35  1  0  0  0
 34 43  2  0  0  0
 35 36  1  0  0  0
 35 37  2  0  0  0
 37 38  1  0  0  0
 37 39  1  0  0  0
 39 40  1  0  0  0
 39 41  2  0  0  0
 41 42  1  0  0  0
 41 43  1  0  0  0
 43 44  1  0  0  0
 45 46  1  0  0  0
 45 47  1  0  0  0
 45 48  1  0  0  0
 49 50  1  0  0  0
 49 51  1  0  0  0
M  END
>  <ACTIVITY>
6.36

>  <SET>
1

>  <Min_dist>
999.9

>  <Avg_dist>
999.9

$$$$
26-5
  Cerius2 12110214133D 1   1.00000                          
Structure written by Cerius2 SD Exporter
 43 46  0  0  0  0  0  0  0  0999 V2000
   10.6990    2.1190   11.8230 C   0  0  0  0  0  0
   11.9820    2.1880   11.3660 N   0  0  0  0  0  0
   12.9270    2.9330   12.0190 C   0  0  0  0  0  0
   12.5730    3.6930   13.1940 C   0  0  0  0  0  0
   11.2230    3.6060   13.6450 C   0  0  0  0  0  0
   10.3340    2.8280   12.9360 N   0  0  0  0  0  0
   10.8140    4.2770   14.7430 N   0  0  0  0  0  0
   11.3960    4.7880   15.2000 H   0  0  0  0  0  0
    9.9590    4.2140   15.0170 H   0  0  0  0  0  0
   13.5520    4.4390   13.8550 C   0  0  0  0  0  0
   14.8410    4.4680   13.3790 C   0  0  0  0  0  0
   15.1680    3.7130   12.1960 C   0  0  0  0  0  0
   16.0550    3.7230   11.8570 H   0  0  0  0  0  0
   14.2110    2.9800   11.5530 N   0  0  0  0  0  0
   15.9880    5.2640   14.1130 C   0  0  0  0  0  0
   15.6070    5.9640   14.6300 H   0  0  0  0  0  0
   16.4440    4.6690   14.6970 H   0  0  0  0  0  0
   17.0020    5.9920   13.0660 N   0  0  0  0  0  0
   16.4770    6.9470   12.2150 C   0  0  0  0  0  0
   17.2990    7.4470   11.0980 C   0  0  0  0  0  0
   16.6440    8.1990   10.0570 C   0  0  0  0  0  0
   17.1320    8.4720    9.2890 H   0  0  0  0  0  0
   15.2680    8.5500   10.1430 C   0  0  0  0  0  0
   14.4930    8.1380   11.2620 C   0  0  0  0  0  0
   13.5860    8.4110   11.3380 H   0  0  0  0  0  0
   15.0780    7.3220   12.2580 C   0  0  0  0  0  0
   14.5500    7.0030   12.9810 H   0  0  0  0  0  0
   14.7110    9.3460    9.1730 O   0  0  0  0  0  0
   15.6520    9.6800    8.1610 C   0  0  0  0  0  0
   16.0180    8.7710    7.6570 H   0  0  0  0  0  0
   15.1670   10.3230    7.4110 H   0  0  0  0  0  0
   16.5060   10.2270    8.5890 H   0  0  0  0  0  0
   18.4570    6.6330   11.3300 C   0  0  0  0  0  0
   19.3940    6.5800   10.7590 H   0  0  0  0  0  0
   18.2260    5.8030   12.4520 C   0  0  0  0  0  0
   18.9200    5.0560   12.8630 H   0  0  0  0  0  0
   13.2400    5.1500   15.1720 C   0  0  0  0  0  0
   12.8310    4.4490   15.9190 H   0  0  0  0  0  0
   14.1130    5.5540   15.6920 H   0  0  0  0  0  0
   12.5620    6.0060   15.0260 H   0  0  0  0  0  0
    9.8030    1.3470   11.1730 N   0  0  0  0  0  0
   10.0550    0.8820   10.4450 H   0  0  0  0  0  0
    8.9550    1.2960   11.4690 H   0  0  0  0  0  0
  1  2  2  0  0  0
  1  6  1  0  0  0
  1 41  1  0  0  0
  2  3  1  0  0  0
  3  4  2  0  0  0
  3 14  1  0  0  0
  4  5  1  0  0  0
  4 10  1  0  0  0
  5  6  2  0  0  0
  5  7  1  0  0  0
  7  8  1  0  0  0
  7  9  1  0  0  0
 10 11  2  0  0  0
 10 37  1  0  0  0
 11 12  1  0  0  0
 11 15  1  0  0  0
 12 13  1  0  0  0
 12 14  2  0  0  0
 15 16  1  0  0  0
 15 17  1  0  0  0
 15 18  1  0  0  0
 18 19  1  0  0  0
 18 35  1  0  0  0
 19 20  2  0  0  0
 19 26  1  0  0  0
 20 21  1  0  0  0
 20 33  1  0  0  0
 21 22  1  0  0  0
 21 23  2  0  0  0
 23 24  1  0  0  0
 23 28  1  0  0  0
 24 25  1  0  0  0
 24 26  2  0  0  0
 26 27  1  0  0  0
 28 29  1  0  0  0
 29 30  1  0  0  0
 29 31  1  0  0  0
 29 32  1  0  0  0
 33 34  1  0  0  0
 33 35  2  0  0  0
 35 36  1  0  0  0
 37 38  1  0  0  0
 37 39  1  0  0  0
 37 40  1  0  0  0
 41 42  1  0  0  0
 41 43  1  0  0  0
M  END
>  <ACTIVITY>
6.33

>  <SET>
2

>  <Min_dist>
0.34

>  <Avg_dist>
0.59

$$$$
26-7
  Cerius2 12110214133D 1   1.00000                          
Structure written by Cerius2 SD Exporter
 53 56  0  0  0  0  0  0  0  0999 V2000
   10.1230    2.6030   12.8130 N   0  0  0  0  0  0
   10.7990    1.9510   11.8800 C   0  0  0  0  0  0
   12.0750    2.1680   11.6010 N   0  0  0  0  0  0
   12.7220    3.0900   12.2940 C   0  0  0  0  0  0
   12.1370    3.8620   13.3050 C   0  0  0  0  0  0
   10.7770    3.5400   13.5170 C   0  0  0  0  0  0
    9.9860    4.1600   14.4730 N   0  0  0  0  0  0
   10.2850    4.0180   15.4340 H   0  0  0  0  0  0
    9.8020    5.1450   14.3010 H   0  0  0  0  0  0
   12.9730    4.8400   13.9760 C   0  0  0  0  0  0
   14.3310    4.9460   13.6140 C   0  0  0  0  0  0
   14.7690    4.1260   12.5880 C   0  0  0  0  0  0
   15.8000    4.1680   12.2380 H   0  0  0  0  0  0
   13.9960    3.2250   11.9420 N   0  0  0  0  0  0
   15.3290    5.8920   14.2470 C   0  0  0  0  0  0
   15.8140    5.3770   15.0850 H   0  0  0  0  0  0
   14.7990    6.7540   14.6680 H   0  0  0  0  0  0
   16.3210    6.2980   13.2690 N   0  0  0  0  0  0
   17.2510    5.8980   13.3800 H   0  0  0  0  0  0
   16.1000    7.1230   12.1760 C   0  0  0  0  0  0
   14.8080    7.6580   12.0400 C   0  0  0  0  0  0
   14.0540    7.4260   12.7920 H   0  0  0  0  0  0
   14.4380    8.4670   10.9540 C   0  0  0  0  0  0
   15.3780    8.8120    9.9790 C   0  0  0  0  0  0
   16.6760    8.2820   10.1010 C   0  0  0  0  0  0
   17.4330    8.5650    9.3770 H   0  0  0  0  0  0
   17.0400    7.4410   11.1720 C   0  0  0  0  0  0
   18.3090    6.9360   11.3160 O   0  0  0  0  0  0
   19.2970    7.3270   10.3640 C   0  0  0  0  0  0
   20.1820    6.7060   10.5320 H   0  0  0  0  0  0
   19.5900    8.3700   10.5130 H   0  0  0  0  0  0
   18.9550    7.1480    9.3390 H   0  0  0  0  0  0
   15.0770    9.6710    8.8730 N   0  0  0  0  0  0
   13.8760   10.2950    8.5850 C   0  0  0  0  0  0
   13.0220   10.2040    9.2420 H   0  0  0  0  0  0
   13.9960   11.0300    7.4260 C   0  0  0  0  0  0
   13.2130   11.6220    6.9680 H   0  0  0  0  0  0
   15.3180   10.8740    6.9730 C   0  0  0  0  0  0
   15.7620   11.3090    6.0850 H   0  0  0  0  0  0
   15.9600   10.0520    7.8730 C   0  0  0  0  0  0
   16.9760    9.6810    7.8460 H   0  0  0  0  0  0
   13.1340    8.8850   10.9190 O   0  0  0  0  0  0
   12.3300    7.9390   10.2030 C   0  0  0  0  0  0
   11.3270    8.3660   10.1000 H   0  0  0  0  0  0
   12.2430    6.9990   10.7570 H   0  0  0  0  0  0
   12.7260    7.7560    9.1980 H   0  0  0  0  0  0
   12.4090    5.7350   15.0520 C   0  0  0  0  0  0
   12.1090    5.1410   15.9200 H   0  0  0  0  0  0
   11.5620    6.3060   14.6630 H   0  0  0  0  0  0
   13.1190    6.4810   15.4150 H   0  0  0  0  0  0
   10.1440    0.9990   11.1630 N   0  0  0  0  0  0
   10.6310    0.4900   10.4400 H   0  0  0  0  0  0
    9.1700    0.8120   11.3520 H   0  0  0  0  0  0
  1  2  1  0  0  0
  1  6  2  0  0  0
  2  3  2  0  0  0
  2 51  1  0  0  0
  3  4  1  0  0  0
  4  5  2  0  0  0
  4 14  1  0  0  0
  5  6  1  0  0  0
  5 10  1  0  0  0
  6  7  1  0  0  0
  7  8  1  0  0  0
  7  9  1  0  0  0
 10 11  2  0  0  0
 10 47  1  0  0  0
 11 12  1  0  0  0
 11 15  1  0  0  0
 12 13  1  0  0  0
 12 14  2  0  0  0
 15 16  1  0  0  0
 15 17  1  0  0  0
 15 18  1  0  0  0
 18 19  1  0  0  0
 18 20  1  0  0  0
 20 21  1  0  0  0
 20 27  2  0  0  0
 21 22  1  0  0  0
 21 23  2  0  0  0
 23 24  1  0  0  0
 23 42  1  0  0  0
 24 25  2  0  0  0
 24 33  1  0  0  0
 25 26  1  0  0  0
 25 27  1  0  0  0
 27 28  1  0  0  0
 28 29  1  0  0  0
 29 30  1  0  0  0
 29 31  1  0  0  0
 29 32  1  0  0  0
 33 34  1  0  0  0
 33 40  1  0  0  0
 34 35  1  0  0  0
 34 36  2  0  0  0
 36 37  1  0  0  0
 36 38  1  0  0  0
 38 39  1  0  0  0
 38 40  2  0  0  0
 40 41  1  0  0  0
 42 43  1  0  0  0
 43 44  1  0  0  0
 43 45  1  0  0  0
 43 46  1  0  0  0
 47 48  1  0  0  0
 47 49  1  0  0  0
 47 50  1  0  0  0
 51 52  1  0  0  0
 51 53  1  0  0  0
M  END
>  <ACTIVITY>
6.64

>  <SET>
2

>  <Min_dist>
0.11

>  <Avg_dist>
0.49

$$$$
26-8
  Cerius2 12110214133D 1   1.00000                          
Structure written by Cerius2 SD Exporter
 53 56  0  0  0  0  0  0  0  0999 V2000
   10.1380    2.6450   12.8050 N   0  0  0  0  0  0
   10.8070    1.9850   11.8710 C   0  0  0  0  0  0
   12.0880    2.1770   11.6010 N   0  0  0  0  0  0
   12.7500    3.0810   12.3030 C   0  0  0  0  0  0
   12.1760    3.8550   13.3190 C   0  0  0  0  0  0
   10.8080    3.5640   13.5180 C   0  0  0  0  0  0
   10.0220    4.1970   14.4700 N   0  0  0  0  0  0
    9.8710    5.1900   14.3100 H   0  0  0  0  0  0
   10.3000    4.0310   15.4340 H   0  0  0  0  0  0
   13.0280    4.8080   14.0040 C   0  0  0  0  0  0
   14.3850    4.9040   13.6370 C   0  0  0  0  0  0
   14.8130    4.0820   12.6080 C   0  0  0  0  0  0
   15.8440    4.1130   12.2590 H   0  0  0  0  0  0
   14.0280    3.1950   11.9570 N   0  0  0  0  0  0
   15.3870    5.8440   14.2650 C   0  0  0  0  0  0
   15.9270    5.3290   15.0700 H   0  0  0  0  0  0
   14.8540    6.6790   14.7350 H   0  0  0  0  0  0
   16.3300    6.3070   13.2600 N   0  0  0  0  0  0
   17.3100    6.2640   13.5300 H   0  0  0  0  0  0
   16.0070    7.0720   12.1480 C   0  0  0  0  0  0
   14.7060    7.6080   12.0050 C   0  0  0  0  0  0
   13.9610    7.3720   12.7590 H   0  0  0  0  0  0
   14.3560    8.4630   10.9540 C   0  0  0  0  0  0
   15.3350    8.8050   10.0220 C   0  0  0  0  0  0
   16.6100    8.2460   10.0850 C   0  0  0  0  0  0
   17.3060    8.4750    9.2820 H   0  0  0  0  0  0
   16.9470    7.3560   11.1230 C   0  0  0  0  0  0
   18.2410    6.7450   11.0610 N   0  0  0  0  0  0
   19.3750    7.2930   10.4810 C   0  0  0  0  0  0
   19.3630    8.2940   10.0700 H   0  0  0  0  0  0
   20.4220    6.4040   10.5890 C   0  0  0  0  0  0
   21.4330    6.5720   10.2360 H   0  0  0  0  0  0
   19.9250    5.2510   11.2270 C   0  0  0  0  0  0
   20.4690    4.3420   11.4540 H   0  0  0  0  0  0
   18.5910    5.4760   11.4890 C   0  0  0  0  0  0
   17.8520    4.8090   11.9110 H   0  0  0  0  0  0
   15.0360    9.6240    8.9610 O   0  0  0  0  0  0
   16.1250    9.6250    8.0300 C   0  0  0  0  0  0
   15.8620   10.3020    7.2120 H   0  0  0  0  0  0
   16.2830    8.6260    7.6080 H   0  0  0  0  0  0
   17.0450    9.9930    8.4950 H   0  0  0  0  0  0
   13.1190    9.0200   10.7620 O   0  0  0  0  0  0
   12.9460    9.8470    9.6140 C   0  0  0  0  0  0
   11.9340   10.2610    9.6530 H   0  0  0  0  0  0
   13.0300    9.2610    8.6930 H   0  0  0  0  0  0
   13.6500   10.6850    9.6200 H   0  0  0  0  0  0
   12.4800    5.6900   15.0990 C   0  0  0  0  0  0
   13.2160    6.3820   15.5140 H   0  0  0  0  0  0
   12.1290    5.0810   15.9370 H   0  0  0  0  0  0
   11.6700    6.3150   14.7110 H   0  0  0  0  0  0
   10.1340    1.0500   11.1470 N   0  0  0  0  0  0
   10.6140    0.5290   10.4280 H   0  0  0  0  0  0
    9.1580    0.8780   11.3360 H   0  0  0  0  0  0
  1  2  1  0  0  0
  1  6  2  0  0  0
  2  3  2  0  0  0
  2 51  1  0  0  0
  3  4  1  0  0  0
  4  5  2  0  0  0
  4 14  1  0  0  0
  5  6  1  0  0  0
  5 10  1  0  0  0
  6  7  1  0  0  0
  7  8  1  0  0  0
  7  9  1  0  0  0
 10 11  2  0  0  0
 10 47  1  0  0  0
 11 12  1  0  0  0
 11 15  1  0  0  0
 12 13  1  0  0  0
 12 14  2  0  0  0
 15 16  1  0  0  0
 15 17  1  0  0  0
 15 18  1  0  0  0
 18 19  1  0  0  0
 18 20  1  0  0  0
 20 21  1  0  0  0
 20 27  2  0  0  0
 21 22  1  0  0  0
 21 23  2  0  0  0
 23 24  1  0  0  0
 23 42  1  0  0  0
 24 25  2  0  0  0
 24 37  1  0  0  0
 25 26  1  0  0  0
 25 27  1  0  0  0
 27 28  1  0  0  0
 28 29  1  0  0  0
 28 35  1  0  0  0
 29 30  1  0  0  0
 29 31  2  0  0  0
 31 32  1  0  0  0
 31 33  1  0  0  0
 33 34  1  0  0  0
 33 35  2  0  0  0
 35 36  1  0  0  0
 37 38  1  0  0  0
 38 39  1  0  0  0
 38 40  1  0  0  0
 38 41  1  0  0  0
 42 43  1  0  0  0
 43 44  1  0  0  0
 43 45  1  0  0  0
 43 46  1  0  0  0
 47 48  1  0  0  0
 47 49  1  0  0  0
 47 50  1  0  0  0
 51 52  1  0  0  0
 51 53  1  0  0  0
M  END
>  <ACTIVITY>
5.46

>  <SET>
1

>  <Min_dist>
999.9

>  <Avg_dist>
999.9

$$$$
26-9
  Cerius2 12110214133D 1   1.00000                          
Structure written by Cerius2 SD Exporter
 57 60  0  0  0  0  0  0  0  0999 V2000
   10.1150    2.6190   12.8210 N   0  0  0  0  0  0
   10.7780    1.9450   11.8940 C   0  0  0  0  0  0
   12.0550    2.1410   11.6050 N   0  0  0  0  0  0
   12.7180    3.0630   12.2830 C   0  0  0  0  0  0
   12.1540    3.8480   13.2930 C   0  0  0  0  0  0
   10.7870    3.5570   13.5080 C   0  0  0  0  0  0
   10.0040    4.2110   14.4480 N   0  0  0  0  0  0
   10.2640    4.0420   15.4170 H   0  0  0  0  0  0
    9.8770    5.2070   14.2830 H   0  0  0  0  0  0
   13.0120    4.8140   13.9540 C   0  0  0  0  0  0
   14.3550    4.9550   13.5390 C   0  0  0  0  0  0
   14.7750    4.0970   12.5360 C   0  0  0  0  0  0
   15.8020    4.1080   12.1750 H   0  0  0  0  0  0
   13.9900    3.1810   11.9210 N   0  0  0  0  0  0
   15.3120    5.9410   14.1810 C   0  0  0  0  0  0
   15.6870    5.4890   15.1080 H   0  0  0  0  0  0
   14.7670    6.8580   14.4320 H   0  0  0  0  0  0
   16.4240    6.3150   13.3050 N   0  0  0  0  0  0
   17.0330    5.5330   13.0680 H   0  0  0  0  0  0
   16.0980    7.1660   12.2350 C   0  0  0  0  0  0
   17.0650    7.4750   11.2460 C   0  0  0  0  0  0
   16.6820    8.1880   10.0790 C   0  0  0  0  0  0
   15.3680    8.7170    9.9900 C   0  0  0  0  0  0
   14.4170    8.4820   11.0150 C   0  0  0  0  0  0
   14.7690    7.6400   12.1030 C   0  0  0  0  0  0
   13.7420    7.3380   13.1780 C   0  0  0  0  0  0
   13.6460    8.1960   13.8510 H   0  0  0  0  0  0
   13.9930    6.4650   13.7830 H   0  0  0  0  0  0
   12.7690    7.1120   12.7290 H   0  0  0  0  0  0
   13.0470    9.1300   10.9970 C   0  0  0  0  0  0
   12.3210    8.4670   10.5170 H   0  0  0  0  0  0
   13.0590   10.0960   10.4850 H   0  0  0  0  0  0
   12.7000    9.3630   12.0080 H   0  0  0  0  0  0
   15.0000    9.4980    8.8530 N   0  0  0  0  0  0
   15.8640   10.1690    8.0090 C   0  0  0  0  0  0
   16.9310   10.1610    8.1940 H   0  0  0  0  0  0
   15.1320   10.8020    7.0280 C   0  0  0  0  0  0
   15.5380   11.4090    6.2270 H   0  0  0  0  0  0
   13.7710   10.5140    7.2700 C   0  0  0  0  0  0
   12.9200   10.8470    6.6860 H   0  0  0  0  0  0
   13.7160    9.7180    8.3930 C   0  0  0  0  0  0
   12.8670    9.2630    8.8880 H   0  0  0  0  0  0
   17.6720    8.3200    8.9380 C   0  0  0  0  0  0
   17.1740    8.3850    7.9670 H   0  0  0  0  0  0
   18.3050    7.4300    8.8560 H   0  0  0  0  0  0
   18.3080    9.1970    9.0860 H   0  0  0  0  0  0
   18.4880    6.9720   11.3900 C   0  0  0  0  0  0
   18.5850    5.9850   10.9270 H   0  0  0  0  0  0
   18.8010    6.9060   12.4360 H   0  0  0  0  0  0
   19.2030    7.6600   10.9280 H   0  0  0  0  0  0
   12.4840    5.6630   15.0870 C   0  0  0  0  0  0
   12.0940    5.0270   15.8860 H   0  0  0  0  0  0
   11.7090    6.3430   14.7210 H   0  0  0  0  0  0
   13.2480    6.2840   15.5610 H   0  0  0  0  0  0
   10.1050    0.9920   11.1940 N   0  0  0  0  0  0
   10.5820    0.4620   10.4800 H   0  0  0  0  0  0
    9.1300    0.8200   11.3930 H   0  0  0  0  0  0
  1  2  1  0  0  0
  1  6  2  0  0  0
  2  3  2  0  0  0
  2 55  1  0  0  0
  3  4  1  0  0  0
  4  5  2  0  0  0
  4 14  1  0  0  0
  5  6  1  0  0  0
  5 10  1  0  0  0
  6  7  1  0  0  0
  7  8  1  0  0  0
  7  9  1  0  0  0
 10 11  2  0  0  0
 10 51  1  0  0  0
 11 12  1  0  0  0
 11 15  1  0  0  0
 12 13  1  0  0  0
 12 14  2  0  0  0
 15 16  1  0  0  0
 15 17  1  0  0  0
 15 18  1  0  0  0
 18 19  1  0  0  0
 18 20  1  0  0  0
 20 21  1  0  0  0
 20 25  2  0  0  0
 21 22  2  0  0  0
 21 47  1  0  0  0
 22 23  1  0  0  0
 22 43  1  0  0  0
 23 24  2  0  0  0
 23 34  1  0  0  0
 24 25  1  0  0  0
 24 30  1  0  0  0
 25 26  1  0  0  0
 26 27  1  0  0  0
 26 28  1  0  0  0
 26 29  1  0  0  0
 30 31  1  0  0  0
 30 32  1  0  0  0
 30 33  1  0  0  0
 34 35  1  0  0  0
 34 41  1  0  0  0
 35 36  1  0  0  0
 35 37  2  0  0  0
 37 38  1  0  0  0
 37 39  1  0  0  0
 39 40  1  0  0  0
 39 41  2  0  0  0
 41 42  1  0  0  0
 43 44  1  0  0  0
 43 45  1  0  0  0
 43 46  1  0  0  0
 47 48  1  0  0  0
 47 49  1  0  0  0
 47 50  1  0  0  0
 51 52  1  0  0  0
 51 53  1  0  0  0
 51 54  1  0  0  0
 55 56  1  0  0  0
 55 57  1  0  0  0
M  END
>  <ACTIVITY>
6.77

>  <SET>
2

>  <Min_dist>
0.12

>  <Avg_dist>
0.51

$$$$
27-10
  Cerius2 12110214133D 1   1.00000                          
Structure written by Cerius2 SD Exporter
 37 39  0  0  0  0  0  0  0  0999 V2000
   10.1250    2.6400   12.8030 N   0  0  0  0  0  0
   10.7930    1.9780   11.8710 C   0  0  0  0  0  0
   12.0760    2.1660   11.6020 N   0  0  0  0  0  0
   12.7390    3.0690   12.3030 C   0  0  0  0  0  0
   12.1660    3.8450   13.3190 C   0  0  0  0  0  0
   10.7970    3.5580   13.5170 C   0  0  0  0  0  0
   10.0110    4.1940   14.4670 N   0  0  0  0  0  0
    9.8690    5.1880   14.3070 H   0  0  0  0  0  0
   10.2850    4.0250   15.4310 H   0  0  0  0  0  0
   13.0200    4.7970   14.0030 C   0  0  0  0  0  0
   14.3760    4.8950   13.6310 C   0  0  0  0  0  0
   14.8020    4.0700   12.6030 C   0  0  0  0  0  0
   15.8330    4.1020   12.2510 H   0  0  0  0  0  0
   14.0170    3.1820   11.9570 N   0  0  0  0  0  0
   15.3780    5.8410   14.2520 C   0  0  0  0  0  0
   15.9210    5.3290   15.0560 H   0  0  0  0  0  0
   14.8490    6.6780   14.7230 H   0  0  0  0  0  0
   16.3170    6.3030   13.2450 N   0  0  0  0  0  0
   17.2850    5.9990   13.3400 H   0  0  0  0  0  0
   15.9880    7.1220   12.1840 C   0  0  0  0  0  0
   14.6870    7.6420   12.1110 C   0  0  0  0  0  0
   13.9580    7.3970   12.8840 H   0  0  0  0  0  0
   14.2890    8.4760   11.0610 C   0  0  0  0  0  0
   13.2730    8.8640   11.0300 H   0  0  0  0  0  0
   15.1940    8.8090   10.0590 C   0  0  0  0  0  0
   14.8840    9.4580    9.2430 H   0  0  0  0  0  0
   16.4890    8.3040   10.1170 C   0  0  0  0  0  0
   16.8840    7.4690   11.1670 C   0  0  0  0  0  0
   17.9040    7.0940   11.1760 H   0  0  0  0  0  0
   17.6180    8.7120    8.8800 Cl  0  0  0  0  0  0
   12.4740    5.6780   15.1010 C   0  0  0  0  0  0
   13.2120    6.3670   15.5170 H   0  0  0  0  0  0
   12.1220    5.0670   15.9370 H   0  0  0  0  0  0
   11.6650    6.3050   14.7160 H   0  0  0  0  0  0
   10.1200    1.0450   11.1450 N   0  0  0  0  0  0
   10.6000    0.5240   10.4260 H   0  0  0  0  0  0
    9.1410    0.8790   11.3300 H   0  0  0  0  0  0
  1  2  1  0  0  0
  1  6  2  0  0  0
  2  3  2  0  0  0
  2 35  1  0  0  0
  3  4  1  0  0  0
  4  5  2  0  0  0
  4 14  1  0  0  0
  5  6  1  0  0  0
  5 10  1  0  0  0
  6  7  1  0  0  0
  7  8  1  0  0  0
  7  9  1  0  0  0
 10 11  2  0  0  0
 10 31  1  0  0  0
 11 12  1  0  0  0
 11 15  1  0  0  0
 12 13  1  0  0  0
 12 14  2  0  0  0
 15 16  1  0  0  0
 15 17  1  0  0  0
 15 18  1  0  0  0
 18 19  1  0  0  0
 18 20  1  0  0  0
 20 21  1  0  0  0
 20 28  2  0  0  0
 21 22  1  0  0  0
 21 23  2  0  0  0
 23 24  1  0  0  0
 23 25  1  0  0  0
 25 26  1  0  0  0
 25 27  2  0  0  0
 27 28  1  0  0  0
 27 30  1  0  0  0
 28 29  1  0  0  0
 31 32  1  0  0  0
 31 33  1  0  0  0
 31 34  1  0  0  0
 35 36  1  0  0  0
 35 37  1  0  0  0
M  END
>  <ACTIVITY>
7.43

>  <SET>
1

>  <Min_dist>
999.9

>  <Avg_dist>
999.9

$$$$
27-11
  Cerius2 12110214133D 1   1.00000                          
Structure written by Cerius2 SD Exporter
 37 39  0  0  0  0  0  0  0  0999 V2000
   10.1120    2.6670   12.7720 N   0  0  0  0  0  0
   10.7880    1.9860   11.8600 C   0  0  0  0  0  0
   12.0780    2.1530   11.6140 N   0  0  0  0  0  0
   12.7420    3.0470   12.3270 C   0  0  0  0  0  0
   12.1680    3.8240   13.3400 C   0  0  0  0  0  0
   10.7840    3.5790   13.4930 C   0  0  0  0  0  0
    9.9850    4.2490   14.4070 N   0  0  0  0  0  0
   10.1440    3.9990   15.3800 H   0  0  0  0  0  0
    9.9590    5.2590   14.2960 H   0  0  0  0  0  0
   13.0340    4.7470   14.0550 C   0  0  0  0  0  0
   14.3690    4.9060   13.6330 C   0  0  0  0  0  0
   14.8020    4.0520   12.6300 C   0  0  0  0  0  0
   15.8360    4.0750   12.2860 H   0  0  0  0  0  0
   14.0240    3.1450   11.9970 N   0  0  0  0  0  0
   15.3640    5.8750   14.2400 C   0  0  0  0  0  0
   15.8730    5.3510   15.0580 H   0  0  0  0  0  0
   14.8720    6.7610   14.6460 H   0  0  0  0  0  0
   16.3180    6.3410   13.2410 N   0  0  0  0  0  0
   17.2060    5.8420   13.1940 H   0  0  0  0  0  0
   15.9820    7.1280   12.1560 C   0  0  0  0  0  0
   16.9700    7.4200   11.2040 C   0  0  0  0  0  0
   17.9710    7.0030   11.3110 H   0  0  0  0  0  0
   16.7060    8.2430   10.1020 C   0  0  0  0  0  0
   17.4950    8.4430    9.3820 H   0  0  0  0  0  0
   15.4420    8.7990    9.9460 C   0  0  0  0  0  0
   14.4480    8.5400   10.8830 C   0  0  0  0  0  0
   13.4570    8.9730   10.7740 H   0  0  0  0  0  0
   14.7220    7.7150   11.9830 C   0  0  0  0  0  0
   13.9180    7.5410   12.6940 H   0  0  0  0  0  0
   15.1090    9.8130    8.5970 Cl  0  0  0  0  0  0
   12.5110    5.5360   15.2300 C   0  0  0  0  0  0
   11.9430    4.8930   15.9060 H   0  0  0  0  0  0
   11.8940    6.3700   14.8850 H   0  0  0  0  0  0
   13.3050    5.9360   15.8640 H   0  0  0  0  0  0
   10.1130    1.0590   11.1270 N   0  0  0  0  0  0
   10.5990    0.5240   10.4210 H   0  0  0  0  0  0
    9.1280    0.9130   11.2900 H   0  0  0  0  0  0
  1  2  1  0  0  0
  1  6  2  0  0  0
  2  3  2  0  0  0
  2 35  1  0  0  0
  3  4  1  0  0  0
  4  5  2  0  0  0
  4 14  1  0  0  0
  5  6  1  0  0  0
  5 10  1  0  0  0
  6  7  1  0  0  0
  7  8  1  0  0  0
  7  9  1  0  0  0
 10 11  2  0  0  0
 10 31  1  0  0  0
 11 12  1  0  0  0
 11 15  1  0  0  0
 12 13  1  0  0  0
 12 14  2  0  0  0
 15 16  1  0  0  0
 15 17  1  0  0  0
 15 18  1  0  0  0
 18 19  1  0  0  0
 18 20  1  0  0  0
 20 21  1  0  0  0
 20 28  2  0  0  0
 21 22  1  0  0  0
 21 23  2  0  0  0
 23 24  1  0  0  0
 23 25  1  0  0  0
 25 26  2  0  0  0
 25 30  1  0  0  0
 26 27  1  0  0  0
 26 28  1  0  0  0
 28 29  1  0  0  0
 31 32  1  0  0  0
 31 33  1  0  0  0
 31 34  1  0  0  0
 35 36  1  0  0  0
 35 37  1  0  0  0
M  END
>  <ACTIVITY>
7.29

>  <SET>
1

>  <Min_dist>
999.9

>  <Avg_dist>
999.9

$$$$
27-13
  Cerius2 12110214133D 1   1.00000                          
Structure written by Cerius2 SD Exporter
 44 46  0  0  0  0  0  0  0  0999 V2000
   10.1160    2.6680   12.7700 N   0  0  0  0  0  0
   10.7920    1.9960   11.8520 C   0  0  0  0  0  0
   12.0820    2.1630   11.6110 N   0  0  0  0  0  0
   12.7450    3.0500   12.3310 C   0  0  0  0  0  0
   12.1700    3.8240   13.3460 C   0  0  0  0  0  0
   10.7870    3.5720   13.5000 C   0  0  0  0  0  0
    9.9890    4.2260   14.4270 N   0  0  0  0  0  0
    9.9370    5.2360   14.3140 H   0  0  0  0  0  0
   10.1740    3.9850   15.3970 H   0  0  0  0  0  0
   13.0330    4.7480   14.0620 C   0  0  0  0  0  0
   14.3790    4.8810   13.6680 C   0  0  0  0  0  0
   14.8080    4.0440   12.6490 C   0  0  0  0  0  0
   15.8390    4.0740   12.2960 H   0  0  0  0  0  0
   14.0290    3.1480   12.0040 N   0  0  0  0  0  0
   15.3780    5.8720   14.2370 C   0  0  0  0  0  0
   15.9150    5.4020   15.0720 H   0  0  0  0  0  0
   14.8580    6.7090   14.7120 H   0  0  0  0  0  0
   16.3670    6.2890   13.2250 N   0  0  0  0  0  0
   16.0250    7.1110   12.1590 C   0  0  0  0  0  0
   14.7390    7.6600   12.0350 C   0  0  0  0  0  0
   13.9780    7.4740   12.7910 H   0  0  0  0  0  0
   14.3920    8.4850   10.9610 C   0  0  0  0  0  0
   13.3890    8.9020   10.8980 H   0  0  0  0  0  0
   15.3310    8.7750    9.9770 C   0  0  0  0  0  0
   15.0560    9.4190    9.1440 H   0  0  0  0  0  0
   16.6140    8.2390   10.0580 C   0  0  0  0  0  0
   16.9470    7.4090   11.1370 C   0  0  0  0  0  0
   17.9320    6.9550   11.1810 H   0  0  0  0  0  0
   17.4440    8.5880    9.0270 O   0  0  0  0  0  0
   18.7710    8.0650    9.0620 C   0  0  0  0  0  0
   19.3130    8.4760    8.2050 H   0  0  0  0  0  0
   18.7650    6.9750    8.9630 H   0  0  0  0  0  0
   19.2960    8.3790    9.9710 H   0  0  0  0  0  0
   17.6540    5.5920   13.2140 C   0  0  0  0  0  0
   18.4580    6.2470   12.8600 H   0  0  0  0  0  0
   17.6120    4.7010   12.5780 H   0  0  0  0  0  0
   17.9330    5.2730   14.2250 H   0  0  0  0  0  0
   12.4910    5.5640   15.2100 C   0  0  0  0  0  0
   13.2710    6.0470   15.7970 H   0  0  0  0  0  0
   11.9760    4.9200   15.9270 H   0  0  0  0  0  0
   11.8190    6.3430   14.8410 H   0  0  0  0  0  0
   10.1180    1.0770   11.1080 N   0  0  0  0  0  0
   10.6070    0.5470   10.4020 H   0  0  0  0  0  0
    9.1340    0.9230   11.2740 H   0  0  0  0  0  0
  1  2  1  0  0  0
  1  6  2  0  0  0
  2  3  2  0  0  0
  2 42  1  0  0  0
  3  4  1  0  0  0
  4  5  2  0  0  0
  4 14  1  0  0  0
  5  6  1  0  0  0
  5 10  1  0  0  0
  6  7  1  0  0  0
  7  8  1  0  0  0
  7  9  1  0  0  0
 10 11  2  0  0  0
 10 38  1  0  0  0
 11 12  1  0  0  0
 11 15  1  0  0  0
 12 13  1  0  0  0
 12 14  2  0  0  0
 15 16  1  0  0  0
 15 17  1  0  0  0
 15 18  1  0  0  0
 18 19  1  0  0  0
 18 34  1  0  0  0
 19 20  1  0  0  0
 19 27  2  0  0  0
 20 21  1  0  0  0
 20 22  2  0  0  0
 22 23  1  0  0  0
 22 24  1  0  0  0
 24 25  1  0  0  0
 24 26  2  0  0  0
 26 27  1  0  0  0
 26 29  1  0  0  0
 27 28  1  0  0  0
 29 30  1  0  0  0
 30 31  1  0  0  0
 30 32  1  0  0  0
 30 33  1  0  0  0
 34 35  1  0  0  0
 34 36  1  0  0  0
 34 37  1  0  0  0
 38 39  1  0  0  0
 38 40  1  0  0  0
 38 41  1  0  0  0
 42 43  1  0  0  0
 42 44  1  0  0  0
M  END
>  <ACTIVITY>
7.74

>  <SET>
1

>  <Min_dist>
999.9

>  <Avg_dist>
999.9

$$$$
27-14
  Cerius2 12110214133D 1   1.00000                          
Structure written by Cerius2 SD Exporter
 44 46  0  0  0  0  0  0  0  0999 V2000
   10.1330    2.6130   12.8390 N   0  0  0  0  0  0
   10.7840    1.9680   11.8830 C   0  0  0  0  0  0
   12.0600    2.1680   11.5890 N   0  0  0  0  0  0
   12.7280    3.0770   12.2780 C   0  0  0  0  0  0
   12.1650    3.8560   13.2960 C   0  0  0  0  0  0
   10.8120    3.5330   13.5430 C   0  0  0  0  0  0
   10.0470    4.1400   14.5280 N   0  0  0  0  0  0
   10.4110    4.0550   15.4740 H   0  0  0  0  0  0
    9.7820    5.1010   14.3320 H   0  0  0  0  0  0
   13.0180    4.8380   13.9410 C   0  0  0  0  0  0
   14.3870    4.8830   13.6120 C   0  0  0  0  0  0
   14.7980    4.0650   12.5710 C   0  0  0  0  0  0
   15.8290    4.0810   12.2200 H   0  0  0  0  0  0
   13.9990    3.1940   11.9140 N   0  0  0  0  0  0
   15.4040    5.8070   14.2630 C   0  0  0  0  0  0
   15.9820    5.2940   15.0370 H   0  0  0  0  0  0
   14.8220    6.5940   14.7520 H   0  0  0  0  0  0
   16.3820    6.3320   13.2920 N   0  0  0  0  0  0
   16.0230    7.1280   12.2130 C   0  0  0  0  0  0
   16.9430    7.4440   11.2000 C   0  0  0  0  0  0
   17.9600    7.0550   11.2300 H   0  0  0  0  0  0
   16.5980    8.2460   10.1030 C   0  0  0  0  0  0
   17.3490    8.4570    9.3420 H   0  0  0  0  0  0
   15.3150    8.7720    9.9830 C   0  0  0  0  0  0
   14.3830    8.4800   10.9720 C   0  0  0  0  0  0
   13.3680    8.8670   10.9380 H   0  0  0  0  0  0
   14.7370    7.6700   12.0650 C   0  0  0  0  0  0
   13.9690    7.5100   12.8190 H   0  0  0  0  0  0
   15.1050    9.5440    8.8760 O   0  0  0  0  0  0
   16.1890    9.6520    7.9550 C   0  0  0  0  0  0
   15.8620   10.2910    7.1290 H   0  0  0  0  0  0
   16.4500    8.6750    7.5370 H   0  0  0  0  0  0
   17.0570   10.1300    8.4210 H   0  0  0  0  0  0
   17.8030    6.2040   13.6380 C   0  0  0  0  0  0
   18.2970    7.1820   13.6390 H   0  0  0  0  0  0
   18.3170    5.5390   12.9360 H   0  0  0  0  0  0
   17.9340    5.7840   14.6420 H   0  0  0  0  0  0
   12.4540    5.7980   14.9600 C   0  0  0  0  0  0
   12.3170    5.2960   15.9220 H   0  0  0  0  0  0
   11.5110    6.2250   14.6130 H   0  0  0  0  0  0
   13.0920    6.6710   15.1150 H   0  0  0  0  0  0
   10.1020    1.0380   11.1640 N   0  0  0  0  0  0
   10.5730    0.5240   10.4340 H   0  0  0  0  0  0
    9.1320    0.8560   11.3750 H   0  0  0  0  0  0
  1  2  1  0  0  0
  1  6  2  0  0  0
  2  3  2  0  0  0
  2 42  1  0  0  0
  3  4  1  0  0  0
  4  5  2  0  0  0
  4 14  1  0  0  0
  5  6  1  0  0  0
  5 10  1  0  0  0
  6  7  1  0  0  0
  7  8  1  0  0  0
  7  9  1  0  0  0
 10 11  2  0  0  0
 10 38  1  0  0  0
 11 12  1  0  0  0
 11 15  1  0  0  0
 12 13  1  0  0  0
 12 14  2  0  0  0
 15 16  1  0  0  0
 15 17  1  0  0  0
 15 18  1  0  0  0
 18 19  1  0  0  0
 18 34  1  0  0  0
 19 20  1  0  0  0
 19 27  2  0  0  0
 20 21  1  0  0  0
 20 22  2  0  0  0
 22 23  1  0  0  0
 22 24  1  0  0  0
 24 25  2  0  0  0
 24 29  1  0  0  0
 25 26  1  0  0  0
 25 27  1  0  0  0
 27 28  1  0  0  0
 29 30  1  0  0  0
 30 31  1  0  0  0
 30 32  1  0  0  0
 30 33  1  0  0  0
 34 35  1  0  0  0
 34 36  1  0  0  0
 34 37  1  0  0  0
 38 39  1  0  0  0
 38 40  1  0  0  0
 38 41  1  0  0  0
 42 43  1  0  0  0
 42 44  1  0  0  0
M  END
>  <ACTIVITY>
7.89

>  <SET>
1

>  <Min_dist>
999.9

>  <Avg_dist>
999.9

$$$$
27-15
  Cerius2 12110214133D 1   1.00000                          
Structure written by Cerius2 SD Exporter
 40 42  0  0  0  0  0  0  0  0999 V2000
   10.1200    2.6460   12.7900 N   0  0  0  0  0  0
   10.7940    1.9770   11.8680 C   0  0  0  0  0  0
   12.0790    2.1610   11.6080 N   0  0  0  0  0  0
   12.7390    3.0630   12.3130 C   0  0  0  0  0  0
   12.1640    3.8380   13.3280 C   0  0  0  0  0  0
   10.7880    3.5650   13.5050 C   0  0  0  0  0  0
    9.9940    4.2150   14.4390 N   0  0  0  0  0  0
   10.2150    4.0050   15.4090 H   0  0  0  0  0  0
    9.9070    5.2190   14.3030 H   0  0  0  0  0  0
   13.0190    4.7800   14.0240 C   0  0  0  0  0  0
   14.3650    4.9110   13.6280 C   0  0  0  0  0  0
   14.7960    4.0790   12.6080 C   0  0  0  0  0  0
   15.8250    4.1150   12.2500 H   0  0  0  0  0  0
   14.0180    3.1760   11.9720 N   0  0  0  0  0  0
   15.3610    5.8870   14.2250 C   0  0  0  0  0  0
   15.8490    5.4350   15.0970 H   0  0  0  0  0  0
   14.8030    6.7510   14.6090 H   0  0  0  0  0  0
   16.3740    6.2770   13.2360 N   0  0  0  0  0  0
   15.9920    7.1150   12.1800 C   0  0  0  0  0  0
   14.6720    7.6030   12.1940 C   0  0  0  0  0  0
   14.0060    7.3270   13.0110 H   0  0  0  0  0  0
   14.1920    8.4500   11.1920 C   0  0  0  0  0  0
   13.1680    8.8180   11.2360 H   0  0  0  0  0  0
   15.0220    8.8230   10.1410 C   0  0  0  0  0  0
   14.6520    9.4820    9.3580 H   0  0  0  0  0  0
   16.3290    8.3400   10.0890 C   0  0  0  0  0  0
   16.9660    8.6250    9.2540 H   0  0  0  0  0  0
   16.8120    7.4900   11.0930 C   0  0  0  0  0  0
   18.4250    6.8910   10.8950 Cl  0  0  0  0  0  0
   17.7470    6.4820   13.6960 C   0  0  0  0  0  0
   18.4520    6.4870   12.8560 H   0  0  0  0  0  0
   18.0600    5.6780   14.3680 H   0  0  0  0  0  0
   17.8400    7.4310   14.2360 H   0  0  0  0  0  0
   12.4800    5.6230   15.1530 C   0  0  0  0  0  0
   12.0190    4.9900   15.9160 H   0  0  0  0  0  0
   11.7600    6.3530   14.7720 H   0  0  0  0  0  0
   13.2520    6.1820   15.6840 H   0  0  0  0  0  0
   10.1240    1.0430   11.1400 N   0  0  0  0  0  0
   10.6090    0.5150   10.4300 H   0  0  0  0  0  0
    9.1430    0.8810   11.3180 H   0  0  0  0  0  0
  1  2  1  0  0  0
  1  6  2  0  0  0
  2  3  2  0  0  0
  2 38  1  0  0  0
  3  4  1  0  0  0
  4  5  2  0  0  0
  4 14  1  0  0  0
  5  6  1  0  0  0
  5 10  1  0  0  0
  6  7  1  0  0  0
  7  8  1  0  0  0
  7  9  1  0  0  0
 10 11  2  0  0  0
 10 34  1  0  0  0
 11 12  1  0  0  0
 11 15  1  0  0  0
 12 13  1  0  0  0
 12 14  2  0  0  0
 15 16  1  0  0  0
 15 17  1  0  0  0
 15 18  1  0  0  0
 18 19  1  0  0  0
 18 30  1  0  0  0
 19 20  1  0  0  0
 19 28  2  0  0  0
 20 21  1  0  0  0
 20 22  2  0  0  0
 22 23  1  0  0  0
 22 24  1  0  0  0
 24 25  1  0  0  0
 24 26  2  0  0  0
 26 27  1  0  0  0
 26 28  1  0  0  0
 28 29  1  0  0  0
 30 31  1  0  0  0
 30 32  1  0  0  0
 30 33  1  0  0  0
 34 35  1  0  0  0
 34 36  1  0  0  0
 34 37  1  0  0  0
 38 39  1  0  0  0
 38 40  1  0  0  0
M  END
>  <ACTIVITY>
7

>  <SET>
2

>  <Min_dist>
0.05

>  <Avg_dist>
0.48

$$$$
27-16
  Cerius2 12110214133D 1   1.00000                          
Structure written by Cerius2 SD Exporter
 40 42  0  0  0  0  0  0  0  0999 V2000
   10.1170    2.6490   12.7890 N   0  0  0  0  0  0
   10.7970    1.9600   11.8850 C   0  0  0  0  0  0
   12.0770    2.1570   11.6080 N   0  0  0  0  0  0
   12.7350    3.0700   12.3040 C   0  0  0  0  0  0
   12.1600    3.8380   13.3220 C   0  0  0  0  0  0
   10.7780    3.5960   13.4700 C   0  0  0  0  0  0
    9.9700    4.3010   14.3430 N   0  0  0  0  0  0
    9.0010    3.9980   14.3500 H   0  0  0  0  0  0
   10.0750    5.3090   14.3680 H   0  0  0  0  0  0
   13.0180    4.7440   14.0600 C   0  0  0  0  0  0
   14.3550    4.9020   13.6500 C   0  0  0  0  0  0
   14.7800    4.1070   12.5960 C   0  0  0  0  0  0
   15.8040    4.1750   12.2280 H   0  0  0  0  0  0
   14.0090    3.2040   11.9510 N   0  0  0  0  0  0
   15.3540    5.8760   14.2420 C   0  0  0  0  0  0
   15.8660    5.4840   15.1240 H   0  0  0  0  0  0
   14.7510    6.7130   14.6130 H   0  0  0  0  0  0
   16.3570    6.3030   13.2500 N   0  0  0  0  0  0
   16.0390    7.1200   12.1730 C   0  0  0  0  0  0
   16.9890    7.4310   11.1800 C   0  0  0  0  0  0
   17.9970    7.0190   11.2240 H   0  0  0  0  0  0
   16.6840    8.2540   10.0870 C   0  0  0  0  0  0
   17.4500    8.4610    9.3440 H   0  0  0  0  0  0
   15.4100    8.7900    9.9620 C   0  0  0  0  0  0
   14.4470    8.5110   10.9210 C   0  0  0  0  0  0
   13.4460    8.9300   10.8420 H   0  0  0  0  0  0
   14.7650    7.6890   12.0110 C   0  0  0  0  0  0
   13.9800    7.5350   12.7480 H   0  0  0  0  0  0
   15.0280    9.8050    8.6270 Cl  0  0  0  0  0  0
   17.7550    5.9310   13.4840 C   0  0  0  0  0  0
   18.4190    6.7940   13.3610 H   0  0  0  0  0  0
   18.0630    5.1370   12.7950 H   0  0  0  0  0  0
   17.9120    5.5640   14.5030 H   0  0  0  0  0  0
   12.4880    5.5140   15.2450 C   0  0  0  0  0  0
   11.8430    4.8840   15.8650 H   0  0  0  0  0  0
   11.9450    6.4030   14.9090 H   0  0  0  0  0  0
   13.2770    5.8350   15.9290 H   0  0  0  0  0  0
   10.1340    0.9950   11.1920 N   0  0  0  0  0  0
   10.6180    0.4520   10.4920 H   0  0  0  0  0  0
    9.1580    0.8240   11.3870 H   0  0  0  0  0  0
  1  2  1  0  0  0
  1  6  2  0  0  0
  2  3  2  0  0  0
  2 38  1  0  0  0
  3  4  1  0  0  0
  4  5  2  0  0  0
  4 14  1  0  0  0
  5  6  1  0  0  0
  5 10  1  0  0  0
  6  7  1  0  0  0
  7  8  1  0  0  0
  7  9  1  0  0  0
 10 11  2  0  0  0
 10 34  1  0  0  0
 11 12  1  0  0  0
 11 15  1  0  0  0
 12 13  1  0  0  0
 12 14  2  0  0  0
 15 16  1  0  0  0
 15 17  1  0  0  0
 15 18  1  0  0  0
 18 19  1  0  0  0
 18 30  1  0  0  0
 19 20  1  0  0  0
 19 27  2  0  0  0
 20 21  1  0  0  0
 20 22  2  0  0  0
 22 23  1  0  0  0
 22 24  1  0  0  0
 24 25  2  0  0  0
 24 29  1  0  0  0
 25 26  1  0  0  0
 25 27  1  0  0  0
 27 28  1  0  0  0
 30 31  1  0  0  0
 30 32  1  0  0  0
 30 33  1  0  0  0
 34 35  1  0  0  0
 34 36  1  0  0  0
 34 37  1  0  0  0
 38 39  1  0  0  0
 38 40  1  0  0  0
M  END
>  <ACTIVITY>
7.59

>  <SET>
1

>  <Min_dist>
999.9

>  <Avg_dist>
999.9

$$$$
27-6
  Cerius2 12110214133D 1   1.00000                          
Structure written by Cerius2 SD Exporter
 41 43  0  0  0  0  0  0  0  0999 V2000
   10.1230    2.6230   12.8000 N   0  0  0  0  0  0
   10.8000    1.9670   11.8700 C   0  0  0  0  0  0
   12.0810    2.1680   11.6040 N   0  0  0  0  0  0
   12.7320    3.0800   12.3060 C   0  0  0  0  0  0
   12.1490    3.8510   13.3180 C   0  0  0  0  0  0
   10.7820    3.5480   13.5150 C   0  0  0  0  0  0
    9.9880    4.1740   14.4650 N   0  0  0  0  0  0
   10.2650    4.0080   15.4300 H   0  0  0  0  0  0
    9.8330    5.1660   14.3060 H   0  0  0  0  0  0
   12.9900    4.8150   14.0020 C   0  0  0  0  0  0
   14.3460    4.9260   13.6340 C   0  0  0  0  0  0
   14.7850    4.1030   12.6100 C   0  0  0  0  0  0
   15.8160    4.1430   12.2610 H   0  0  0  0  0  0
   14.0100    3.2050   11.9630 N   0  0  0  0  0  0
   15.3380    5.8830   14.2590 C   0  0  0  0  0  0
   15.8380    5.3880   15.1010 H   0  0  0  0  0  0
   14.7920    6.7400   14.6700 H   0  0  0  0  0  0
   16.3220    6.2900   13.2730 N   0  0  0  0  0  0
   17.2700    5.9470   13.4140 H   0  0  0  0  0  0
   16.0900    7.0980   12.1690 C   0  0  0  0  0  0
   14.7870    7.6180   12.0350 C   0  0  0  0  0  0
   14.0250    7.3740   12.7750 H   0  0  0  0  0  0
   14.4270    8.4500   10.9730 C   0  0  0  0  0  0
   13.4110    8.8330   10.9020 H   0  0  0  0  0  0
   15.3690    8.7840   10.0130 C   0  0  0  0  0  0
   15.0970    9.4330    9.1820 H   0  0  0  0  0  0
   16.6690    8.2870   10.1150 C   0  0  0  0  0  0
   17.3710    8.5760    9.3380 H   0  0  0  0  0  0
   17.0410    7.4490   11.1800 C   0  0  0  0  0  0
   18.3080    6.9350   11.3140 O   0  0  0  0  0  0
   19.2960    7.3260   10.3630 C   0  0  0  0  0  0
   20.2320    6.8280   10.6340 H   0  0  0  0  0  0
   19.4710    8.4060   10.4000 H   0  0  0  0  0  0
   19.0240    6.9970    9.3550 H   0  0  0  0  0  0
   12.4300    5.6930   15.0940 C   0  0  0  0  0  0
   12.0880    5.0820   15.9340 H   0  0  0  0  0  0
   11.6130    6.3070   14.7060 H   0  0  0  0  0  0
   13.1580    6.3960   15.5060 H   0  0  0  0  0  0
   10.1370    1.0280   11.1420 N   0  0  0  0  0  0
   10.6240    0.5100   10.4250 H   0  0  0  0  0  0
    9.1590    0.8540   11.3230 H   0  0  0  0  0  0
  1  2  1  0  0  0
  1  6  2  0  0  0
  2  3  2  0  0  0
  2 39  1  0  0  0
  3  4  1  0  0  0
  4  5  2  0  0  0
  4 14  1  0  0  0
  5  6  1  0  0  0
  5 10  1  0  0  0
  6  7  1  0  0  0
  7  8  1  0  0  0
  7  9  1  0  0  0
 10 11  2  0  0  0
 10 35  1  0  0  0
 11 12  1  0  0  0
 11 15  1  0  0  0
 12 13  1  0  0  0
 12 14  2  0  0  0
 15 16  1  0  0  0
 15 17  1  0  0  0
 15 18  1  0  0  0
 18 19  1  0  0  0
 18 20  1  0  0  0
 20 21  1  0  0  0
 20 29  2  0  0  0
 21 22  1  0  0  0
 21 23  2  0  0  0
 23 24  1  0  0  0
 23 25  1  0  0  0
 25 26  1  0  0  0
 25 27  2  0  0  0
 27 28  1  0  0  0
 27 29  1  0  0  0
 29 30  1  0  0  0
 30 31  1  0  0  0
 31 32  1  0  0  0
 31 33  1  0  0  0
 31 34  1  0  0  0
 35 36  1  0  0  0
 35 37  1  0  0  0
 35 38  1  0  0  0
 39 40  1  0  0  0
 39 41  1  0  0  0
M  END
>  <ACTIVITY>
6.77

>  <SET>
1

>  <Min_dist>
999.9

>  <Avg_dist>
999.9

$$$$
27-7
  Cerius2 12110214133D 1   1.00000                          
Structure written by Cerius2 SD Exporter
 41 43  0  0  0  0  0  0  0  0999 V2000
   10.1170    2.6910   12.7690 N   0  0  0  0  0  0
   10.7840    2.0030   11.8560 C   0  0  0  0  0  0
   12.0770    2.1530   11.6130 N   0  0  0  0  0  0
   12.7520    3.0340   12.3310 C   0  0  0  0  0  0
   12.1880    3.8160   13.3460 C   0  0  0  0  0  0
   10.8000    3.5900   13.4950 C   0  0  0  0  0  0
   10.0080    4.2680   14.4100 N   0  0  0  0  0  0
    9.9980    5.2790   14.3050 H   0  0  0  0  0  0
   10.1600    4.0110   15.3820 H   0  0  0  0  0  0
   13.0650    4.7220   14.0670 C   0  0  0  0  0  0
   14.4030    4.8650   13.6470 C   0  0  0  0  0  0
   14.8250    4.0100   12.6400 C   0  0  0  0  0  0
   15.8600    4.0210   12.2980 H   0  0  0  0  0  0
   14.0370    3.1160   12.0040 N   0  0  0  0  0  0
   15.4100    5.8200   14.2550 C   0  0  0  0  0  0
   15.9480    5.2730   15.0390 H   0  0  0  0  0  0
   14.9250    6.6880   14.7070 H   0  0  0  0  0  0
   16.3290    6.3270   13.2430 N   0  0  0  0  0  0
   17.2310    5.8560   13.1750 H   0  0  0  0  0  0
   15.9530    7.1210   12.1740 C   0  0  0  0  0  0
   16.9180    7.4450   11.2100 C   0  0  0  0  0  0
   17.9300    7.0490   11.2950 H   0  0  0  0  0  0
   16.6150    8.2710   10.1270 C   0  0  0  0  0  0
   17.3790    8.5040    9.3880 H   0  0  0  0  0  0
   15.3340    8.8000    9.9980 C   0  0  0  0  0  0
   15.1020    9.4450    9.1530 H   0  0  0  0  0  0
   14.3570    8.5110   10.9500 C   0  0  0  0  0  0
   14.6730    7.6800   12.0330 C   0  0  0  0  0  0
   13.9170    7.4550   12.7770 H   0  0  0  0  0  0
   13.1420    9.0970   10.7140 O   0  0  0  0  0  0
   13.0180    9.8690    9.5210 C   0  0  0  0  0  0
   11.9980   10.2650    9.4860 H   0  0  0  0  0  0
   13.1650    9.2460    8.6330 H   0  0  0  0  0  0
   13.7060   10.7210    9.5310 H   0  0  0  0  0  0
   12.5530    5.5130   15.2460 C   0  0  0  0  0  0
   13.3520    5.8920   15.8860 H   0  0  0  0  0  0
   11.9690    4.8770   15.9150 H   0  0  0  0  0  0
   11.9530    6.3620   14.9050 H   0  0  0  0  0  0
   10.0980    1.0900   11.1170 N   0  0  0  0  0  0
   10.5780    0.5500   10.4120 H   0  0  0  0  0  0
    9.1110    0.9560   11.2800 H   0  0  0  0  0  0
  1  2  1  0  0  0
  1  6  2  0  0  0
  2  3  2  0  0  0
  2 39  1  0  0  0
  3  4  1  0  0  0
  4  5  2  0  0  0
  4 14  1  0  0  0
  5  6  1  0  0  0
  5 10  1  0  0  0
  6  7  1  0  0  0
  7  8  1  0  0  0
  7  9  1  0  0  0
 10 11  2  0  0  0
 10 35  1  0  0  0
 11 12  1  0  0  0
 11 15  1  0  0  0
 12 13  1  0  0  0
 12 14  2  0  0  0
 15 16  1  0  0  0
 15 17  1  0  0  0
 15 18  1  0  0  0
 18 19  1  0  0  0
 18 20  1  0  0  0
 20 21  1  0  0  0
 20 28  2  0  0  0
 21 22  1  0  0  0
 21 23  2  0  0  0
 23 24  1  0  0  0
 23 25  1  0  0  0
 25 26  1  0  0  0
 25 27  2  0  0  0
 27 28  1  0  0  0
 27 30  1  0  0  0
 28 29  1  0  0  0
 30 31  1  0  0  0
 31 32  1  0  0  0
 31 33  1  0  0  0
 31 34  1  0  0  0
 35 36  1  0  0  0
 35 37  1  0  0  0
 35 38  1  0  0  0
 39 40  1  0  0  0
 39 41  1  0  0  0
M  END
>  <ACTIVITY>
7.1

>  <SET>
1

>  <Min_dist>
999.9

>  <Avg_dist>
999.9

$$$$
27-9
  Cerius2 12110214133D 1   1.00000                          
Structure written by Cerius2 SD Exporter
 37 39  0  0  0  0  0  0  0  0999 V2000
   10.1320    2.6230   12.8160 N   0  0  0  0  0  0
   10.8010    1.9650   11.8810 C   0  0  0  0  0  0
   12.0790    2.1670   11.6020 N   0  0  0  0  0  0
   12.7360    3.0820   12.2940 C   0  0  0  0  0  0
   12.1610    3.8580   13.3080 C   0  0  0  0  0  0
   10.7970    3.5510   13.5210 C   0  0  0  0  0  0
   10.0110    4.1800   14.4750 N   0  0  0  0  0  0
   10.3080    4.0360   15.4370 H   0  0  0  0  0  0
    9.8350    5.1660   14.3020 H   0  0  0  0  0  0
   13.0060    4.8280   13.9780 C   0  0  0  0  0  0
   14.3620    4.9270   13.6080 C   0  0  0  0  0  0
   14.7910    4.1040   12.5800 C   0  0  0  0  0  0
   15.8190    4.1450   12.2230 H   0  0  0  0  0  0
   14.0100    3.2060   11.9400 N   0  0  0  0  0  0
   15.3640    5.8770   14.2220 C   0  0  0  0  0  0
   15.8100    5.4020   15.1020 H   0  0  0  0  0  0
   14.8570    6.7710   14.6040 H   0  0  0  0  0  0
   16.3730    6.2290   13.2300 N   0  0  0  0  0  0
   16.9650    5.4500   12.9410 H   0  0  0  0  0  0
   16.0160    7.1120   12.2070 C   0  0  0  0  0  0
   14.6940    7.5880   12.1840 C   0  0  0  0  0  0
   13.9740    7.2350   12.9210 H   0  0  0  0  0  0
   14.2730    8.5270   11.2370 C   0  0  0  0  0  0
   13.2430    8.8800   11.2430 H   0  0  0  0  0  0
   15.1710    9.0150   10.2930 C   0  0  0  0  0  0
   14.8460    9.7450    9.5550 H   0  0  0  0  0  0
   16.4880    8.5590   10.2930 C   0  0  0  0  0  0
   17.1810    8.9350    9.5430 H   0  0  0  0  0  0
   16.9100    7.6180   11.2410 C   0  0  0  0  0  0
   18.5410    7.0460   11.1110 Cl  0  0  0  0  0  0
   12.4510    5.7200   15.0620 C   0  0  0  0  0  0
   12.1500    5.1220   15.9280 H   0  0  0  0  0  0
   11.6060    6.3000   14.6810 H   0  0  0  0  0  0
   13.1660    6.4590   15.4280 H   0  0  0  0  0  0
   10.1320    1.0230   11.1620 N   0  0  0  0  0  0
   10.6120    0.5040   10.4420 H   0  0  0  0  0  0
    9.1560    0.8500   11.3530 H   0  0  0  0  0  0
  1  2  1  0  0  0
  1  6  2  0  0  0
  2  3  2  0  0  0
  2 35  1  0  0  0
  3  4  1  0  0  0
  4  5  2  0  0  0
  4 14  1  0  0  0
  5  6  1  0  0  0
  5 10  1  0  0  0
  6  7  1  0  0  0
  7  8  1  0  0  0
  7  9  1  0  0  0
 10 11  2  0  0  0
 10 31  1  0  0  0
 11 12  1  0  0  0
 11 15  1  0  0  0
 12 13  1  0  0  0
 12 14  2  0  0  0
 15 16  1  0  0  0
 15 17  1  0  0  0
 15 18  1  0  0  0
 18 19  1  0  0  0
 18 20  1  0  0  0
 20 21  1  0  0  0
 20 29  2  0  0  0
 21 22  1  0  0  0
 21 23  2  0  0  0
 23 24  1  0  0  0
 23 25  1  0  0  0
 25 26  1  0  0  0
 25 27  2  0  0  0
 27 28  1  0  0  0
 27 29  1  0  0  0
 29 30  1  0  0  0
 31 32  1  0  0  0
 31 33  1  0  0  0
 31 34  1  0  0  0
 35 36  1  0  0  0
 35 37  1  0  0  0
M  END
>  <ACTIVITY>
7.06

>  <SET>
1

>  <Min_dist>
999.9

>  <Avg_dist>
999.9

$$$$
28-10
  Cerius2 12110214133D 1   1.00000                          
Structure written by Cerius2 SD Exporter
 43 45  0  0  0  0  0  0  0  0999 V2000
   10.1490    2.5990   12.8890 N   0  0  0  0  0  0
   10.7740    1.9550   11.9060 C   0  0  0  0  0  0
   12.0380    2.1640   11.5490 N   0  0  0  0  0  0
   12.7330    3.0680   12.2230 C   0  0  0  0  0  0
   12.1840    3.8010   13.2710 C   0  0  0  0  0  0
   10.8440    3.5290   13.5530 C   0  0  0  0  0  0
   10.1620    4.1540   14.5820 N   0  0  0  0  0  0
   10.3330    5.1410   14.7470 H   0  0  0  0  0  0
    9.1920    3.8720   14.6900 H   0  0  0  0  0  0
   13.0010    4.7350   13.9520 C   0  0  0  0  0  0
   12.5980    5.3090   14.7840 H   0  0  0  0  0  0
   14.3230    4.9220   13.5620 C   0  0  0  0  0  0
   14.7710    4.1470   12.5060 C   0  0  0  0  0  0
   15.7940    4.2310   12.1440 H   0  0  0  0  0  0
   14.0040    3.2420   11.8480 N   0  0  0  0  0  0
   15.2260    5.9000   14.2630 C   0  0  0  0  0  0
   15.5460    5.4800   15.2250 H   0  0  0  0  0  0
   14.6500    6.8010   14.5120 H   0  0  0  0  0  0
   16.4500    6.2620   13.4160 C   0  0  0  0  0  0
   17.0760    6.7370   13.9500 H   0  0  0  0  0  0
   16.8560    5.4640   13.1000 H   0  0  0  0  0  0
   16.0800    7.1290   12.2350 C   0  0  0  0  0  0
   14.7830    7.6350   12.1100 C   0  0  0  0  0  0
   14.0240    7.3950   12.8550 H   0  0  0  0  0  0
   14.4410    8.4550   11.0320 C   0  0  0  0  0  0
   13.4190    8.8210   10.9840 H   0  0  0  0  0  0
   15.3930    8.7790   10.0600 C   0  0  0  0  0  0
   16.7010    8.2680   10.1730 C   0  0  0  0  0  0
   17.0370    7.4550   11.2620 C   0  0  0  0  0  0
   18.0430    7.0580   11.3800 H   0  0  0  0  0  0
   17.5710    8.6240    9.1710 O   0  0  0  0  0  0
   18.9040    8.1240    9.2540 C   0  0  0  0  0  0
   19.4390    8.4540    8.3580 H   0  0  0  0  0  0
   18.9170    7.0290    9.2650 H   0  0  0  0  0  0
   19.4220    8.5390   10.1250 H   0  0  0  0  0  0
   15.1490    9.5760    8.9690 O   0  0  0  0  0  0
   16.2350    9.8050    8.0740 C   0  0  0  0  0  0
   15.8640   10.4250    7.2530 H   0  0  0  0  0  0
   16.5970    8.8650    7.6430 H   0  0  0  0  0  0
   17.0430   10.3540    8.5690 H   0  0  0  0  0  0
   10.0680    1.0170   11.2180 N   0  0  0  0  0  0
   10.5080    0.5030   10.4690 H   0  0  0  0  0  0
    9.1070    0.8330   11.4680 H   0  0  0  0  0  0
  1  2  1  0  0  0
  1  6  2  0  0  0
  2  3  2  0  0  0
  2 41  1  0  0  0
  3  4  1  0  0  0
  4  5  2  0  0  0
  4 15  1  0  0  0
  5  6  1  0  0  0
  5 10  1  0  0  0
  6  7  1  0  0  0
  7  8  1  0  0  0
  7  9  1  0  0  0
 10 11  1  0  0  0
 10 12  2  0  0  0
 12 13  1  0  0  0
 12 16  1  0  0  0
 13 14  1  0  0  0
 13 15  2  0  0  0
 16 17  1  0  0  0
 16 18  1  0  0  0
 16 19  1  0  0  0
 19 20  1  0  0  0
 19 21  1  0  0  0
 19 22  1  0  0  0
 22 23  1  0  0  0
 22 29  2  0  0  0
 23 24  1  0  0  0
 23 25  2  0  0  0
 25 26  1  0  0  0
 25 27  1  0  0  0
 27 28  2  0  0  0
 27 36  1  0  0  0
 28 29  1  0  0  0
 28 31  1  0  0  0
 29 30  1  0  0  0
 31 32  1  0  0  0
 32 33  1  0  0  0
 32 34  1  0  0  0
 32 35  1  0  0  0
 36 37  1  0  0  0
 37 38  1  0  0  0
 37 39  1  0  0  0
 37 40  1  0  0  0
 41 42  1  0  0  0
 41 43  1  0  0  0
M  END
>  <ACTIVITY>
6.21

>  <SET>
1

>  <Min_dist>
999.9

>  <Avg_dist>
999.9

$$$$
28-11
  Cerius2 12110214133D 1   1.00000                          
Structure written by Cerius2 SD Exporter
 39 41  0  0  0  0  0  0  0  0999 V2000
   10.1540    2.5990   12.8940 N   0  0  0  0  0  0
   10.7800    1.9530   11.9130 C   0  0  0  0  0  0
   12.0420    2.1640   11.5510 N   0  0  0  0  0  0
   12.7360    3.0730   12.2180 C   0  0  0  0  0  0
   12.1870    3.8090   13.2650 C   0  0  0  0  0  0
   10.8480    3.5360   13.5520 C   0  0  0  0  0  0
   10.1690    4.1650   14.5790 N   0  0  0  0  0  0
   10.3370    5.1530   14.7370 H   0  0  0  0  0  0
    9.2000    3.8800   14.6940 H   0  0  0  0  0  0
   13.0020    4.7470   13.9410 C   0  0  0  0  0  0
   12.6010    5.3210   14.7730 H   0  0  0  0  0  0
   14.3240    4.9340   13.5470 C   0  0  0  0  0  0
   14.7720    4.1580   12.4930 C   0  0  0  0  0  0
   15.7950    4.2420   12.1300 H   0  0  0  0  0  0
   14.0050    3.2490   11.8380 N   0  0  0  0  0  0
   15.2280    5.9090   14.2500 C   0  0  0  0  0  0
   15.5370    5.4900   15.2170 H   0  0  0  0  0  0
   14.6590    6.8160   14.4910 H   0  0  0  0  0  0
   16.4600    6.2550   13.4070 C   0  0  0  0  0  0
   16.9510    5.3410   13.0480 H   0  0  0  0  0  0
   17.2100    6.7690   14.0230 H   0  0  0  0  0  0
   16.1030    7.1210   12.2230 C   0  0  0  0  0  0
   17.0490    7.3870   11.2260 C   0  0  0  0  0  0
   18.0570    6.9820   11.3030 H   0  0  0  0  0  0
   16.7160    8.1740   10.1170 C   0  0  0  0  0  0
   17.4870    8.3520    9.3730 H   0  0  0  0  0  0
   15.4320    8.7020    9.9920 C   0  0  0  0  0  0
   14.4850    8.4360   10.9840 C   0  0  0  0  0  0
   13.4780    8.8400   10.8990 H   0  0  0  0  0  0
   14.8140    7.6490   12.0910 C   0  0  0  0  0  0
   14.0550    7.4520   12.8470 H   0  0  0  0  0  0
   14.9810    9.4820    8.9630 O   0  0  0  0  0  0
   15.9150    9.7800    7.9270 C   0  0  0  0  0  0
   15.4010   10.3960    7.1820 H   0  0  0  0  0  0
   16.2540    8.8660    7.4280 H   0  0  0  0  0  0
   16.7590   10.3600    8.3140 H   0  0  0  0  0  0
   10.0760    1.0080   11.2310 N   0  0  0  0  0  0
   10.5170    0.4950   10.4820 H   0  0  0  0  0  0
    9.1150    0.8240   11.4810 H   0  0  0  0  0  0
  1  2  1  0  0  0
  1  6  2  0  0  0
  2  3  2  0  0  0
  2 37  1  0  0  0
  3  4  1  0  0  0
  4  5  2  0  0  0
  4 15  1  0  0  0
  5  6  1  0  0  0
  5 10  1  0  0  0
  6  7  1  0  0  0
  7  8  1  0  0  0
  7  9  1  0  0  0
 10 11  1  0  0  0
 10 12  2  0  0  0
 12 13  1  0  0  0
 12 16  1  0  0  0
 13 14  1  0  0  0
 13 15  2  0  0  0
 16 17  1  0  0  0
 16 18  1  0  0  0
 16 19  1  0  0  0
 19 20  1  0  0  0
 19 21  1  0  0  0
 19 22  1  0  0  0
 22 23  1  0  0  0
 22 30  2  0  0  0
 23 24  1  0  0  0
 23 25  2  0  0  0
 25 26  1  0  0  0
 25 27  1  0  0  0
 27 28  2  0  0  0
 27 32  1  0  0  0
 28 29  1  0  0  0
 28 30  1  0  0  0
 30 31  1  0  0  0
 32 33  1  0  0  0
 33 34  1  0  0  0
 33 35  1  0  0  0
 33 36  1  0  0  0
 37 38  1  0  0  0
 37 39  1  0  0  0
M  END
>  <ACTIVITY>
6.59

>  <SET>
2

>  <Min_dist>
0.11

>  <Avg_dist>
0.52

$$$$
28-12
  Cerius2 12110214133D 1   1.00000                          
Structure written by Cerius2 SD Exporter
 51 53  0  0  0  0  0  0  0  0999 V2000
   11.8630    2.0750   11.3300 N   0  0  0  0  0  0
   10.6160    2.1000   11.8400 C   0  0  0  0  0  0
    9.6750    1.3900   11.1910 N   0  0  0  0  0  0
    9.9170    0.8770   10.3690 H   0  0  0  0  0  0
    8.7370    1.3840   11.5370 H   0  0  0  0  0  0
   10.2320    2.7670   12.9380 N   0  0  0  0  0  0
   11.1900    3.4780   13.5730 C   0  0  0  0  0  0
   10.8440    4.1640   14.7020 N   0  0  0  0  0  0
    9.8900    4.1500   15.0020 H   0  0  0  0  0  0
   11.5130    4.7300   15.1800 H   0  0  0  0  0  0
   12.5180    3.5370   13.1400 C   0  0  0  0  0  0
   13.6190    4.3370   13.8690 C   0  0  0  0  0  0
   13.9160    3.7870   14.7810 H   0  0  0  0  0  0
   13.2150    5.3080   14.2000 H   0  0  0  0  0  0
   14.8500    4.5410   12.9540 C   0  0  0  0  0  0
   14.5540    5.2330   12.1420 H   0  0  0  0  0  0
   15.1900    3.1980   12.2920 C   0  0  0  0  0  0
   15.4400    2.4490   13.0690 H   0  0  0  0  0  0
   16.0770    3.2930   11.6450 H   0  0  0  0  0  0
   14.0680    2.7830   11.4580 N   0  0  0  0  0  0
   14.2200    2.0500   10.7920 H   0  0  0  0  0  0
   12.7850    2.7860   11.9850 C   0  0  0  0  0  0
   16.0670    5.1610   13.6850 C   0  0  0  0  0  0
   16.1110    4.7640   14.7150 H   0  0  0  0  0  0
   16.9900    4.8130   13.1860 H   0  0  0  0  0  0
   16.1030    6.7070   13.7570 C   0  0  0  0  0  0
   15.3730    7.0590   14.5030 H   0  0  0  0  0  0
   17.0950    7.0190   14.1310 H   0  0  0  0  0  0
   15.8390    7.4020   12.4260 C   0  0  0  0  0  0
   16.8600    7.5330   11.4850 C   0  0  0  0  0  0
   17.8670    7.1450   11.7390 H   0  0  0  0  0  0
   16.6260    8.1190   10.2580 C   0  0  0  0  0  0
   15.3200    8.6120    9.8960 C   0  0  0  0  0  0
   14.3290    8.5330   10.8860 C   0  0  0  0  0  0
   13.0350    8.9860   10.7710 O   0  0  0  0  0  0
   12.6130    9.8650    9.7360 C   0  0  0  0  0  0
   11.6520   10.2870   10.0630 H   0  0  0  0  0  0
   13.3250   10.6890    9.5740 H   0  0  0  0  0  0
   12.4560    9.3310    8.7870 H   0  0  0  0  0  0
   14.5980    7.9030   12.1150 C   0  0  0  0  0  0
   13.7660    7.8290   12.8480 H   0  0  0  0  0  0
   15.0980    9.1720    8.6530 O   0  0  0  0  0  0
   16.2420    9.7360    8.0060 C   0  0  0  0  0  0
   17.0270    8.9780    7.8600 H   0  0  0  0  0  0
   15.9090   10.1090    7.0290 H   0  0  0  0  0  0
   16.6620   10.5690    8.5890 H   0  0  0  0  0  0
   17.6210    8.2420    9.3170 O   0  0  0  0  0  0
   18.9220    7.7010    9.5200 C   0  0  0  0  0  0
   19.4150    8.1420   10.3990 H   0  0  0  0  0  0
   18.8960    6.6060    9.6300 H   0  0  0  0  0  0
   19.5020    7.9550    8.6230 H   0  0  0  0  0  0
  1  2  1  0  0  0
  1 22  2  0  0  0
  2  3  1  0  0  0
  2  6  2  0  0  0
  3  4  1  0  0  0
  3  5  1  0  0  0
  6  7  1  0  0  0
  7  8  1  0  0  0
  7 11  2  0  0  0
  8  9  1  0  0  0
  8 10  1  0  0  0
 11 12  1  0  0  0
 11 22  1  0  0  0
 12 13  1  0  0  0
 12 14  1  0  0  0
 12 15  1  0  0  0
 15 16  1  0  0  0
 15 17  1  0  0  0
 15 23  1  0  0  0
 17 18  1  0  0  0
 17 19  1  0  0  0
 17 20  1  0  0  0
 20 21  1  0  0  0
 20 22  1  0  0  0
 23 24  1  0  0  0
 23 25  1  0  0  0
 23 26  1  0  0  0
 26 27  1  0  0  0
 26 28  1  0  0  0
 26 29  1  0  0  0
 29 30  1  0  0  0
 29 40  2  0  0  0
 30 31  1  0  0  0
 30 32  2  0  0  0
 32 33  1  0  0  0
 32 47  1  0  0  0
 33 34  2  0  0  0
 33 42  1  0  0  0
 34 35  1  0  0  0
 34 40  1  0  0  0
 35 36  1  0  0  0
 36 37  1  0  0  0
 36 38  1  0  0  0
 36 39  1  0  0  0
 40 41  1  0  0  0
 42 43  1  0  0  0
 43 44  1  0  0  0
 43 45  1  0  0  0
 43 46  1  0  0  0
 47 48  1  0  0  0
 48 49  1  0  0  0
 48 50  1  0  0  0
 48 51  1  0  0  0
M  END
>  <ACTIVITY>
5.21

>  <SET>
2

>  <Min_dist>
0.23

>  <Avg_dist>
0.57

$$$$
28-3
  Cerius2 12110214133D 1   1.00000                          
Structure written by Cerius2 SD Exporter
 49 51  0  0  0  0  0  0  0  0999 V2000
   10.1580    2.6430   12.8930 N   0  0  0  0  0  0
   10.7610    1.9950   11.9000 C   0  0  0  0  0  0
   12.0330    2.1630   11.5500 N   0  0  0  0  0  0
   12.7550    3.0400   12.2320 C   0  0  0  0  0  0
   12.2330    3.7710   13.2960 C   0  0  0  0  0  0
   10.8950    3.5100   13.5990 C   0  0  0  0  0  0
   10.2180    4.1800   14.6020 N   0  0  0  0  0  0
   10.7090    4.3880   15.4650 H   0  0  0  0  0  0
    9.2470    3.9070   14.7250 H   0  0  0  0  0  0
   13.0750    4.6920   13.9680 C   0  0  0  0  0  0
   12.6900    5.2750   14.8020 H   0  0  0  0  0  0
   14.3990    4.8600   13.5640 C   0  0  0  0  0  0
   14.8160    4.0770   12.5020 C   0  0  0  0  0  0
   15.8380    4.1340   12.1290 H   0  0  0  0  0  0
   14.0240    3.1910   11.8440 N   0  0  0  0  0  0
   15.3570    5.7940   14.2640 C   0  0  0  0  0  0
   15.8950    5.2540   15.0540 H   0  0  0  0  0  0
   14.7670    6.5480   14.7910 H   0  0  0  0  0  0
   16.3520    6.3550   13.3330 N   0  0  0  0  0  0
   16.0110    7.1310   12.2300 C   0  0  0  0  0  0
   16.9460    7.4250   11.2210 C   0  0  0  0  0  0
   17.9600    7.0350   11.2690 H   0  0  0  0  0  0
   16.6080    8.2010   10.1080 C   0  0  0  0  0  0
   15.3360    8.7580    9.9970 C   0  0  0  0  0  0
   14.3700    8.4800   10.9670 C   0  0  0  0  0  0
   14.7210    7.6810   12.0690 C   0  0  0  0  0  0
   13.9810    7.5150   12.8450 H   0  0  0  0  0  0
   13.1340    9.0400   10.7590 O   0  0  0  0  0  0
   12.9660    9.8480    9.5980 C   0  0  0  0  0  0
   11.9480   10.2480    9.6160 H   0  0  0  0  0  0
   13.0720    9.2500    8.6870 H   0  0  0  0  0  0
   13.6590   10.6950    9.6020 H   0  0  0  0  0  0
   15.0160    9.5260    8.9030 O   0  0  0  0  0  0
   16.1490    9.6300    8.0330 C   0  0  0  0  0  0
   15.8530   10.2380    7.1720 H   0  0  0  0  0  0
   16.4580    8.6470    7.6620 H   0  0  0  0  0  0
   16.9860   10.1320    8.5310 H   0  0  0  0  0  0
   17.5800    8.4550    9.1740 O   0  0  0  0  0  0
   18.7730    7.7340    9.5020 C   0  0  0  0  0  0
   19.5330    7.9950    8.7590 H   0  0  0  0  0  0
   18.6090    6.6530    9.4540 H   0  0  0  0  0  0
   19.1510    8.0210   10.4900 H   0  0  0  0  0  0
   17.7300    5.8780   13.5050 C   0  0  0  0  0  0
   18.4510    6.6910   13.3630 H   0  0  0  0  0  0
   17.9510    5.0670   12.8030 H   0  0  0  0  0  0
   17.8900    5.4920   14.5190 H   0  0  0  0  0  0
   10.0280    1.0950   11.1900 N   0  0  0  0  0  0
   10.4590    0.5780   10.4380 H   0  0  0  0  0  0
    9.0630    0.9270   11.4360 H   0  0  0  0  0  0
  1  2  1  0  0  0
  1  6  2  0  0  0
  2  3  2  0  0  0
  2 47  1  0  0  0
  3  4  1  0  0  0
  4  5  2  0  0  0
  4 15  1  0  0  0
  5  6  1  0  0  0
  5 10  1  0  0  0
  6  7  1  0  0  0
  7  8  1  0  0  0
  7  9  1  0  0  0
 10 11  1  0  0  0
 10 12  2  0  0  0
 12 13  1  0  0  0
 12 16  1  0  0  0
 13 14  1  0  0  0
 13 15  2  0  0  0
 16 17  1  0  0  0
 16 18  1  0  0  0
 16 19  1  0  0  0
 19 20  1  0  0  0
 19 43  1  0  0  0
 20 21  1  0  0  0
 20 26  2  0  0  0
 21 22  1  0  0  0
 21 23  2  0  0  0
 23 24  1  0  0  0
 23 38  1  0  0  0
 24 25  2  0  0  0
 24 33  1  0  0  0
 25 26  1  0  0  0
 25 28  1  0  0  0
 26 27  1  0  0  0
 28 29  1  0  0  0
 29 30  1  0  0  0
 29 31  1  0  0  0
 29 32  1  0  0  0
 33 34  1  0  0  0
 34 35  1  0  0  0
 34 36  1  0  0  0
 34 37  1  0  0  0
 38 39  1  0  0  0
 39 40  1  0  0  0
 39 41  1  0  0  0
 39 42  1  0  0  0
 43 44  1  0  0  0
 43 45  1  0  0  0
 43 46  1  0  0  0
 47 48  1  0  0  0
 47 49  1  0  0  0
M  END
>  <ACTIVITY>
6.55

>  <SET>
1

>  <Min_dist>
999.9

>  <Avg_dist>
999.9

$$$$
28-4
  Cerius2 12110214133D 1   1.00000                          
Structure written by Cerius2 SD Exporter
 52 54  0  0  0  0  0  0  0  0999 V2000
   10.1600    2.6420   12.8950 N   0  0  0  0  0  0
   10.7640    1.9960   11.9000 C   0  0  0  0  0  0
   12.0370    2.1590   11.5530 N   0  0  0  0  0  0
   12.7600    3.0360   12.2340 C   0  0  0  0  0  0
   12.2330    3.7720   13.2920 C   0  0  0  0  0  0
   10.8970    3.5090   13.5990 C   0  0  0  0  0  0
   10.2240    4.1780   14.6060 N   0  0  0  0  0  0
   10.7180    4.3800   15.4680 H   0  0  0  0  0  0
    9.2530    3.9040   14.7290 H   0  0  0  0  0  0
   13.0680    4.7050   13.9540 C   0  0  0  0  0  0
   12.6810    5.3010   14.7780 H   0  0  0  0  0  0
   14.3900    4.8760   13.5480 C   0  0  0  0  0  0
   14.8180    4.0820   12.4990 C   0  0  0  0  0  0
   15.8410    4.1420   12.1300 H   0  0  0  0  0  0
   14.0310    3.1860   11.8500 N   0  0  0  0  0  0
   15.3250    5.8400   14.2350 C   0  0  0  0  0  0
   15.8000    5.3720   15.1070 H   0  0  0  0  0  0
   14.6920    6.6540   14.6100 H   0  0  0  0  0  0
   16.3680    6.3470   13.3240 N   0  0  0  0  0  0
   16.0130    7.1310   12.2250 C   0  0  0  0  0  0
   16.9510    7.4160   11.2210 C   0  0  0  0  0  0
   17.9570    7.0040   11.2740 H   0  0  0  0  0  0
   16.6120    8.1940   10.1130 C   0  0  0  0  0  0
   15.3390    8.7540   10.0080 C   0  0  0  0  0  0
   14.3680    8.4700   10.9760 C   0  0  0  0  0  0
   14.7170    7.6680   12.0730 C   0  0  0  0  0  0
   13.9840    7.4780   12.8510 H   0  0  0  0  0  0
   13.1330    9.0310   10.7690 O   0  0  0  0  0  0
   12.9670    9.8410    9.6080 C   0  0  0  0  0  0
   11.9460   10.2330    9.6190 H   0  0  0  0  0  0
   13.0860    9.2480    8.6950 H   0  0  0  0  0  0
   13.6530   10.6950    9.6210 H   0  0  0  0  0  0
   15.0150    9.5280    8.9190 O   0  0  0  0  0  0
   16.1420    9.6260    8.0410 C   0  0  0  0  0  0
   15.8670   10.2960    7.2210 H   0  0  0  0  0  0
   16.3940    8.6500    7.6120 H   0  0  0  0  0  0
   17.0110   10.0530    8.5540 H   0  0  0  0  0  0
   17.5780    8.4470    9.1710 O   0  0  0  0  0  0
   18.7770    7.7360    9.5000 C   0  0  0  0  0  0
   19.5300    7.9890    8.7480 H   0  0  0  0  0  0
   18.6160    6.6520    9.4690 H   0  0  0  0  0  0
   19.1600    8.0370   10.4810 H   0  0  0  0  0  0
   17.7460    6.4620   13.8410 C   0  0  0  0  0  0
   17.7800    6.3190   14.9260 H   0  0  0  0  0  0
   18.1350    7.4710   13.6720 H   0  0  0  0  0  0
   18.6800    5.4670   13.1630 C   0  0  0  0  0  0
   19.7000    5.5930   13.5380 H   0  0  0  0  0  0
   18.6960    5.6150   12.0780 H   0  0  0  0  0  0
   18.3750    4.4340   13.3570 H   0  0  0  0  0  0
   10.0240    1.1050   11.1850 N   0  0  0  0  0  0
   10.4450    0.6020   10.4180 H   0  0  0  0  0  0
    9.0500    0.9670   11.4140 H   0  0  0  0  0  0
  1  2  1  0  0  0
  1  6  2  0  0  0
  2  3  2  0  0  0
  2 50  1  0  0  0
  3  4  1  0  0  0
  4  5  2  0  0  0
  4 15  1  0  0  0
  5  6  1  0  0  0
  5 10  1  0  0  0
  6  7  1  0  0  0
  7  8  1  0  0  0
  7  9  1  0  0  0
 10 11  1  0  0  0
 10 12  2  0  0  0
 12 13  1  0  0  0
 12 16  1  0  0  0
 13 14  1  0  0  0
 13 15  2  0  0  0
 16 17  1  0  0  0
 16 18  1  0  0  0
 16 19  1  0  0  0
 19 20  1  0  0  0
 19 43  1  0  0  0
 20 21  1  0  0  0
 20 26  2  0  0  0
 21 22  1  0  0  0
 21 23  2  0  0  0
 23 24  1  0  0  0
 23 38  1  0  0  0
 24 25  2  0  0  0
 24 33  1  0  0  0
 25 26  1  0  0  0
 25 28  1  0  0  0
 26 27  1  0  0  0
 28 29  1  0  0  0
 29 30  1  0  0  0
 29 31  1  0  0  0
 29 32  1  0  0  0
 33 34  1  0  0  0
 34 35  1  0  0  0
 34 36  1  0  0  0
 34 37  1  0  0  0
 38 39  1  0  0  0
 39 40  1  0  0  0
 39 41  1  0  0  0
 39 42  1  0  0  0
 43 44  1  0  0  0
 43 45  1  0  0  0
 43 46  1  0  0  0
 46 47  1  0  0  0
 46 48  1  0  0  0
 46 49  1  0  0  0
 50 51  1  0  0  0
 50 52  1  0  0  0
M  END
>  <ACTIVITY>
6.92

>  <SET>
1

>  <Min_dist>
999.9

>  <Avg_dist>
999.9

$$$$
28-5
  Cerius2 12110214133D 1   1.00000                          
Structure written by Cerius2 SD Exporter
 48 50  0  0  0  0  0  0  0  0999 V2000
   10.1630    2.6360   12.9070 N   0  0  0  0  0  0
   10.7620    1.9830   11.9150 C   0  0  0  0  0  0
   12.0240    2.1680   11.5380 N   0  0  0  0  0  0
   12.7490    3.0510   12.2080 C   0  0  0  0  0  0
   12.2320    3.7850   13.2720 C   0  0  0  0  0  0
   10.8880    3.5480   13.5660 C   0  0  0  0  0  0
   10.2330    4.1910   14.6020 N   0  0  0  0  0  0
   10.4250    5.1750   14.7580 H   0  0  0  0  0  0
    9.2570    3.9320   14.7190 H   0  0  0  0  0  0
   13.0830    4.6860   13.9580 C   0  0  0  0  0  0
   12.7010    5.2560   14.8030 H   0  0  0  0  0  0
   14.4110    4.8380   13.5640 C   0  0  0  0  0  0
   14.8170    4.0810   12.4790 C   0  0  0  0  0  0
   15.8330    4.1490   12.0930 H   0  0  0  0  0  0
   14.0180    3.2050   11.8170 N   0  0  0  0  0  0
   15.3410    5.7990   14.2650 C   0  0  0  0  0  0
   15.8640    5.2710   15.0750 H   0  0  0  0  0  0
   14.7420    6.5650   14.7580 H   0  0  0  0  0  0
   16.3670    6.3450   13.3660 N   0  0  0  0  0  0
   16.0100    7.1560   12.2300 C   0  0  0  0  0  0
   16.9490    7.4430   11.2260 C   0  0  0  0  0  0
   17.9570    7.0380   11.2650 H   0  0  0  0  0  0
   16.6100    8.2040   10.1010 C   0  0  0  0  0  0
   15.3320    8.7550    9.9950 C   0  0  0  0  0  0
   14.3640    8.4730   10.9670 C   0  0  0  0  0  0
   14.7110    7.6760   12.0700 C   0  0  0  0  0  0
   13.9660    7.5090   12.8380 H   0  0  0  0  0  0
   13.1280    9.0340   10.7600 O   0  0  0  0  0  0
   12.9600    9.8490    9.6010 C   0  0  0  0  0  0
   11.9330   10.2260    9.6070 H   0  0  0  0  0  0
   13.0930    9.2610    8.6870 H   0  0  0  0  0  0
   13.6350   10.7100    9.6250 H   0  0  0  0  0  0
   14.9970    9.5460    8.9230 O   0  0  0  0  0  0
   16.1090    9.6450    8.0260 C   0  0  0  0  0  0
   15.8290   10.3310    7.2210 H   0  0  0  0  0  0
   16.3400    8.6730    7.5770 H   0  0  0  0  0  0
   16.9930   10.0530    8.5270 H   0  0  0  0  0  0
   17.6110    8.4110    9.1870 O   0  0  0  0  0  0
   18.8130    7.7100    9.5200 C   0  0  0  0  0  0
   19.6500    8.2580    9.0750 H   0  0  0  0  0  0
   18.8050    6.7070    9.0840 H   0  0  0  0  0  0
   18.9810    7.6600   10.6030 H   0  0  0  0  0  0
   17.6900    6.0210   13.6800 C   0  0  0  0  0  0
   17.7530    5.3150   14.5270 H   0  0  0  0  0  0
   18.7240    6.4340   13.1590 O   0  0  0  0  0  0
   10.0300    1.0580   11.2360 N   0  0  0  0  0  0
   10.4560    0.5300   10.4890 H   0  0  0  0  0  0
    9.0790    0.8700   11.5180 H   0  0  0  0  0  0
  1  2  1  0  0  0
  1  6  2  0  0  0
  2  3  2  0  0  0
  2 46  1  0  0  0
  3  4  1  0  0  0
  4  5  2  0  0  0
  4 15  1  0  0  0
  5  6  1  0  0  0
  5 10  1  0  0  0
  6  7  1  0  0  0
  7  8  1  0  0  0
  7  9  1  0  0  0
 10 11  1  0  0  0
 10 12  2  0  0  0
 12 13  1  0  0  0
 12 16  1  0  0  0
 13 14  1  0  0  0
 13 15  2  0  0  0
 16 17  1  0  0  0
 16 18  1  0  0  0
 16 19  1  0  0  0
 19 20  1  0  0  0
 19 43  1  0  0  0
 20 21  1  0  0  0
 20 26  2  0  0  0
 21 22  1  0  0  0
 21 23  2  0  0  0
 23 24  1  0  0  0
 23 38  1  0  0  0
 24 25  2  0  0  0
 24 33  1  0  0  0
 25 26  1  0  0  0
 25 28  1  0  0  0
 26 27  1  0  0  0
 28 29  1  0  0  0
 29 30  1  0  0  0
 29 31  1  0  0  0
 29 32  1  0  0  0
 33 34  1  0  0  0
 34 35  1  0  0  0
 34 36  1  0  0  0
 34 37  1  0  0  0
 38 39  1  0  0  0
 39 40  1  0  0  0
 39 41  1  0  0  0
 39 42  1  0  0  0
 43 44  1  0  0  0
 43 45  2  0  0  0
 46 47  1  0  0  0
 46 48  1  0  0  0
M  END
>  <ACTIVITY>
5.13

>  <SET>
1

>  <Min_dist>
999.9

>  <Avg_dist>
999.9

$$$$
28-6
  Cerius2 12110214133D 1   1.00000                          
Structure written by Cerius2 SD Exporter
 45 47  0  0  0  0  0  0  0  0999 V2000
   12.3120    3.6890   13.1110 C   0  0  0  0  0  0
   10.9570    3.5230   13.5380 C   0  0  0  0  0  0
   10.1340    2.6530   12.9430 N   0  0  0  0  0  0
   10.5930    1.8750   11.9650 C   0  0  0  0  0  0
   11.8690    1.8790   11.5870 N   0  0  0  0  0  0
   12.7810    2.7570   12.2120 C   0  0  0  0  0  0
   14.0650    2.6460   11.8180 N   0  0  0  0  0  0
   14.9730    3.4930   12.3190 C   0  0  0  0  0  0
   15.8830    3.4460   12.0490 H   0  0  0  0  0  0
   14.5360    4.5370   13.3280 C   0  0  0  0  0  0
   13.2560    4.7140   13.5950 C   0  0  0  0  0  0
   12.9330    5.4660   14.0790 H   0  0  0  0  0  0
   15.7030    5.3160   13.9590 C   0  0  0  0  0  0
   16.1090    4.9990   14.7580 H   0  0  0  0  0  0
   16.2410    6.4710   13.4660 C   0  0  0  0  0  0
   17.0000    6.8590   13.8860 H   0  0  0  0  0  0
   15.8520    7.3500   12.2830 C   0  0  0  0  0  0
   14.5570    7.8070   12.0690 C   0  0  0  0  0  0
   13.8640    7.5710   12.6750 H   0  0  0  0  0  0
   14.2760    8.6000   10.9850 C   0  0  0  0  0  0
   15.2990    8.9340   10.0930 C   0  0  0  0  0  0
   16.5960    8.4900   10.2830 C   0  0  0  0  0  0
   16.8540    7.6980   11.3860 C   0  0  0  0  0  0
   17.7420    7.3900   11.5220 H   0  0  0  0  0  0
   17.6050    8.8430    9.3910 O   0  0  0  0  0  0
   18.9060    8.3280    9.6840 C   0  0  0  0  0  0
   19.5840    8.7040    8.9070 H   0  0  0  0  0  0
   19.2570    8.6720   10.6690 H   0  0  0  0  0  0
   18.9130    7.2280    9.6700 H   0  0  0  0  0  0
   15.0290    9.8390    9.0430 O   0  0  0  0  0  0
   16.2440    9.9730    8.3240 C   0  0  0  0  0  0
   17.0350    9.6370    9.0330 H   0  0  0  0  0  0
   16.2580    9.3240    7.4340 H   0  0  0  0  0  0
   16.4100   11.0200    8.0330 H   0  0  0  0  0  0
   12.9030    8.7200   10.5610 O   0  0  0  0  0  0
   12.6090    9.5430    9.4340 C   0  0  0  0  0  0
   13.4280    9.5520    8.7010 H   0  0  0  0  0  0
   11.7110    9.1280    8.9530 H   0  0  0  0  0  0
   12.3960   10.5790    9.7410 H   0  0  0  0  0  0
    9.7620    1.0580   11.3420 N   0  0  0  0  0  0
    8.8940    1.0310   11.5810 H   0  0  0  0  0  0
   10.0630    0.5280   10.6800 H   0  0  0  0  0  0
   10.3970    4.2140   14.5100 N   0  0  0  0  0  0
   10.8730    4.8370   14.9510 H   0  0  0  0  0  0
    9.5380    4.0630   14.7320 H   0  0  0  0  0  0
  1  2  1  0  0  0
  1  6  2  0  0  0
  1 11  1  0  0  0
  2  3  2  0  0  0
  2 43  1  0  0  0
  3  4  1  0  0  0
  4  5  2  0  0  0
  4 40  1  0  0  0
  5  6  1  0  0  0
  6  7  1  0  0  0
  7  8  2  0  0  0
  8  9  1  0  0  0
  8 10  1  0  0  0
 10 11  2  0  0  0
 10 13  1  0  0  0
 11 12  1  0  0  0
 13 14  1  0  0  0
 13 15  2  0  0  0
 15 16  1  0  0  0
 15 17  1  0  0  0
 17 18  1  0  0  0
 17 23  2  0  0  0
 18 19  1  0  0  0
 18 20  2  0  0  0
 20 21  1  0  0  0
 20 35  1  0  0  0
 21 22  2  0  0  0
 21 30  1  0  0  0
 22 23  1  0  0  0
 22 25  1  0  0  0
 23 24  1  0  0  0
 25 26  1  0  0  0
 26 27  1  0  0  0
 26 28  1  0  0  0
 26 29  1  0  0  0
 30 31  1  0  0  0
 31 32  1  0  0  0
 31 33  1  0  0  0
 31 34  1  0  0  0
 35 36  1  0  0  0
 36 37  1  0  0  0
 36 38  1  0  0  0
 36 39  1  0  0  0
 40 41  1  0  0  0
 40 42  1  0  0  0
 43 44  1  0  0  0
 43 45  1  0  0  0
M  END
>  <ACTIVITY>
4.89

>  <SET>
2

>  <Min_dist>
0.1

>  <Avg_dist>
0.56

$$$$
28-7
  Cerius2 12110214133D 1   1.00000                          
Structure written by Cerius2 SD Exporter
 41 43  0  0  0  0  0  0  0  0999 V2000
   12.3120    3.6890   13.1110 C   0  0  0  0  0  0
   10.9570    3.5230   13.5380 C   0  0  0  0  0  0
   10.1340    2.6530   12.9430 N   0  0  0  0  0  0
   10.5930    1.8750   11.9650 C   0  0  0  0  0  0
   11.8690    1.8790   11.5870 N   0  0  0  0  0  0
   12.7810    2.7570   12.2120 C   0  0  0  0  0  0
   14.0650    2.6460   11.8180 N   0  0  0  0  0  0
   14.9730    3.4930   12.3190 C   0  0  0  0  0  0
   15.8830    3.4460   12.0490 H   0  0  0  0  0  0
   14.5360    4.5370   13.3280 C   0  0  0  0  0  0
   13.2560    4.7140   13.5950 C   0  0  0  0  0  0
   12.9330    5.4660   14.0790 H   0  0  0  0  0  0
   15.7030    5.3160   13.9590 C   0  0  0  0  0  0
   16.1090    4.9990   14.7580 H   0  0  0  0  0  0
   16.2410    6.4710   13.4660 C   0  0  0  0  0  0
   17.0000    6.8590   13.8860 H   0  0  0  0  0  0
   15.8520    7.3500   12.2830 C   0  0  0  0  0  0
   14.5570    7.8070   12.0690 C   0  0  0  0  0  0
   13.8640    7.5710   12.6750 H   0  0  0  0  0  0
   14.2760    8.6000   10.9850 C   0  0  0  0  0  0
   13.3920    8.9180   10.8450 H   0  0  0  0  0  0
   15.2990    8.9340   10.0930 C   0  0  0  0  0  0
   16.5960    8.4900   10.2830 C   0  0  0  0  0  0
   16.8540    7.6980   11.3860 C   0  0  0  0  0  0
   17.7420    7.3900   11.5220 H   0  0  0  0  0  0
   17.6050    8.8430    9.3910 O   0  0  0  0  0  0
   18.9060    8.3280    9.6840 C   0  0  0  0  0  0
   19.5840    8.7040    8.9070 H   0  0  0  0  0  0
   19.2570    8.6720   10.6690 H   0  0  0  0  0  0
   18.9130    7.2280    9.6700 H   0  0  0  0  0  0
   15.0290    9.8390    9.0430 O   0  0  0  0  0  0
   16.2440    9.9730    8.3240 C   0  0  0  0  0  0
   17.0350    9.6370    9.0330 H   0  0  0  0  0  0
   16.2580    9.3240    7.4340 H   0  0  0  0  0  0
   16.4100   11.0200    8.0330 H   0  0  0  0  0  0
    9.7620    1.0580   11.3420 N   0  0  0  0  0  0
    8.8940    1.0310   11.5810 H   0  0  0  0  0  0
   10.0630    0.5280   10.6800 H   0  0  0  0  0  0
   10.3970    4.2140   14.5100 N   0  0  0  0  0  0
   10.8730    4.8370   14.9510 H   0  0  0  0  0  0
    9.5380    4.0630   14.7320 H   0  0  0  0  0  0
  1  2  1  0  0  0
  1  6  2  0  0  0
  1 11  1  0  0  0
  2  3  2  0  0  0
  2 39  1  0  0  0
  3  4  1  0  0  0
  4  5  2  0  0  0
  4 36  1  0  0  0
  5  6  1  0  0  0
  6  7  1  0  0  0
  7  8  2  0  0  0
  8  9  1  0  0  0
  8 10  1  0  0  0
 10 11  2  0  0  0
 10 13  1  0  0  0
 11 12  1  0  0  0
 13 14  1  0  0  0
 13 15  2  0  0  0
 15 16  1  0  0  0
 15 17  1  0  0  0
 17 18  1  0  0  0
 17 24  2  0  0  0
 18 19  1  0  0  0
 18 20  2  0  0  0
 20 21  1  0  0  0
 20 22  1  0  0  0
 22 23  2  0  0  0
 22 31  1  0  0  0
 23 24  1  0  0  0
 23 26  1  0  0  0
 24 25  1  0  0  0
 26 27  1  0  0  0
 27 28  1  0  0  0
 27 29  1  0  0  0
 27 30  1  0  0  0
 31 32  1  0  0  0
 32 33  1  0  0  0
 32 34  1  0  0  0
 32 35  1  0  0  0
 36 37  1  0  0  0
 36 38  1  0  0  0
 39 40  1  0  0  0
 39 41  1  0  0  0
M  END
>  <ACTIVITY>
5.68

>  <SET>
2

>  <Min_dist>
0.1

>  <Avg_dist>
0.55

$$$$
28-8
  Cerius2 12110214133D 1   1.00000                          
Structure written by Cerius2 SD Exporter
 37 39  0  0  0  0  0  0  0  0999 V2000
   12.3120    3.6890   13.1110 C   0  0  0  0  0  0
   10.9570    3.5230   13.5380 C   0  0  0  0  0  0
   10.1340    2.6530   12.9430 N   0  0  0  0  0  0
   10.5930    1.8750   11.9650 C   0  0  0  0  0  0
   11.8690    1.8790   11.5870 N   0  0  0  0  0  0
   12.7810    2.7570   12.2120 C   0  0  0  0  0  0
   14.0650    2.6460   11.8180 N   0  0  0  0  0  0
   14.9730    3.4930   12.3190 C   0  0  0  0  0  0
   15.8830    3.4460   12.0490 H   0  0  0  0  0  0
   14.5360    4.5370   13.3280 C   0  0  0  0  0  0
   13.2560    4.7140   13.5950 C   0  0  0  0  0  0
   12.9330    5.4660   14.0790 H   0  0  0  0  0  0
   15.7030    5.3160   13.9590 C   0  0  0  0  0  0
   16.1090    4.9990   14.7580 H   0  0  0  0  0  0
   16.2410    6.4710   13.4660 C   0  0  0  0  0  0
   17.0000    6.8590   13.8860 H   0  0  0  0  0  0
   15.8520    7.3500   12.2830 C   0  0  0  0  0  0
   14.5570    7.8070   12.0690 C   0  0  0  0  0  0
   13.8640    7.5710   12.6750 H   0  0  0  0  0  0
   14.2760    8.6000   10.9850 C   0  0  0  0  0  0
   13.3920    8.9180   10.8450 H   0  0  0  0  0  0
   15.2990    8.9340   10.0930 C   0  0  0  0  0  0
   16.5960    8.4900   10.2830 C   0  0  0  0  0  0
   17.2760    8.7310    9.6650 H   0  0  0  0  0  0
   16.8540    7.6980   11.3860 C   0  0  0  0  0  0
   17.7420    7.3900   11.5220 H   0  0  0  0  0  0
   15.0290    9.8390    9.0430 O   0  0  0  0  0  0
   16.2440    9.9730    8.3240 C   0  0  0  0  0  0
   17.0350    9.6370    9.0330 H   0  0  0  0  0  0
   16.2580    9.3240    7.4340 H   0  0  0  0  0  0
   16.4100   11.0200    8.0330 H   0  0  0  0  0  0
    9.7620    1.0580   11.3420 N   0  0  0  0  0  0
    8.8940    1.0310   11.5810 H   0  0  0  0  0  0
   10.0630    0.5280   10.6800 H   0  0  0  0  0  0
   10.3970    4.2140   14.5100 N   0  0  0  0  0  0
   10.8730    4.8370   14.9510 H   0  0  0  0  0  0
    9.5380    4.0630   14.7320 H   0  0  0  0  0  0
  1  2  1  0  0  0
  1  6  2  0  0  0
  1 11  1  0  0  0
  2  3  2  0  0  0
  2 35  1  0  0  0
  3  4  1  0  0  0
  4  5  2  0  0  0
  4 32  1  0  0  0
  5  6  1  0  0  0
  6  7  1  0  0  0
  7  8  2  0  0  0
  8  9  1  0  0  0
  8 10  1  0  0  0
 10 11  2  0  0  0
 10 13  1  0  0  0
 11 12  1  0  0  0
 13 14  1  0  0  0
 13 15  2  0  0  0
 15 16  1  0  0  0
 15 17  1  0  0  0
 17 18  1  0  0  0
 17 25  2  0  0  0
 18 19  1  0  0  0
 18 20  2  0  0  0
 20 21  1  0  0  0
 20 22  1  0  0  0
 22 23  2  0  0  0
 22 27  1  0  0  0
 23 24  1  0  0  0
 23 25  1  0  0  0
 25 26  1  0  0  0
 27 28  1  0  0  0
 28 29  1  0  0  0
 28 30  1  0  0  0
 28 31  1  0  0  0
 32 33  1  0  0  0
 32 34  1  0  0  0
 35 36  1  0  0  0
 35 37  1  0  0  0
M  END
>  <ACTIVITY>
4.93

>  <SET>
1

>  <Min_dist>
999.9

>  <Avg_dist>
999.9

$$$$
28-9
  Cerius2 12110214133D 1   1.00000                          
Structure written by Cerius2 SD Exporter
 47 49  0  0  0  0  0  0  0  0999 V2000
   10.1630    2.6100   12.9050 N   0  0  0  0  0  0
   10.7770    1.9560   11.9210 C   0  0  0  0  0  0
   12.0350    2.1650   11.5440 N   0  0  0  0  0  0
   12.7400    3.0720   12.2030 C   0  0  0  0  0  0
   12.2010    3.8140   13.2510 C   0  0  0  0  0  0
   10.8650    3.5470   13.5510 C   0  0  0  0  0  0
   10.1970    4.1790   14.5840 N   0  0  0  0  0  0
   10.3680    5.1670   14.7410 H   0  0  0  0  0  0
    9.2290    3.8930   14.7060 H   0  0  0  0  0  0
   13.0260    4.7480   13.9210 C   0  0  0  0  0  0
   12.6300    5.3280   14.7530 H   0  0  0  0  0  0
   14.3490    4.9190   13.5320 C   0  0  0  0  0  0
   14.7840    4.1430   12.4710 C   0  0  0  0  0  0
   15.8060    4.2190   12.1040 H   0  0  0  0  0  0
   14.0080    3.2400   11.8190 N   0  0  0  0  0  0
   15.2600    5.8880   14.2330 C   0  0  0  0  0  0
   15.6010    5.4500   15.1810 H   0  0  0  0  0  0
   14.6820    6.7790   14.5090 H   0  0  0  0  0  0
   16.4720    6.2760   13.3790 C   0  0  0  0  0  0
   16.9800    5.3800   12.9990 H   0  0  0  0  0  0
   17.2180    6.8000   13.9910 H   0  0  0  0  0  0
   16.0750    7.1440   12.2060 C   0  0  0  0  0  0
   17.0070    7.4260   11.1990 C   0  0  0  0  0  0
   18.0220    7.0380   11.2640 H   0  0  0  0  0  0
   16.6340    8.1940   10.1010 C   0  0  0  0  0  0
   15.3460    8.7350   10.0220 C   0  0  0  0  0  0
   14.3930    8.4500   11.0120 C   0  0  0  0  0  0
   14.7660    7.6540   12.1010 C   0  0  0  0  0  0
   14.0550    7.4100   12.8880 H   0  0  0  0  0  0
   13.1480    8.9900   10.8130 O   0  0  0  0  0  0
   12.9650    9.8100    9.6610 C   0  0  0  0  0  0
   11.9260   10.1550    9.6620 H   0  0  0  0  0  0
   13.1270    9.2370    8.7420 H   0  0  0  0  0  0
   13.6090   10.6950    9.6990 H   0  0  0  0  0  0
   14.9950    9.4950    8.9310 O   0  0  0  0  0  0
   16.1200    9.6300    8.0560 C   0  0  0  0  0  0
   15.8030   10.2290    7.1960 H   0  0  0  0  0  0
   16.4560    8.6570    7.6850 H   0  0  0  0  0  0
   16.9430   10.1540    8.5520 H   0  0  0  0  0  0
   17.5720    8.4600    9.1360 O   0  0  0  0  0  0
   18.7890    7.7700    9.4440 C   0  0  0  0  0  0
   19.5070    7.9920    8.6500 H   0  0  0  0  0  0
   18.6360    6.6860    9.4710 H   0  0  0  0  0  0
   19.2100    8.1210   10.3920 H   0  0  0  0  0  0
   10.0640    1.0040   11.2600 N   0  0  0  0  0  0
   10.4920    0.4790   10.5140 H   0  0  0  0  0  0
    9.1130    0.8160   11.5390 H   0  0  0  0  0  0
  1  2  1  0  0  0
  1  6  2  0  0  0
  2  3  2  0  0  0
  2 45  1  0  0  0
  3  4  1  0  0  0
  4  5  2  0  0  0
  4 15  1  0  0  0
  5  6  1  0  0  0
  5 10  1  0  0  0
  6  7  1  0  0  0
  7  8  1  0  0  0
  7  9  1  0  0  0
 10 11  1  0  0  0
 10 12  2  0  0  0
 12 13  1  0  0  0
 12 16  1  0  0  0
 13 14  1  0  0  0
 13 15  2  0  0  0
 16 17  1  0  0  0
 16 18  1  0  0  0
 16 19  1  0  0  0
 19 20  1  0  0  0
 19 21  1  0  0  0
 19 22  1  0  0  0
 22 23  1  0  0  0
 22 28  2  0  0  0
 23 24  1  0  0  0
 23 25  2  0  0  0
 25 26  1  0  0  0
 25 40  1  0  0  0
 26 27  2  0  0  0
 26 35  1  0  0  0
 27 28  1  0  0  0
 27 30  1  0  0  0
 28 29  1  0  0  0
 30 31  1  0  0  0
 31 32  1  0  0  0
 31 33  1  0  0  0
 31 34  1  0  0  0
 35 36  1  0  0  0
 36 37  1  0  0  0
 36 38  1  0  0  0
 36 39  1  0  0  0
 40 41  1  0  0  0
 41 42  1  0  0  0
 41 43  1  0  0  0
 41 44  1  0  0  0
 45 46  1  0  0  0
 45 47  1  0  0  0
M  END
>  <ACTIVITY>
5.94

>  <SET>
1

>  <Min_dist>
999.9

>  <Avg_dist>
999.9

$$$$
29-2-piritrexim
  Cerius2 12110214133D 1   1.00000                          
Structure written by Cerius2 SD Exporter
 43 45  0  0  0  0  0  0  0  0999 V2000
   11.9600    1.8970   11.5670 N   0  0  0  0  0  0
   10.7500    1.9500   12.0830 C   0  0  0  0  0  0
    9.8270    1.0400   11.7230 N   0  0  0  0  0  0
   10.0380    0.3960   11.1300 H   0  0  0  0  0  0
    9.0000    1.0740   12.0740 H   0  0  0  0  0  0
   10.3090    2.8270   12.9720 N   0  0  0  0  0  0
   11.0970    3.7750   13.4140 C   0  0  0  0  0  0
   10.5840    4.6470   14.3240 N   0  0  0  0  0  0
    9.7320    4.5600   14.6000 H   0  0  0  0  0  0
   11.0970    5.3110   14.6500 H   0  0  0  0  0  0
   12.4500    3.8800   12.9310 C   0  0  0  0  0  0
   13.3970    4.8450   13.2850 C   0  0  0  0  0  0
   13.0710    5.9560   14.2500 C   0  0  0  0  0  0
   13.8340    6.5090   14.3670 H   0  0  0  0  0  0
   12.3540    6.4750   13.9060 H   0  0  0  0  0  0
   12.8190    5.5840   15.0880 H   0  0  0  0  0  0
   14.6400    4.7670   12.7140 C   0  0  0  0  0  0
   14.9070    3.7560   11.7810 C   0  0  0  0  0  0
   15.7680    3.6920   11.3830 H   0  0  0  0  0  0
   14.0230    2.8450   11.3940 N   0  0  0  0  0  0
   12.8140    2.8760   11.9840 C   0  0  0  0  0  0
   15.6830    5.8360   13.0190 C   0  0  0  0  0  0
   15.5450    6.1720   13.8970 H   0  0  0  0  0  0
   16.5460    5.4410   12.9760 H   0  0  0  0  0  0
   15.6400    7.0030   12.0830 C   0  0  0  0  0  0
   16.8000    7.4570   11.4800 C   0  0  0  0  0  0
   17.9220    6.7580   11.8700 O   0  0  0  0  0  0
   19.1990    7.0860   11.3590 C   0  0  0  0  0  0
   19.8500    6.5040   11.7340 H   0  0  0  0  0  0
   19.1960    6.9890   10.4140 H   0  0  0  0  0  0
   19.4100    7.9840   11.5840 H   0  0  0  0  0  0
   16.7110    8.5190   10.5940 C   0  0  0  0  0  0
   17.4910    8.8400   10.1580 H   0  0  0  0  0  0
   15.4850    9.1280   10.3320 C   0  0  0  0  0  0
   15.4340    9.8480    9.7140 H   0  0  0  0  0  0
   14.3730    8.6590   10.9840 C   0  0  0  0  0  0
   13.0340    9.1200   10.8680 O   0  0  0  0  0  0
   13.0760   10.2150    9.9380 C   0  0  0  0  0  0
   12.2010   10.5650    9.8200 H   0  0  0  0  0  0
   13.6470   10.8950   10.2750 H   0  0  0  0  0  0
   13.4090    9.9080    9.1020 H   0  0  0  0  0  0
   14.4370    7.6050   11.8590 C   0  0  0  0  0  0
   13.6590    7.2930   12.3060 H   0  0  0  0  0  0
  1  2  1  0  0  0
  1 21  2  0  0  0
  2  3  1  0  0  0
  2  6  2  0  0  0
  3  4  1  0  0  0
  3  5  1  0  0  0
  6  7  1  0  0  0
  7  8  1  0  0  0
  7 11  2  0  0  0
  8  9  1  0  0  0
  8 10  1  0  0  0
 11 12  1  0  0  0
 11 21  1  0  0  0
 12 13  1  0  0  0
 12 17  2  0  0  0
 13 14  1  0  0  0
 13 15  1  0  0  0
 13 16  1  0  0  0
 17 18  1  0  0  0
 17 22  1  0  0  0
 18 19  1  0  0  0
 18 20  2  0  0  0
 20 21  1  0  0  0
 22 23  1  0  0  0
 22 24  1  0  0  0
 22 25  1  0  0  0
 25 26  1  0  0  0
 25 42  2  0  0  0
 26 27  1  0  0  0
 26 32  2  0  0  0
 27 28  1  0  0  0
 28 29  1  0  0  0
 28 30  1  0  0  0
 28 31  1  0  0  0
 32 33  1  0  0  0
 32 34  1  0  0  0
 34 35  1  0  0  0
 34 36  2  0  0  0
 36 37  1  0  0  0
 36 42  1  0  0  0
 37 38  1  0  0  0
 38 39  1  0  0  0
 38 40  1  0  0  0
 38 41  1  0  0  0
 42 43  1  0  0  0
M  END
>  <ACTIVITY>
8.82

>  <SET>
2

>  <Min_dist>
0.15

>  <Avg_dist>
0.56

$$$$
30-2
  Cerius2 12110214133D 1   1.00000                          
Structure written by Cerius2 SD Exporter
 45 48  0  0  0  0  0  0  0  0999 V2000
   10.6990    2.1190   11.8230 C   0  0  0  0  0  0
   11.9820    2.1880   11.3660 N   0  0  0  0  0  0
   12.9270    2.9330   12.0190 C   0  0  0  0  0  0
   12.5730    3.6930   13.1940 C   0  0  0  0  0  0
   11.2230    3.6060   13.6450 C   0  0  0  0  0  0
   10.3340    2.8280   12.9360 N   0  0  0  0  0  0
   10.8140    4.2770   14.7430 N   0  0  0  0  0  0
   11.3960    4.7880   15.2000 H   0  0  0  0  0  0
    9.9590    4.2140   15.0170 H   0  0  0  0  0  0
   13.5520    4.4390   13.8550 C   0  0  0  0  0  0
   14.8410    4.4680   13.3790 C   0  0  0  0  0  0
   15.1680    3.7130   12.1960 C   0  0  0  0  0  0
   16.0550    3.7230   11.8570 H   0  0  0  0  0  0
   14.2110    2.9800   11.5530 N   0  0  0  0  0  0
   15.9880    5.2640   14.1130 C   0  0  0  0  0  0
   15.6070    5.9640   14.6300 H   0  0  0  0  0  0
   16.4440    4.6690   14.6970 H   0  0  0  0  0  0
   17.0270    5.9210   13.1700 N   0  0  0  0  0  0
   16.4770    6.9470   12.2150 C   0  0  0  0  0  0
   17.2990    7.4470   11.0980 C   0  0  0  0  0  0
   16.6440    8.1990   10.0570 C   0  0  0  0  0  0
   15.2680    8.5500   10.1430 C   0  0  0  0  0  0
   14.8640    9.0630    9.4520 H   0  0  0  0  0  0
   14.4930    8.1380   11.2620 C   0  0  0  0  0  0
   13.5860    8.4110   11.3380 H   0  0  0  0  0  0
   15.0780    7.3220   12.2580 C   0  0  0  0  0  0
   14.5500    7.0030   12.9810 H   0  0  0  0  0  0
   17.4280    8.5640    8.9980 O   0  0  0  0  0  0
   16.9020    9.3240    7.9160 C   0  0  0  0  0  0
   16.0730    8.8020    7.4150 H   0  0  0  0  0  0
   16.5590   10.3170    8.2440 H   0  0  0  0  0  0
   17.7260    9.4510    7.2000 H   0  0  0  0  0  0
   18.5840    6.6760   11.4090 C   0  0  0  0  0  0
   19.1010    6.2810   10.5210 H   0  0  0  0  0  0
   19.3080    7.3470   11.9020 H   0  0  0  0  0  0
   18.1480    5.4700   12.3630 C   0  0  0  0  0  0
   18.9850    5.1120   12.9860 H   0  0  0  0  0  0
   17.8930    4.6090   11.7160 H   0  0  0  0  0  0
   13.2400    5.1500   15.1720 C   0  0  0  0  0  0
   12.8310    4.4490   15.9190 H   0  0  0  0  0  0
   14.1130    5.5540   15.6920 H   0  0  0  0  0  0
   12.5620    6.0060   15.0260 H   0  0  0  0  0  0
    9.8030    1.3470   11.1730 N   0  0  0  0  0  0
   10.0550    0.8820   10.4450 H   0  0  0  0  0  0
    8.9550    1.2960   11.4690 H   0  0  0  0  0  0
  1  2  2  0  0  0
  1  6  1  0  0  0
  1 43  1  0  0  0
  2  3  1  0  0  0
  3  4  2  0  0  0
  3 14  1  0  0  0
  4  5  1  0  0  0
  4 10  1  0  0  0
  5  6  2  0  0  0
  5  7  1  0  0  0
  7  8  1  0  0  0
  7  9  1  0  0  0
 10 11  2  0  0  0
 10 39  1  0  0  0
 11 12  1  0  0  0
 11 15  1  0  0  0
 12 13  1  0  0  0
 12 14  2  0  0  0
 15 16  1  0  0  0
 15 17  1  0  0  0
 15 18  1  0  0  0
 18 19  1  0  0  0
 18 36  1  0  0  0
 19 20  1  0  0  0
 19 26  2  0  0  0
 20 21  2  0  0  0
 20 33  1  0  0  0
 21 22  1  0  0  0
 21 28  1  0  0  0
 22 23  1  0  0  0
 22 24  2  0  0  0
 24 25  1  0  0  0
 24 26  1  0  0  0
 26 27  1  0  0  0
 28 29  1  0  0  0
 29 30  1  0  0  0
 29 31  1  0  0  0
 29 32  1  0  0  0
 33 34  1  0  0  0
 33 35  1  0  0  0
 33 36  1  0  0  0
 36 37  1  0  0  0
 36 38  1  0  0  0
 39 40  1  0  0  0
 39 41  1  0  0  0
 39 42  1  0  0  0
 43 44  1  0  0  0
 43 45  1  0  0  0
M  END
>  <ACTIVITY>
6.82

>  <SET>
2

>  <Min_dist>
0.06

>  <Avg_dist>
0.58

$$$$
30-3
  Cerius2 12110214133D 1   1.00000                          
Structure written by Cerius2 SD Exporter
 45 48  0  0  0  0  0  0  0  0999 V2000
   10.6990    2.1190   11.8230 C   0  0  0  0  0  0
   11.9820    2.1880   11.3660 N   0  0  0  0  0  0
   12.9270    2.9330   12.0190 C   0  0  0  0  0  0
   12.5730    3.6930   13.1940 C   0  0  0  0  0  0
   11.2230    3.6060   13.6450 C   0  0  0  0  0  0
   10.3340    2.8280   12.9360 N   0  0  0  0  0  0
   10.8140    4.2770   14.7430 N   0  0  0  0  0  0
   11.3960    4.7880   15.2000 H   0  0  0  0  0  0
    9.9590    4.2140   15.0170 H   0  0  0  0  0  0
   13.5520    4.4390   13.8550 C   0  0  0  0  0  0
   14.8410    4.4680   13.3790 C   0  0  0  0  0  0
   15.1680    3.7130   12.1960 C   0  0  0  0  0  0
   16.0550    3.7230   11.8570 H   0  0  0  0  0  0
   14.2110    2.9800   11.5530 N   0  0  0  0  0  0
   15.9880    5.2640   14.1130 C   0  0  0  0  0  0
   15.6070    5.9640   14.6300 H   0  0  0  0  0  0
   16.4440    4.6690   14.6970 H   0  0  0  0  0  0
   17.0270    5.9210   13.1700 N   0  0  0  0  0  0
   16.4770    6.9470   12.2150 C   0  0  0  0  0  0
   17.2990    7.4470   11.0980 C   0  0  0  0  0  0
   16.6440    8.1990   10.0570 C   0  0  0  0  0  0
   17.2160    8.5050    9.1820 H   0  0  0  0  0  0
   15.2680    8.5500   10.1430 C   0  0  0  0  0  0
   14.4930    8.1380   11.2620 C   0  0  0  0  0  0
   13.5860    8.4110   11.3380 H   0  0  0  0  0  0
   15.0780    7.3220   12.2580 C   0  0  0  0  0  0
   14.5500    7.0030   12.9810 H   0  0  0  0  0  0
   14.7150    9.2510    9.1980 O   0  0  0  0  0  0
   15.4610    9.6800    8.0650 C   0  0  0  0  0  0
   16.4900    9.3260    8.1370 H   0  0  0  0  0  0
   15.0040    9.2800    7.1600 H   0  0  0  0  0  0
   15.4560   10.7690    8.0210 H   0  0  0  0  0  0
   18.5840    6.6760   11.4090 C   0  0  0  0  0  0
   19.1010    6.2810   10.5210 H   0  0  0  0  0  0
   19.3080    7.3470   11.9020 H   0  0  0  0  0  0
   18.1480    5.4700   12.3630 C   0  0  0  0  0  0
   18.9850    5.1120   12.9860 H   0  0  0  0  0  0
   17.8930    4.6090   11.7160 H   0  0  0  0  0  0
   13.2400    5.1500   15.1720 C   0  0  0  0  0  0
   12.8310    4.4490   15.9190 H   0  0  0  0  0  0
   14.1130    5.5540   15.6920 H   0  0  0  0  0  0
   12.5620    6.0060   15.0260 H   0  0  0  0  0  0
    9.8030    1.3470   11.1730 N   0  0  0  0  0  0
   10.0550    0.8820   10.4450 H   0  0  0  0  0  0
    8.9550    1.2960   11.4690 H   0  0  0  0  0  0
  1  2  2  0  0  0
  1  6  1  0  0  0
  1 43  1  0  0  0
  2  3  1  0  0  0
  3  4  2  0  0  0
  3 14  1  0  0  0
  4  5  1  0  0  0
  4 10  1  0  0  0
  5  6  2  0  0  0
  5  7  1  0  0  0
  7  8  1  0  0  0
  7  9  1  0  0  0
 10 11  2  0  0  0
 10 39  1  0  0  0
 11 12  1  0  0  0
 11 15  1  0  0  0
 12 13  1  0  0  0
 12 14  2  0  0  0
 15 16  1  0  0  0
 15 17  1  0  0  0
 15 18  1  0  0  0
 18 19  1  0  0  0
 18 36  1  0  0  0
 19 20  1  0  0  0
 19 26  2  0  0  0
 20 21  2  0  0  0
 20 33  1  0  0  0
 21 22  1  0  0  0
 21 23  1  0  0  0
 23 24  2  0  0  0
 23 28  1  0  0  0
 24 25  1  0  0  0
 24 26  1  0  0  0
 26 27  1  0  0  0
 28 29  1  0  0  0
 29 30  1  0  0  0
 29 31  1  0  0  0
 29 32  1  0  0  0
 33 34  1  0  0  0
 33 35  1  0  0  0
 33 36  1  0  0  0
 36 37  1  0  0  0
 36 38  1  0  0  0
 39 40  1  0  0  0
 39 41  1  0  0  0
 39 42  1  0  0  0
 43 44  1  0  0  0
 43 45  1  0  0  0
M  END
>  <ACTIVITY>
6.77

>  <SET>
1

>  <Min_dist>
999.9

>  <Avg_dist>
999.9

$$$$
30-4
  Cerius2 12110214133D 1   1.00000                          
Structure written by Cerius2 SD Exporter
 49 52  0  0  0  0  0  0  0  0999 V2000
   10.6990    2.1190   11.8230 C   0  0  0  0  0  0
   11.9820    2.1880   11.3660 N   0  0  0  0  0  0
   12.9270    2.9330   12.0190 C   0  0  0  0  0  0
   12.5730    3.6930   13.1940 C   0  0  0  0  0  0
   11.2230    3.6060   13.6450 C   0  0  0  0  0  0
   10.3340    2.8280   12.9360 N   0  0  0  0  0  0
   10.8140    4.2770   14.7430 N   0  0  0  0  0  0
   11.3960    4.7880   15.2000 H   0  0  0  0  0  0
    9.9590    4.2140   15.0170 H   0  0  0  0  0  0
   13.5520    4.4390   13.8550 C   0  0  0  0  0  0
   14.8410    4.4680   13.3790 C   0  0  0  0  0  0
   15.1680    3.7130   12.1960 C   0  0  0  0  0  0
   16.0550    3.7230   11.8570 H   0  0  0  0  0  0
   14.2110    2.9800   11.5530 N   0  0  0  0  0  0
   15.9880    5.2640   14.1130 C   0  0  0  0  0  0
   15.6070    5.9640   14.6300 H   0  0  0  0  0  0
   16.4440    4.6690   14.6970 H   0  0  0  0  0  0
   17.0270    5.9210   13.1700 N   0  0  0  0  0  0
   16.4770    6.9470   12.2150 C   0  0  0  0  0  0
   17.2990    7.4470   11.0980 C   0  0  0  0  0  0
   16.6440    8.1990   10.0570 C   0  0  0  0  0  0
   17.2160    8.5050    9.1820 H   0  0  0  0  0  0
   15.2680    8.5500   10.1430 C   0  0  0  0  0  0
   14.4930    8.1380   11.2620 C   0  0  0  0  0  0
   15.0780    7.3220   12.2580 C   0  0  0  0  0  0
   14.5500    7.0030   12.9810 H   0  0  0  0  0  0
   13.2520    8.5110   11.3660 O   0  0  0  0  0  0
   12.6430    9.3320   10.3770 C   0  0  0  0  0  0
   13.3550    9.5540    9.5820 H   0  0  0  0  0  0
   11.7830    8.8110    9.9550 H   0  0  0  0  0  0
   12.3100   10.2640   10.8350 H   0  0  0  0  0  0
   14.7150    9.2510    9.1980 O   0  0  0  0  0  0
   15.4610    9.6800    8.0650 C   0  0  0  0  0  0
   16.4900    9.3260    8.1370 H   0  0  0  0  0  0
   15.0040    9.2800    7.1600 H   0  0  0  0  0  0
   15.4560   10.7690    8.0210 H   0  0  0  0  0  0
   18.5840    6.6760   11.4090 C   0  0  0  0  0  0
   19.1010    6.2810   10.5210 H   0  0  0  0  0  0
   19.3080    7.3470   11.9020 H   0  0  0  0  0  0
   18.1480    5.4700   12.3630 C   0  0  0  0  0  0
   18.9850    5.1120   12.9860 H   0  0  0  0  0  0
   17.8930    4.6090   11.7160 H   0  0  0  0  0  0
   13.2400    5.1500   15.1720 C   0  0  0  0  0  0
   12.8310    4.4490   15.9190 H   0  0  0  0  0  0
   14.1130    5.5540   15.6920 H   0  0  0  0  0  0
   12.5620    6.0060   15.0260 H   0  0  0  0  0  0
    9.8030    1.3470   11.1730 N   0  0  0  0  0  0
   10.0550    0.8820   10.4450 H   0  0  0  0  0  0
    8.9550    1.2960   11.4690 H   0  0  0  0  0  0
  1  2  2  0  0  0
  1  6  1  0  0  0
  1 47  1  0  0  0
  2  3  1  0  0  0
  3  4  2  0  0  0
  3 14  1  0  0  0
  4  5  1  0  0  0
  4 10  1  0  0  0
  5  6  2  0  0  0
  5  7  1  0  0  0
  7  8  1  0  0  0
  7  9  1  0  0  0
 10 11  2  0  0  0
 10 43  1  0  0  0
 11 12  1  0  0  0
 11 15  1  0  0  0
 12 13  1  0  0  0
 12 14  2  0  0  0
 15 16  1  0  0  0
 15 17  1  0  0  0
 15 18  1  0  0  0
 18 19  1  0  0  0
 18 40  1  0  0  0
 19 20  1  0  0  0
 19 25  2  0  0  0
 20 21  2  0  0  0
 20 37  1  0  0  0
 21 22  1  0  0  0
 21 23  1  0  0  0
 23 24  2  0  0  0
 23 32  1  0  0  0
 24 25  1  0  0  0
 24 27  1  0  0  0
 25 26  1  0  0  0
 27 28  1  0  0  0
 28 29  1  0  0  0
 28 30  1  0  0  0
 28 31  1  0  0  0
 32 33  1  0  0  0
 33 34  1  0  0  0
 33 35  1  0  0  0
 33 36  1  0  0  0
 37 38  1  0  0  0
 37 39  1  0  0  0
 37 40  1  0  0  0
 40 41  1  0  0  0
 40 42  1  0  0  0
 43 44  1  0  0  0
 43 45  1  0  0  0
 43 46  1  0  0  0
 47 48  1  0  0  0
 47 49  1  0  0  0
M  END
>  <ACTIVITY>
6.64

>  <SET>
1

>  <Min_dist>
999.9

>  <Avg_dist>
999.9

$$$$
32-10
  Cerius2 12110214133D 1   1.00000                          
Structure written by Cerius2 SD Exporter
 48 50  0  0  0  0  0  0  0  0999 V2000
   12.4010    3.9580   12.9870 C   0  0  0  0  0  0
   11.0840    3.7940   13.5830 C   0  0  0  0  0  0
   10.2390    2.8370   13.1810 N   0  0  0  0  0  0
   10.6060    1.9280   12.2470 C   0  0  0  0  0  0
   11.9070    1.8940   11.7840 N   0  0  0  0  0  0
   12.7880    2.8900   12.2110 C   0  0  0  0  0  0
   14.2250    2.6740   11.7630 C   0  0  0  0  0  0
   14.4410    1.5930   11.7640 H   0  0  0  0  0  0
   14.3500    3.0120   10.7190 H   0  0  0  0  0  0
   15.1710    3.4520   12.6860 C   0  0  0  0  0  0
   16.2010    3.3980   12.2950 H   0  0  0  0  0  0
   15.1910    3.0050   13.6960 H   0  0  0  0  0  0
   14.6660    4.9120   12.7410 N   0  0  0  0  0  0
   13.3340    5.0670   13.5180 C   0  0  0  0  0  0
   13.5070    4.8860   14.5950 H   0  0  0  0  0  0
   12.9560    5.9270   13.3740 H   0  0  0  0  0  0
   15.7500    5.9080   13.1780 C   0  0  0  0  0  0
   15.5670    6.3650   14.1650 H   0  0  0  0  0  0
   16.7850    5.5610   13.3140 H   0  0  0  0  0  0
   15.6400    7.0030   12.0830 C   0  0  0  0  0  0
   16.8000    7.4570   11.4800 C   0  0  0  0  0  0
   16.7110    8.5190   10.5940 C   0  0  0  0  0  0
   15.4850    9.1280   10.3320 C   0  0  0  0  0  0
   14.3730    8.6590   10.9840 C   0  0  0  0  0  0
   13.0340    9.1200   10.8680 O   0  0  0  0  0  0
   13.0210   10.0030    9.7340 C   0  0  0  0  0  0
   12.1430   10.3430    9.6070 H   0  0  0  0  0  0
   13.6210   10.7230    9.8860 H   0  0  0  0  0  0
   13.2900    9.5250    8.9580 H   0  0  0  0  0  0
   14.4370    7.6050   11.8590 C   0  0  0  0  0  0
   13.6590    7.2930   12.3060 H   0  0  0  0  0  0
   15.4160   10.1130    9.4870 O   0  0  0  0  0  0
   16.5840   10.5810    8.8230 C   0  0  0  0  0  0
   17.4500    9.9940    9.1300 H   0  0  0  0  0  0
   16.4480   10.4870    7.7450 H   0  0  0  0  0  0
   16.7480   11.6280    9.0760 H   0  0  0  0  0  0
   17.7470    8.4860   10.2770 O   0  0  0  0  0  0
   18.4380    7.7810    9.2070 C   0  0  0  0  0  0
   19.4800    8.1140    9.2860 H   0  0  0  0  0  0
   18.3830    6.6900    9.3330 H   0  0  0  0  0  0
   18.0360    8.0330    8.2150 H   0  0  0  0  0  0
   18.5450    6.7250   12.1390 Br  0  0  0  0  0  0
    9.7670    1.0600   11.8040 N   0  0  0  0  0  0
    8.9220    1.0520   12.1140 H   0  0  0  0  0  0
   10.0250    0.4620   11.1830 H   0  0  0  0  0  0
   10.6020    4.5990   14.5690 N   0  0  0  0  0  0
   11.1060    5.2740   14.8850 H   0  0  0  0  0  0
    9.7800    4.4550   14.9060 H   0  0  0  0  0  0
  1  2  1  0  0  0
  1  6  2  0  0  0
  1 14  1  0  0  0
  2  3  2  0  0  0
  2 46  1  0  0  0
  3  4  1  0  0  0
  4  5  2  0  0  0
  4 43  1  0  0  0
  5  6  1  0  0  0
  6  7  1  0  0  0
  7  8  1  0  0  0
  7  9  1  0  0  0
  7 10  1  0  0  0
 10 11  1  0  0  0
 10 12  1  0  0  0
 10 13  1  0  0  0
 13 14  1  0  0  0
 13 17  1  0  0  0
 14 15  1  0  0  0
 14 16  1  0  0  0
 17 18  1  0  0  0
 17 19  1  0  0  0
 17 20  1  0  0  0
 20 21  1  0  0  0
 20 30  2  0  0  0
 21 22  2  0  0  0
 21 42  1  0  0  0
 22 23  1  0  0  0
 22 37  1  0  0  0
 23 24  2  0  0  0
 23 32  1  0  0  0
 24 25  1  0  0  0
 24 30  1  0  0  0
 25 26  1  0  0  0
 26 27  1  0  0  0
 26 28  1  0  0  0
 26 29  1  0  0  0
 30 31  1  0  0  0
 32 33  1  0  0  0
 33 34  1  0  0  0
 33 35  1  0  0  0
 33 36  1  0  0  0
 37 38  1  0  0  0
 38 39  1  0  0  0
 38 40  1  0  0  0
 38 41  1  0  0  0
 43 44  1  0  0  0
 43 45  1  0  0  0
 46 47  1  0  0  0
 46 48  1  0  0  0
M  END
>  <ACTIVITY>
6.46

>  <SET>
2

>  <Min_dist>
0.12

>  <Avg_dist>
0.61

$$$$
32-11
  Cerius2 12110214133D 1   1.00000                          
Structure written by Cerius2 SD Exporter
 51 53  0  0  0  0  0  0  0  0999 V2000
   16.0360    7.0980   12.2490 C   0  0  0  0  0  0
   14.7390    7.6590   12.0820 C   0  0  0  0  0  0
   14.0580    7.4790   12.7190 H   0  0  0  0  0  0
   14.4550    8.4760   10.9900 C   0  0  0  0  0  0
   15.4170    8.7250   10.0190 C   0  0  0  0  0  0
   16.6720    8.2010   10.0950 C   0  0  0  0  0  0
   17.0030    7.4330   11.2800 C   0  0  0  0  0  0
   17.9040    7.1550   11.3930 H   0  0  0  0  0  0
   17.6310    8.4120    9.1150 O   0  0  0  0  0  0
   18.9000    7.7940    9.3410 C   0  0  0  0  0  0
   19.3640    8.1630   10.2690 H   0  0  0  0  0  0
   18.8030    6.7000    9.4060 H   0  0  0  0  0  0
   19.5410    8.0510    8.4890 H   0  0  0  0  0  0
   15.0560    9.4900    8.8990 O   0  0  0  0  0  0
   16.0460    9.7460    7.9020 C   0  0  0  0  0  0
   16.2010    8.8750    7.2470 H   0  0  0  0  0  0
   15.6770   10.5820    7.2930 H   0  0  0  0  0  0
   17.0110   10.0270    8.3490 H   0  0  0  0  0  0
   13.1540    8.9830   10.8180 O   0  0  0  0  0  0
   12.8360    9.8200    9.7100 C   0  0  0  0  0  0
   13.7120   10.3640    9.3280 H   0  0  0  0  0  0
   12.3950    9.2320    8.8900 H   0  0  0  0  0  0
   12.0920   10.5520   10.0570 H   0  0  0  0  0  0
   16.3690    6.3880   13.3050 C   0  0  0  0  0  0
   16.7850    5.5800   13.0260 H   0  0  0  0  0  0
   17.0090    6.8870   13.7990 H   0  0  0  0  0  0
   15.2830    5.9410   14.2710 C   0  0  0  0  0  0
   14.7820    6.6920   14.5650 H   0  0  0  0  0  0
   15.6790    5.5090   15.0190 H   0  0  0  0  0  0
   14.4390    5.0390   13.5410 N   0  0  0  0  0  0
   13.0200    4.9610   14.1570 C   0  0  0  0  0  0
   13.0800    4.5460   15.1810 H   0  0  0  0  0  0
   12.6040    5.8150   14.1610 H   0  0  0  0  0  0
   12.2290    3.9660   13.2800 C   0  0  0  0  0  0
   10.8670    3.6190   13.6530 C   0  0  0  0  0  0
   10.1390    2.7480   12.9460 N   0  0  0  0  0  0
   10.6710    2.0900   11.8880 C   0  0  0  0  0  0
   12.0150    2.2140   11.5980 N   0  0  0  0  0  0
   12.7740    3.1200   12.3420 C   0  0  0  0  0  0
   14.2630    3.0670   12.0430 C   0  0  0  0  0  0
   14.5490    2.0240   11.8320 H   0  0  0  0  0  0
   14.4840    3.6400   11.1240 H   0  0  0  0  0  0
   15.0440    3.6510   13.2280 C   0  0  0  0  0  0
   16.1130    3.7280   12.9680 H   0  0  0  0  0  0
   14.9780    2.9870   14.1080 H   0  0  0  0  0  0
    9.9480    1.3140   11.1610 N   0  0  0  0  0  0
    9.0760    1.2020   11.3520 H   0  0  0  0  0  0
   10.3150    0.8830   10.4610 H   0  0  0  0  0  0
   10.2230    4.1590   14.7240 N   0  0  0  0  0  0
   10.6410    4.7640   15.2430 H   0  0  0  0  0  0
    9.3780    3.9100   14.9130 H   0  0  0  0  0  0
  1  2  1  0  0  0
  1  7  2  0  0  0
  1 24  1  0  0  0
  2  3  1  0  0  0
  2  4  2  0  0  0
  4  5  1  0  0  0
  4 19  1  0  0  0
  5  6  2  0  0  0
  5 14  1  0  0  0
  6  7  1  0  0  0
  6  9  1  0  0  0
  7  8  1  0  0  0
  9 10  1  0  0  0
 10 11  1  0  0  0
 10 12  1  0  0  0
 10 13  1  0  0  0
 14 15  1  0  0  0
 15 16  1  0  0  0
 15 17  1  0  0  0
 15 18  1  0  0  0
 19 20  1  0  0  0
 20 21  1  0  0  0
 20 22  1  0  0  0
 20 23  1  0  0  0
 24 25  1  0  0  0
 24 26  1  0  0  0
 24 27  1  0  0  0
 27 28  1  0  0  0
 27 29  1  0  0  0
 27 30  1  0  0  0
 30 31  1  0  0  0
 30 43  1  0  0  0
 31 32  1  0  0  0
 31 33  1  0  0  0
 31 34  1  0  0  0
 34 35  1  0  0  0
 34 39  2  0  0  0
 35 36  2  0  0  0
 35 49  1  0  0  0
 36 37  1  0  0  0
 37 38  2  0  0  0
 37 46  1  0  0  0
 38 39  1  0  0  0
 39 40  1  0  0  0
 40 41  1  0  0  0
 40 42  1  0  0  0
 40 43  1  0  0  0
 43 44  1  0  0  0
 43 45  1  0  0  0
 46 47  1  0  0  0
 46 48  1  0  0  0
 49 50  1  0  0  0
 49 51  1  0  0  0
M  END
>  <ACTIVITY>
5.02

>  <SET>
2

>  <Min_dist>
0.17

>  <Avg_dist>
0.59

$$$$
32-8
  Cerius2 12110214133D 1   1.00000                          
Structure written by Cerius2 SD Exporter
 44 46  0  0  0  0  0  0  0  0999 V2000
   12.4010    3.9580   12.9870 C   0  0  0  0  0  0
   11.0840    3.7940   13.5830 C   0  0  0  0  0  0
   10.2390    2.8370   13.1810 N   0  0  0  0  0  0
   10.6060    1.9280   12.2470 C   0  0  0  0  0  0
   11.9070    1.8940   11.7840 N   0  0  0  0  0  0
   12.7880    2.8900   12.2110 C   0  0  0  0  0  0
   14.2250    2.6740   11.7630 C   0  0  0  0  0  0
   14.4410    1.5930   11.7640 H   0  0  0  0  0  0
   14.3500    3.0120   10.7190 H   0  0  0  0  0  0
   15.1710    3.4520   12.6860 C   0  0  0  0  0  0
   16.2010    3.3980   12.2950 H   0  0  0  0  0  0
   15.1910    3.0050   13.6960 H   0  0  0  0  0  0
   14.6660    4.9120   12.7410 N   0  0  0  0  0  0
   13.3340    5.0670   13.5180 C   0  0  0  0  0  0
   13.5070    4.8860   14.5950 H   0  0  0  0  0  0
   12.9560    5.9270   13.3740 H   0  0  0  0  0  0
   15.7500    5.9080   13.1780 C   0  0  0  0  0  0
   15.5670    6.3650   14.1650 H   0  0  0  0  0  0
   16.7850    5.5610   13.3140 H   0  0  0  0  0  0
   15.6400    7.0030   12.0830 C   0  0  0  0  0  0
   16.8000    7.4570   11.4800 C   0  0  0  0  0  0
   17.9220    6.7580   11.8700 O   0  0  0  0  0  0
   19.1990    7.0840   11.3560 C   0  0  0  0  0  0
   19.8490    6.5020   11.7320 H   0  0  0  0  0  0
   19.1950    6.9850   10.4110 H   0  0  0  0  0  0
   19.4100    7.9820   11.5800 H   0  0  0  0  0  0
   16.7110    8.5190   10.5940 C   0  0  0  0  0  0
   17.4910    8.8400   10.1580 H   0  0  0  0  0  0
   15.4850    9.1280   10.3320 C   0  0  0  0  0  0
   15.4340    9.8480    9.7140 H   0  0  0  0  0  0
   14.3730    8.6590   10.9840 C   0  0  0  0  0  0
   13.0340    9.1200   10.8680 O   0  0  0  0  0  0
   13.0210   10.0030    9.7340 C   0  0  0  0  0  0
   12.1430   10.3430    9.6070 H   0  0  0  0  0  0
   13.6210   10.7230    9.8860 H   0  0  0  0  0  0
   13.2900    9.5250    8.9580 H   0  0  0  0  0  0
   14.4370    7.6050   11.8590 C   0  0  0  0  0  0
   13.6590    7.2930   12.3060 H   0  0  0  0  0  0
    9.7670    1.0600   11.8040 N   0  0  0  0  0  0
    8.9220    1.0520   12.1140 H   0  0  0  0  0  0
   10.0250    0.4620   11.1830 H   0  0  0  0  0  0
   10.6020    4.5990   14.5690 N   0  0  0  0  0  0
   11.1060    5.2740   14.8850 H   0  0  0  0  0  0
    9.7800    4.4550   14.9060 H   0  0  0  0  0  0
  1  2  1  0  0  0
  1  6  2  0  0  0
  1 14  1  0  0  0
  2  3  2  0  0  0
  2 42  1  0  0  0
  3  4  1  0  0  0
  4  5  2  0  0  0
  4 39  1  0  0  0
  5  6  1  0  0  0
  6  7  1  0  0  0
  7  8  1  0  0  0
  7  9  1  0  0  0
  7 10  1  0  0  0
 10 11  1  0  0  0
 10 12  1  0  0  0
 10 13  1  0  0  0
 13 14  1  0  0  0
 13 17  1  0  0  0
 14 15  1  0  0  0
 14 16  1  0  0  0
 17 18  1  0  0  0
 17 19  1  0  0  0
 17 20  1  0  0  0
 20 21  1  0  0  0
 20 37  2  0  0  0
 21 22  1  0  0  0
 21 27  2  0  0  0
 22 23  1  0  0  0
 23 24  1  0  0  0
 23 25  1  0  0  0
 23 26  1  0  0  0
 27 28  1  0  0  0
 27 29  1  0  0  0
 29 30  1  0  0  0
 29 31  2  0  0  0
 31 32  1  0  0  0
 31 37  1  0  0  0
 32 33  1  0  0  0
 33 34  1  0  0  0
 33 35  1  0  0  0
 33 36  1  0  0  0
 37 38  1  0  0  0
 39 40  1  0  0  0
 39 41  1  0  0  0
 42 43  1  0  0  0
 42 44  1  0  0  0
M  END
>  <ACTIVITY>
5.85

>  <SET>
2

>  <Min_dist>
0.14

>  <Avg_dist>
0.59

$$$$
32-9
  Cerius2 12110214133D 1   1.00000                          
Structure written by Cerius2 SD Exporter
 48 50  0  0  0  0  0  0  0  0999 V2000
   12.4010    3.9580   12.9870 C   0  0  0  0  0  0
   11.0840    3.7940   13.5830 C   0  0  0  0  0  0
   10.2390    2.8370   13.1810 N   0  0  0  0  0  0
   10.6060    1.9280   12.2470 C   0  0  0  0  0  0
   11.9070    1.8940   11.7840 N   0  0  0  0  0  0
   12.7880    2.8900   12.2110 C   0  0  0  0  0  0
   14.2250    2.6740   11.7630 C   0  0  0  0  0  0
   14.4410    1.5930   11.7640 H   0  0  0  0  0  0
   14.3500    3.0120   10.7190 H   0  0  0  0  0  0
   15.1710    3.4520   12.6860 C   0  0  0  0  0  0
   16.2010    3.3980   12.2950 H   0  0  0  0  0  0
   15.1910    3.0050   13.6960 H   0  0  0  0  0  0
   14.6660    4.9120   12.7410 N   0  0  0  0  0  0
   13.3340    5.0670   13.5180 C   0  0  0  0  0  0
   13.5070    4.8860   14.5950 H   0  0  0  0  0  0
   12.9560    5.9270   13.3740 H   0  0  0  0  0  0
   15.7500    5.9080   13.1780 C   0  0  0  0  0  0
   15.5670    6.3650   14.1650 H   0  0  0  0  0  0
   16.7850    5.5610   13.3140 H   0  0  0  0  0  0
   15.6400    7.0030   12.0830 C   0  0  0  0  0  0
   16.8000    7.4570   11.4800 C   0  0  0  0  0  0
   17.6320    7.0430   11.6780 H   0  0  0  0  0  0
   16.7110    8.5190   10.5940 C   0  0  0  0  0  0
   15.4850    9.1280   10.3320 C   0  0  0  0  0  0
   14.3730    8.6590   10.9840 C   0  0  0  0  0  0
   13.0340    9.1200   10.8680 O   0  0  0  0  0  0
   13.0210   10.0030    9.7340 C   0  0  0  0  0  0
   12.1430   10.3430    9.6070 H   0  0  0  0  0  0
   13.6210   10.7230    9.8860 H   0  0  0  0  0  0
   13.2900    9.5250    8.9580 H   0  0  0  0  0  0
   14.4370    7.6050   11.8590 C   0  0  0  0  0  0
   13.6590    7.2930   12.3060 H   0  0  0  0  0  0
   15.4160   10.1130    9.4870 O   0  0  0  0  0  0
   16.5840   10.5810    8.8230 C   0  0  0  0  0  0
   17.4500    9.9940    9.1300 H   0  0  0  0  0  0
   16.4480   10.4870    7.7450 H   0  0  0  0  0  0
   16.7480   11.6280    9.0760 H   0  0  0  0  0  0
   17.7780    8.9580    9.9970 O   0  0  0  0  0  0
   19.0440    8.3590   10.2430 C   0  0  0  0  0  0
   18.9390    7.5370   10.9510 H   0  0  0  0  0  0
   19.4520    7.9790    9.3060 H   0  0  0  0  0  0
   19.7240    9.1050   10.6550 H   0  0  0  0  0  0
    9.7670    1.0600   11.8040 N   0  0  0  0  0  0
    8.9220    1.0520   12.1140 H   0  0  0  0  0  0
   10.0250    0.4620   11.1830 H   0  0  0  0  0  0
   10.6020    4.5990   14.5690 N   0  0  0  0  0  0
   11.1060    5.2740   14.8850 H   0  0  0  0  0  0
    9.7800    4.4550   14.9060 H   0  0  0  0  0  0
  1  2  1  0  0  0
  1  6  2  0  0  0
  1 14  1  0  0  0
  2  3  2  0  0  0
  2 46  1  0  0  0
  3  4  1  0  0  0
  4  5  2  0  0  0
  4 43  1  0  0  0
  5  6  1  0  0  0
  6  7  1  0  0  0
  7  8  1  0  0  0
  7  9  1  0  0  0
  7 10  1  0  0  0
 10 11  1  0  0  0
 10 12  1  0  0  0
 10 13  1  0  0  0
 13 14  1  0  0  0
 13 17  1  0  0  0
 14 15  1  0  0  0
 14 16  1  0  0  0
 17 18  1  0  0  0
 17 19  1  0  0  0
 17 20  1  0  0  0
 20 21  1  0  0  0
 20 31  2  0  0  0
 21 22  1  0  0  0
 21 23  2  0  0  0
 23 24  1  0  0  0
 23 38  1  0  0  0
 24 25  2  0  0  0
 24 33  1  0  0  0
 25 26  1  0  0  0
 25 31  1  0  0  0
 26 27  1  0  0  0
 27 28  1  0  0  0
 27 29  1  0  0  0
 27 30  1  0  0  0
 31 32  1  0  0  0
 33 34  1  0  0  0
 34 35  1  0  0  0
 34 36  1  0  0  0
 34 37  1  0  0  0
 38 39  1  0  0  0
 39 40  1  0  0  0
 39 41  1  0  0  0
 39 42  1  0  0  0
 43 44  1  0  0  0
 43 45  1  0  0  0
 46 47  1  0  0  0
 46 48  1  0  0  0
M  END
>  <ACTIVITY>
5.66

>  <SET>
1

>  <Min_dist>
999.9

>  <Avg_dist>
999.9

$$$$
33-1
  Cerius2 12110214133D 1   1.00000                          
Structure written by Cerius2 SD Exporter
 49 51  0  0  0  0  0  0  0  0999 V2000
   10.4840    2.7760   13.2590 N   0  0  0  0  0  0
   10.7250    2.0080   12.1850 C   0  0  0  0  0  0
   11.8310    2.0240   11.4460 N   0  0  0  0  0  0
   12.7210    2.9220   11.8800 C   0  0  0  0  0  0
   12.5990    3.7810   12.9610 C   0  0  0  0  0  0
   11.4050    3.6720   13.6800 C   0  0  0  0  0  0
   11.0920    4.4020   14.7980 N   0  0  0  0  0  0
   11.7170    5.0690   15.2260 H   0  0  0  0  0  0
   10.2010    4.2370   15.2500 H   0  0  0  0  0  0
   13.8090    4.5510   13.0010 C   0  0  0  0  0  0
   14.5790    4.0690   11.9570 C   0  0  0  0  0  0
   15.5680    4.3160   11.5910 H   0  0  0  0  0  0
   13.9270    3.0970   11.2740 O   0  0  0  0  0  0
   14.1870    5.6240   13.9720 C   0  0  0  0  0  0
   14.5060    5.1210   14.8940 H   0  0  0  0  0  0
   13.2980    6.2190   14.2060 H   0  0  0  0  0  0
   15.2300    6.5450   13.5350 N   0  0  0  0  0  0
   16.1010    6.5220   14.0620 H   0  0  0  0  0  0
   15.2300    7.2060   12.3230 C   0  0  0  0  0  0
   16.4540    7.6130   11.7760 C   0  0  0  0  0  0
   17.3850    7.3880   12.2950 H   0  0  0  0  0  0
   16.5190    8.3090   10.5620 C   0  0  0  0  0  0
   17.4920    8.5990   10.1700 H   0  0  0  0  0  0
   15.3500    8.6190    9.8620 C   0  0  0  0  0  0
   14.1190    8.2460   10.4090 C   0  0  0  0  0  0
   13.1810    8.5030    9.9240 H   0  0  0  0  0  0
   14.0660    7.5490   11.6260 C   0  0  0  0  0  0
   13.0830    7.2840   12.0110 H   0  0  0  0  0  0
   15.1620    9.0450    8.6520 C   0  0  0  0  0  0
   14.0140    8.9090    7.9740 N   0  0  0  0  0  0
   13.3640    8.3730    8.2920 H   0  0  0  0  0  0
   13.7180    9.5810    6.7190 C   0  0  0  0  0  0
   14.3080   10.3220    6.6480 H   0  0  0  0  0  0
   12.2870   10.1290    6.6810 C   0  0  0  0  0  0
   12.2300   11.0540    5.7960 O   0  5  0  0  0  0
   11.5630    9.5130    7.5120 O   0  0  0  0  0  0
   13.9020    8.7300    5.4670 C   0  0  0  0  0  0
   13.5600    7.8580    5.6240 H   0  0  0  0  0  0
   13.4580    9.1300    4.7290 H   0  0  0  0  0  0
   15.3730    8.7190    5.2400 C   0  0  0  0  0  0
   15.6780    9.6070    5.0970 H   0  0  0  0  0  0
   15.8060    8.3570    6.0040 H   0  0  0  0  0  0
   15.7050    7.9070    4.0660 C   0  0  0  0  0  0
   16.7650    7.1180    4.0190 O   0  0  0  0  0  0
   14.9390    7.8800    2.9750 O   0  5  0  0  0  0
   16.1000    9.5920    8.0420 O   0  0  0  0  0  0
    9.7460    1.1310   11.8240 N   0  0  0  0  0  0
    9.8780    0.5330   11.0230 H   0  0  0  0  0  0
    8.8900    1.0920   12.3580 H   0  0  0  0  0  0
  1  2  2  0  0  0
  1  6  1  0  0  0
  2  3  1  0  0  0
  2 47  1  0  0  0
  3  4  2  0  0  0
  4  5  1  0  0  0
  4 13  1  0  0  0
  5  6  2  0  0  0
  5 10  1  0  0  0
  6  7  1  0  0  0
  7  8  1  0  0  0
  7  9  1  0  0  0
 10 11  2  0  0  0
 10 14  1  0  0  0
 11 12  1  0  0  0
 11 13  1  0  0  0
 14 15  1  0  0  0
 14 16  1  0  0  0
 14 17  1  0  0  0
 17 18  1  0  0  0
 17 19  1  0  0  0
 19 20  1  0  0  0
 19 27  2  0  0  0
 20 21  1  0  0  0
 20 22  2  0  0  0
 22 23  1  0  0  0
 22 24  1  0  0  0
 24 25  2  0  0  0
 24 29  1  0  0  0
 25 26  1  0  0  0
 25 27  1  0  0  0
 27 28  1  0  0  0
 29 30  1  0  0  0
 29 46  2  0  0  0
 30 31  1  0  0  0
 30 32  1  0  0  0
 32 33  1  0  0  0
 32 34  1  0  0  0
 32 37  1  0  0  0
 34 35  1  0  0  0
 34 36  2  0  0  0
 37 38  1  0  0  0
 37 39  1  0  0  0
 37 40  1  0  0  0
 40 41  1  0  0  0
 40 42  1  0  0  0
 40 43  1  0  0  0
 43 44  2  0  0  0
 43 45  1  0  0  0
 47 48  1  0  0  0
 47 49  1  0  0  0
M  CHG  2  35  -1  45  -1
M  END
>  <ACTIVITY>
5.89

>  <SET>
2

>  <Min_dist>
0.03

>  <Avg_dist>
0.63

$$$$
33-2
  Cerius2 12110214133D 1   1.00000                          
Structure written by Cerius2 SD Exporter
 52 54  0  0  0  0  0  0  0  0999 V2000
   10.4820    2.7710   13.2560 N   0  0  0  0  0  0
   10.7340    1.9880   12.1950 C   0  0  0  0  0  0
   11.8370    2.0150   11.4500 N   0  0  0  0  0  0
   12.7180    2.9250   11.8760 C   0  0  0  0  0  0
   12.5930    3.7860   12.9560 C   0  0  0  0  0  0
   11.3900    3.6870   13.6620 C   0  0  0  0  0  0
   11.0470    4.4610   14.7410 N   0  0  0  0  0  0
   11.6180    5.2120   15.0980 H   0  0  0  0  0  0
   10.1410    4.3140   15.1710 H   0  0  0  0  0  0
   13.8070    4.5470   13.0050 C   0  0  0  0  0  0
   14.5540    4.1100   11.9260 C   0  0  0  0  0  0
   15.5270    4.3890   11.5390 H   0  0  0  0  0  0
   13.9110    3.1270   11.2510 O   0  0  0  0  0  0
   14.1940    5.6130   13.9880 C   0  0  0  0  0  0
   14.5300    5.1420   14.9190 H   0  0  0  0  0  0
   13.2660    6.1380   14.2350 H   0  0  0  0  0  0
   15.2640    6.5410   13.5720 N   0  0  0  0  0  0
   15.2730    7.2030   12.3540 C   0  0  0  0  0  0
   16.4750    7.6180   11.7540 C   0  0  0  0  0  0
   17.4350    7.3990   12.2190 H   0  0  0  0  0  0
   16.5040    8.3060   10.5310 C   0  0  0  0  0  0
   17.4650    8.6000   10.1120 H   0  0  0  0  0  0
   15.3160    8.6200    9.8700 C   0  0  0  0  0  0
   14.1080    8.2140   10.4350 C   0  0  0  0  0  0
   13.1590    8.4140    9.9440 H   0  0  0  0  0  0
   14.0950    7.5200   11.6570 C   0  0  0  0  0  0
   13.1170    7.2680   12.0600 H   0  0  0  0  0  0
   15.1620    9.0450    8.6520 C   0  0  0  0  0  0
   14.0140    8.9090    7.9740 N   0  0  0  0  0  0
   13.3640    8.3730    8.2920 H   0  0  0  0  0  0
   13.7180    9.5810    6.7190 C   0  0  0  0  0  0
   14.3080   10.3220    6.6480 H   0  0  0  0  0  0
   12.2870   10.1290    6.6810 C   0  0  0  0  0  0
   12.2300   11.0540    5.7960 O   0  5  0  0  0  0
   11.5630    9.5130    7.5120 O   0  0  0  0  0  0
   13.9020    8.7300    5.4670 C   0  0  0  0  0  0
   13.5600    7.8580    5.6240 H   0  0  0  0  0  0
   13.4580    9.1300    4.7290 H   0  0  0  0  0  0
   15.3730    8.7190    5.2400 C   0  0  0  0  0  0
   15.6780    9.6070    5.0970 H   0  0  0  0  0  0
   15.8060    8.3570    6.0040 H   0  0  0  0  0  0
   15.7050    7.9070    4.0660 C   0  0  0  0  0  0
   16.7650    7.1180    4.0190 O   0  0  0  0  0  0
   14.9390    7.8800    2.9750 O   0  5  0  0  0  0
   16.1000    9.5920    8.0420 O   0  0  0  0  0  0
   16.3490    6.7600   14.5330 C   0  0  0  0  0  0
   16.5710    7.8280   14.6390 H   0  0  0  0  0  0
   17.2570    6.2310   14.2220 H   0  0  0  0  0  0
   16.0780    6.3930   15.5290 H   0  0  0  0  0  0
    9.7690    1.0900   11.8520 N   0  0  0  0  0  0
    9.9080    0.4810   11.0590 H   0  0  0  0  0  0
    8.9170    1.0440   12.3910 H   0  0  0  0  0  0
  1  2  2  0  0  0
  1  6  1  0  0  0
  2  3  1  0  0  0
  2 50  1  0  0  0
  3  4  2  0  0  0
  4  5  1  0  0  0
  4 13  1  0  0  0
  5  6  2  0  0  0
  5 10  1  0  0  0
  6  7  1  0  0  0
  7  8  1  0  0  0
  7  9  1  0  0  0
 10 11  2  0  0  0
 10 14  1  0  0  0
 11 12  1  0  0  0
 11 13  1  0  0  0
 14 15  1  0  0  0
 14 16  1  0  0  0
 14 17  1  0  0  0
 17 18  1  0  0  0
 17 46  1  0  0  0
 18 19  1  0  0  0
 18 26  2  0  0  0
 19 20  1  0  0  0
 19 21  2  0  0  0
 21 22  1  0  0  0
 21 23  1  0  0  0
 23 24  2  0  0  0
 23 28  1  0  0  0
 24 25  1  0  0  0
 24 26  1  0  0  0
 26 27  1  0  0  0
 28 29  1  0  0  0
 28 45  2  0  0  0
 29 30  1  0  0  0
 29 31  1  0  0  0
 31 32  1  0  0  0
 31 33  1  0  0  0
 31 36  1  0  0  0
 33 34  1  0  0  0
 33 35  2  0  0  0
 36 37  1  0  0  0
 36 38  1  0  0  0
 36 39  1  0  0  0
 39 40  1  0  0  0
 39 41  1  0  0  0
 39 42  1  0  0  0
 42 43  2  0  0  0
 42 44  1  0  0  0
 46 47  1  0  0  0
 46 48  1  0  0  0
 46 49  1  0  0  0
 50 51  1  0  0  0
 50 52  1  0  0  0
M  CHG  2  34  -1  44  -1
M  END
>  <ACTIVITY>
6.37

>  <SET>
1

>  <Min_dist>
999.9

>  <Avg_dist>
999.9

$$$$
33-3
  Cerius2 12110214133D 1   1.00000                          
Structure written by Cerius2 SD Exporter
 44 46  0  0  0  0  0  0  0  0999 V2000
   10.4890    2.7830   13.2670 N   0  0  0  0  0  0
   10.7180    2.0330   12.1780 C   0  0  0  0  0  0
   11.8250    2.0450   11.4400 N   0  0  0  0  0  0
   12.7290    2.9210   11.8910 C   0  0  0  0  0  0
   12.6200    3.7630   12.9880 C   0  0  0  0  0  0
   11.4240    3.6570   13.7050 C   0  0  0  0  0  0
   11.1210    4.3680   14.8370 N   0  0  0  0  0  0
   11.7570    5.0110   15.2840 H   0  0  0  0  0  0
   10.2290    4.1990   15.2890 H   0  0  0  0  0  0
   13.8400    4.5140   13.0400 C   0  0  0  0  0  0
   14.6040    4.0380   11.9900 C   0  0  0  0  0  0
   15.5970    4.2770   11.6270 H   0  0  0  0  0  0
   13.9380    3.0880   11.2890 O   0  0  0  0  0  0
   14.2350    5.5690   14.0240 C   0  0  0  0  0  0
   14.5990    5.0510   14.9200 H   0  0  0  0  0  0
   13.3450    6.1410   14.3070 H   0  0  0  0  0  0
   15.2420    6.5220   13.5700 N   0  0  0  0  0  0
   16.1050    6.5520   14.1090 H   0  0  0  0  0  0
   15.2190    7.1750   12.3520 C   0  0  0  0  0  0
   16.4360    7.5810   11.7880 C   0  0  0  0  0  0
   17.3720    7.3680   12.3010 H   0  0  0  0  0  0
   16.4720    8.2530   10.5660 C   0  0  0  0  0  0
   15.2850    8.5880    9.9130 C   0  0  0  0  0  0
   14.0530    8.1900   10.4470 C   0  0  0  0  0  0
   14.0340    7.4940   11.6660 C   0  0  0  0  0  0
   13.0860    7.1890   12.0950 H   0  0  0  0  0  0
   12.9440    8.5270    9.7140 O   0  0  0  0  0  0
   13.1590    9.0760    8.4160 C   0  0  0  0  0  0
   12.1780    9.2790    7.9750 H   0  0  0  0  0  0
   13.6740    8.3610    7.7660 H   0  0  0  0  0  0
   13.7010   10.0250    8.4750 H   0  0  0  0  0  0
   15.3360    9.2430    8.7050 O   0  0  0  0  0  0
   16.7000    9.4730    8.3350 C   0  0  0  0  0  0
   16.6990   10.0090    7.3820 H   0  0  0  0  0  0
   17.2360    8.5290    8.1930 H   0  0  0  0  0  0
   17.2130   10.0960    9.0750 H   0  0  0  0  0  0
   17.6830    8.6450   10.0540 O   0  0  0  0  0  0
   18.7390    8.2010   10.9130 C   0  0  0  0  0  0
   19.6880    8.4860   10.4500 H   0  0  0  0  0  0
   18.7280    7.1120   11.0250 H   0  0  0  0  0  0
   18.6800    8.6880   11.8930 H   0  0  0  0  0  0
    9.7260    1.1790   11.8000 N   0  0  0  0  0  0
    9.8490    0.5930   10.9870 H   0  0  0  0  0  0
    8.8700    1.1430   12.3330 H   0  0  0  0  0  0
  1  2  2  0  0  0
  1  6  1  0  0  0
  2  3  1  0  0  0
  2 42  1  0  0  0
  3  4  2  0  0  0
  4  5  1  0  0  0
  4 13  1  0  0  0
  5  6  2  0  0  0
  5 10  1  0  0  0
  6  7  1  0  0  0
  7  8  1  0  0  0
  7  9  1  0  0  0
 10 11  2  0  0  0
 10 14  1  0  0  0
 11 12  1  0  0  0
 11 13  1  0  0  0
 14 15  1  0  0  0
 14 16  1  0  0  0
 14 17  1  0  0  0
 17 18  1  0  0  0
 17 19  1  0  0  0
 19 20  1  0  0  0
 19 25  2  0  0  0
 20 21  1  0  0  0
 20 22  2  0  0  0
 22 23  1  0  0  0
 22 37  1  0  0  0
 23 24  2  0  0  0
 23 32  1  0  0  0
 24 25  1  0  0  0
 24 27  1  0  0  0
 25 26  1  0  0  0
 27 28  1  0  0  0
 28 29  1  0  0  0
 28 30  1  0  0  0
 28 31  1  0  0  0
 32 33  1  0  0  0
 33 34  1  0  0  0
 33 35  1  0  0  0
 33 36  1  0  0  0
 37 38  1  0  0  0
 38 39  1  0  0  0
 38 40  1  0  0  0
 38 41  1  0  0  0
 42 43  1  0  0  0
 42 44  1  0  0  0
M  END
>  <ACTIVITY>
3.3

>  <SET>
3

>  <Min_dist>
0.14

>  <Avg_dist>
0.52

$$$$
33-5
  Cerius2 12110214133D 1   1.00000                          
Structure written by Cerius2 SD Exporter
 32 34  0  0  0  0  0  0  0  0999 V2000
   10.4870    2.7790   13.2630 N   0  0  0  0  0  0
   10.7240    2.0090   12.1890 C   0  0  0  0  0  0
   11.8270    2.0220   11.4460 N   0  0  0  0  0  0
   12.7210    2.9190   11.8760 C   0  0  0  0  0  0
   12.6040    3.7800   12.9560 C   0  0  0  0  0  0
   11.4110    3.6750   13.6780 C   0  0  0  0  0  0
   11.1040    4.4120   14.7930 N   0  0  0  0  0  0
   11.7320    5.0800   15.2140 H   0  0  0  0  0  0
   10.2140    4.2510   15.2500 H   0  0  0  0  0  0
   13.8150    4.5450   12.9950 C   0  0  0  0  0  0
   14.5820    4.0630   11.9490 C   0  0  0  0  0  0
   15.5710    4.3060   11.5800 H   0  0  0  0  0  0
   13.9250    3.0920   11.2670 O   0  0  0  0  0  0
   14.1890    5.6150   13.9720 C   0  0  0  0  0  0
   14.5210    5.1080   14.8870 H   0  0  0  0  0  0
   13.2900    6.1920   14.2180 H   0  0  0  0  0  0
   15.2150    6.5580   13.5410 N   0  0  0  0  0  0
   16.0730    6.5720   14.0890 H   0  0  0  0  0  0
   15.2200    7.2120   12.3250 C   0  0  0  0  0  0
   13.9920    7.5010   11.7130 C   0  0  0  0  0  0
   13.0590    7.2310   12.2070 H   0  0  0  0  0  0
   13.9260    8.1350   10.4670 C   0  0  0  0  0  0
   12.9530    8.3450   10.0290 H   0  0  0  0  0  0
   15.0980    8.4860    9.8010 C   0  0  0  0  0  0
   16.3320    8.1960   10.3860 C   0  0  0  0  0  0
   16.3870    7.5600   11.6350 C   0  0  0  0  0  0
   17.3630    7.3450   12.0620 H   0  0  0  0  0  0
   17.8310    8.5940    9.6180 Cl  0  0  0  0  0  0
   14.9560    9.2670    8.2660 Cl  0  0  0  0  0  0
    9.7430    1.1320   11.8340 N   0  0  0  0  0  0
    9.8730    0.5290   11.0350 H   0  0  0  0  0  0
    8.8920    1.0910   12.3750 H   0  0  0  0  0  0
  1  2  2  0  0  0
  1  6  1  0  0  0
  2  3  1  0  0  0
  2 30  1  0  0  0
  3  4  2  0  0  0
  4  5  1  0  0  0
  4 13  1  0  0  0
  5  6  2  0  0  0
  5 10  1  0  0  0
  6  7  1  0  0  0
  7  8  1  0  0  0
  7  9  1  0  0  0
 10 11  2  0  0  0
 10 14  1  0  0  0
 11 12  1  0  0  0
 11 13  1  0  0  0
 14 15  1  0  0  0
 14 16  1  0  0  0
 14 17  1  0  0  0
 17 18  1  0  0  0
 17 19  1  0  0  0
 19 20  1  0  0  0
 19 26  2  0  0  0
 20 21  1  0  0  0
 20 22  2  0  0  0
 22 23  1  0  0  0
 22 24  1  0  0  0
 24 25  2  0  0  0
 24 29  1  0  0  0
 25 26  1  0  0  0
 25 28  1  0  0  0
 26 27  1  0  0  0
 30 31  1  0  0  0
 30 32  1  0  0  0
M  END
>  <ACTIVITY>
4.45

>  <SET>
2

>  <Min_dist>
0.08

>  <Avg_dist>
0.54

$$$$
33-6
  Cerius2 12110214133D 1   1.00000                          
Structure written by Cerius2 SD Exporter
 40 42  0  0  0  0  0  0  0  0999 V2000
   10.4660    2.7320   13.2480 N   0  0  0  0  0  0
   10.7430    1.9540   12.1900 C   0  0  0  0  0  0
   11.8540    1.9980   11.4560 N   0  0  0  0  0  0
   12.7090    2.9330   11.8810 C   0  0  0  0  0  0
   12.5460    3.8030   12.9460 C   0  0  0  0  0  0
   11.3460    3.6790   13.6490 C   0  0  0  0  0  0
   10.9950    4.4630   14.7180 N   0  0  0  0  0  0
   11.5450    5.2620   15.0050 H   0  0  0  0  0  0
   10.0980    4.3150   15.1660 H   0  0  0  0  0  0
   13.7310    4.6060   12.9940 C   0  0  0  0  0  0
   14.5170    4.1620   11.9470 C   0  0  0  0  0  0
   15.4900    4.4550   11.5740 H   0  0  0  0  0  0
   13.9080    3.1550   11.2740 O   0  0  0  0  0  0
   14.0700    5.6990   13.9550 C   0  0  0  0  0  0
   14.2840    5.2410   14.9300 H   0  0  0  0  0  0
   13.1800    6.3270   14.0770 H   0  0  0  0  0  0
   15.2050    6.5140   13.5510 N   0  0  0  0  0  0
   15.9150    6.6620   14.2660 H   0  0  0  0  0  0
   15.3410    7.2050   12.3560 C   0  0  0  0  0  0
   14.1510    7.4970   11.6570 C   0  0  0  0  0  0
   13.1960    7.1790   12.0740 H   0  0  0  0  0  0
   14.1430    8.1720   10.4300 C   0  0  0  0  0  0
   15.3490    8.5810    9.8810 C   0  0  0  0  0  0
   15.4040    9.1130    8.9350 H   0  0  0  0  0  0
   16.5470    8.3140   10.5520 C   0  0  0  0  0  0
   17.4660    8.6430   10.0720 H   0  0  0  0  0  0
   16.5560    7.6390   11.7830 C   0  0  0  0  0  0
   17.7150    7.3560   12.4620 O   0  0  0  0  0  0
   18.9460    7.7370   11.8490 C   0  0  0  0  0  0
   19.7400    7.6070   12.5910 H   0  0  0  0  0  0
   18.9340    8.7920   11.5530 H   0  0  0  0  0  0
   19.1750    7.0880   10.9980 H   0  0  0  0  0  0
   12.9040    8.3630    9.8840 O   0  0  0  0  0  0
   12.8590    8.9850    8.6000 C   0  0  0  0  0  0
   11.8120    9.0170    8.2820 H   0  0  0  0  0  0
   13.4170    8.4020    7.8600 H   0  0  0  0  0  0
   13.2220   10.0170    8.6490 H   0  0  0  0  0  0
    9.7970    1.0430   11.8270 N   0  0  0  0  0  0
    9.9550    0.4500   11.0260 H   0  0  0  0  0  0
    8.9370    0.9830   12.3510 H   0  0  0  0  0  0
  1  2  2  0  0  0
  1  6  1  0  0  0
  2  3  1  0  0  0
  2 38  1  0  0  0
  3  4  2  0  0  0
  4  5  1  0  0  0
  4 13  1  0  0  0
  5  6  2  0  0  0
  5 10  1  0  0  0
  6  7  1  0  0  0
  7  8  1  0  0  0
  7  9  1  0  0  0
 10 11  2  0  0  0
 10 14  1  0  0  0
 11 12  1  0  0  0
 11 13  1  0  0  0
 14 15  1  0  0  0
 14 16  1  0  0  0
 14 17  1  0  0  0
 17 18  1  0  0  0
 17 19  1  0  0  0
 19 20  1  0  0  0
 19 27  2  0  0  0
 20 21  1  0  0  0
 20 22  2  0  0  0
 22 23  1  0  0  0
 22 33  1  0  0  0
 23 24  1  0  0  0
 23 25  2  0  0  0
 25 26  1  0  0  0
 25 27  1  0  0  0
 27 28  1  0  0  0
 28 29  1  0  0  0
 29 30  1  0  0  0
 29 31  1  0  0  0
 29 32  1  0  0  0
 33 34  1  0  0  0
 34 35  1  0  0  0
 34 36  1  0  0  0
 34 37  1  0  0  0
 38 39  1  0  0  0
 38 40  1  0  0  0
M  END
>  <ACTIVITY>
3.3

>  <SET>
3

>  <Min_dist>
0.19

>  <Avg_dist>
0.53

$$$$
34-2
  Cerius2 12110214133D 1   1.00000                          
Structure written by Cerius2 SD Exporter
 41 43  0  0  0  0  0  0  0  0999 V2000
   10.4930    2.7950   13.2650 N   0  0  0  0  0  0
   10.7320    2.0030   12.2080 C   0  0  0  0  0  0
   11.8410    2.0030   11.4650 N   0  0  0  0  0  0
   12.7440    2.9070   11.8730 C   0  0  0  0  0  0
   12.6200    3.7870   12.9380 C   0  0  0  0  0  0
   11.4200    3.6980   13.6610 C   0  0  0  0  0  0
   11.1090    4.4620   14.7580 N   0  0  0  0  0  0
   11.7350    5.1430   15.1600 H   0  0  0  0  0  0
   10.2170    4.3110   15.2150 H   0  0  0  0  0  0
   13.8290    4.5670   12.9830 C   0  0  0  0  0  0
   14.6340    4.1000   11.9540 C   0  0  0  0  0  0
   15.6270    4.3860   11.6310 H   0  0  0  0  0  0
   13.9630    3.1060   11.2880 N   0  0  0  0  0  0
   14.3110    2.5890   10.4900 H   0  0  0  0  0  0
   14.1440    5.6570   13.9720 C   0  0  0  0  0  0
   14.4160    5.1660   14.9150 H   0  0  0  0  0  0
   13.2260    6.2320   14.1430 H   0  0  0  0  0  0
   15.1970    6.5940   13.6010 N   0  0  0  0  0  0
   15.9940    6.6440   14.2310 H   0  0  0  0  0  0
   15.2770    7.2550   12.3920 C   0  0  0  0  0  0
   14.0940    7.5350   11.7000 C   0  0  0  0  0  0
   13.1320    7.2470   12.1250 H   0  0  0  0  0  0
   14.1030    8.1870   10.4610 C   0  0  0  0  0  0
   13.1450    8.3740    9.9850 H   0  0  0  0  0  0
   15.3100    8.5680    9.8780 C   0  0  0  0  0  0
   16.5150    8.2860   10.5480 C   0  0  0  0  0  0
   16.4850    7.6320   11.7920 C   0  0  0  0  0  0
   17.4140    7.4130   12.3080 H   0  0  0  0  0  0
   17.6640    8.6870    9.9080 O   0  0  0  0  0  0
   18.9060    8.4190   10.5540 C   0  0  0  0  0  0
   19.7050    8.7960    9.9080 H   0  0  0  0  0  0
   19.0600    7.3430   10.6800 H   0  0  0  0  0  0
   18.9740    8.9480   11.5100 H   0  0  0  0  0  0
   15.4250    9.2100    8.6700 O   0  0  0  0  0  0
   16.7410    9.5280    8.2220 C   0  0  0  0  0  0
   16.6510   10.0190    7.2480 H   0  0  0  0  0  0
   17.3400    8.6220    8.0840 H   0  0  0  0  0  0
   17.2300   10.2300    8.9050 H   0  0  0  0  0  0
    9.7540    1.1190   11.8640 N   0  0  0  0  0  0
    9.8890    0.5070   11.0740 H   0  0  0  0  0  0
    8.8980    1.0910   12.3980 H   0  0  0  0  0  0
  1  2  2  0  0  0
  1  6  1  0  0  0
  2  3  1  0  0  0
  2 39  1  0  0  0
  3  4  2  0  0  0
  4  5  1  0  0  0
  4 13  1  0  0  0
  5  6  2  0  0  0
  5 10  1  0  0  0
  6  7  1  0  0  0
  7  8  1  0  0  0
  7  9  1  0  0  0
 10 11  2  0  0  0
 10 15  1  0  0  0
 11 12  1  0  0  0
 11 13  1  0  0  0
 13 14  1  0  0  0
 15 16  1  0  0  0
 15 17  1  0  0  0
 15 18  1  0  0  0
 18 19  1  0  0  0
 18 20  1  0  0  0
 20 21  1  0  0  0
 20 27  2  0  0  0
 21 22  1  0  0  0
 21 23  2  0  0  0
 23 24  1  0  0  0
 23 25  1  0  0  0
 25 26  2  0  0  0
 25 34  1  0  0  0
 26 27  1  0  0  0
 26 29  1  0  0  0
 27 28  1  0  0  0
 29 30  1  0  0  0
 30 31  1  0  0  0
 30 32  1  0  0  0
 30 33  1  0  0  0
 34 35  1  0  0  0
 35 36  1  0  0  0
 35 37  1  0  0  0
 35 38  1  0  0  0
 39 40  1  0  0  0
 39 41  1  0  0  0
M  END
>  <ACTIVITY>
3.94

>  <SET>
1

>  <Min_dist>
999.9

>  <Avg_dist>
999.9

$$$$
34-3
  Cerius2 12110214133D 1   1.00000                          
Structure written by Cerius2 SD Exporter
 37 39  0  0  0  0  0  0  0  0999 V2000
   10.4980    2.8010   13.2720 N   0  0  0  0  0  0
   10.7270    2.0160   12.2080 C   0  0  0  0  0  0
   11.8340    2.0110   11.4630 N   0  0  0  0  0  0
   12.7460    2.9030   11.8760 C   0  0  0  0  0  0
   12.6330    3.7750   12.9480 C   0  0  0  0  0  0
   11.4330    3.6920   13.6730 C   0  0  0  0  0  0
   11.1330    4.4500   14.7770 N   0  0  0  0  0  0
   11.7670    5.1220   15.1820 H   0  0  0  0  0  0
   10.2400    4.3060   15.2330 H   0  0  0  0  0  0
   13.8500    4.5420   12.9970 C   0  0  0  0  0  0
   14.6480    4.0750   11.9630 C   0  0  0  0  0  0
   15.6450    4.3540   11.6410 H   0  0  0  0  0  0
   13.9660    3.0940   11.2900 N   0  0  0  0  0  0
   14.3070    2.5800   10.4870 H   0  0  0  0  0  0
   14.1800    5.6210   13.9940 C   0  0  0  0  0  0
   14.5220    5.1200   14.9090 H   0  0  0  0  0  0
   13.2530    6.1580   14.2300 H   0  0  0  0  0  0
   15.1770    6.6040   13.5870 N   0  0  0  0  0  0
   15.9840    6.7050   14.1980 H   0  0  0  0  0  0
   15.1980    7.2390   12.3640 C   0  0  0  0  0  0
   16.4310    7.6180   11.8170 C   0  0  0  0  0  0
   17.3540    7.3950   12.3520 H   0  0  0  0  0  0
   16.5210    8.2840   10.5860 C   0  0  0  0  0  0
   17.5120    8.5440   10.2230 H   0  0  0  0  0  0
   15.3670    8.5940    9.8750 C   0  0  0  0  0  0
   14.1310    8.2330   10.4100 C   0  0  0  0  0  0
   13.2140    8.4690    9.8720 H   0  0  0  0  0  0
   14.0490    7.5670   11.6410 C   0  0  0  0  0  0
   13.0590    7.3130   12.0120 H   0  0  0  0  0  0
   15.3100    9.2360    8.6700 O   0  0  0  0  0  0
   16.5560    9.6210    8.0900 C   0  0  0  0  0  0
   16.3410   10.1140    7.1370 H   0  0  0  0  0  0
   17.1790    8.7460    7.8800 H   0  0  0  0  0  0
   17.0810   10.3400    8.7270 H   0  0  0  0  0  0
    9.7400    1.1430   11.8610 N   0  0  0  0  0  0
    9.8700    0.5320   11.0680 H   0  0  0  0  0  0
    8.8880    1.1140   12.4000 H   0  0  0  0  0  0
  1  2  2  0  0  0
  1  6  1  0  0  0
  2  3  1  0  0  0
  2 35  1  0  0  0
  3  4  2  0  0  0
  4  5  1  0  0  0
  4 13  1  0  0  0
  5  6  2  0  0  0
  5 10  1  0  0  0
  6  7  1  0  0  0
  7  8  1  0  0  0
  7  9  1  0  0  0
 10 11  2  0  0  0
 10 15  1  0  0  0
 11 12  1  0  0  0
 11 13  1  0  0  0
 13 14  1  0  0  0
 15 16  1  0  0  0
 15 17  1  0  0  0
 15 18  1  0  0  0
 18 19  1  0  0  0
 18 20  1  0  0  0
 20 21  1  0  0  0
 20 28  2  0  0  0
 21 22  1  0  0  0
 21 23  2  0  0  0
 23 24  1  0  0  0
 23 25  1  0  0  0
 25 26  2  0  0  0
 25 30  1  0  0  0
 26 27  1  0  0  0
 26 28  1  0  0  0
 28 29  1  0  0  0
 30 31  1  0  0  0
 31 32  1  0  0  0
 31 33  1  0  0  0
 31 34  1  0  0  0
 35 36  1  0  0  0
 35 37  1  0  0  0
M  END
>  <ACTIVITY>
4.2

>  <SET>
2

>  <Min_dist>
0.12

>  <Avg_dist>
0.46

$$$$
34-4
  Cerius2 12110214133D 1   1.00000                          
Structure written by Cerius2 SD Exporter
 41 43  0  0  0  0  0  0  0  0999 V2000
   10.4760    2.7620   13.2500 N   0  0  0  0  0  0
   10.7240    1.9730   12.1930 C   0  0  0  0  0  0
   11.8320    1.9880   11.4480 N   0  0  0  0  0  0
   12.7210    2.9060   11.8520 C   0  0  0  0  0  0
   12.5870    3.7850   12.9160 C   0  0  0  0  0  0
   11.3900    3.6790   13.6430 C   0  0  0  0  0  0
   11.0720    4.4380   14.7410 N   0  0  0  0  0  0
   11.6910    5.1270   15.1410 H   0  0  0  0  0  0
   10.1830    4.2760   15.2000 H   0  0  0  0  0  0
   13.7830    4.5840   12.9570 C   0  0  0  0  0  0
   14.5950    4.1250   11.9290 C   0  0  0  0  0  0
   15.5840    4.4240   11.6050 H   0  0  0  0  0  0
   13.9370    3.1210   11.2650 N   0  0  0  0  0  0
   14.2900    2.6070   10.4680 H   0  0  0  0  0  0
   14.0830    5.6820   13.9460 C   0  0  0  0  0  0
   14.3270    5.1870   14.8940 H   0  0  0  0  0  0
   13.1640    6.2650   14.0760 H   0  0  0  0  0  0
   15.1550    6.6010   13.5920 N   0  0  0  0  0  0
   15.9170    6.6640   14.2640 H   0  0  0  0  0  0
   15.3090    7.2580   12.3800 C   0  0  0  0  0  0
   14.1280    7.5380   11.6620 C   0  0  0  0  0  0
   13.1660    7.2470   12.0840 H   0  0  0  0  0  0
   14.1350    8.1820   10.4200 C   0  0  0  0  0  0
   15.3510    8.5560    9.8640 C   0  0  0  0  0  0
   15.4170    9.0600    8.9040 H   0  0  0  0  0  0
   16.5420    8.2840   10.5450 C   0  0  0  0  0  0
   17.4660    8.5990   10.0660 H   0  0  0  0  0  0
   16.5370    7.6370   11.7910 C   0  0  0  0  0  0
   17.6860    7.3570   12.4890 O   0  0  0  0  0  0
   18.9340    7.7120   11.8980 C   0  0  0  0  0  0
   19.7280    7.3730   12.5710 H   0  0  0  0  0  0
   19.0260    8.7980   11.7970 H   0  0  0  0  0  0
   19.0750    7.2060   10.9380 H   0  0  0  0  0  0
   12.9010    8.3810    9.8660 O   0  0  0  0  0  0
   12.8670    8.9980    8.5790 C   0  0  0  0  0  0
   11.8180    9.0890    8.2820 H   0  0  0  0  0  0
   13.3730    8.3760    7.8330 H   0  0  0  0  0  0
   13.2930   10.0050    8.6140 H   0  0  0  0  0  0
    9.7580    1.0740   11.8530 N   0  0  0  0  0  0
    9.9010    0.4610   11.0640 H   0  0  0  0  0  0
    8.9050    1.0320   12.3900 H   0  0  0  0  0  0
  1  2  2  0  0  0
  1  6  1  0  0  0
  2  3  1  0  0  0
  2 39  1  0  0  0
  3  4  2  0  0  0
  4  5  1  0  0  0
  4 13  1  0  0  0
  5  6  2  0  0  0
  5 10  1  0  0  0
  6  7  1  0  0  0
  7  8  1  0  0  0
  7  9  1  0  0  0
 10 11  2  0  0  0
 10 15  1  0  0  0
 11 12  1  0  0  0
 11 13  1  0  0  0
 13 14  1  0  0  0
 15 16  1  0  0  0
 15 17  1  0  0  0
 15 18  1  0  0  0
 18 19  1  0  0  0
 18 20  1  0  0  0
 20 21  1  0  0  0
 20 28  2  0  0  0
 21 22  1  0  0  0
 21 23  2  0  0  0
 23 24  1  0  0  0
 23 34  1  0  0  0
 24 25  1  0  0  0
 24 26  2  0  0  0
 26 27  1  0  0  0
 26 28  1  0  0  0
 28 29  1  0  0  0
 29 30  1  0  0  0
 30 31  1  0  0  0
 30 32  1  0  0  0
 30 33  1  0  0  0
 34 35  1  0  0  0
 35 36  1  0  0  0
 35 37  1  0  0  0
 35 38  1  0  0  0
 39 40  1  0  0  0
 39 41  1  0  0  0
M  END
>  <ACTIVITY>
3.81

>  <SET>
1

>  <Min_dist>
999.9

>  <Avg_dist>
999.9

$$$$
34-5
  Cerius2 12110214133D 1   1.00000                          
Structure written by Cerius2 SD Exporter
 47 49  0  0  0  0  0  0  0  0999 V2000
   10.4640    2.7470   13.2430 N   0  0  0  0  0  0
   10.7220    1.9750   12.1770 C   0  0  0  0  0  0
   11.8410    1.9960   11.4500 N   0  0  0  0  0  0
   12.7250    2.9090   11.8750 C   0  0  0  0  0  0
   12.5760    3.7810   12.9450 C   0  0  0  0  0  0
   11.3750    3.6570   13.6620 C   0  0  0  0  0  0
   11.0430    4.3830   14.7780 N   0  0  0  0  0  0
   11.6680    5.0360   15.2260 H   0  0  0  0  0  0
   10.1530    4.1970   15.2260 H   0  0  0  0  0  0
   13.7650    4.5920   12.9910 C   0  0  0  0  0  0
   14.5940    4.1290   11.9780 C   0  0  0  0  0  0
   15.5860    4.4370   11.6690 H   0  0  0  0  0  0
   13.9490    3.1250   11.3060 N   0  0  0  0  0  0
   14.3120    2.6140   10.5100 H   0  0  0  0  0  0
   14.0690    5.7130   13.9510 C   0  0  0  0  0  0
   14.2800    5.2480   14.9220 H   0  0  0  0  0  0
   13.1730    6.3350   14.0410 H   0  0  0  0  0  0
   15.1740    6.5840   13.5700 N   0  0  0  0  0  0
   15.9610    6.5930   14.2160 H   0  0  0  0  0  0
   15.3220    7.2450   12.3600 C   0  0  0  0  0  0
   14.1390    7.5250   11.6450 C   0  0  0  0  0  0
   13.1790    7.2240   12.0650 H   0  0  0  0  0  0
   14.1420    8.1860   10.4130 C   0  0  0  0  0  0
   15.3540    8.5790    9.8640 C   0  0  0  0  0  0
   15.4160    9.1000    8.9120 H   0  0  0  0  0  0
   16.5470    8.3070   10.5410 C   0  0  0  0  0  0
   17.4680    8.6370   10.0670 H   0  0  0  0  0  0
   16.5460    7.6420   11.7770 C   0  0  0  0  0  0
   17.6960    7.3560   12.4700 O   0  0  0  0  0  0
   18.9490    7.7190   11.8850 C   0  0  0  0  0  0
   19.0290    8.8090   11.8130 H   0  0  0  0  0  0
   19.0570    7.2600   10.8960 H   0  0  0  0  0  0
   20.0480    7.2000   12.7940 C   0  0  0  0  0  0
   21.0350    7.4520   12.3960 H   0  0  0  0  0  0
   19.9770    6.1120   12.9030 H   0  0  0  0  0  0
   19.9520    7.6280   13.7980 H   0  0  0  0  0  0
   12.9060    8.3840    9.8610 O   0  0  0  0  0  0
   12.8620    9.0010    8.5700 C   0  0  0  0  0  0
   13.3790    8.3760    7.8330 H   0  0  0  0  0  0
   13.3190    9.9970    8.6090 H   0  0  0  0  0  0
   11.4040    9.1390    8.1690 C   0  0  0  0  0  0
   11.3120    9.6020    7.1830 H   0  0  0  0  0  0
   10.8600    9.7490    8.8980 H   0  0  0  0  0  0
   10.9160    8.1590    8.1460 H   0  0  0  0  0  0
    9.7560    1.0880   11.8070 N   0  0  0  0  0  0
    9.9020    0.4980   11.0010 H   0  0  0  0  0  0
    8.8900    1.0470   12.3240 H   0  0  0  0  0  0
  1  2  2  0  0  0
  1  6  1  0  0  0
  2  3  1  0  0  0
  2 45  1  0  0  0
  3  4  2  0  0  0
  4  5  1  0  0  0
  4 13  1  0  0  0
  5  6  2  0  0  0
  5 10  1  0  0  0
  6  7  1  0  0  0
  7  8  1  0  0  0
  7  9  1  0  0  0
 10 11  2  0  0  0
 10 15  1  0  0  0
 11 12  1  0  0  0
 11 13  1  0  0  0
 13 14  1  0  0  0
 15 16  1  0  0  0
 15 17  1  0  0  0
 15 18  1  0  0  0
 18 19  1  0  0  0
 18 20  1  0  0  0
 20 21  1  0  0  0
 20 28  2  0  0  0
 21 22  1  0  0  0
 21 23  2  0  0  0
 23 24  1  0  0  0
 23 37  1  0  0  0
 24 25  1  0  0  0
 24 26  2  0  0  0
 26 27  1  0  0  0
 26 28  1  0  0  0
 28 29  1  0  0  0
 29 30  1  0  0  0
 30 31  1  0  0  0
 30 32  1  0  0  0
 30 33  1  0  0  0
 33 34  1  0  0  0
 33 35  1  0  0  0
 33 36  1  0  0  0
 37 38  1  0  0  0
 38 39  1  0  0  0
 38 40  1  0  0  0
 38 41  1  0  0  0
 41 42  1  0  0  0
 41 43  1  0  0  0
 41 44  1  0  0  0
 45 46  1  0  0  0
 45 47  1  0  0  0
M  END
>  <ACTIVITY>
4.15

>  <SET>
2

>  <Min_dist>
0.04

>  <Avg_dist>
0.48

$$$$
34-6
  Cerius2 12110214133D 1   1.00000                          
Structure written by Cerius2 SD Exporter
 33 35  0  0  0  0  0  0  0  0999 V2000
   10.4950    2.7900   13.2670 N   0  0  0  0  0  0
   10.7170    2.0050   12.2010 C   0  0  0  0  0  0
   11.8180    2.0020   11.4470 N   0  0  0  0  0  0
   12.7330    2.8930   11.8540 C   0  0  0  0  0  0
   12.6280    3.7640   12.9290 C   0  0  0  0  0  0
   11.4340    3.6810   13.6620 C   0  0  0  0  0  0
   11.1400    4.4390   14.7670 N   0  0  0  0  0  0
   11.7750    5.1140   15.1660 H   0  0  0  0  0  0
   10.2500    4.2960   15.2300 H   0  0  0  0  0  0
   13.8460    4.5300   12.9720 C   0  0  0  0  0  0
   14.6360    4.0660   11.9290 C   0  0  0  0  0  0
   15.6300    4.3440   11.6000 H   0  0  0  0  0  0
   13.9490    3.0860   11.2590 N   0  0  0  0  0  0
   14.2830    2.5740   10.4530 H   0  0  0  0  0  0
   14.1830    5.6050   13.9700 C   0  0  0  0  0  0
   14.5270    5.1010   14.8810 H   0  0  0  0  0  0
   13.2580    6.1430   14.2110 H   0  0  0  0  0  0
   15.1810    6.5870   13.5630 N   0  0  0  0  0  0
   15.9840    6.6920   14.1790 H   0  0  0  0  0  0
   15.2010    7.2340   12.3450 C   0  0  0  0  0  0
   13.9830    7.5180   11.7130 C   0  0  0  0  0  0
   13.0430    7.2450   12.1920 H   0  0  0  0  0  0
   13.9340    8.1540   10.4670 C   0  0  0  0  0  0
   12.9680    8.3600   10.0130 H   0  0  0  0  0  0
   15.1150    8.5130    9.8220 C   0  0  0  0  0  0
   16.3410    8.2310   10.4280 C   0  0  0  0  0  0
   16.3780    7.5930   11.6780 C   0  0  0  0  0  0
   17.3480    7.3850   12.1230 H   0  0  0  0  0  0
   17.8510    8.6410    9.6880 Cl  0  0  0  0  0  0
   14.9960    9.2960    8.2860 Cl  0  0  0  0  0  0
    9.7270    1.1320   11.8610 N   0  0  0  0  0  0
    9.8510    0.5220   11.0670 H   0  0  0  0  0  0
    8.8790    1.1030   12.4060 H   0  0  0  0  0  0
  1  2  2  0  0  0
  1  6  1  0  0  0
  2  3  1  0  0  0
  2 31  1  0  0  0
  3  4  2  0  0  0
  4  5  1  0  0  0
  4 13  1  0  0  0
  5  6  2  0  0  0
  5 10  1  0  0  0
  6  7  1  0  0  0
  7  8  1  0  0  0
  7  9  1  0  0  0
 10 11  2  0  0  0
 10 15  1  0  0  0
 11 12  1  0  0  0
 11 13  1  0  0  0
 13 14  1  0  0  0
 15 16  1  0  0  0
 15 17  1  0  0  0
 15 18  1  0  0  0
 18 19  1  0  0  0
 18 20  1  0  0  0
 20 21  1  0  0  0
 20 27  2  0  0  0
 21 22  1  0  0  0
 21 23  2  0  0  0
 23 24  1  0  0  0
 23 25  1  0  0  0
 25 26  2  0  0  0
 25 30  1  0  0  0
 26 27  1  0  0  0
 26 29  1  0  0  0
 27 28  1  0  0  0
 31 32  1  0  0  0
 31 33  1  0  0  0
M  END
>  <ACTIVITY>
4.84

>  <SET>
1

>  <Min_dist>
999.9

>  <Avg_dist>
999.9

$$$$
34-7
  Cerius2 12110214133D 1   1.00000                          
Structure written by Cerius2 SD Exporter
 39 42  0  0  0  0  0  0  0  0999 V2000
   10.4860    2.7790   13.2600 N   0  0  0  0  0  0
   10.7190    1.9990   12.1930 C   0  0  0  0  0  0
   11.8260    2.0030   11.4470 N   0  0  0  0  0  0
   12.7320    2.9000   11.8610 C   0  0  0  0  0  0
   12.6140    3.7700   12.9360 C   0  0  0  0  0  0
   11.4170    3.6750   13.6640 C   0  0  0  0  0  0
   11.1130    4.4230   14.7730 N   0  0  0  0  0  0
   11.7460    5.0900   15.1860 H   0  0  0  0  0  0
   10.2230    4.2690   15.2320 H   0  0  0  0  0  0
   13.8240    4.5480   12.9810 C   0  0  0  0  0  0
   14.6260    4.0850   11.9470 C   0  0  0  0  0  0
   15.6200    4.3720   11.6270 H   0  0  0  0  0  0
   13.9500    3.1000   11.2740 N   0  0  0  0  0  0
   14.2930    2.5900   10.4700 H   0  0  0  0  0  0
   14.1560    5.6320   13.9720 C   0  0  0  0  0  0
   14.4550    5.1330   14.9020 H   0  0  0  0  0  0
   13.2430    6.2060   14.1700 H   0  0  0  0  0  0
   15.1960    6.5730   13.5700 N   0  0  0  0  0  0
   16.0300    6.5540   14.1470 H   0  0  0  0  0  0
   15.2510    7.2240   12.3430 C   0  0  0  0  0  0
   14.0750    7.5530   11.6470 C   0  0  0  0  0  0
   13.0960    7.2830   12.0370 H   0  0  0  0  0  0
   14.1090    8.2230   10.4250 C   0  0  0  0  0  0
   13.1810    8.4550    9.9060 H   0  0  0  0  0  0
   15.3270    8.5960    9.8730 C   0  0  0  0  0  0
   15.3300    9.1180    8.9160 H   0  0  0  0  0  0
   16.5260    8.3140   10.5360 C   0  0  0  0  0  0
   16.5070    7.6320   11.7840 C   0  0  0  0  0  0
   17.7620    7.4010   12.4030 C   0  0  0  0  0  0
   17.8260    6.8980   13.3660 H   0  0  0  0  0  0
   18.9660    7.8050   11.8190 C   0  0  0  0  0  0
   19.9090    7.6060   12.3250 H   0  0  0  0  0  0
   18.9570    8.4590   10.5960 C   0  0  0  0  0  0
   19.8920    8.7760   10.1360 H   0  0  0  0  0  0
   17.7440    8.7130    9.9610 C   0  0  0  0  0  0
   17.7580    9.2340    9.0030 H   0  0  0  0  0  0
    9.7370    1.1220   11.8420 N   0  0  0  0  0  0
    9.8670    0.5200   11.0430 H   0  0  0  0  0  0
    8.8820    1.0910   12.3770 H   0  0  0  0  0  0
  1  2  2  0  0  0
  1  6  1  0  0  0
  2  3  1  0  0  0
  2 37  1  0  0  0
  3  4  2  0  0  0
  4  5  1  0  0  0
  4 13  1  0  0  0
  5  6  2  0  0  0
  5 10  1  0  0  0
  6  7  1  0  0  0
  7  8  1  0  0  0
  7  9  1  0  0  0
 10 11  2  0  0  0
 10 15  1  0  0  0
 11 12  1  0  0  0
 11 13  1  0  0  0
 13 14  1  0  0  0
 15 16  1  0  0  0
 15 17  1  0  0  0
 15 18  1  0  0  0
 18 19  1  0  0  0
 18 20  1  0  0  0
 20 21  2  0  0  0
 20 28  1  0  0  0
 21 22  1  0  0  0
 21 23  1  0  0  0
 23 24  1  0  0  0
 23 25  2  0  0  0
 25 26  1  0  0  0
 25 27  1  0  0  0
 27 28  2  0  0  0
 27 35  1  0  0  0
 28 29  1  0  0  0
 29 30  1  0  0  0
 29 31  2  0  0  0
 31 32  1  0  0  0
 31 33  1  0  0  0
 33 34  1  0  0  0
 33 35  2  0  0  0
 35 36  1  0  0  0
 37 38  1  0  0  0
 37 39  1  0  0  0
M  END
>  <ACTIVITY>
4.23

>  <SET>
1

>  <Min_dist>
999.9

>  <Avg_dist>
999.9

$$$$
34-9
  Cerius2 12110214133D 1   1.00000                          
Structure written by Cerius2 SD Exporter
 50 52  0  0  0  0  0  0  0  0999 V2000
   10.4910    2.7860   13.2640 N   0  0  0  0  0  0
   10.7170    2.0050   12.1960 C   0  0  0  0  0  0
   11.8220    2.0040   11.4480 N   0  0  0  0  0  0
   12.7340    2.8970   11.8600 C   0  0  0  0  0  0
   12.6230    3.7660   12.9360 C   0  0  0  0  0  0
   11.4270    3.6770   13.6660 C   0  0  0  0  0  0
   11.1290    4.4250   14.7770 N   0  0  0  0  0  0
   11.7670    5.0870   15.1920 H   0  0  0  0  0  0
   10.2380    4.2760   15.2360 H   0  0  0  0  0  0
   13.8380    4.5370   12.9790 C   0  0  0  0  0  0
   14.6350    4.0700   11.9430 C   0  0  0  0  0  0
   15.6310    4.3510   11.6220 H   0  0  0  0  0  0
   13.9520    3.0900   11.2700 N   0  0  0  0  0  0
   14.2900    2.5770   10.4660 H   0  0  0  0  0  0
   14.1780    5.6180   13.9690 C   0  0  0  0  0  0
   14.4990    5.1200   14.8930 H   0  0  0  0  0  0
   13.2630    6.1810   14.1880 H   0  0  0  0  0  0
   15.1970    6.5750   13.5560 N   0  0  0  0  0  0
   16.0330    6.6140   14.1360 H   0  0  0  0  0  0
   15.2110    7.2290   12.3410 C   0  0  0  0  0  0
   16.4430    7.6210   11.7980 C   0  0  0  0  0  0
   17.3680    7.4010   12.3320 H   0  0  0  0  0  0
   16.5260    8.2960   10.5740 C   0  0  0  0  0  0
   17.5050    8.5930   10.2070 H   0  0  0  0  0  0
   15.3610    8.6020    9.8650 C   0  0  0  0  0  0
   14.1230    8.2450   10.4060 C   0  0  0  0  0  0
   13.2010    8.4830    9.8790 H   0  0  0  0  0  0
   14.0540    7.5650   11.6300 C   0  0  0  0  0  0
   13.0680    7.3040   12.0080 H   0  0  0  0  0  0
   15.1620    9.0450    8.6520 C   0  0  0  0  0  0
   14.0140    8.9090    7.9740 N   0  0  0  0  0  0
   13.3640    8.3730    8.2920 H   0  0  0  0  0  0
   13.7180    9.5810    6.7190 C   0  0  0  0  0  0
   14.3080   10.3220    6.6480 H   0  0  0  0  0  0
   12.2870   10.1290    6.6810 C   0  0  0  0  0  0
   12.2300   11.0540    5.7960 O   0  5  0  0  0  0
   11.5630    9.5130    7.5120 O   0  0  0  0  0  0
   13.9020    8.7300    5.4670 C   0  0  0  0  0  0
   13.5600    7.8580    5.6240 H   0  0  0  0  0  0
   13.4580    9.1300    4.7290 H   0  0  0  0  0  0
   15.3730    8.7190    5.2400 C   0  0  0  0  0  0
   15.6780    9.6070    5.0970 H   0  0  0  0  0  0
   15.8060    8.3570    6.0040 H   0  0  0  0  0  0
   15.7050    7.9070    4.0660 C   0  0  0  0  0  0
   16.7650    7.1180    4.0190 O   0  0  0  0  0  0
   14.9390    7.8800    2.9750 O   0  5  0  0  0  0
   16.1000    9.5920    8.0420 O   0  0  0  0  0  0
    9.7310    1.1330   11.8480 N   0  0  0  0  0  0
    9.8590    0.5270   11.0500 H   0  0  0  0  0  0
    8.8790    1.1010   12.3870 H   0  0  0  0  0  0
  1  2  2  0  0  0
  1  6  1  0  0  0
  2  3  1  0  0  0
  2 48  1  0  0  0
  3  4  2  0  0  0
  4  5  1  0  0  0
  4 13  1  0  0  0
  5  6  2  0  0  0
  5 10  1  0  0  0
  6  7  1  0  0  0
  7  8  1  0  0  0
  7  9  1  0  0  0
 10 11  2  0  0  0
 10 15  1  0  0  0
 11 12  1  0  0  0
 11 13  1  0  0  0
 13 14  1  0  0  0
 15 16  1  0  0  0
 15 17  1  0  0  0
 15 18  1  0  0  0
 18 19  1  0  0  0
 18 20  1  0  0  0
 20 21  1  0  0  0
 20 28  2  0  0  0
 21 22  1  0  0  0
 21 23  2  0  0  0
 23 24  1  0  0  0
 23 25  1  0  0  0
 25 26  2  0  0  0
 25 30  1  0  0  0
 26 27  1  0  0  0
 26 28  1  0  0  0
 28 29  1  0  0  0
 30 31  1  0  0  0
 30 47  2  0  0  0
 31 32  1  0  0  0
 31 33  1  0  0  0
 33 34  1  0  0  0
 33 35  1  0  0  0
 33 38  1  0  0  0
 35 36  1  0  0  0
 35 37  2  0  0  0
 38 39  1  0  0  0
 38 40  1  0  0  0
 38 41  1  0  0  0
 41 42  1  0  0  0
 41 43  1  0  0  0
 41 44  1  0  0  0
 44 45  2  0  0  0
 44 46  1  0  0  0
 48 49  1  0  0  0
 48 50  1  0  0  0
M  CHG  2  36  -1  46  -1
M  END
>  <ACTIVITY>
7.36

>  <SET>
1

>  <Min_dist>
999.9

>  <Avg_dist>
999.9

$$$$
35-10
  Cerius2 12110214133D 1   1.00000                          
Structure written by Cerius2 SD Exporter
 53 55  0  0  0  0  0  0  0  0999 V2000
   10.4840    2.7950   13.2600 N   0  0  0  0  0  0
   10.7260    2.0090   12.1990 C   0  0  0  0  0  0
   11.8410    2.0020   11.4630 N   0  0  0  0  0  0
   12.7460    2.8980   11.8800 C   0  0  0  0  0  0
   12.6180    3.7710   12.9490 C   0  0  0  0  0  0
   11.4180    3.6830   13.6690 C   0  0  0  0  0  0
   11.1340    4.4400   14.7780 N   0  0  0  0  0  0
   11.8560    5.0010   15.2190 H   0  0  0  0  0  0
   10.2700    4.2790   15.2800 H   0  0  0  0  0  0
   13.8200    4.5530   13.0020 C   0  0  0  0  0  0
   14.6310    4.1030   11.9710 C   0  0  0  0  0  0
   15.6180    4.4110   11.6490 H   0  0  0  0  0  0
   13.9700    3.1010   11.3040 N   0  0  0  0  0  0
   14.3220    2.5910   10.5030 H   0  0  0  0  0  0
   14.1360    5.6660   13.9670 C   0  0  0  0  0  0
   14.3660    5.1610   14.9150 H   0  0  0  0  0  0
   13.2280    6.2580   14.1400 H   0  0  0  0  0  0
   15.2290    6.5950   13.6170 N   0  0  0  0  0  0
   15.2670    7.2500   12.3900 C   0  0  0  0  0  0
   16.4710    7.6380   11.7800 C   0  0  0  0  0  0
   17.4300    7.4580   12.2620 H   0  0  0  0  0  0
   16.5080    8.2930   10.5360 C   0  0  0  0  0  0
   17.4800    8.5390   10.1200 H   0  0  0  0  0  0
   15.3240    8.5890    9.8600 C   0  0  0  0  0  0
   14.1140    8.2010   10.4380 C   0  0  0  0  0  0
   13.1700    8.4030    9.9330 H   0  0  0  0  0  0
   14.0920    7.5460   11.6790 C   0  0  0  0  0  0
   13.1170    7.2570   12.0690 H   0  0  0  0  0  0
   15.1620    9.0450    8.6520 C   0  0  0  0  0  0
   14.0140    8.9090    7.9740 N   0  0  0  0  0  0
   13.3640    8.3730    8.2920 H   0  0  0  0  0  0
   13.7180    9.5810    6.7190 C   0  0  0  0  0  0
   14.3080   10.3220    6.6480 H   0  0  0  0  0  0
   12.2870   10.1290    6.6810 C   0  0  0  0  0  0
   12.2300   11.0540    5.7960 O   0  5  0  0  0  0
   11.5630    9.5130    7.5120 O   0  0  0  0  0  0
   13.9020    8.7300    5.4670 C   0  0  0  0  0  0
   13.5600    7.8580    5.6240 H   0  0  0  0  0  0
   13.4580    9.1300    4.7290 H   0  0  0  0  0  0
   15.3730    8.7190    5.2400 C   0  0  0  0  0  0
   15.6780    9.6070    5.0970 H   0  0  0  0  0  0
   15.8060    8.3570    6.0040 H   0  0  0  0  0  0
   15.7050    7.9070    4.0660 C   0  0  0  0  0  0
   16.7650    7.1180    4.0190 O   0  0  0  0  0  0
   14.9390    7.8800    2.9750 O   0  5  0  0  0  0
   16.1000    9.5920    8.0420 O   0  0  0  0  0  0
   16.4130    6.6220   14.4810 C   0  0  0  0  0  0
   16.4700    7.5740   15.0190 H   0  0  0  0  0  0
   17.3310    6.4820   13.8990 H   0  0  0  0  0  0
   16.4030    5.8210   15.2260 H   0  0  0  0  0  0
    9.7420    1.1350   11.8420 N   0  0  0  0  0  0
    9.8820    0.5210   11.0540 H   0  0  0  0  0  0
    8.8840    1.1080   12.3730 H   0  0  0  0  0  0
  1  2  2  0  0  0
  1  6  1  0  0  0
  2  3  1  0  0  0
  2 51  1  0  0  0
  3  4  2  0  0  0
  4  5  1  0  0  0
  4 13  1  0  0  0
  5  6  2  0  0  0
  5 10  1  0  0  0
  6  7  1  0  0  0
  7  8  1  0  0  0
  7  9  1  0  0  0
 10 11  2  0  0  0
 10 15  1  0  0  0
 11 12  1  0  0  0
 11 13  1  0  0  0
 13 14  1  0  0  0
 15 16  1  0  0  0
 15 17  1  0  0  0
 15 18  1  0  0  0
 18 19  1  0  0  0
 18 47  1  0  0  0
 19 20  1  0  0  0
 19 27  2  0  0  0
 20 21  1  0  0  0
 20 22  2  0  0  0
 22 23  1  0  0  0
 22 24  1  0  0  0
 24 25  2  0  0  0
 24 29  1  0  0  0
 25 26  1  0  0  0
 25 27  1  0  0  0
 27 28  1  0  0  0
 29 30  1  0  0  0
 29 46  2  0  0  0
 30 31  1  0  0  0
 30 32  1  0  0  0
 32 33  1  0  0  0
 32 34  1  0  0  0
 32 37  1  0  0  0
 34 35  1  0  0  0
 34 36  2  0  0  0
 37 38  1  0  0  0
 37 39  1  0  0  0
 37 40  1  0  0  0
 40 41  1  0  0  0
 40 42  1  0  0  0
 40 43  1  0  0  0
 43 44  2  0  0  0
 43 45  1  0  0  0
 47 48  1  0  0  0
 47 49  1  0  0  0
 47 50  1  0  0  0
 51 52  1  0  0  0
 51 53  1  0  0  0
M  CHG  2  35  -1  45  -1
M  END
>  <ACTIVITY>
7.22

>  <SET>
2

>  <Min_dist>
0.03

>  <Avg_dist>
0.59

$$$$
35-2
  Cerius2 12110214133D 1   1.00000                          
Structure written by Cerius2 SD Exporter
 44 46  0  0  0  0  0  0  0  0999 V2000
   10.4700    2.7700   13.2470 N   0  0  0  0  0  0
   10.7230    1.9780   12.1920 C   0  0  0  0  0  0
   11.8390    1.9800   11.4560 N   0  0  0  0  0  0
   12.7310    2.8950   11.8640 C   0  0  0  0  0  0
   12.5900    3.7760   12.9240 C   0  0  0  0  0  0
   11.3930    3.6740   13.6470 C   0  0  0  0  0  0
   11.1080    4.4320   14.7560 N   0  0  0  0  0  0
   11.8590    4.9460   15.2160 H   0  0  0  0  0  0
   10.2650    4.2390   15.2800 H   0  0  0  0  0  0
   13.7760    4.5830   12.9640 C   0  0  0  0  0  0
   14.5950    4.1300   11.9400 C   0  0  0  0  0  0
   15.5750    4.4540   11.6110 H   0  0  0  0  0  0
   13.9510    3.1100   11.2850 N   0  0  0  0  0  0
   14.3100    2.5980   10.4890 H   0  0  0  0  0  0
   14.0750    5.7240   13.9000 C   0  0  0  0  0  0
   14.1990    5.2790   14.8970 H   0  0  0  0  0  0
   13.1850    6.3680   13.9520 H   0  0  0  0  0  0
   15.2500    6.5610   13.5930 N   0  0  0  0  0  0
   15.2890    7.2380   12.3580 C   0  0  0  0  0  0
   14.1080    7.5350   11.6520 C   0  0  0  0  0  0
   13.1400    7.2360   12.0490 H   0  0  0  0  0  0
   14.1280    8.1910   10.4150 C   0  0  0  0  0  0
   15.3480    8.5630    9.8630 C   0  0  0  0  0  0
   15.4170    9.0730    8.9060 H   0  0  0  0  0  0
   16.5390    8.2860   10.5410 C   0  0  0  0  0  0
   17.4670    8.6020   10.0710 H   0  0  0  0  0  0
   16.5220    7.6320   11.7790 C   0  0  0  0  0  0
   17.6510    7.3610   12.5170 O   0  0  0  0  0  0
   18.9120    7.6920   11.9430 C   0  0  0  0  0  0
   19.6870    7.4180   12.6640 H   0  0  0  0  0  0
   18.9920    8.7690   11.7610 H   0  0  0  0  0  0
   19.0900    7.1180   11.0270 H   0  0  0  0  0  0
   12.8970    8.4010    9.8570 O   0  0  0  0  0  0
   12.8710    9.0070    8.5650 C   0  0  0  0  0  0
   11.8240    9.1090    8.2660 H   0  0  0  0  0  0
   13.3700    8.3730    7.8240 H   0  0  0  0  0  0
   13.3100   10.0100    8.5910 H   0  0  0  0  0  0
   16.5510    6.0530   14.0420 C   0  0  0  0  0  0
   17.3480    6.7980   13.9490 H   0  0  0  0  0  0
   16.8370    5.1710   13.4570 H   0  0  0  0  0  0
   16.5150    5.7640   15.0970 H   0  0  0  0  0  0
    9.7520    1.0880   11.8430 N   0  0  0  0  0  0
    9.8990    0.4710   11.0580 H   0  0  0  0  0  0
    8.8940    1.0530   12.3730 H   0  0  0  0  0  0
  1  2  2  0  0  0
  1  6  1  0  0  0
  2  3  1  0  0  0
  2 42  1  0  0  0
  3  4  2  0  0  0
  4  5  1  0  0  0
  4 13  1  0  0  0
  5  6  2  0  0  0
  5 10  1  0  0  0
  6  7  1  0  0  0
  7  8  1  0  0  0
  7  9  1  0  0  0
 10 11  2  0  0  0
 10 15  1  0  0  0
 11 12  1  0  0  0
 11 13  1  0  0  0
 13 14  1  0  0  0
 15 16  1  0  0  0
 15 17  1  0  0  0
 15 18  1  0  0  0
 18 19  1  0  0  0
 18 38  1  0  0  0
 19 20  1  0  0  0
 19 27  2  0  0  0
 20 21  1  0  0  0
 20 22  2  0  0  0
 22 23  1  0  0  0
 22 33  1  0  0  0
 23 24  1  0  0  0
 23 25  2  0  0  0
 25 26  1  0  0  0
 25 27  1  0  0  0
 27 28  1  0  0  0
 28 29  1  0  0  0
 29 30  1  0  0  0
 29 31  1  0  0  0
 29 32  1  0  0  0
 33 34  1  0  0  0
 34 35  1  0  0  0
 34 36  1  0  0  0
 34 37  1  0  0  0
 38 39  1  0  0  0
 38 40  1  0  0  0
 38 41  1  0  0  0
 42 43  1  0  0  0
 42 44  1  0  0  0
M  END
>  <ACTIVITY>
3.3

>  <SET>
3

>  <Min_dist>
0.07

>  <Avg_dist>
0.48

$$$$
35-3
  Cerius2 12110214133D 1   1.00000                          
Structure written by Cerius2 SD Exporter
 36 38  0  0  0  0  0  0  0  0999 V2000
   10.4830    2.7930   13.2600 N   0  0  0  0  0  0
   10.7250    2.0090   12.1980 C   0  0  0  0  0  0
   11.8410    2.0040   11.4620 N   0  0  0  0  0  0
   12.7460    2.9000   11.8810 C   0  0  0  0  0  0
   12.6190    3.7690   12.9520 C   0  0  0  0  0  0
   11.4170    3.6820   13.6700 C   0  0  0  0  0  0
   11.1330    4.4400   14.7780 N   0  0  0  0  0  0
   11.8540    5.0050   15.2140 H   0  0  0  0  0  0
   10.2680    4.2810   15.2800 H   0  0  0  0  0  0
   13.8230    4.5500   13.0070 C   0  0  0  0  0  0
   14.6310    4.1020   11.9740 C   0  0  0  0  0  0
   15.6180    4.4120   11.6500 H   0  0  0  0  0  0
   13.9700    3.1040   11.3030 N   0  0  0  0  0  0
   14.3190    2.5970   10.5000 H   0  0  0  0  0  0
   14.1440    5.6610   13.9730 C   0  0  0  0  0  0
   14.3890    5.1550   14.9170 H   0  0  0  0  0  0
   13.2350    6.2470   14.1590 H   0  0  0  0  0  0
   15.2270    6.5980   13.6150 N   0  0  0  0  0  0
   15.2540    7.2440   12.3820 C   0  0  0  0  0  0
   14.0830    7.5520   11.6710 C   0  0  0  0  0  0
   13.1030    7.2670   12.0490 H   0  0  0  0  0  0
   14.1150    8.2090   10.4320 C   0  0  0  0  0  0
   13.1790    8.4180    9.9190 H   0  0  0  0  0  0
   15.3310    8.5820    9.8670 C   0  0  0  0  0  0
   16.5130    8.2940   10.5470 C   0  0  0  0  0  0
   16.4680    7.6350   11.7860 C   0  0  0  0  0  0
   17.4100    7.4460   12.2960 H   0  0  0  0  0  0
   18.0670    8.7260    9.9190 Cl  0  0  0  0  0  0
   15.3060    9.3880    8.3390 Cl  0  0  0  0  0  0
   16.4210    6.6290   14.4640 C   0  0  0  0  0  0
   16.4760    7.5760   15.0110 H   0  0  0  0  0  0
   17.3330    6.5040   13.8690 H   0  0  0  0  0  0
   16.4260    5.8180   15.1990 H   0  0  0  0  0  0
    9.7420    1.1350   11.8400 N   0  0  0  0  0  0
    9.8810    0.5250   11.0490 H   0  0  0  0  0  0
    8.8840    1.1060   12.3700 H   0  0  0  0  0  0
  1  2  2  0  0  0
  1  6  1  0  0  0
  2  3  1  0  0  0
  2 34  1  0  0  0
  3  4  2  0  0  0
  4  5  1  0  0  0
  4 13  1  0  0  0
  5  6  2  0  0  0
  5 10  1  0  0  0
  6  7  1  0  0  0
  7  8  1  0  0  0
  7  9  1  0  0  0
 10 11  2  0  0  0
 10 15  1  0  0  0
 11 12  1  0  0  0
 11 13  1  0  0  0
 13 14  1  0  0  0
 15 16  1  0  0  0
 15 17  1  0  0  0
 15 18  1  0  0  0
 18 19  1  0  0  0
 18 30  1  0  0  0
 19 20  1  0  0  0
 19 26  2  0  0  0
 20 21  1  0  0  0
 20 22  2  0  0  0
 22 23  1  0  0  0
 22 24  1  0  0  0
 24 25  2  0  0  0
 24 29  1  0  0  0
 25 26  1  0  0  0
 25 28  1  0  0  0
 26 27  1  0  0  0
 30 31  1  0  0  0
 30 32  1  0  0  0
 30 33  1  0  0  0
 34 35  1  0  0  0
 34 36  1  0  0  0
M  END
>  <ACTIVITY>
5.52

>  <SET>
2

>  <Min_dist>
0.08

>  <Avg_dist>
0.5

$$$$
35-4
  Cerius2 12110214133D 1   1.00000                          
Structure written by Cerius2 SD Exporter
 42 45  0  0  0  0  0  0  0  0999 V2000
   10.4940    2.7780   13.2590 N   0  0  0  0  0  0
   10.7430    1.9730   12.2150 C   0  0  0  0  0  0
   11.8420    1.9900   11.4570 N   0  0  0  0  0  0
   12.7290    2.9180   11.8440 C   0  0  0  0  0  0
   12.6000    3.8030   12.9050 C   0  0  0  0  0  0
   11.4010    3.7120   13.6290 C   0  0  0  0  0  0
   11.0660    4.5100   14.6930 N   0  0  0  0  0  0
   11.6400    5.2720   15.0230 H   0  0  0  0  0  0
   10.1670    4.3690   15.1380 H   0  0  0  0  0  0
   13.8020    4.5930   12.9400 C   0  0  0  0  0  0
   14.5820    4.1660   11.8750 C   0  0  0  0  0  0
   15.5530    4.4980   11.5260 H   0  0  0  0  0  0
   13.9300    3.1470   11.2320 N   0  0  0  0  0  0
   14.2700    2.6420   10.4230 H   0  0  0  0  0  0
   14.1280    5.6880   13.9230 C   0  0  0  0  0  0
   14.2820    5.2420   14.9130 H   0  0  0  0  0  0
   13.2270    6.3140   13.9870 H   0  0  0  0  0  0
   15.2960    6.5360   13.6130 N   0  0  0  0  0  0
   15.3020    7.1960   12.3700 C   0  0  0  0  0  0
   14.0920    7.4890   11.7170 C   0  0  0  0  0  0
   13.1410    7.2040   12.1630 H   0  0  0  0  0  0
   14.0760    8.1670   10.5010 C   0  0  0  0  0  0
   13.1290    8.3870   10.0120 H   0  0  0  0  0  0
   15.2730    8.5700    9.9140 C   0  0  0  0  0  0
   15.2370    9.1010    8.9630 H   0  0  0  0  0  0
   16.5010    8.2990   10.5320 C   0  0  0  0  0  0
   16.5290    7.6070   11.7710 C   0  0  0  0  0  0
   17.7940    7.3440   12.3460 C   0  0  0  0  0  0
   17.8620    6.8020   13.2890 H   0  0  0  0  0  0
   18.9800    7.7560   11.7330 C   0  0  0  0  0  0
   19.9380    7.5400   12.2030 H   0  0  0  0  0  0
   18.9330    8.4400   10.5260 C   0  0  0  0  0  0
   19.8540    8.7640   10.0440 H   0  0  0  0  0  0
   17.7020    8.7090    9.9290 C   0  0  0  0  0  0
   17.6880    9.2430    8.9790 H   0  0  0  0  0  0
   16.3010    6.6530   14.5070 C   0  0  0  0  0  0
   16.0140    6.1730   15.4430 H   0  0  0  0  0  0
   17.1970    6.1730   14.1120 H   0  0  0  0  0  0
   16.5050    7.7080   14.6880 H   0  0  0  0  0  0
    9.7840    1.0570   11.8990 N   0  0  0  0  0  0
    9.9270    0.4330   11.1190 H   0  0  0  0  0  0
    8.9370    1.0150   12.4440 H   0  0  0  0  0  0
  1  2  2  0  0  0
  1  6  1  0  0  0
  2  3  1  0  0  0
  2 40  1  0  0  0
  3  4  2  0  0  0
  4  5  1  0  0  0
  4 13  1  0  0  0
  5  6  2  0  0  0
  5 10  1  0  0  0
  6  7  1  0  0  0
  7  8  1  0  0  0
  7  9  1  0  0  0
 10 11  2  0  0  0
 10 15  1  0  0  0
 11 12  1  0  0  0
 11 13  1  0  0  0
 13 14  1  0  0  0
 15 16  1  0  0  0
 15 17  1  0  0  0
 15 18  1  0  0  0
 18 19  1  0  0  0
 18 36  1  0  0  0
 19 20  2  0  0  0
 19 27  1  0  0  0
 20 21  1  0  0  0
 20 22  1  0  0  0
 22 23  1  0  0  0
 22 24  2  0  0  0
 24 25  1  0  0  0
 24 26  1  0  0  0
 26 27  2  0  0  0
 26 34  1  0  0  0
 27 28  1  0  0  0
 28 29  1  0  0  0
 28 30  2  0  0  0
 30 31  1  0  0  0
 30 32  1  0  0  0
 32 33  1  0  0  0
 32 34  2  0  0  0
 34 35  1  0  0  0
 36 37  1  0  0  0
 36 38  1  0  0  0
 36 39  1  0  0  0
 40 41  1  0  0  0
 40 42  1  0  0  0
M  END
>  <ACTIVITY>
5.09

>  <SET>
1

>  <Min_dist>
999.9

>  <Avg_dist>
999.9

$$$$
35-5
  Cerius2 12110214133D 1   1.00000                          
Structure written by Cerius2 SD Exporter
 40 42  0  0  0  0  0  0  0  0999 V2000
   10.4380    2.7250   13.2200 N   0  0  0  0  0  0
   10.7570    1.9280   12.1900 C   0  0  0  0  0  0
   11.8830    1.9860   11.4790 N   0  0  0  0  0  0
   12.7230    2.9400   11.9040 C   0  0  0  0  0  0
   12.5290    3.8170   12.9640 C   0  0  0  0  0  0
   11.2970    3.6890   13.6300 C   0  0  0  0  0  0
   10.8690    4.4790   14.6660 N   0  0  0  0  0  0
   11.3710    5.2880   14.9970 H   0  0  0  0  0  0
    9.9430    4.3140   15.0440 H   0  0  0  0  0  0
   13.7170    4.6320   13.0530 C   0  0  0  0  0  0
   14.5330    4.2430   11.9990 C   0  0  0  0  0  0
   15.5040    4.6020   11.6760 H   0  0  0  0  0  0
   13.9340    3.2080   11.3320 N   0  0  0  0  0  0
   14.3140    2.7200   10.5310 H   0  0  0  0  0  0
   14.0110    5.7190   14.0440 C   0  0  0  0  0  0
   13.9370    5.3460   15.0650 H   0  0  0  0  0  0
   13.2850    6.5290   13.9170 H   0  0  0  0  0  0
   15.7070    6.3870   13.8400 S   0  0  0  0  0  0
   15.4940    7.2310   12.2850 C   0  0  0  0  0  0
   14.2090    7.4480   11.7870 C   0  0  0  0  0  0
   13.3340    7.1230   12.3490 H   0  0  0  0  0  0
   14.0250    8.0870   10.5580 C   0  0  0  0  0  0
   13.0050    8.2340   10.2160 H   0  0  0  0  0  0
   15.1280    8.5110    9.8110 C   0  0  0  0  0  0
   16.4290    8.2880   10.3070 C   0  0  0  0  0  0
   16.6030    7.6480   11.5400 C   0  0  0  0  0  0
   17.5950    7.4570   11.9400 H   0  0  0  0  0  0
   17.4590    8.7330    9.5110 O   0  0  0  0  0  0
   18.7880    8.5250    9.9820 C   0  0  0  0  0  0
   19.4730    8.9230    9.2280 H   0  0  0  0  0  0
   19.0020    7.4570   10.0960 H   0  0  0  0  0  0
   18.9660    9.0710   10.9150 H   0  0  0  0  0  0
   15.0470    9.1440    8.5950 O   0  0  0  0  0  0
   16.2730    9.5090    7.9650 C   0  0  0  0  0  0
   16.0270    9.9970    7.0180 H   0  0  0  0  0  0
   16.8780    8.6260    7.7390 H   0  0  0  0  0  0
   16.8290   10.2290    8.5760 H   0  0  0  0  0  0
    9.8460    0.9770   11.8360 N   0  0  0  0  0  0
   10.0430    0.3620   11.0600 H   0  0  0  0  0  0
    8.9790    0.9020   12.3460 H   0  0  0  0  0  0
  1  2  2  0  0  0
  1  6  1  0  0  0
  2  3  1  0  0  0
  2 38  1  0  0  0
  3  4  2  0  0  0
  4  5  1  0  0  0
  4 13  1  0  0  0
  5  6  2  0  0  0
  5 10  1  0  0  0
  6  7  1  0  0  0
  7  8  1  0  0  0
  7  9  1  0  0  0
 10 11  2  0  0  0
 10 15  1  0  0  0
 11 12  1  0  0  0
 11 13  1  0  0  0
 13 14  1  0  0  0
 15 16  1  0  0  0
 15 17  1  0  0  0
 15 18  1  0  0  0
 18 19  1  0  0  0
 19 20  1  0  0  0
 19 26  2  0  0  0
 20 21  1  0  0  0
 20 22  2  0  0  0
 22 23  1  0  0  0
 22 24  1  0  0  0
 24 25  2  0  0  0
 24 33  1  0  0  0
 25 26  1  0  0  0
 25 28  1  0  0  0
 26 27  1  0  0  0
 28 29  1  0  0  0
 29 30  1  0  0  0
 29 31  1  0  0  0
 29 32  1  0  0  0
 33 34  1  0  0  0
 34 35  1  0  0  0
 34 36  1  0  0  0
 34 37  1  0  0  0
 38 39  1  0  0  0
 38 40  1  0  0  0
M  END
>  <ACTIVITY>
4.78

>  <SET>
1

>  <Min_dist>
999.9

>  <Avg_dist>
999.9

$$$$
35-6
  Cerius2 12110214133D 1   1.00000                          
Structure written by Cerius2 SD Exporter
 32 34  0  0  0  0  0  0  0  0999 V2000
   10.4320    2.7220   13.2190 N   0  0  0  0  0  0
   10.7370    1.9200   12.1880 C   0  0  0  0  0  0
   11.8620    1.9600   11.4710 N   0  0  0  0  0  0
   12.7110    2.9110   11.8840 C   0  0  0  0  0  0
   12.5240    3.7990   12.9320 C   0  0  0  0  0  0
   11.3040    3.6770   13.6180 C   0  0  0  0  0  0
   10.9200    4.4640   14.6740 N   0  0  0  0  0  0
   11.4820    5.2180   15.0390 H   0  0  0  0  0  0
   10.0140    4.2990   15.0970 H   0  0  0  0  0  0
   13.7030    4.6280   13.0060 C   0  0  0  0  0  0
   14.5360    4.2000   11.9810 C   0  0  0  0  0  0
   15.5140    4.5350   11.6590 H   0  0  0  0  0  0
   13.9290    3.1630   11.3180 N   0  0  0  0  0  0
   14.3140    2.6590   10.5300 H   0  0  0  0  0  0
   13.9230    5.7280   14.0060 C   0  0  0  0  0  0
   13.7640    5.3240   15.0110 H   0  0  0  0  0  0
   13.1850    6.5180   13.8290 H   0  0  0  0  0  0
   15.5920    6.4740   13.9540 S   0  0  0  0  0  0
   15.5090    7.3030   12.3770 C   0  0  0  0  0  0
   14.2600    7.5100   11.7840 C   0  0  0  0  0  0
   13.3480    7.1870   12.2820 H   0  0  0  0  0  0
   14.1630    8.1420   10.5400 C   0  0  0  0  0  0
   13.1810    8.2980   10.0990 H   0  0  0  0  0  0
   15.3160    8.5630    9.8750 C   0  0  0  0  0  0
   16.5700    8.3460   10.4580 C   0  0  0  0  0  0
   16.6640    7.7150   11.7040 C   0  0  0  0  0  0
   17.6450    7.5370   12.1380 H   0  0  0  0  0  0
   18.0410    8.8310    9.6870 Cl  0  0  0  0  0  0
   15.1280    9.3370    8.3410 Cl  0  0  0  0  0  0
    9.8120    0.9810   11.8420 N   0  0  0  0  0  0
    9.9980    0.3560   11.0720 H   0  0  0  0  0  0
    8.9470    0.9190   12.3590 H   0  0  0  0  0  0
  1  2  2  0  0  0
  1  6  1  0  0  0
  2  3  1  0  0  0
  2 30  1  0  0  0
  3  4  2  0  0  0
  4  5  1  0  0  0
  4 13  1  0  0  0
  5  6  2  0  0  0
  5 10  1  0  0  0
  6  7  1  0  0  0
  7  8  1  0  0  0
  7  9  1  0  0  0
 10 11  2  0  0  0
 10 15  1  0  0  0
 11 12  1  0  0  0
 11 13  1  0  0  0
 13 14  1  0  0  0
 15 16  1  0  0  0
 15 17  1  0  0  0
 15 18  1  0  0  0
 18 19  1  0  0  0
 19 20  1  0  0  0
 19 26  2  0  0  0
 20 21  1  0  0  0
 20 22  2  0  0  0
 22 23  1  0  0  0
 22 24  1  0  0  0
 24 25  2  0  0  0
 24 29  1  0  0  0
 25 26  1  0  0  0
 25 28  1  0  0  0
 26 27  1  0  0  0
 30 31  1  0  0  0
 30 32  1  0  0  0
M  END
>  <ACTIVITY>
5.28

>  <SET>
1

>  <Min_dist>
999.9

>  <Avg_dist>
999.9

$$$$
35-7
  Cerius2 12110214133D 1   1.00000                          
Structure written by Cerius2 SD Exporter
 38 41  0  0  0  0  0  0  0  0999 V2000
   10.4280    2.7070   13.2190 N   0  0  0  0  0  0
   10.7450    1.9160   12.1820 C   0  0  0  0  0  0
   11.8740    1.9690   11.4730 N   0  0  0  0  0  0
   12.7110    2.9280   11.8930 C   0  0  0  0  0  0
   12.5060    3.8120   12.9420 C   0  0  0  0  0  0
   11.2910    3.6640   13.6310 C   0  0  0  0  0  0
   10.9100    4.4240   14.7090 N   0  0  0  0  0  0
   11.5280    5.0920   15.1450 H   0  0  0  0  0  0
   10.0270    4.2220   15.1600 H   0  0  0  0  0  0
   13.6640    4.6620   13.0050 C   0  0  0  0  0  0
   14.5180    4.2420   11.9970 C   0  0  0  0  0  0
   15.4930    4.6020   11.6880 H   0  0  0  0  0  0
   13.9320    3.1940   11.3350 N   0  0  0  0  0  0
   14.3280    2.6920   10.5500 H   0  0  0  0  0  0
   13.9180    5.7980   13.9440 C   0  0  0  0  0  0
   13.6870    5.5000   14.9720 H   0  0  0  0  0  0
   13.2610    6.6390   13.6940 H   0  0  0  0  0  0
   15.6570    6.3450   13.8280 S   0  0  0  0  0  0
   15.5450    7.2450   12.2750 C   0  0  0  0  0  0
   14.2530    7.4570   11.7710 C   0  0  0  0  0  0
   13.3780    7.0930   12.3070 H   0  0  0  0  0  0
   14.0670    8.1340   10.5710 C   0  0  0  0  0  0
   13.0620    8.2910   10.1830 H   0  0  0  0  0  0
   15.1690    8.6120    9.8660 C   0  0  0  0  0  0
   14.9990    9.1390    8.9270 H   0  0  0  0  0  0
   16.4720    8.4250   10.3520 C   0  0  0  0  0  0
   16.6830    7.7380   11.5750 C   0  0  0  0  0  0
   18.0220    7.5900   12.0160 C   0  0  0  0  0  0
   18.2470    7.0780   12.9510 H   0  0  0  0  0  0
   19.0990    8.0910   11.2820 C   0  0  0  0  0  0
   20.1160    7.9600   11.6490 H   0  0  0  0  0  0
   18.8710    8.7570   10.0850 C   0  0  0  0  0  0
   19.7070    9.1490    9.5090 H   0  0  0  0  0  0
   17.5670    8.9230    9.6250 C   0  0  0  0  0  0
   17.4100    9.4510    8.6840 H   0  0  0  0  0  0
    9.8290    0.9740   11.8230 N   0  0  0  0  0  0
   10.0230    0.3570   11.0480 H   0  0  0  0  0  0
    8.9600    0.9030   12.3330 H   0  0  0  0  0  0
  1  2  2  0  0  0
  1  6  1  0  0  0
  2  3  1  0  0  0
  2 36  1  0  0  0
  3  4  2  0  0  0
  4  5  1  0  0  0
  4 13  1  0  0  0
  5  6  2  0  0  0
  5 10  1  0  0  0
  6  7  1  0  0  0
  7  8  1  0  0  0
  7  9  1  0  0  0
 10 11  2  0  0  0
 10 15  1  0  0  0
 11 12  1  0  0  0
 11 13  1  0  0  0
 13 14  1  0  0  0
 15 16  1  0  0  0
 15 17  1  0  0  0
 15 18  1  0  0  0
 18 19  1  0  0  0
 19 20  2  0  0  0
 19 27  1  0  0  0
 20 21  1  0  0  0
 20 22  1  0  0  0
 22 23  1  0  0  0
 22 24  2  0  0  0
 24 25  1  0  0  0
 24 26  1  0  0  0
 26 27  2  0  0  0
 26 34  1  0  0  0
 27 28  1  0  0  0
 28 29  1  0  0  0
 28 30  2  0  0  0
 30 31  1  0  0  0
 30 32  1  0  0  0
 32 33  1  0  0  0
 32 34  2  0  0  0
 34 35  1  0  0  0
 36 37  1  0  0  0
 36 38  1  0  0  0
M  END
>  <ACTIVITY>
5.52

>  <SET>
2

>  <Min_dist>
0.16

>  <Avg_dist>
0.56

$$$$
36-6a
  Cerius2 12110214133D 1   1.00000                          
Structure written by Cerius2 SD Exporter
 44 46  0  0  0  0  0  0  0  0999 V2000
   10.4950    2.8070   13.2770 N   0  0  0  0  0  0
   10.6480    2.0340   12.1990 C   0  0  0  0  0  0
   11.7390    1.9710   11.4490 N   0  0  0  0  0  0
   12.7140    2.8010   11.8470 C   0  0  0  0  0  0
   12.6820    3.6800   12.9190 C   0  0  0  0  0  0
   11.4940    3.6230   13.6780 C   0  0  0  0  0  0
   11.2540    4.3150   14.8390 N   0  0  0  0  0  0
   11.9630    4.8070   15.3590 H   0  0  0  0  0  0
   10.3690    4.1540   15.3070 H   0  0  0  0  0  0
   13.9170    4.4670   12.9880 C   0  0  0  0  0  0
   14.8150    4.0080   12.0400 C   0  0  0  0  0  0
   14.1910    2.8150   11.0130 S   0  0  0  0  0  0
   16.5970    4.5870   11.8170 Br  0  0  0  0  0  0
   14.1480    5.5760   13.9890 C   0  0  0  0  0  0
   14.4730    5.1060   14.9260 H   0  0  0  0  0  0
   13.1900    6.0690   14.1710 H   0  0  0  0  0  0
   15.0790    6.6370   13.6290 N   0  0  0  0  0  0
   15.6910    6.9730   14.3680 H   0  0  0  0  0  0
   15.1150    7.2660   12.4000 C   0  0  0  0  0  0
   13.9680    7.5750   11.6620 C   0  0  0  0  0  0
   12.9770    7.3280   12.0340 H   0  0  0  0  0  0
   14.0690    8.2030   10.4190 C   0  0  0  0  0  0
   15.3150    8.5830    9.9170 C   0  0  0  0  0  0
   16.4820    8.2640   10.6220 C   0  0  0  0  0  0
   16.3670    7.6070   11.8540 C   0  0  0  0  0  0
   17.2550    7.3470   12.4260 H   0  0  0  0  0  0
   17.6650    8.6330   10.0320 O   0  0  0  0  0  0
   18.8660    8.3080   10.7290 C   0  0  0  0  0  0
   19.7050    8.6920   10.1410 H   0  0  0  0  0  0
   18.9880    7.2240   10.8180 H   0  0  0  0  0  0
   18.8960    8.7950   11.7100 H   0  0  0  0  0  0
   15.3970    9.2140    8.6980 O   0  0  0  0  0  0
   16.7700    9.4640    8.3730 C   0  0  0  0  0  0
   16.7960    9.9590    7.3980 H   0  0  0  0  0  0
   17.3340    8.5280    8.2960 H   0  0  0  0  0  0
   17.2360   10.1320    9.1060 H   0  0  0  0  0  0
   12.9140    8.4970    9.7400 O   0  0  0  0  0  0
   13.2310    9.0600    8.4620 C   0  0  0  0  0  0
   12.2890    9.2440    7.9360 H   0  0  0  0  0  0
   13.8250    8.3640    7.8600 H   0  0  0  0  0  0
   13.7540   10.0160    8.5690 H   0  0  0  0  0  0
    9.5970    1.2410   11.8500 N   0  0  0  0  0  0
    9.6690    0.6380   11.0430 H   0  0  0  0  0  0
    8.7490    1.2700   12.3960 H   0  0  0  0  0  0
  1  2  2  0  0  0
  1  6  1  0  0  0
  2  3  1  0  0  0
  2 42  1  0  0  0
  3  4  2  0  0  0
  4  5  1  0  0  0
  4 12  1  0  0  0
  5  6  2  0  0  0
  5 10  1  0  0  0
  6  7  1  0  0  0
  7  8  1  0  0  0
  7  9  1  0  0  0
 10 11  2  0  0  0
 10 14  1  0  0  0
 11 12  1  0  0  0
 11 13  1  0  0  0
 14 15  1  0  0  0
 14 16  1  0  0  0
 14 17  1  0  0  0
 17 18  1  0  0  0
 17 19  1  0  0  0
 19 20  1  0  0  0
 19 25  2  0  0  0
 20 21  1  0  0  0
 20 22  2  0  0  0
 22 23  1  0  0  0
 22 37  1  0  0  0
 23 24  2  0  0  0
 23 32  1  0  0  0
 24 25  1  0  0  0
 24 27  1  0  0  0
 25 26  1  0  0  0
 27 28  1  0  0  0
 28 29  1  0  0  0
 28 30  1  0  0  0
 28 31  1  0  0  0
 32 33  1  0  0  0
 33 34  1  0  0  0
 33 35  1  0  0  0
 33 36  1  0  0  0
 37 38  1  0  0  0
 38 39  1  0  0  0
 38 40  1  0  0  0
 38 41  1  0  0  0
 42 43  1  0  0  0
 42 44  1  0  0  0
M  END
>  <ACTIVITY>
4.77

>  <SET>
1

>  <Min_dist>
999.9

>  <Avg_dist>
999.9

$$$$
36-6b
  Cerius2 12110214133D 1   1.00000                          
Structure written by Cerius2 SD Exporter
 40 42  0  0  0  0  0  0  0  0999 V2000
   10.4900    2.7970   13.2690 N   0  0  0  0  0  0
   10.6530    2.0150   12.2000 C   0  0  0  0  0  0
   11.7420    1.9640   11.4450 N   0  0  0  0  0  0
   12.7050    2.8130   11.8350 C   0  0  0  0  0  0
   12.6610    3.7010   12.8990 C   0  0  0  0  0  0
   11.4750    3.6360   13.6600 C   0  0  0  0  0  0
   11.2240    4.3380   14.8120 N   0  0  0  0  0  0
   11.9210    4.8590   15.3210 H   0  0  0  0  0  0
   10.3390    4.1730   15.2800 H   0  0  0  0  0  0
   13.8880    4.5030   12.9610 C   0  0  0  0  0  0
   14.7920    4.0460   12.0170 C   0  0  0  0  0  0
   14.1790    2.8430   10.9950 S   0  0  0  0  0  0
   16.5700    4.6400   11.7960 Br  0  0  0  0  0  0
   14.1120    5.6220   13.9550 C   0  0  0  0  0  0
   14.3720    5.1480   14.9100 H   0  0  0  0  0  0
   13.1660    6.1560   14.0680 H   0  0  0  0  0  0
   15.1030    6.6330   13.6200 N   0  0  0  0  0  0
   15.7340    6.8990   14.3710 H   0  0  0  0  0  0
   15.2400    7.2770   12.3970 C   0  0  0  0  0  0
   16.4640    7.6600   11.7970 C   0  0  0  0  0  0
   16.4570    8.2990   10.5490 C   0  0  0  0  0  0
   17.3740    8.6100   10.0550 H   0  0  0  0  0  0
   15.2570    8.5610    9.8870 C   0  0  0  0  0  0
   15.2790    9.0580    8.9180 H   0  0  0  0  0  0
   14.0430    8.1930   10.4550 C   0  0  0  0  0  0
   14.0430    7.5590   11.6990 C   0  0  0  0  0  0
   13.1040    7.2640   12.1620 H   0  0  0  0  0  0
   12.9410    8.5040    9.7070 O   0  0  0  0  0  0
   13.1740    9.0790    8.4230 C   0  0  0  0  0  0
   12.2000    9.2850    7.9710 H   0  0  0  0  0  0
   13.7060    8.3800    7.7690 H   0  0  0  0  0  0
   13.7100   10.0300    8.5090 H   0  0  0  0  0  0
   17.6200    7.3860   12.4860 O   0  0  0  0  0  0
   18.8630    7.7190   11.8730 C   0  0  0  0  0  0
   19.6610    7.4270   12.5640 H   0  0  0  0  0  0
   18.9440    8.7980   11.7070 H   0  0  0  0  0  0
   19.0070    7.1580   10.9440 H   0  0  0  0  0  0
    9.6190    1.1940   11.8680 N   0  0  0  0  0  0
    9.7040    0.5760   11.0750 H   0  0  0  0  0  0
    8.7820    1.1950   12.4310 H   0  0  0  0  0  0
  1  2  2  0  0  0
  1  6  1  0  0  0
  2  3  1  0  0  0
  2 38  1  0  0  0
  3  4  2  0  0  0
  4  5  1  0  0  0
  4 12  1  0  0  0
  5  6  2  0  0  0
  5 10  1  0  0  0
  6  7  1  0  0  0
  7  8  1  0  0  0
  7  9  1  0  0  0
 10 11  2  0  0  0
 10 14  1  0  0  0
 11 12  1  0  0  0
 11 13  1  0  0  0
 14 15  1  0  0  0
 14 16  1  0  0  0
 14 17  1  0  0  0
 17 18  1  0  0  0
 17 19  1  0  0  0
 19 20  1  0  0  0
 19 26  2  0  0  0
 20 21  2  0  0  0
 20 33  1  0  0  0
 21 22  1  0  0  0
 21 23  1  0  0  0
 23 24  1  0  0  0
 23 25  2  0  0  0
 25 26  1  0  0  0
 25 28  1  0  0  0
 26 27  1  0  0  0
 28 29  1  0  0  0
 29 30  1  0  0  0
 29 31  1  0  0  0
 29 32  1  0  0  0
 33 34  1  0  0  0
 34 35  1  0  0  0
 34 36  1  0  0  0
 34 37  1  0  0  0
 38 39  1  0  0  0
 38 40  1  0  0  0
M  END
>  <ACTIVITY>
4.48

>  <SET>
2

>  <Min_dist>
0.12

>  <Avg_dist>
0.54

$$$$
36-6c
  Cerius2 12110214133D 1   1.00000                          
Structure written by Cerius2 SD Exporter
 47 49  0  0  0  0  0  0  0  0999 V2000
   10.5130    2.7900   13.2800 N   0  0  0  0  0  0
   10.6970    1.9710   12.2420 C   0  0  0  0  0  0
   11.7600    1.9630   11.4500 N   0  0  0  0  0  0
   12.6930    2.8650   11.7940 C   0  0  0  0  0  0
   12.6430    3.7610   12.8520 C   0  0  0  0  0  0
   11.4510    3.7050   13.6040 C   0  0  0  0  0  0
   11.1310    4.5330   14.6510 N   0  0  0  0  0  0
   11.6470    5.3650   14.8900 H   0  0  0  0  0  0
   10.2230    4.4120   15.0850 H   0  0  0  0  0  0
   13.8720    4.5480   12.9200 C   0  0  0  0  0  0
   14.7110    4.2130   11.8720 C   0  0  0  0  0  0
   14.1130    2.9890   10.8710 S   0  0  0  0  0  0
   16.3920    4.9980   11.5280 Br  0  0  0  0  0  0
   14.2050    5.5710   13.9820 C   0  0  0  0  0  0
   14.5030    4.9900   14.8670 H   0  0  0  0  0  0
   13.3010    6.0950   14.3070 H   0  0  0  0  0  0
   15.2450    6.5700   13.6700 N   0  0  0  0  0  0
   15.2630    7.2220   12.4400 C   0  0  0  0  0  0
   16.4660    7.6190   11.8340 C   0  0  0  0  0  0
   17.4210    7.4490   12.3270 H   0  0  0  0  0  0
   16.4780    8.2780   10.6020 C   0  0  0  0  0  0
   15.2870    8.5120    9.9150 C   0  0  0  0  0  0
   14.0650    8.1580   10.4960 C   0  0  0  0  0  0
   14.0690    7.5180   11.7460 C   0  0  0  0  0  0
   13.1260    7.2110   12.1890 H   0  0  0  0  0  0
   12.9420    8.4660    9.7720 O   0  0  0  0  0  0
   13.1320    9.0520    8.4860 C   0  0  0  0  0  0
   12.1430    9.2130    8.0450 H   0  0  0  0  0  0
   13.6860    8.3780    7.8240 H   0  0  0  0  0  0
   13.6240   10.0260    8.5670 H   0  0  0  0  0  0
   15.3120    9.1530    8.7000 O   0  0  0  0  0  0
   16.6630    9.4710    8.3480 C   0  0  0  0  0  0
   16.6450    9.9620    7.3700 H   0  0  0  0  0  0
   17.2750    8.5670    8.2630 H   0  0  0  0  0  0
   17.1070   10.1670    9.0680 H   0  0  0  0  0  0
   17.6890    8.6200   10.0570 O   0  0  0  0  0  0
   18.7510    8.1990   10.9220 C   0  0  0  0  0  0
   19.6970    8.4680   10.4440 H   0  0  0  0  0  0
   18.7370    7.1130   11.0630 H   0  0  0  0  0  0
   18.7020    8.7110   11.8900 H   0  0  0  0  0  0
   16.2490    6.8870   14.6830 C   0  0  0  0  0  0
   17.2330    7.0610   14.2310 H   0  0  0  0  0  0
   16.3860    6.0620   15.3880 H   0  0  0  0  0  0
   15.9540    7.7750   15.2520 H   0  0  0  0  0  0
    9.7070    1.0760   11.9730 N   0  0  0  0  0  0
    9.8030    0.4390   11.1950 H   0  0  0  0  0  0
    8.8810    1.0580   12.5520 H   0  0  0  0  0  0
  1  2  2  0  0  0
  1  6  1  0  0  0
  2  3  1  0  0  0
  2 45  1  0  0  0
  3  4  2  0  0  0
  4  5  1  0  0  0
  4 12  1  0  0  0
  5  6  2  0  0  0
  5 10  1  0  0  0
  6  7  1  0  0  0
  7  8  1  0  0  0
  7  9  1  0  0  0
 10 11  2  0  0  0
 10 14  1  0  0  0
 11 12  1  0  0  0
 11 13  1  0  0  0
 14 15  1  0  0  0
 14 16  1  0  0  0
 14 17  1  0  0  0
 17 18  1  0  0  0
 17 41  1  0  0  0
 18 19  1  0  0  0
 18 24  2  0  0  0
 19 20  1  0  0  0
 19 21  2  0  0  0
 21 22  1  0  0  0
 21 36  1  0  0  0
 22 23  2  0  0  0
 22 31  1  0  0  0
 23 24  1  0  0  0
 23 26  1  0  0  0
 24 25  1  0  0  0
 26 27  1  0  0  0
 27 28  1  0  0  0
 27 29  1  0  0  0
 27 30  1  0  0  0
 31 32  1  0  0  0
 32 33  1  0  0  0
 32 34  1  0  0  0
 32 35  1  0  0  0
 36 37  1  0  0  0
 37 38  1  0  0  0
 37 39  1  0  0  0
 37 40  1  0  0  0
 41 42  1  0  0  0
 41 43  1  0  0  0
 41 44  1  0  0  0
 45 46  1  0  0  0
 45 47  1  0  0  0
M  END
>  <ACTIVITY>
4.55

>  <SET>
2

>  <Min_dist>
0.06

>  <Avg_dist>
0.55

$$$$
36-6d
  Cerius2 12110214133D 1   1.00000                          
Structure written by Cerius2 SD Exporter
 43 45  0  0  0  0  0  0  0  0999 V2000
   10.4900    2.7650   13.2510 N   0  0  0  0  0  0
   10.7180    1.9290   12.2370 C   0  0  0  0  0  0
   11.7940    1.9390   11.4640 N   0  0  0  0  0  0
   12.6880    2.8830   11.7970 C   0  0  0  0  0  0
   12.5890    3.8050   12.8300 C   0  0  0  0  0  0
   11.3910    3.7200   13.5700 C   0  0  0  0  0  0
   11.0270    4.5410   14.6060 N   0  0  0  0  0  0
   11.5360    5.3590   14.8990 H   0  0  0  0  0  0
   10.1250    4.3780   15.0410 H   0  0  0  0  0  0
   13.7860    4.6440   12.8860 C   0  0  0  0  0  0
   14.6560    4.3020   11.8650 C   0  0  0  0  0  0
   14.1180    3.0270   10.8950 S   0  0  0  0  0  0
   16.3190    5.1270   11.5230 Br  0  0  0  0  0  0
   14.0620    5.7240   13.9070 C   0  0  0  0  0  0
   14.1990    5.2120   14.8700 H   0  0  0  0  0  0
   13.1710    6.3390   14.0540 H   0  0  0  0  0  0
   15.2280    6.5800   13.6360 N   0  0  0  0  0  0
   15.3300    7.2280   12.3970 C   0  0  0  0  0  0
   16.5510    7.6170   11.7980 C   0  0  0  0  0  0
   16.5410    8.2430   10.5440 C   0  0  0  0  0  0
   17.4580    8.5490   10.0480 H   0  0  0  0  0  0
   15.3360    8.5070    9.8810 C   0  0  0  0  0  0
   15.3880    8.9970    8.9120 H   0  0  0  0  0  0
   14.1260    8.1510   10.4630 C   0  0  0  0  0  0
   14.1340    7.5190   11.7100 C   0  0  0  0  0  0
   13.1830    7.2270   12.1540 H   0  0  0  0  0  0
   12.8840    8.3550    9.9280 O   0  0  0  0  0  0
   12.8320    8.9690    8.6410 C   0  0  0  0  0  0
   11.7780    9.0700    8.3640 H   0  0  0  0  0  0
   13.3180    8.3410    7.8870 H   0  0  0  0  0  0
   13.2690    9.9720    8.6650 H   0  0  0  0  0  0
   17.6960    7.3740   12.5160 O   0  0  0  0  0  0
   18.9430    7.7100   11.9120 C   0  0  0  0  0  0
   19.7330    7.4890   12.6370 H   0  0  0  0  0  0
   18.9950    8.7790   11.6800 H   0  0  0  0  0  0
   19.1270    7.0970   11.0230 H   0  0  0  0  0  0
   16.5020    6.2390   14.2640 C   0  0  0  0  0  0
   16.9700    5.3950   13.7450 H   0  0  0  0  0  0
   16.3630    5.9600   15.3130 H   0  0  0  0  0  0
   17.2020    7.0820   14.2550 H   0  0  0  0  0  0
    9.7630    0.9950   11.9740 N   0  0  0  0  0  0
    9.8930    0.3420   11.2150 H   0  0  0  0  0  0
    8.9290    0.9630   12.5410 H   0  0  0  0  0  0
  1  2  2  0  0  0
  1  6  1  0  0  0
  2  3  1  0  0  0
  2 41  1  0  0  0
  3  4  2  0  0  0
  4  5  1  0  0  0
  4 12  1  0  0  0
  5  6  2  0  0  0
  5 10  1  0  0  0
  6  7  1  0  0  0
  7  8  1  0  0  0
  7  9  1  0  0  0
 10 11  2  0  0  0
 10 14  1  0  0  0
 11 12  1  0  0  0
 11 13  1  0  0  0
 14 15  1  0  0  0
 14 16  1  0  0  0
 14 17  1  0  0  0
 17 18  1  0  0  0
 17 37  1  0  0  0
 18 19  1  0  0  0
 18 25  2  0  0  0
 19 20  2  0  0  0
 19 32  1  0  0  0
 20 21  1  0  0  0
 20 22  1  0  0  0
 22 23  1  0  0  0
 22 24  2  0  0  0
 24 25  1  0  0  0
 24 27  1  0  0  0
 25 26  1  0  0  0
 27 28  1  0  0  0
 28 29  1  0  0  0
 28 30  1  0  0  0
 28 31  1  0  0  0
 32 33  1  0  0  0
 33 34  1  0  0  0
 33 35  1  0  0  0
 33 36  1  0  0  0
 37 38  1  0  0  0
 37 39  1  0  0  0
 37 40  1  0  0  0
 41 42  1  0  0  0
 41 43  1  0  0  0
M  END
>  <ACTIVITY>
3.3

>  <SET>
3

>  <Min_dist>
0.17

>  <Avg_dist>
0.55

$$$$
36-6e
  Cerius2 12110214133D 1   1.00000                          
Structure written by Cerius2 SD Exporter
 40 43  0  0  0  0  0  0  0  0999 V2000
   10.5200    2.7960   13.2840 N   0  0  0  0  0  0
   10.7070    1.9650   12.2580 C   0  0  0  0  0  0
   11.7620    1.9600   11.4570 N   0  0  0  0  0  0
   12.6910    2.8710   11.7870 C   0  0  0  0  0  0
   12.6490    3.7700   12.8440 C   0  0  0  0  0  0
   11.4530    3.7230   13.5920 C   0  0  0  0  0  0
   11.1090    4.5740   14.6130 N   0  0  0  0  0  0
   11.5810    5.4450   14.8010 H   0  0  0  0  0  0
   10.1930    4.4520   15.0310 H   0  0  0  0  0  0
   13.8910    4.5430   12.9120 C   0  0  0  0  0  0
   14.6890    4.2490   11.8200 C   0  0  0  0  0  0
   14.0880    3.0140   10.8330 S   0  0  0  0  0  0
   16.3260    5.0890   11.3970 Br  0  0  0  0  0  0
   14.2410    5.5360   13.9950 C   0  0  0  0  0  0
   14.6930    5.0130   14.8380 H   0  0  0  0  0  0
   13.3020    5.9810   14.3480 H   0  0  0  0  0  0
   15.1770    6.5900   13.6220 N   0  0  0  0  0  0
   15.8630    6.8550   14.3250 H   0  0  0  0  0  0
   15.1940    7.2370   12.4050 C   0  0  0  0  0  0
   14.0440    7.5480   11.6790 C   0  0  0  0  0  0
   13.0650    7.2700   12.0650 H   0  0  0  0  0  0
   14.1070    8.2040   10.4370 C   0  0  0  0  0  0
   15.3480    8.5680    9.8890 C   0  0  0  0  0  0
   16.5130    8.2580   10.6100 C   0  0  0  0  0  0
   16.4240    7.6000   11.8470 C   0  0  0  0  0  0
   17.3390    7.3800   12.3950 H   0  0  0  0  0  0
   18.1080    8.7510   10.1370 Cl  0  0  0  0  0  0
   15.4230    9.2310    8.6360 N   0  0  0  0  0  0
   16.2480    8.8970    7.5790 C   0  0  0  0  0  0
   16.9030    8.0360    7.6370 H   0  0  0  0  0  0
   16.0320    9.7760    6.5390 C   0  0  0  0  0  0
   16.5330    9.7550    5.5780 H   0  0  0  0  0  0
   15.0420   10.6870    6.9630 C   0  0  0  0  0  0
   14.6350   11.5180    6.3990 H   0  0  0  0  0  0
   14.6850   10.3330    8.2460 C   0  0  0  0  0  0
   13.9860   10.8010    8.9280 H   0  0  0  0  0  0
   12.5910    8.3910    9.6120 Cl  0  0  0  0  0  0
    9.7200    1.0600   12.0050 N   0  0  0  0  0  0
    9.8110    0.4210   11.2290 H   0  0  0  0  0  0
    8.8940    1.0500   12.5850 H   0  0  0  0  0  0
  1  2  2  0  0  0
  1  6  1  0  0  0
  2  3  1  0  0  0
  2 38  1  0  0  0
  3  4  2  0  0  0
  4  5  1  0  0  0
  4 12  1  0  0  0
  5  6  2  0  0  0
  5 10  1  0  0  0
  6  7  1  0  0  0
  7  8  1  0  0  0
  7  9  1  0  0  0
 10 11  2  0  0  0
 10 14  1  0  0  0
 11 12  1  0  0  0
 11 13  1  0  0  0
 14 15  1  0  0  0
 14 16  1  0  0  0
 14 17  1  0  0  0
 17 18  1  0  0  0
 17 19  1  0  0  0
 19 20  1  0  0  0
 19 25  2  0  0  0
 20 21  1  0  0  0
 20 22  2  0  0  0
 22 23  1  0  0  0
 22 37  1  0  0  0
 23 24  2  0  0  0
 23 28  1  0  0  0
 24 25  1  0  0  0
 24 27  1  0  0  0
 25 26  1  0  0  0
 28 29  1  0  0  0
 28 35  1  0  0  0
 29 30  1  0  0  0
 29 31  2  0  0  0
 31 32  1  0  0  0
 31 33  1  0  0  0
 33 34  1  0  0  0
 33 35  2  0  0  0
 35 36  1  0  0  0
 38 39  1  0  0  0
 38 40  1  0  0  0
M  END
>  <ACTIVITY>
5

>  <SET>
2

>  <Min_dist>
0.24

>  <Avg_dist>
0.57

$$$$
36-7a
  Cerius2 12110214133D 1   1.00000                          
Structure written by Cerius2 SD Exporter
 44 46  0  0  0  0  0  0  0  0999 V2000
   10.5070    2.7990   13.2800 N   0  0  0  0  0  0
   10.6810    1.9880   12.2330 C   0  0  0  0  0  0
   11.7510    1.9600   11.4500 N   0  0  0  0  0  0
   12.6990    2.8400   11.8060 C   0  0  0  0  0  0
   12.6580    3.7270   12.8710 C   0  0  0  0  0  0
   11.4670    3.6840   13.6230 C   0  0  0  0  0  0
   11.1790    4.4920   14.6950 N   0  0  0  0  0  0
   11.7660    5.2450   15.0150 H   0  0  0  0  0  0
   10.2770    4.3810   15.1430 H   0  0  0  0  0  0
   13.8920    4.5000   12.9490 C   0  0  0  0  0  0
   14.7430    4.1770   11.9030 C   0  0  0  0  0  0
   15.7130    4.6050   11.6820 H   0  0  0  0  0  0
   14.1300    2.9470   10.8960 S   0  0  0  0  0  0
   14.1910    5.5360   14.0080 C   0  0  0  0  0  0
   14.5960    5.0200   14.8860 H   0  0  0  0  0  0
   13.2290    5.9840   14.2860 H   0  0  0  0  0  0
   15.1310    6.5940   13.6540 N   0  0  0  0  0  0
   15.6300    7.0260   14.4290 H   0  0  0  0  0  0
   15.1450    7.2550   12.4380 C   0  0  0  0  0  0
   13.9900    7.5400   11.7030 C   0  0  0  0  0  0
   13.0050    7.2840   12.0840 H   0  0  0  0  0  0
   14.0730    8.1660   10.4580 C   0  0  0  0  0  0
   15.3120    8.5540    9.9410 C   0  0  0  0  0  0
   16.4880    8.2470   10.6350 C   0  0  0  0  0  0
   16.3890    7.5990   11.8740 C   0  0  0  0  0  0
   17.2850    7.3460   12.4350 H   0  0  0  0  0  0
   17.6600    8.6150   10.0270 O   0  0  0  0  0  0
   18.8730    8.3130   10.7130 C   0  0  0  0  0  0
   19.7030    8.6720   10.0960 H   0  0  0  0  0  0
   18.9950    7.2330   10.8400 H   0  0  0  0  0  0
   18.9220    8.8360   11.6740 H   0  0  0  0  0  0
   15.3740    9.1700    8.7130 O   0  0  0  0  0  0
   16.7380    9.4620    8.3870 C   0  0  0  0  0  0
   16.7500    9.9380    7.4020 H   0  0  0  0  0  0
   17.3370    8.5470    8.3300 H   0  0  0  0  0  0
   17.1760   10.1610    9.1080 H   0  0  0  0  0  0
   12.9120    8.4550    9.7870 O   0  0  0  0  0  0
   13.2180    9.0390    8.5160 C   0  0  0  0  0  0
   12.2710    9.2540    8.0120 H   0  0  0  0  0  0
   13.7870    8.3440    7.8890 H   0  0  0  0  0  0
   13.7630    9.9820    8.6330 H   0  0  0  0  0  0
    9.6710    1.1200   11.9460 N   0  0  0  0  0  0
    9.7580    0.4920   11.1610 H   0  0  0  0  0  0
    8.8400    1.1140   12.5180 H   0  0  0  0  0  0
  1  2  2  0  0  0
  1  6  1  0  0  0
  2  3  1  0  0  0
  2 42  1  0  0  0
  3  4  2  0  0  0
  4  5  1  0  0  0
  4 13  1  0  0  0
  5  6  2  0  0  0
  5 10  1  0  0  0
  6  7  1  0  0  0
  7  8  1  0  0  0
  7  9  1  0  0  0
 10 11  2  0  0  0
 10 14  1  0  0  0
 11 12  1  0  0  0
 11 13  1  0  0  0
 14 15  1  0  0  0
 14 16  1  0  0  0
 14 17  1  0  0  0
 17 18  1  0  0  0
 17 19  1  0  0  0
 19 20  1  0  0  0
 19 25  2  0  0  0
 20 21  1  0  0  0
 20 22  2  0  0  0
 22 23  1  0  0  0
 22 37  1  0  0  0
 23 24  2  0  0  0
 23 32  1  0  0  0
 24 25  1  0  0  0
 24 27  1  0  0  0
 25 26  1  0  0  0
 27 28  1  0  0  0
 28 29  1  0  0  0
 28 30  1  0  0  0
 28 31  1  0  0  0
 32 33  1  0  0  0
 33 34  1  0  0  0
 33 35  1  0  0  0
 33 36  1  0  0  0
 37 38  1  0  0  0
 38 39  1  0  0  0
 38 40  1  0  0  0
 38 41  1  0  0  0
 42 43  1  0  0  0
 42 44  1  0  0  0
M  END
>  <ACTIVITY>
3.3

>  <SET>
3

>  <Min_dist>
0.09

>  <Avg_dist>
0.52

$$$$
36-7b
  Cerius2 12110214133D 1   1.00000                          
Structure written by Cerius2 SD Exporter
 40 42  0  0  0  0  0  0  0  0999 V2000
   10.5070    2.8000   13.2790 N   0  0  0  0  0  0
   10.6840    1.9820   12.2370 C   0  0  0  0  0  0
   11.7540    1.9540   11.4530 N   0  0  0  0  0  0
   12.6980    2.8410   11.8030 C   0  0  0  0  0  0
   12.6530    3.7350   12.8610 C   0  0  0  0  0  0
   11.4630    3.6920   13.6150 C   0  0  0  0  0  0
   11.1740    4.5050   14.6820 N   0  0  0  0  0  0
   11.7630    5.2570   15.0000 H   0  0  0  0  0  0
   10.2740    4.3910   15.1350 H   0  0  0  0  0  0
   13.8810    4.5180   12.9310 C   0  0  0  0  0  0
   14.7350    4.1910   11.8890 C   0  0  0  0  0  0
   15.7020    4.6210   11.6630 H   0  0  0  0  0  0
   14.1300    2.9480   10.8930 S   0  0  0  0  0  0
   14.1630    5.5650   13.9860 C   0  0  0  0  0  0
   14.5460    5.0450   14.8720 H   0  0  0  0  0  0
   13.1940    6.0200   14.2250 H   0  0  0  0  0  0
   15.1140    6.6160   13.6470 N   0  0  0  0  0  0
   15.5810    7.0620   14.4340 H   0  0  0  0  0  0
   15.2480    7.2280   12.4050 C   0  0  0  0  0  0
   16.4660    7.6410   11.8130 C   0  0  0  0  0  0
   16.4490    8.2920   10.5710 C   0  0  0  0  0  0
   17.3610    8.6170   10.0780 H   0  0  0  0  0  0
   15.2450    8.5480    9.9140 C   0  0  0  0  0  0
   15.2600    9.0560    8.9510 H   0  0  0  0  0  0
   14.0360    8.1620   10.4810 C   0  0  0  0  0  0
   14.0470    7.5130   11.7170 C   0  0  0  0  0  0
   13.1110    7.2130   12.1840 H   0  0  0  0  0  0
   12.9290    8.4760    9.7430 O   0  0  0  0  0  0
   13.1520    9.0630    8.4620 C   0  0  0  0  0  0
   12.1740    9.2550    8.0090 H   0  0  0  0  0  0
   13.6950    8.3770    7.8040 H   0  0  0  0  0  0
   13.6710   10.0230    8.5550 H   0  0  0  0  0  0
   17.6260    7.3570   12.4890 O   0  0  0  0  0  0
   18.8640    7.7160   11.8800 C   0  0  0  0  0  0
   19.6660    7.4330   12.5700 H   0  0  0  0  0  0
   18.9280    8.7970   11.7230 H   0  0  0  0  0  0
   19.0180    7.1640   10.9470 H   0  0  0  0  0  0
    9.6780    1.1080   11.9560 N   0  0  0  0  0  0
    9.7660    0.4750   11.1750 H   0  0  0  0  0  0
    8.8470    1.1040   12.5300 H   0  0  0  0  0  0
  1  2  2  0  0  0
  1  6  1  0  0  0
  2  3  1  0  0  0
  2 38  1  0  0  0
  3  4  2  0  0  0
  4  5  1  0  0  0
  4 13  1  0  0  0
  5  6  2  0  0  0
  5 10  1  0  0  0
  6  7  1  0  0  0
  7  8  1  0  0  0
  7  9  1  0  0  0
 10 11  2  0  0  0
 10 14  1  0  0  0
 11 12  1  0  0  0
 11 13  1  0  0  0
 14 15  1  0  0  0
 14 16  1  0  0  0
 14 17  1  0  0  0
 17 18  1  0  0  0
 17 19  1  0  0  0
 19 20  1  0  0  0
 19 26  2  0  0  0
 20 21  2  0  0  0
 20 33  1  0  0  0
 21 22  1  0  0  0
 21 23  1  0  0  0
 23 24  1  0  0  0
 23 25  2  0  0  0
 25 26  1  0  0  0
 25 28  1  0  0  0
 26 27  1  0  0  0
 28 29  1  0  0  0
 29 30  1  0  0  0
 29 31  1  0  0  0
 29 32  1  0  0  0
 33 34  1  0  0  0
 34 35  1  0  0  0
 34 36  1  0  0  0
 34 37  1  0  0  0
 38 39  1  0  0  0
 38 40  1  0  0  0
M  END
>  <ACTIVITY>
3.3

>  <SET>
3

>  <Min_dist>
0.2

>  <Avg_dist>
0.53

$$$$
36-7c
  Cerius2 12110214133D 1   1.00000                          
Structure written by Cerius2 SD Exporter
 47 49  0  0  0  0  0  0  0  0999 V2000
   10.4960    2.7990   13.2750 N   0  0  0  0  0  0
   10.6620    2.0210   12.2020 C   0  0  0  0  0  0
   11.7520    1.9720   11.4470 N   0  0  0  0  0  0
   12.7150    2.8200   11.8400 C   0  0  0  0  0  0
   12.6670    3.6990   12.9120 C   0  0  0  0  0  0
   11.4790    3.6380   13.6670 C   0  0  0  0  0  0
   11.2280    4.3600   14.8060 N   0  0  0  0  0  0
   11.9140    4.9220   15.2830 H   0  0  0  0  0  0
   10.3430    4.2080   15.2780 H   0  0  0  0  0  0
   13.8870    4.4900   12.9830 C   0  0  0  0  0  0
   14.7960    4.0870   12.0180 C   0  0  0  0  0  0
   15.7950    4.4750   11.8560 H   0  0  0  0  0  0
   14.1880    2.8720   10.9920 S   0  0  0  0  0  0
   14.1520    5.5920   13.9860 C   0  0  0  0  0  0
   14.3840    5.0790   14.9260 H   0  0  0  0  0  0
   13.2260    6.1530   14.1560 H   0  0  0  0  0  0
   15.1820    6.5910   13.6340 N   0  0  0  0  0  0
   15.2280    7.2370   12.4060 C   0  0  0  0  0  0
   16.4380    7.6290   11.8150 C   0  0  0  0  0  0
   17.3880    7.4620   12.3150 H   0  0  0  0  0  0
   16.4690    8.2940   10.5860 C   0  0  0  0  0  0
   15.2900    8.5450    9.8860 C   0  0  0  0  0  0
   14.0600    8.1950   10.4510 C   0  0  0  0  0  0
   14.0460    7.5490   11.6970 C   0  0  0  0  0  0
   13.0940    7.2550   12.1290 H   0  0  0  0  0  0
   12.9480    8.5180    9.7150 O   0  0  0  0  0  0
   13.1590    9.0770    8.4200 C   0  0  0  0  0  0
   12.1770    9.2650    7.9770 H   0  0  0  0  0  0
   13.6900    8.3740    7.7710 H   0  0  0  0  0  0
   13.6840   10.0340    8.4870 H   0  0  0  0  0  0
   15.3370    9.2060    8.6820 O   0  0  0  0  0  0
   16.6980    9.4780    8.3300 C   0  0  0  0  0  0
   16.6940    9.9990    7.3680 H   0  0  0  0  0  0
   17.2700    8.5520    8.2120 H   0  0  0  0  0  0
   17.1760   10.1320    9.0680 H   0  0  0  0  0  0
   17.6900    8.6360   10.0590 O   0  0  0  0  0  0
   18.7380    8.1950   10.9290 C   0  0  0  0  0  0
   19.6910    8.4790   10.4730 H   0  0  0  0  0  0
   18.7260    7.1050   11.0400 H   0  0  0  0  0  0
   18.6720    8.6800   11.9090 H   0  0  0  0  0  0
   16.2330    6.8290   14.6300 C   0  0  0  0  0  0
   17.2270    6.7960   14.1680 H   0  0  0  0  0  0
   16.2210    6.0600   15.4110 H   0  0  0  0  0  0
   16.0940    7.7990   15.1180 H   0  0  0  0  0  0
    9.6250    1.2060   11.8630 N   0  0  0  0  0  0
    9.7040    0.6000   11.0600 H   0  0  0  0  0  0
    8.7810    1.2170   12.4170 H   0  0  0  0  0  0
  1  2  2  0  0  0
  1  6  1  0  0  0
  2  3  1  0  0  0
  2 45  1  0  0  0
  3  4  2  0  0  0
  4  5  1  0  0  0
  4 13  1  0  0  0
  5  6  2  0  0  0
  5 10  1  0  0  0
  6  7  1  0  0  0
  7  8  1  0  0  0
  7  9  1  0  0  0
 10 11  2  0  0  0
 10 14  1  0  0  0
 11 12  1  0  0  0
 11 13  1  0  0  0
 14 15  1  0  0  0
 14 16  1  0  0  0
 14 17  1  0  0  0
 17 18  1  0  0  0
 17 41  1  0  0  0
 18 19  1  0  0  0
 18 24  2  0  0  0
 19 20  1  0  0  0
 19 21  2  0  0  0
 21 22  1  0  0  0
 21 36  1  0  0  0
 22 23  2  0  0  0
 22 31  1  0  0  0
 23 24  1  0  0  0
 23 26  1  0  0  0
 24 25  1  0  0  0
 26 27  1  0  0  0
 27 28  1  0  0  0
 27 29  1  0  0  0
 27 30  1  0  0  0
 31 32  1  0  0  0
 32 33  1  0  0  0
 32 34  1  0  0  0
 32 35  1  0  0  0
 36 37  1  0  0  0
 37 38  1  0  0  0
 37 39  1  0  0  0
 37 40  1  0  0  0
 41 42  1  0  0  0
 41 43  1  0  0  0
 41 44  1  0  0  0
 45 46  1  0  0  0
 45 47  1  0  0  0
M  END
>  <ACTIVITY>
3.3

>  <SET>
3

>  <Min_dist>
0.14

>  <Avg_dist>
0.53

$$$$
36-7d
  Cerius2 12110214133D 1   1.00000                          
Structure written by Cerius2 SD Exporter
 43 45  0  0  0  0  0  0  0  0999 V2000
   10.4850    2.7790   13.2540 N   0  0  0  0  0  0
   10.6900    1.9630   12.2170 C   0  0  0  0  0  0
   11.7800    1.9370   11.4600 N   0  0  0  0  0  0
   12.7010    2.8440   11.8160 C   0  0  0  0  0  0
   12.6130    3.7600   12.8540 C   0  0  0  0  0  0
   11.4260    3.6800   13.6080 C   0  0  0  0  0  0
   11.1360    4.4460   14.7100 N   0  0  0  0  0  0
   11.7820    5.0850   15.1440 H   0  0  0  0  0  0
   10.2560    4.2790   15.1850 H   0  0  0  0  0  0
   13.8000    4.6010   12.9000 C   0  0  0  0  0  0
   14.7220    4.2130   11.9400 C   0  0  0  0  0  0
   15.7010    4.6410   11.7610 H   0  0  0  0  0  0
   14.1670    2.9370   10.9590 S   0  0  0  0  0  0
   14.0250    5.7310   13.8820 C   0  0  0  0  0  0
   14.1320    5.2470   14.8620 H   0  0  0  0  0  0
   13.1260    6.3570   13.9110 H   0  0  0  0  0  0
   15.1790    6.6140   13.6250 N   0  0  0  0  0  0
   15.3010    7.2500   12.3820 C   0  0  0  0  0  0
   16.5330    7.6270   11.7950 C   0  0  0  0  0  0
   16.5420    8.2510   10.5410 C   0  0  0  0  0  0
   17.4670    8.5530   10.0550 H   0  0  0  0  0  0
   15.3470    8.5240    9.8630 C   0  0  0  0  0  0
   15.4140    9.0120    8.8940 H   0  0  0  0  0  0
   14.1270    8.1790   10.4330 C   0  0  0  0  0  0
   14.1160    7.5500   11.6810 C   0  0  0  0  0  0
   13.1570    7.2680   12.1150 H   0  0  0  0  0  0
   12.8940    8.3930    9.8830 O   0  0  0  0  0  0
   12.8610    8.9950    8.5910 C   0  0  0  0  0  0
   11.8110    9.1110    8.3050 H   0  0  0  0  0  0
   13.3420    8.3540    7.8450 H   0  0  0  0  0  0
   13.3140    9.9920    8.6090 H   0  0  0  0  0  0
   17.6680    7.3800   12.5290 O   0  0  0  0  0  0
   18.9240    7.6990   11.9350 C   0  0  0  0  0  0
   19.7070    7.4270   12.6490 H   0  0  0  0  0  0
   19.0070    8.7730   11.7420 H   0  0  0  0  0  0
   19.0880    7.1150   11.0230 H   0  0  0  0  0  0
   16.1090    6.8050   14.5850 C   0  0  0  0  0  0
   15.7710    6.3480   15.5150 H   0  0  0  0  0  0
   17.0490    6.3480   14.2750 H   0  0  0  0  0  0
   16.2580    7.8740   14.7380 H   0  0  0  0  0  0
    9.6960    1.0820   11.9160 N   0  0  0  0  0  0
    9.8060    0.4480   11.1380 H   0  0  0  0  0  0
    8.8500    1.0780   12.4670 H   0  0  0  0  0  0
  1  2  2  0  0  0
  1  6  1  0  0  0
  2  3  1  0  0  0
  2 41  1  0  0  0
  3  4  2  0  0  0
  4  5  1  0  0  0
  4 13  1  0  0  0
  5  6  2  0  0  0
  5 10  1  0  0  0
  6  7  1  0  0  0
  7  8  1  0  0  0
  7  9  1  0  0  0
 10 11  2  0  0  0
 10 14  1  0  0  0
 11 12  1  0  0  0
 11 13  1  0  0  0
 14 15  1  0  0  0
 14 16  1  0  0  0
 14 17  1  0  0  0
 17 18  1  0  0  0
 17 37  1  0  0  0
 18 19  1  0  0  0
 18 25  2  0  0  0
 19 20  2  0  0  0
 19 32  1  0  0  0
 20 21  1  0  0  0
 20 22  1  0  0  0
 22 23  1  0  0  0
 22 24  2  0  0  0
 24 25  1  0  0  0
 24 27  1  0  0  0
 25 26  1  0  0  0
 27 28  1  0  0  0
 28 29  1  0  0  0
 28 30  1  0  0  0
 28 31  1  0  0  0
 32 33  1  0  0  0
 33 34  1  0  0  0
 33 35  1  0  0  0
 33 36  1  0  0  0
 37 38  1  0  0  0
 37 39  1  0  0  0
 37 40  1  0  0  0
 41 42  1  0  0  0
 41 43  1  0  0  0
M  END
>  <ACTIVITY>
3.3

>  <SET>
3

>  <Min_dist>
0.25

>  <Avg_dist>
0.53

$$$$
36-7e
  Cerius2 12110214133D 1   1.00000                          
Structure written by Cerius2 SD Exporter
 40 43  0  0  0  0  0  0  0  0999 V2000
   10.5130    2.8040   13.2810 N   0  0  0  0  0  0
   10.6890    1.9820   12.2430 C   0  0  0  0  0  0
   11.7550    1.9540   11.4540 N   0  0  0  0  0  0
   12.6980    2.8450   11.7970 C   0  0  0  0  0  0
   12.6560    3.7420   12.8530 C   0  0  0  0  0  0
   11.4670    3.7010   13.6090 C   0  0  0  0  0  0
   11.1760    4.5210   14.6690 N   0  0  0  0  0  0
   11.7540    5.2900   14.9710 H   0  0  0  0  0  0
   10.2760    4.4090   15.1230 H   0  0  0  0  0  0
   13.8850    4.5230   12.9190 C   0  0  0  0  0  0
   14.7330    4.1970   11.8710 C   0  0  0  0  0  0
   15.6990    4.6290   11.6430 H   0  0  0  0  0  0
   14.1250    2.9530   10.8790 S   0  0  0  0  0  0
   14.1860    5.5680   13.9680 C   0  0  0  0  0  0
   14.5670    5.0590   14.8600 H   0  0  0  0  0  0
   13.2280    6.0380   14.2240 H   0  0  0  0  0  0
   15.1530    6.6020   13.6120 N   0  0  0  0  0  0
   15.6730    7.0100   14.3870 H   0  0  0  0  0  0
   15.1790    7.2700   12.4030 C   0  0  0  0  0  0
   14.0390    7.5740   11.6590 C   0  0  0  0  0  0
   13.0540    7.3010   12.0330 H   0  0  0  0  0  0
   14.1200    8.2210   10.4140 C   0  0  0  0  0  0
   15.3680    8.5750    9.8750 C   0  0  0  0  0  0
   16.5230    8.2600   10.6080 C   0  0  0  0  0  0
   16.4170    7.6110   11.8490 C   0  0  0  0  0  0
   17.3260    7.3810   12.4030 H   0  0  0  0  0  0
   18.1270    8.7380   10.1470 Cl  0  0  0  0  0  0
   15.4590    9.2320    8.6200 N   0  0  0  0  0  0
   16.2910    8.8870    7.5710 C   0  0  0  0  0  0
   16.9390    8.0230    7.6380 H   0  0  0  0  0  0
   16.0890    9.7620    6.5260 C   0  0  0  0  0  0
   16.5970    9.7330    5.5680 H   0  0  0  0  0  0
   15.1030   10.6830    6.9370 C   0  0  0  0  0  0
   14.7050   11.5140    6.3650 H   0  0  0  0  0  0
   14.7320   10.3370    8.2180 C   0  0  0  0  0  0
   14.0300   10.8130    8.8910 H   0  0  0  0  0  0
   12.6140    8.4090    9.5690 Cl  0  0  0  0  0  0
    9.6850    1.1020   11.9710 N   0  0  0  0  0  0
    9.7740    0.4630   11.1950 H   0  0  0  0  0  0
    8.8580    1.0960   12.5490 H   0  0  0  0  0  0
  1  2  2  0  0  0
  1  6  1  0  0  0
  2  3  1  0  0  0
  2 38  1  0  0  0
  3  4  2  0  0  0
  4  5  1  0  0  0
  4 13  1  0  0  0
  5  6  2  0  0  0
  5 10  1  0  0  0
  6  7  1  0  0  0
  7  8  1  0  0  0
  7  9  1  0  0  0
 10 11  2  0  0  0
 10 14  1  0  0  0
 11 12  1  0  0  0
 11 13  1  0  0  0
 14 15  1  0  0  0
 14 16  1  0  0  0
 14 17  1  0  0  0
 17 18  1  0  0  0
 17 19  1  0  0  0
 19 20  1  0  0  0
 19 25  2  0  0  0
 20 21  1  0  0  0
 20 22  2  0  0  0
 22 23  1  0  0  0
 22 37  1  0  0  0
 23 24  2  0  0  0
 23 28  1  0  0  0
 24 25  1  0  0  0
 24 27  1  0  0  0
 25 26  1  0  0  0
 28 29  1  0  0  0
 28 35  1  0  0  0
 29 30  1  0  0  0
 29 31  2  0  0  0
 31 32  1  0  0  0
 31 33  1  0  0  0
 33 34  1  0  0  0
 33 35  2  0  0  0
 35 36  1  0  0  0
 38 39  1  0  0  0
 38 40  1  0  0  0
M  END
>  <ACTIVITY>
3.3

>  <SET>
3

>  <Min_dist>
0.22

>  <Avg_dist>
0.56

$$$$
37-1a
  Cerius2 12110214133D 1   1.00000                          
Structure written by Cerius2 SD Exporter
 28 30  0  0  0  0  0  0  0  0999 V2000
   10.6900    2.6290   13.4580 N   0  0  0  0  0  0
   10.8470    1.8790   12.3560 C   0  0  0  0  0  0
   11.8090    2.0210   11.4410 N   0  0  0  0  0  0
   12.6600    3.0170   11.7280 C   0  0  0  0  0  0
   12.6190    3.8550   12.8330 C   0  0  0  0  0  0
   11.5580    3.6340   13.7240 C   0  0  0  0  0  0
   11.3240    4.3780   14.8530 N   0  0  0  0  0  0
   11.8970    5.1750   15.0950 H   0  0  0  0  0  0
   10.5230    4.1620   15.4330 H   0  0  0  0  0  0
   13.7320    4.7480   12.7100 C   0  0  0  0  0  0
   14.3880    4.4280   11.5350 C   0  0  0  0  0  0
   15.2710    4.8440   11.0640 H   0  0  0  0  0  0
   13.7290    3.3750   10.9510 N   0  0  0  0  0  0
   13.9860    2.9240   10.0830 H   0  0  0  0  0  0
   14.1990    5.8040   13.5890 C   0  0  0  0  0  0
   14.2830    7.1240   13.1290 C   0  0  0  0  0  0
   13.9930    7.3750   12.1090 H   0  0  0  0  0  0
   14.7360    8.1380   13.9770 C   0  0  0  0  0  0
   14.7970    9.1620   13.6140 H   0  0  0  0  0  0
   15.1080    7.8380   15.2860 C   0  0  0  0  0  0
   15.4610    8.6290   15.9470 H   0  0  0  0  0  0
   15.0310    6.5260   15.7500 C   0  0  0  0  0  0
   15.3250    6.2910   16.7720 H   0  0  0  0  0  0
   14.5790    5.5100   14.9040 C   0  0  0  0  0  0
   14.5310    4.4890   15.2800 H   0  0  0  0  0  0
    9.9370    0.8850   12.1520 N   0  0  0  0  0  0
   10.0150    0.2970   11.3350 H   0  0  0  0  0  0
    9.1930    0.7460   12.8190 H   0  0  0  0  0  0
  1  2  2  0  0  0
  1  6  1  0  0  0
  2  3  1  0  0  0
  2 26  1  0  0  0
  3  4  2  0  0  0
  4  5  1  0  0  0
  4 13  1  0  0  0
  5  6  2  0  0  0
  5 10  1  0  0  0
  6  7  1  0  0  0
  7  8  1  0  0  0
  7  9  1  0  0  0
 10 11  2  0  0  0
 10 15  1  0  0  0
 11 12  1  0  0  0
 11 13  1  0  0  0
 13 14  1  0  0  0
 15 16  1  0  0  0
 15 24  2  0  0  0
 16 17  1  0  0  0
 16 18  2  0  0  0
 18 19  1  0  0  0
 18 20  1  0  0  0
 20 21  1  0  0  0
 20 22  2  0  0  0
 22 23  1  0  0  0
 22 24  1  0  0  0
 24 25  1  0  0  0
 26 27  1  0  0  0
 26 28  1  0  0  0
M  END
>  <ACTIVITY>
5.04

>  <SET>
2

>  <Min_dist>
0.36

>  <Avg_dist>
0.61

$$$$
37-1b
  Cerius2 12110214133D 1   1.00000                          
Structure written by Cerius2 SD Exporter
 28 30  0  0  0  0  0  0  0  0999 V2000
   10.6900    2.6280   13.4580 N   0  0  0  0  0  0
   10.8470    1.8790   12.3560 C   0  0  0  0  0  0
   11.8090    2.0210   11.4410 N   0  0  0  0  0  0
   12.6590    3.0180   11.7280 C   0  0  0  0  0  0
   12.6180    3.8560   12.8330 C   0  0  0  0  0  0
   11.5570    3.6330   13.7240 C   0  0  0  0  0  0
   11.3220    4.3780   14.8530 N   0  0  0  0  0  0
   11.8930    5.1760   15.0950 H   0  0  0  0  0  0
   10.5210    4.1600   15.4320 H   0  0  0  0  0  0
   13.7310    4.7490   12.7110 C   0  0  0  0  0  0
   14.3870    4.4290   11.5350 C   0  0  0  0  0  0
   15.2700    4.8450   11.0650 H   0  0  0  0  0  0
   13.7280    3.3770   10.9510 N   0  0  0  0  0  0
   13.9860    2.9260   10.0830 H   0  0  0  0  0  0
   14.1970    5.8050   13.5890 C   0  0  0  0  0  0
   14.2840    7.1250   13.1280 C   0  0  0  0  0  0
   13.9960    7.3750   12.1080 H   0  0  0  0  0  0
   14.7390    8.1390   13.9750 C   0  0  0  0  0  0
   14.7990    9.1600   13.6050 H   0  0  0  0  0  0
   15.1100    7.8350   15.2840 C   0  0  0  0  0  0
   15.0310    6.5250   15.7520 C   0  0  0  0  0  0
   15.3220    6.2820   16.7720 H   0  0  0  0  0  0
   14.5770    5.5100   14.9050 C   0  0  0  0  0  0
   14.5270    4.4890   15.2810 H   0  0  0  0  0  0
   15.6700    9.0850   16.3270 Cl  0  0  0  0  0  0
    9.9380    0.8840   12.1520 N   0  0  0  0  0  0
   10.0160    0.2960   11.3350 H   0  0  0  0  0  0
    9.1940    0.7440   12.8190 H   0  0  0  0  0  0
  1  2  2  0  0  0
  1  6  1  0  0  0
  2  3  1  0  0  0
  2 26  1  0  0  0
  3  4  2  0  0  0
  4  5  1  0  0  0
  4 13  1  0  0  0
  5  6  2  0  0  0
  5 10  1  0  0  0
  6  7  1  0  0  0
  7  8  1  0  0  0
  7  9  1  0  0  0
 10 11  2  0  0  0
 10 15  1  0  0  0
 11 12  1  0  0  0
 11 13  1  0  0  0
 13 14  1  0  0  0
 15 16  1  0  0  0
 15 23  2  0  0  0
 16 17  1  0  0  0
 16 18  2  0  0  0
 18 19  1  0  0  0
 18 20  1  0  0  0
 20 21  2  0  0  0
 20 25  1  0  0  0
 21 22  1  0  0  0
 21 23  1  0  0  0
 23 24  1  0  0  0
 26 27  1  0  0  0
 26 28  1  0  0  0
M  END
>  <ACTIVITY>
4.21

>  <SET>
2

>  <Min_dist>
0.41

>  <Avg_dist>
0.59

$$$$
37-1c
  Cerius2 12110214133D 1   1.00000                          
Structure written by Cerius2 SD Exporter
 28 30  0  0  0  0  0  0  0  0999 V2000
   10.6900    2.6270   13.4580 N   0  0  0  0  0  0
   10.8470    1.8780   12.3550 C   0  0  0  0  0  0
   11.8100    2.0210   11.4410 N   0  0  0  0  0  0
   12.6590    3.0180   11.7280 C   0  0  0  0  0  0
   12.6170    3.8560   12.8340 C   0  0  0  0  0  0
   11.5560    3.6320   13.7250 C   0  0  0  0  0  0
   11.3220    4.3750   14.8540 N   0  0  0  0  0  0
   11.8920    5.1730   15.1000 H   0  0  0  0  0  0
   10.5210    4.1550   15.4330 H   0  0  0  0  0  0
   13.7300    4.7490   12.7110 C   0  0  0  0  0  0
   14.3860    4.4300   11.5360 C   0  0  0  0  0  0
   15.2700    4.8460   11.0660 H   0  0  0  0  0  0
   13.7280    3.3770   10.9520 N   0  0  0  0  0  0
   13.9860    2.9270   10.0830 H   0  0  0  0  0  0
   14.1960    5.8050   13.5900 C   0  0  0  0  0  0
   14.5490    5.5200   14.9150 C   0  0  0  0  0  0
   14.4830    4.4990   15.2870 H   0  0  0  0  0  0
   14.9920    6.5410   15.7620 C   0  0  0  0  0  0
   15.0830    7.8540   15.2880 C   0  0  0  0  0  0
   14.7270    8.1410   13.9680 C   0  0  0  0  0  0
   14.7900    9.1580   13.5860 H   0  0  0  0  0  0
   14.2840    7.1210   13.1220 C   0  0  0  0  0  0
   14.0040    7.3660   12.0980 H   0  0  0  0  0  0
   15.6220    9.1620   16.2820 Cl  0  0  0  0  0  0
   15.4140    6.1140   17.3850 Cl  0  0  0  0  0  0
    9.9390    0.8830   12.1500 N   0  0  0  0  0  0
   10.0180    0.2950   11.3340 H   0  0  0  0  0  0
    9.1950    0.7420   12.8180 H   0  0  0  0  0  0
  1  2  2  0  0  0
  1  6  1  0  0  0
  2  3  1  0  0  0
  2 26  1  0  0  0
  3  4  2  0  0  0
  4  5  1  0  0  0
  4 13  1  0  0  0
  5  6  2  0  0  0
  5 10  1  0  0  0
  6  7  1  0  0  0
  7  8  1  0  0  0
  7  9  1  0  0  0
 10 11  2  0  0  0
 10 15  1  0  0  0
 11 12  1  0  0  0
 11 13  1  0  0  0
 13 14  1  0  0  0
 15 16  1  0  0  0
 15 22  2  0  0  0
 16 17  1  0  0  0
 16 18  2  0  0  0
 18 19  1  0  0  0
 18 25  1  0  0  0
 19 20  2  0  0  0
 19 24  1  0  0  0
 20 21  1  0  0  0
 20 22  1  0  0  0
 22 23  1  0  0  0
 26 27  1  0  0  0
 26 28  1  0  0  0
M  END
>  <ACTIVITY>
4.64

>  <SET>
2

>  <Min_dist>
0.39

>  <Avg_dist>
0.59

$$$$
37-1d
  Cerius2 12110214133D 1   1.00000                          
Structure written by Cerius2 SD Exporter
 40 42  0  0  0  0  0  0  0  0999 V2000
   10.5310    2.8320   13.2810 N   0  0  0  0  0  0
   10.7480    2.0070   12.2450 C   0  0  0  0  0  0
   11.8370    1.9870   11.4730 N   0  0  0  0  0  0
   12.7430    2.9120   11.8230 C   0  0  0  0  0  0
   12.6390    3.8290   12.8590 C   0  0  0  0  0  0
   11.4640    3.7520   13.6220 C   0  0  0  0  0  0
   11.1920    4.5410   14.7110 N   0  0  0  0  0  0
   11.8660    5.1960   15.0810 H   0  0  0  0  0  0
   10.3270    4.3980   15.2190 H   0  0  0  0  0  0
   13.8390    4.6120   12.8330 C   0  0  0  0  0  0
   14.6230    4.1270   11.8010 C   0  0  0  0  0  0
   15.5970    4.4260   11.4310 H   0  0  0  0  0  0
   13.9460    3.0980   11.1960 N   0  0  0  0  0  0
   14.2730    2.5580   10.4050 H   0  0  0  0  0  0
   14.2540    5.7380   13.6500 C   0  0  0  0  0  0
   15.4540    5.6810   14.3670 C   0  0  0  0  0  0
   16.0780    4.7910   14.3320 H   0  0  0  0  0  0
   15.8530    6.7750   15.1310 C   0  0  0  0  0  0
   15.0370    7.9090   15.2260 C   0  0  0  0  0  0
   13.8420    7.9880   14.4940 C   0  0  0  0  0  0
   13.4590    6.8960   13.7070 C   0  0  0  0  0  0
   12.5430    6.9200   13.1210 H   0  0  0  0  0  0
   13.1360    9.1570   14.6160 O   0  0  0  0  0  0
   13.6840   10.1620   15.4660 C   0  0  0  0  0  0
   13.0210   11.0310   15.4240 H   0  0  0  0  0  0
   14.6730   10.4790   15.1170 H   0  0  0  0  0  0
   13.7200    9.8200   16.5060 H   0  0  0  0  0  0
   15.4480    8.9790   15.9860 O   0  0  0  0  0  0
   16.6850    8.6660   16.6360 C   0  0  0  0  0  0
   16.9590    9.5220   17.2590 H   0  0  0  0  0  0
   17.4850    8.5070   15.9050 H   0  0  0  0  0  0
   16.5830    7.7900   17.2860 H   0  0  0  0  0  0
   17.0220    6.6930   15.8440 O   0  0  0  0  0  0
   17.6670    5.4430   15.5740 C   0  0  0  0  0  0
   18.5980    5.4180   16.1480 H   0  0  0  0  0  0
   17.9190    5.3480   14.5120 H   0  0  0  0  0  0
   17.0450    4.6010   15.8960 H   0  0  0  0  0  0
    9.7670    1.1060   11.9590 N   0  0  0  0  0  0
    9.8850    0.4660   11.1870 H   0  0  0  0  0  0
    8.9280    1.0890   12.5190 H   0  0  0  0  0  0
  1  2  2  0  0  0
  1  6  1  0  0  0
  2  3  1  0  0  0
  2 38  1  0  0  0
  3  4  2  0  0  0
  4  5  1  0  0  0
  4 13  1  0  0  0
  5  6  2  0  0  0
  5 10  1  0  0  0
  6  7  1  0  0  0
  7  8  1  0  0  0
  7  9  1  0  0  0
 10 11  2  0  0  0
 10 15  1  0  0  0
 11 12  1  0  0  0
 11 13  1  0  0  0
 13 14  1  0  0  0
 15 16  1  0  0  0
 15 21  2  0  0  0
 16 17  1  0  0  0
 16 18  2  0  0  0
 18 19  1  0  0  0
 18 33  1  0  0  0
 19 20  2  0  0  0
 19 28  1  0  0  0
 20 21  1  0  0  0
 20 23  1  0  0  0
 21 22  1  0  0  0
 23 24  1  0  0  0
 24 25  1  0  0  0
 24 26  1  0  0  0
 24 27  1  0  0  0
 28 29  1  0  0  0
 29 30  1  0  0  0
 29 31  1  0  0  0
 29 32  1  0  0  0
 33 34  1  0  0  0
 34 35  1  0  0  0
 34 36  1  0  0  0
 34 37  1  0  0  0
 38 39  1  0  0  0
 38 40  1  0  0  0
M  END
>  <ACTIVITY>
4.57

>  <SET>
2

>  <Min_dist>
0.29

>  <Avg_dist>
0.55

$$$$
37-1e
  Cerius2 12110214133D 1   1.00000                          
Structure written by Cerius2 SD Exporter
 31 33  0  0  0  0  0  0  0  0999 V2000
   10.6180    3.0350   13.0490 N   0  0  0  0  0  0
   10.8450    2.0800   12.1350 C   0  0  0  0  0  0
   11.9500    1.9510   11.4000 N   0  0  0  0  0  0
   12.8670    2.8930   11.6620 C   0  0  0  0  0  0
   12.7660    3.9280   12.5820 C   0  0  0  0  0  0
   11.5560    3.9790   13.2970 C   0  0  0  0  0  0
   11.2300    4.9250   14.2360 N   0  0  0  0  0  0
   11.8350    5.6910   14.4850 H   0  0  0  0  0  0
   10.3230    4.8700   14.6840 H   0  0  0  0  0  0
   14.0020    4.6680   12.5110 C   0  0  0  0  0  0
   14.7680    4.0580   11.5260 C   0  0  0  0  0  0
   15.7530    4.2940   11.1410 H   0  0  0  0  0  0
   14.0780    2.9830   11.0340 N   0  0  0  0  0  0
   14.4010    2.3500   10.3130 H   0  0  0  0  0  0
   14.4120    5.8780   13.2910 C   0  0  0  0  0  0
   15.2090    5.6720   14.0080 H   0  0  0  0  0  0
   13.5650    6.2560   13.8780 H   0  0  0  0  0  0
   14.8540    6.9120   12.2800 C   0  0  0  0  0  0
   16.1990    7.0200   11.8940 C   0  0  0  0  0  0
   16.9490    6.3540   12.3160 H   0  0  0  0  0  0
   16.5980    7.9820   10.9630 C   0  0  0  0  0  0
   17.6440    8.0540   10.6710 H   0  0  0  0  0  0
   15.6590    8.8480   10.4060 C   0  0  0  0  0  0
   15.9710    9.5970    9.6800 H   0  0  0  0  0  0
   14.3200    8.7540   10.7790 C   0  0  0  0  0  0
   13.5850    9.4290   10.3440 H   0  0  0  0  0  0
   13.9190    7.7930   11.7100 C   0  0  0  0  0  0
   12.8670    7.7320   11.9880 H   0  0  0  0  0  0
    9.8560    1.1630   11.9400 N   0  0  0  0  0  0
    9.9840    0.4280   11.2610 H   0  0  0  0  0  0
    9.0040    1.2280   12.4770 H   0  0  0  0  0  0
  1  2  2  0  0  0
  1  6  1  0  0  0
  2  3  1  0  0  0
  2 29  1  0  0  0
  3  4  2  0  0  0
  4  5  1  0  0  0
  4 13  1  0  0  0
  5  6  2  0  0  0
  5 10  1  0  0  0
  6  7  1  0  0  0
  7  8  1  0  0  0
  7  9  1  0  0  0
 10 11  2  0  0  0
 10 15  1  0  0  0
 11 12  1  0  0  0
 11 13  1  0  0  0
 13 14  1  0  0  0
 15 16  1  0  0  0
 15 17  1  0  0  0
 15 18  1  0  0  0
 18 19  1  0  0  0
 18 27  2  0  0  0
 19 20  1  0  0  0
 19 21  2  0  0  0
 21 22  1  0  0  0
 21 23  1  0  0  0
 23 24  1  0  0  0
 23 25  2  0  0  0
 25 26  1  0  0  0
 25 27  1  0  0  0
 27 28  1  0  0  0
 29 30  1  0  0  0
 29 31  1  0  0  0
M  END
>  <ACTIVITY>
3.57

>  <SET>
2

>  <Min_dist>
0.36

>  <Avg_dist>
0.59

$$$$
38-10
  Cerius2 12110214133D 1   1.00000                          
Structure written by Cerius2 SD Exporter
 43 46  0  0  0  0  0  0  0  0999 V2000
   10.4890    2.7780   13.2620 N   0  0  0  0  0  0
   10.7340    1.9990   12.1970 C   0  0  0  0  0  0
   11.8340    2.0210   11.4490 N   0  0  0  0  0  0
   12.7220    2.9250   11.8760 C   0  0  0  0  0  0
   12.6050    3.7810   12.9600 C   0  0  0  0  0  0
   11.4040    3.6880   13.6690 C   0  0  0  0  0  0
   11.0710    4.4610   14.7510 N   0  0  0  0  0  0
   11.6550    5.1990   15.1130 H   0  0  0  0  0  0
   10.1660    4.3210   15.1860 H   0  0  0  0  0  0
   13.8230    4.5370   13.0090 C   0  0  0  0  0  0
   14.5650    4.0980   11.9270 C   0  0  0  0  0  0
   15.5370    4.3710   11.5340 H   0  0  0  0  0  0
   13.9140    3.1220   11.2480 O   0  0  0  0  0  0
   14.2100    5.5960   13.9930 C   0  0  0  0  0  0
   14.5640    5.1120   14.9110 H   0  0  0  0  0  0
   13.2960    6.1510   14.2390 H   0  0  0  0  0  0
   15.2440    6.5280   13.5580 N   0  0  0  0  0  0
   15.9570    6.6860   14.0840 H   0  0  0  0  0  0
   15.2250    7.2180   12.3630 C   0  0  0  0  0  0
   14.0520    7.5260   11.6630 C   0  0  0  0  0  0
   13.0750    7.2550   12.0580 H   0  0  0  0  0  0
   14.0920    8.2020   10.4360 C   0  0  0  0  0  0
   13.1590    8.4450    9.9330 H   0  0  0  0  0  0
   15.3190    8.5600    9.8790 C   0  0  0  0  0  0
   16.4960    8.2760   10.5620 C   0  0  0  0  0  0
   17.4580    8.5680   10.1460 H   0  0  0  0  0  0
   16.4450    7.5990   11.7850 C   0  0  0  0  0  0
   17.3830    7.3730   12.2920 H   0  0  0  0  0  0
   15.4050    9.2220    8.6570 O   0  0  0  0  0  0
   14.5610    8.8000    7.6360 C   0  0  0  0  0  0
   14.1600    7.4560    7.4800 C   0  0  0  0  0  0
   14.5170    6.6810    8.1830 H   0  0  0  0  0  0
   13.3140    7.0990    6.4240 C   0  0  0  0  0  0
   12.9970    6.0430    6.3110 H   0  0  0  0  0  0
   12.8680    8.0560    5.5060 C   0  0  0  0  0  0
   12.2020    7.7630    4.6730 H   0  0  0  0  0  0
   13.2840    9.3830    5.6450 C   0  0  0  0  0  0
   12.9460   10.1470    4.9180 H   0  0  0  0  0  0
   14.1300    9.7520    6.6970 C   0  0  0  0  0  0
   14.4630   10.8020    6.8080 H   0  0  0  0  0  0
    9.7640    1.1060   11.8530 N   0  0  0  0  0  0
    9.8990    0.4980   11.0580 H   0  0  0  0  0  0
    8.9130    1.0610   12.3950 H   0  0  0  0  0  0
  1  2  2  0  0  0
  1  6  1  0  0  0
  2  3  1  0  0  0
  2 41  1  0  0  0
  3  4  2  0  0  0
  4  5  1  0  0  0
  4 13  1  0  0  0
  5  6  2  0  0  0
  5 10  1  0  0  0
  6  7  1  0  0  0
  7  8  1  0  0  0
  7  9  1  0  0  0
 10 11  2  0  0  0
 10 14  1  0  0  0
 11 12  1  0  0  0
 11 13  1  0  0  0
 14 15  1  0  0  0
 14 16  1  0  0  0
 14 17  1  0  0  0
 17 18  1  0  0  0
 17 19  1  0  0  0
 19 20  1  0  0  0
 19 27  2  0  0  0
 20 21  1  0  0  0
 20 22  2  0  0  0
 22 23  1  0  0  0
 22 24  1  0  0  0
 24 25  2  0  0  0
 24 29  1  0  0  0
 25 26  1  0  0  0
 25 27  1  0  0  0
 27 28  1  0  0  0
 29 30  1  0  0  0
 30 31  1  0  0  0
 30 39  2  0  0  0
 31 32  1  0  0  0
 31 33  2  0  0  0
 33 34  1  0  0  0
 33 35  1  0  0  0
 35 36  1  0  0  0
 35 37  2  0  0  0
 37 38  1  0  0  0
 37 39  1  0  0  0
 39 40  1  0  0  0
 41 42  1  0  0  0
 41 43  1  0  0  0
M  END
>  <ACTIVITY>
4.79

>  <SET>
1

>  <Min_dist>
999.9

>  <Avg_dist>
999.9

$$$$
38-11
  Cerius2 12110214133D 1   1.00000                          
Structure written by Cerius2 SD Exporter
 42 45  0  0  0  0  0  0  0  0999 V2000
   10.4820    2.7720   13.2580 N   0  0  0  0  0  0
   10.7270    2.0040   12.1850 C   0  0  0  0  0  0
   11.8330    2.0240   11.4450 N   0  0  0  0  0  0
   12.7200    2.9250   11.8800 C   0  0  0  0  0  0
   12.5940    3.7850   12.9610 C   0  0  0  0  0  0
   11.3990    3.6730   13.6780 C   0  0  0  0  0  0
   11.0810    4.4070   14.7910 N   0  0  0  0  0  0
   11.7020    5.0790   15.2170 H   0  0  0  0  0  0
   10.1850    4.2460   15.2380 H   0  0  0  0  0  0
   13.8010    4.5560   13.0030 C   0  0  0  0  0  0
   14.5740    4.0800   11.9590 C   0  0  0  0  0  0
   15.5620    4.3300   11.5940 H   0  0  0  0  0  0
   13.9260    3.1060   11.2750 O   0  0  0  0  0  0
   14.1750    5.6300   13.9760 C   0  0  0  0  0  0
   14.4830    5.1260   14.9010 H   0  0  0  0  0  0
   13.2850    6.2280   14.2010 H   0  0  0  0  0  0
   15.2220    6.5420   13.5440 N   0  0  0  0  0  0
   16.0670    6.5580   14.1110 H   0  0  0  0  0  0
   15.2570    7.2010   12.3240 C   0  0  0  0  0  0
   14.0810    7.5320   11.6300 C   0  0  0  0  0  0
   13.1040    7.2490   12.0160 H   0  0  0  0  0  0
   14.1120    8.2320   10.4200 C   0  0  0  0  0  0
   13.1820    8.4700    9.9070 H   0  0  0  0  0  0
   15.3270    8.6260    9.8750 C   0  0  0  0  0  0
   15.3550    9.1710    8.9340 H   0  0  0  0  0  0
   16.5100    8.3180   10.5420 C   0  0  0  0  0  0
   17.4580    8.6300   10.1030 H   0  0  0  0  0  0
   16.4970    7.6090   11.7620 C   0  0  0  0  0  0
   17.7890    7.3110   12.4070 C   0  0  0  0  0  0
   18.3560    6.0280   12.3220 C   0  0  0  0  0  0
   17.8410    5.2390   11.7740 H   0  0  0  0  0  0
   19.5770    5.7440   12.9380 C   0  0  0  0  0  0
   20.0010    4.7440   12.8670 H   0  0  0  0  0  0
   20.2490    6.7380   13.6450 C   0  0  0  0  0  0
   21.2000    6.5160   14.1260 H   0  0  0  0  0  0
   19.7040    8.0180   13.7350 C   0  0  0  0  0  0
   20.2280    8.7960   14.2860 H   0  0  0  0  0  0
   18.4830    8.3030   13.1180 C   0  0  0  0  0  0
   18.0680    9.3070   13.2010 H   0  0  0  0  0  0
    9.7540    1.1210   11.8260 N   0  0  0  0  0  0
    9.8890    0.5200   11.0270 H   0  0  0  0  0  0
    8.9020    1.0720   12.3660 H   0  0  0  0  0  0
  1  2  2  0  0  0
  1  6  1  0  0  0
  2  3  1  0  0  0
  2 40  1  0  0  0
  3  4  2  0  0  0
  4  5  1  0  0  0
  4 13  1  0  0  0
  5  6  2  0  0  0
  5 10  1  0  0  0
  6  7  1  0  0  0
  7  8  1  0  0  0
  7  9  1  0  0  0
 10 11  2  0  0  0
 10 14  1  0  0  0
 11 12  1  0  0  0
 11 13  1  0  0  0
 14 15  1  0  0  0
 14 16  1  0  0  0
 14 17  1  0  0  0
 17 18  1  0  0  0
 17 19  1  0  0  0
 19 20  1  0  0  0
 19 28  2  0  0  0
 20 21  1  0  0  0
 20 22  2  0  0  0
 22 23  1  0  0  0
 22 24  1  0  0  0
 24 25  1  0  0  0
 24 26  2  0  0  0
 26 27  1  0  0  0
 26 28  1  0  0  0
 28 29  1  0  0  0
 29 30  1  0  0  0
 29 38  2  0  0  0
 30 31  1  0  0  0
 30 32  2  0  0  0
 32 33  1  0  0  0
 32 34  1  0  0  0
 34 35  1  0  0  0
 34 36  2  0  0  0
 36 37  1  0  0  0
 36 38  1  0  0  0
 38 39  1  0  0  0
 40 41  1  0  0  0
 40 42  1  0  0  0
M  END
>  <ACTIVITY>
3.86

>  <SET>
1

>  <Min_dist>
999.9

>  <Avg_dist>
999.9

$$$$
38-12
  Cerius2 12110214133D 1   1.00000                          
Structure written by Cerius2 SD Exporter
 41 44  0  0  0  0  0  0  0  0999 V2000
   10.4790    2.7670   13.2530 N   0  0  0  0  0  0
   10.7370    1.9840   12.1950 C   0  0  0  0  0  0
   11.8390    2.0160   11.4510 N   0  0  0  0  0  0
   12.7160    2.9300   11.8770 C   0  0  0  0  0  0
   12.5870    3.7910   12.9570 C   0  0  0  0  0  0
   11.3810    3.6900   13.6590 C   0  0  0  0  0  0
   11.0270    4.4640   14.7330 N   0  0  0  0  0  0
   11.5880    5.2220   15.0920 H   0  0  0  0  0  0
   10.1180    4.3140   15.1560 H   0  0  0  0  0  0
   13.8000    4.5540   13.0060 C   0  0  0  0  0  0
   14.5480    4.1180   11.9280 C   0  0  0  0  0  0
   15.5210    4.3980   11.5420 H   0  0  0  0  0  0
   13.9080    3.1350   11.2520 O   0  0  0  0  0  0
   14.2000    5.6220   13.9820 C   0  0  0  0  0  0
   14.5040    5.1700   14.9310 H   0  0  0  0  0  0
   13.2790    6.1820   14.1820 H   0  0  0  0  0  0
   15.2930    6.5240   13.5670 N   0  0  0  0  0  0
   15.2880    7.2040   12.3570 C   0  0  0  0  0  0
   16.4710    7.6190   11.7210 C   0  0  0  0  0  0
   17.4380    7.3810   12.1630 H   0  0  0  0  0  0
   16.4740    8.3110   10.4910 C   0  0  0  0  0  0
   15.2480    8.6020    9.8600 C   0  0  0  0  0  0
   14.0610    8.1920   10.4740 C   0  0  0  0  0  0
   13.0970    8.4020   10.0120 H   0  0  0  0  0  0
   14.0880    7.5050   11.6950 C   0  0  0  0  0  0
   13.1290    7.2270   12.1300 H   0  0  0  0  0  0
   15.2440    9.2910    8.6350 C   0  0  0  0  0  0
   14.3040    9.5240    8.1360 H   0  0  0  0  0  0
   16.4410    9.6860    8.0370 C   0  0  0  0  0  0
   16.4260   10.2190    7.0880 H   0  0  0  0  0  0
   17.6540    9.3980    8.6560 C   0  0  0  0  0  0
   18.5900    9.7040    8.1920 H   0  0  0  0  0  0
   17.6700    8.7140    9.8740 C   0  0  0  0  0  0
   18.6310    8.4980   10.3400 H   0  0  0  0  0  0
   16.3360    6.8120   14.5540 C   0  0  0  0  0  0
   16.5170    7.8900   14.6360 H   0  0  0  0  0  0
   17.2720    6.3100   14.2860 H   0  0  0  0  0  0
   16.0480    6.4670   15.5540 H   0  0  0  0  0  0
    9.7800    1.0760   11.8540 N   0  0  0  0  0  0
    9.9300    0.4580   11.0700 H   0  0  0  0  0  0
    8.9320    1.0180   12.3990 H   0  0  0  0  0  0
  1  2  2  0  0  0
  1  6  1  0  0  0
  2  3  1  0  0  0
  2 39  1  0  0  0
  3  4  2  0  0  0
  4  5  1  0  0  0
  4 13  1  0  0  0
  5  6  2  0  0  0
  5 10  1  0  0  0
  6  7  1  0  0  0
  7  8  1  0  0  0
  7  9  1  0  0  0
 10 11  2  0  0  0
 10 14  1  0  0  0
 11 12  1  0  0  0
 11 13  1  0  0  0
 14 15  1  0  0  0
 14 16  1  0  0  0
 14 17  1  0  0  0
 17 18  1  0  0  0
 17 35  1  0  0  0
 18 19  2  0  0  0
 18 25  1  0  0  0
 19 20  1  0  0  0
 19 21  1  0  0  0
 21 22  2  0  0  0
 21 33  1  0  0  0
 22 23  1  0  0  0
 22 27  1  0  0  0
 23 24  1  0  0  0
 23 25  2  0  0  0
 25 26  1  0  0  0
 27 28  1  0  0  0
 27 29  2  0  0  0
 29 30  1  0  0  0
 29 31  1  0  0  0
 31 32  1  0  0  0
 31 33  2  0  0  0
 33 34  1  0  0  0
 35 36  1  0  0  0
 35 37  1  0  0  0
 35 38  1  0  0  0
 39 40  1  0  0  0
 39 41  1  0  0  0
M  END
>  <ACTIVITY>
4.84

>  <SET>
1

>  <Min_dist>
999.9

>  <Avg_dist>
999.9

$$$$
38-13
  Cerius2 12110214133D 1   1.00000                          
Structure written by Cerius2 SD Exporter
 32 34  0  0  0  0  0  0  0  0999 V2000
   10.4920    2.7890   13.2730 N   0  0  0  0  0  0
   10.7090    2.0270   12.1900 C   0  0  0  0  0  0
   11.8090    2.0290   11.4410 N   0  0  0  0  0  0
   12.7220    2.9020   11.8780 C   0  0  0  0  0  0
   12.6260    3.7520   12.9690 C   0  0  0  0  0  0
   11.4350    3.6620   13.6950 C   0  0  0  0  0  0
   11.1480    4.3940   14.8190 N   0  0  0  0  0  0
   11.7890    5.0490   15.2400 H   0  0  0  0  0  0
   10.2560    4.2460   15.2770 H   0  0  0  0  0  0
   13.8530    4.4920   13.0130 C   0  0  0  0  0  0
   14.6050    4.0090   11.9580 C   0  0  0  0  0  0
   15.5970    4.2350   11.5870 H   0  0  0  0  0  0
   13.9270    3.0610   11.2650 O   0  0  0  0  0  0
   14.2450    5.5410   14.0100 C   0  0  0  0  0  0
   14.7170    5.0070   14.8420 H   0  0  0  0  0  0
   13.3250    6.0180   14.3660 H   0  0  0  0  0  0
   15.1390    6.5860   13.5380 N   0  0  0  0  0  0
   15.9350    6.7770   14.1440 H   0  0  0  0  0  0
   15.2490    7.3140   12.3630 C   0  0  0  0  0  0
   16.4280    7.6980   11.6860 C   0  0  0  0  0  0
   16.3690    8.3990   10.4680 C   0  0  0  0  0  0
   17.2850    8.6960    9.9600 H   0  0  0  0  0  0
   15.1450    8.7300    9.8910 C   0  0  0  0  0  0
   15.1190    9.2720    8.9500 H   0  0  0  0  0  0
   13.9750    8.3590   10.5350 C   0  0  0  0  0  0
   14.0260    7.6620   11.7450 C   0  0  0  0  0  0
   13.0880    7.3760   12.2180 H   0  0  0  0  0  0
   12.4520    8.7540    9.8360 Cl  0  0  0  0  0  0
   18.0290    7.3990   12.2750 Cl  0  0  0  0  0  0
    9.7100    1.1730   11.8290 N   0  0  0  0  0  0
    9.8270    0.5760   11.0240 H   0  0  0  0  0  0
    8.8610    1.1400   12.3740 H   0  0  0  0  0  0
  1  2  2  0  0  0
  1  6  1  0  0  0
  2  3  1  0  0  0
  2 30  1  0  0  0
  3  4  2  0  0  0
  4  5  1  0  0  0
  4 13  1  0  0  0
  5  6  2  0  0  0
  5 10  1  0  0  0
  6  7  1  0  0  0
  7  8  1  0  0  0
  7  9  1  0  0  0
 10 11  2  0  0  0
 10 14  1  0  0  0
 11 12  1  0  0  0
 11 13  1  0  0  0
 14 15  1  0  0  0
 14 16  1  0  0  0
 14 17  1  0  0  0
 17 18  1  0  0  0
 17 19  1  0  0  0
 19 20  1  0  0  0
 19 26  2  0  0  0
 20 21  2  0  0  0
 20 29  1  0  0  0
 21 22  1  0  0  0
 21 23  1  0  0  0
 23 24  1  0  0  0
 23 25  2  0  0  0
 25 26  1  0  0  0
 25 28  1  0  0  0
 26 27  1  0  0  0
 30 31  1  0  0  0
 30 32  1  0  0  0
M  END
>  <ACTIVITY>
4.14

>  <SET>
1

>  <Min_dist>
999.9

>  <Avg_dist>
999.9

$$$$
38-14
  Cerius2 12110214133D 1   1.00000                          
Structure written by Cerius2 SD Exporter
 35 37  0  0  0  0  0  0  0  0999 V2000
   10.4770    2.7690   13.2520 N   0  0  0  0  0  0
   10.7320    1.9880   12.1920 C   0  0  0  0  0  0
   11.8350    2.0170   11.4480 N   0  0  0  0  0  0
   12.7170    2.9270   11.8770 C   0  0  0  0  0  0
   12.5890    3.7860   12.9600 C   0  0  0  0  0  0
   11.3840    3.6840   13.6620 C   0  0  0  0  0  0
   11.0410    4.4520   14.7450 N   0  0  0  0  0  0
   11.6180    5.1890   15.1190 H   0  0  0  0  0  0
   10.1380    4.3000   15.1770 H   0  0  0  0  0  0
   13.8020    4.5480   13.0090 C   0  0  0  0  0  0
   14.5530    4.1110   11.9330 C   0  0  0  0  0  0
   15.5240    4.3910   11.5480 H   0  0  0  0  0  0
   13.9120    3.1270   11.2570 O   0  0  0  0  0  0
   14.1950    5.6190   13.9850 C   0  0  0  0  0  0
   14.5180    5.1620   14.9270 H   0  0  0  0  0  0
   13.2700    6.1590   14.2110 H   0  0  0  0  0  0
   15.2800    6.5300   13.5630 N   0  0  0  0  0  0
   15.2800    7.2090   12.3540 C   0  0  0  0  0  0
   16.4640    7.6180   11.7150 C   0  0  0  0  0  0
   17.4340    7.3760   12.1410 H   0  0  0  0  0  0
   16.4540    8.3090   10.4910 C   0  0  0  0  0  0
   15.2450    8.6120    9.8680 C   0  0  0  0  0  0
   14.0570    8.2080   10.4690 C   0  0  0  0  0  0
   13.0980    8.4260   10.0020 H   0  0  0  0  0  0
   14.0800    7.5160   11.6880 C   0  0  0  0  0  0
   13.1170    7.2390   12.1160 H   0  0  0  0  0  0
   15.1570    9.4680    8.3690 Cl  0  0  0  0  0  0
   17.9810    8.7520    9.8030 Cl  0  0  0  0  0  0
   16.3970    6.6870   14.4990 C   0  0  0  0  0  0
   16.6520    7.7440   14.6370 H   0  0  0  0  0  0
   17.2780    6.1420   14.1420 H   0  0  0  0  0  0
   16.1450    6.2930   15.4890 H   0  0  0  0  0  0
    9.7720    1.0840   11.8480 N   0  0  0  0  0  0
    9.9140    0.4750   11.0570 H   0  0  0  0  0  0
    8.9200    1.0380   12.3870 H   0  0  0  0  0  0
  1  2  2  0  0  0
  1  6  1  0  0  0
  2  3  1  0  0  0
  2 33  1  0  0  0
  3  4  2  0  0  0
  4  5  1  0  0  0
  4 13  1  0  0  0
  5  6  2  0  0  0
  5 10  1  0  0  0
  6  7  1  0  0  0
  7  8  1  0  0  0
  7  9  1  0  0  0
 10 11  2  0  0  0
 10 14  1  0  0  0
 11 12  1  0  0  0
 11 13  1  0  0  0
 14 15  1  0  0  0
 14 16  1  0  0  0
 14 17  1  0  0  0
 17 18  1  0  0  0
 17 29  1  0  0  0
 18 19  1  0  0  0
 18 25  2  0  0  0
 19 20  1  0  0  0
 19 21  2  0  0  0
 21 22  1  0  0  0
 21 28  1  0  0  0
 22 23  2  0  0  0
 22 27  1  0  0  0
 23 24  1  0  0  0
 23 25  1  0  0  0
 25 26  1  0  0  0
 29 30  1  0  0  0
 29 31  1  0  0  0
 29 32  1  0  0  0
 33 34  1  0  0  0
 33 35  1  0  0  0
M  END
>  <ACTIVITY>
3.3

>  <SET>
3

>  <Min_dist>
0.13

>  <Avg_dist>
0.55

$$$$
38-16
  Cerius2 12110214133D 1   1.00000                          
Structure written by Cerius2 SD Exporter
 36 38  0  0  0  0  0  0  0  0999 V2000
   10.4820    2.7720   13.2600 N   0  0  0  0  0  0
   10.7220    2.0060   12.1840 C   0  0  0  0  0  0
   11.8270    2.0250   11.4420 N   0  0  0  0  0  0
   12.7190    2.9210   11.8780 C   0  0  0  0  0  0
   12.5980    3.7760   12.9610 C   0  0  0  0  0  0
   11.4040    3.6690   13.6800 C   0  0  0  0  0  0
   11.0940    4.4040   14.7940 N   0  0  0  0  0  0
   11.7180    5.0790   15.2120 H   0  0  0  0  0  0
   10.2020    4.2430   15.2490 H   0  0  0  0  0  0
   13.8090    4.5420   13.0080 C   0  0  0  0  0  0
   14.5780    4.0680   11.9610 C   0  0  0  0  0  0
   15.5670    4.3130   11.5950 H   0  0  0  0  0  0
   13.9240    3.1000   11.2720 O   0  0  0  0  0  0
   14.1730    5.6050   13.9970 C   0  0  0  0  0  0
   14.5040    5.0900   14.9080 H   0  0  0  0  0  0
   13.2670    6.1710   14.2440 H   0  0  0  0  0  0
   15.1960    6.5590   13.5850 N   0  0  0  0  0  0
   16.0410    6.5910   14.1520 H   0  0  0  0  0  0
   15.2190    7.1980   12.3610 C   0  0  0  0  0  0
   14.0710    7.5380   11.6420 C   0  0  0  0  0  0
   13.0800    7.2800   12.0080 H   0  0  0  0  0  0
   14.1570    8.2180   10.4190 C   0  0  0  0  0  0
   13.2410    8.4610    9.8830 H   0  0  0  0  0  0
   15.3940    8.5840    9.8900 C   0  0  0  0  0  0
   16.5470    8.2660   10.6010 C   0  0  0  0  0  0
   17.5380    8.5310   10.2420 H   0  0  0  0  0  0
   16.4540    7.5850   11.8230 C   0  0  0  0  0  0
   17.3760    7.3580   12.3590 H   0  0  0  0  0  0
   15.3390    9.2410    8.6930 O   0  0  0  0  0  0
   16.5870    9.5980    8.1010 C   0  0  0  0  0  0
   16.3730   10.1050    7.1550 H   0  0  0  0  0  0
   17.1850    8.7090    7.8750 H   0  0  0  0  0  0
   17.1380   10.2980    8.7370 H   0  0  0  0  0  0
    9.7450    1.1280   11.8240 N   0  0  0  0  0  0
    9.8780    0.5270   11.0250 H   0  0  0  0  0  0
    8.8940    1.0810   12.3650 H   0  0  0  0  0  0
  1  2  2  0  0  0
  1  6  1  0  0  0
  2  3  1  0  0  0
  2 34  1  0  0  0
  3  4  2  0  0  0
  4  5  1  0  0  0
  4 13  1  0  0  0
  5  6  2  0  0  0
  5 10  1  0  0  0
  6  7  1  0  0  0
  7  8  1  0  0  0
  7  9  1  0  0  0
 10 11  2  0  0  0
 10 14  1  0  0  0
 11 12  1  0  0  0
 11 13  1  0  0  0
 14 15  1  0  0  0
 14 16  1  0  0  0
 14 17  1  0  0  0
 17 18  1  0  0  0
 17 19  1  0  0  0
 19 20  1  0  0  0
 19 27  2  0  0  0
 20 21  1  0  0  0
 20 22  2  0  0  0
 22 23  1  0  0  0
 22 24  1  0  0  0
 24 25  2  0  0  0
 24 29  1  0  0  0
 25 26  1  0  0  0
 25 27  1  0  0  0
 27 28  1  0  0  0
 29 30  1  0  0  0
 30 31  1  0  0  0
 30 32  1  0  0  0
 30 33  1  0  0  0
 34 35  1  0  0  0
 34 36  1  0  0  0
M  END
>  <ACTIVITY>
3.3

>  <SET>
3

>  <Min_dist>
0.04

>  <Avg_dist>
0.52

$$$$
38-17
  Cerius2 12110214133D 1   1.00000                          
Structure written by Cerius2 SD Exporter
 43 45  0  0  0  0  0  0  0  0999 V2000
   10.4620    2.7470   13.2400 N   0  0  0  0  0  0
   10.7330    1.9790   12.1740 C   0  0  0  0  0  0
   11.8480    2.0170   11.4500 N   0  0  0  0  0  0
   12.7140    2.9340   11.8920 C   0  0  0  0  0  0
   12.5620    3.7940   12.9700 C   0  0  0  0  0  0
   11.3580    3.6650   13.6700 C   0  0  0  0  0  0
   11.0080    4.3960   14.7750 N   0  0  0  0  0  0
   11.6140    5.0720   15.2160 H   0  0  0  0  0  0
   10.1120    4.2130   15.2120 H   0  0  0  0  0  0
   13.7580    4.5820   13.0220 C   0  0  0  0  0  0
   14.5420    4.1280   11.9780 C   0  0  0  0  0  0
   15.5250    4.4050   11.6150 H   0  0  0  0  0  0
   13.9190    3.1390   11.2930 O   0  0  0  0  0  0
   14.1300    5.6800   13.9720 C   0  0  0  0  0  0
   14.3080    5.2710   14.9710 H   0  0  0  0  0  0
   13.2300    6.3040   14.0640 H   0  0  0  0  0  0
   15.2830    6.5130   13.5910 N   0  0  0  0  0  0
   15.3080    7.1940   12.3730 C   0  0  0  0  0  0
   16.5090    7.6470   11.7650 C   0  0  0  0  0  0
   16.4620    8.3430   10.5500 C   0  0  0  0  0  0
   17.3590    8.7040   10.0550 H   0  0  0  0  0  0
   15.2410    8.5870    9.9190 C   0  0  0  0  0  0
   15.2290    9.1270    8.9730 H   0  0  0  0  0  0
   14.0520    8.1400   10.4840 C   0  0  0  0  0  0
   14.0930    7.4500   11.6980 C   0  0  0  0  0  0
   13.1680    7.1190   12.1620 H   0  0  0  0  0  0
   12.9280    8.4410    9.7650 O   0  0  0  0  0  0
   13.1200    9.0520    8.4900 C   0  0  0  0  0  0
   12.1320    9.2380    8.0580 H   0  0  0  0  0  0
   13.6610    8.3830    7.8130 H   0  0  0  0  0  0
   13.6290   10.0170    8.5890 H   0  0  0  0  0  0
   17.6830    7.3220   12.4020 O   0  0  0  0  0  0
   18.9050    7.7610   11.8110 C   0  0  0  0  0  0
   19.7230    7.4280   12.4570 H   0  0  0  0  0  0
   18.9460    8.8540   11.7590 H   0  0  0  0  0  0
   19.0510    7.3060   10.8260 H   0  0  0  0  0  0
   16.4290    6.5900   14.4920 C   0  0  0  0  0  0
   16.9120    7.5730   14.4410 H   0  0  0  0  0  0
   17.1660    5.8190   14.2470 H   0  0  0  0  0  0
   16.1200    6.4500   15.5330 H   0  0  0  0  0  0
    9.7800    1.0790   11.8060 N   0  0  0  0  0  0
    9.9360    0.4780   11.0100 H   0  0  0  0  0  0
    8.9210    1.0190   12.3330 H   0  0  0  0  0  0
  1  2  2  0  0  0
  1  6  1  0  0  0
  2  3  1  0  0  0
  2 41  1  0  0  0
  3  4  2  0  0  0
  4  5  1  0  0  0
  4 13  1  0  0  0
  5  6  2  0  0  0
  5 10  1  0  0  0
  6  7  1  0  0  0
  7  8  1  0  0  0
  7  9  1  0  0  0
 10 11  2  0  0  0
 10 14  1  0  0  0
 11 12  1  0  0  0
 11 13  1  0  0  0
 14 15  1  0  0  0
 14 16  1  0  0  0
 14 17  1  0  0  0
 17 18  1  0  0  0
 17 37  1  0  0  0
 18 19  1  0  0  0
 18 25  2  0  0  0
 19 20  2  0  0  0
 19 32  1  0  0  0
 20 21  1  0  0  0
 20 22  1  0  0  0
 22 23  1  0  0  0
 22 24  2  0  0  0
 24 25  1  0  0  0
 24 27  1  0  0  0
 25 26  1  0  0  0
 27 28  1  0  0  0
 28 29  1  0  0  0
 28 30  1  0  0  0
 28 31  1  0  0  0
 32 33  1  0  0  0
 33 34  1  0  0  0
 33 35  1  0  0  0
 33 36  1  0  0  0
 37 38  1  0  0  0
 37 39  1  0  0  0
 37 40  1  0  0  0
 41 42  1  0  0  0
 41 43  1  0  0  0
M  END
>  <ACTIVITY>
3.3

>  <SET>
3

>  <Min_dist>
0.2

>  <Avg_dist>
0.54

$$$$
38-3
  Cerius2 12110214133D 1   1.00000                          
Structure written by Cerius2 SD Exporter
 31 33  0  0  0  0  0  0  0  0999 V2000
   10.4300    2.7040   13.2180 N   0  0  0  0  0  0
   10.7530    1.9160   12.1800 C   0  0  0  0  0  0
   11.8750    1.9850   11.4660 N   0  0  0  0  0  0
   12.6960    2.9470   11.8990 C   0  0  0  0  0  0
   12.4920    3.8220   12.9530 C   0  0  0  0  0  0
   11.2760    3.6750   13.6280 C   0  0  0  0  0  0
   10.8750    4.4520   14.6840 N   0  0  0  0  0  0
   11.4030    5.2510   15.0050 H   0  0  0  0  0  0
    9.9630    4.2870   15.0930 H   0  0  0  0  0  0
   13.6620    4.6470   13.0250 C   0  0  0  0  0  0
   14.4790    4.2100   12.0000 C   0  0  0  0  0  0
   15.4600    4.5120   11.6510 H   0  0  0  0  0  0
   13.9040    3.1880   11.3180 O   0  0  0  0  0  0
   13.9770    5.7330   13.9950 C   0  0  0  0  0  0
   13.8470    5.3650   15.0180 H   0  0  0  0  0  0
   13.2900    6.5740   13.8570 H   0  0  0  0  0  0
   15.7010    6.3000   13.7740 S   0  0  0  0  0  0
   15.5190    7.2270   12.2610 C   0  0  0  0  0  0
   14.2380    7.4430   11.7410 C   0  0  0  0  0  0
   13.3570    7.0640   12.2580 H   0  0  0  0  0  0
   14.0700    8.1540   10.5500 C   0  0  0  0  0  0
   13.0700    8.3210   10.1540 H   0  0  0  0  0  0
   15.1820    8.6450    9.8680 C   0  0  0  0  0  0
   15.0520    9.1970    8.9390 H   0  0  0  0  0  0
   16.4620    8.4230   10.3740 C   0  0  0  0  0  0
   17.3320    8.8000    9.8380 H   0  0  0  0  0  0
   16.6300    7.7130   11.5660 C   0  0  0  0  0  0
   17.6390    7.5390   11.9330 H   0  0  0  0  0  0
    9.8500    0.9580   11.8310 N   0  0  0  0  0  0
   10.0530    0.3300   11.0670 H   0  0  0  0  0  0
    8.9950    0.8640   12.3590 H   0  0  0  0  0  0
  1  2  2  0  0  0
  1  6  1  0  0  0
  2  3  1  0  0  0
  2 29  1  0  0  0
  3  4  2  0  0  0
  4  5  1  0  0  0
  4 13  1  0  0  0
  5  6  2  0  0  0
  5 10  1  0  0  0
  6  7  1  0  0  0
  7  8  1  0  0  0
  7  9  1  0  0  0
 10 11  2  0  0  0
 10 14  1  0  0  0
 11 12  1  0  0  0
 11 13  1  0  0  0
 14 15  1  0  0  0
 14 16  1  0  0  0
 14 17  1  0  0  0
 17 18  1  0  0  0
 18 19  1  0  0  0
 18 27  2  0  0  0
 19 20  1  0  0  0
 19 21  2  0  0  0
 21 22  1  0  0  0
 21 23  1  0  0  0
 23 24  1  0  0  0
 23 25  2  0  0  0
 25 26  1  0  0  0
 25 27  1  0  0  0
 27 28  1  0  0  0
 29 30  1  0  0  0
 29 31  1  0  0  0
M  END
>  <ACTIVITY>
3.6

>  <SET>
3

>  <Min_dist>
0.1

>  <Avg_dist>
0.62

$$$$
38-6
  Cerius2 12110214133D 1   1.00000                          
Structure written by Cerius2 SD Exporter
 38 41  0  0  0  0  0  0  0  0999 V2000
   10.4820    2.7710   13.2560 N   0  0  0  0  0  0
   10.7340    1.9780   12.2030 C   0  0  0  0  0  0
   11.8400    1.9920   11.4600 N   0  0  0  0  0  0
   12.7160    2.9160   11.8680 C   0  0  0  0  0  0
   12.5800    3.8000   12.9260 C   0  0  0  0  0  0
   11.3890    3.6930   13.6490 C   0  0  0  0  0  0
   11.0690    4.4570   14.7420 N   0  0  0  0  0  0
   11.6820    5.1540   15.1370 H   0  0  0  0  0  0
   10.1830    4.2920   15.2060 H   0  0  0  0  0  0
   13.7740    4.5930   12.9460 C   0  0  0  0  0  0
   14.5480    4.1080   11.9090 C   0  0  0  0  0  0
   15.5280    4.3680   11.5280 H   0  0  0  0  0  0
   13.9160    3.1030   11.2540 O   0  0  0  0  0  0
   14.1100    5.7000   13.8960 C   0  0  0  0  0  0
   14.1950    5.2580   14.8960 H   0  0  0  0  0  0
   13.2560    6.3880   13.9300 H   0  0  0  0  0  0
   15.2810    6.5150   13.5710 N   0  0  0  0  0  0
   15.9770    6.5480   14.1400 H   0  0  0  0  0  0
   15.3360    7.2460   12.3840 C   0  0  0  0  0  0
   16.5540    7.6660   11.7710 C   0  0  0  0  0  0
   16.5040    8.3110   10.5060 C   0  0  0  0  0  0
   15.2680    8.5440    9.8880 C   0  0  0  0  0  0
   15.2180    9.0410    8.9190 H   0  0  0  0  0  0
   14.0820    8.1570   10.5020 C   0  0  0  0  0  0
   13.1270    8.3480   10.0150 H   0  0  0  0  0  0
   14.1190    7.5140   11.7360 C   0  0  0  0  0  0
   13.1790    7.2010   12.1880 H   0  0  0  0  0  0
   17.6900    8.7270    9.8770 C   0  0  0  0  0  0
   17.6570    9.2150    8.9040 H   0  0  0  0  0  0
   18.9300    8.5360   10.4840 C   0  0  0  0  0  0
   19.8390    8.8660    9.9830 H   0  0  0  0  0  0
   19.0000    7.9360   11.7340 C   0  0  0  0  0  0
   19.9630    7.8000   12.2220 H   0  0  0  0  0  0
   17.8290    7.5160   12.3700 C   0  0  0  0  0  0
   17.9200    7.0780   13.3630 H   0  0  0  0  0  0
    9.7680    1.0790   11.8650 N   0  0  0  0  0  0
    9.9090    0.4630   11.0780 H   0  0  0  0  0  0
    8.9140    1.0400   12.4010 H   0  0  0  0  0  0
  1  2  2  0  0  0
  1  6  1  0  0  0
  2  3  1  0  0  0
  2 36  1  0  0  0
  3  4  2  0  0  0
  4  5  1  0  0  0
  4 13  1  0  0  0
  5  6  2  0  0  0
  5 10  1  0  0  0
  6  7  1  0  0  0
  7  8  1  0  0  0
  7  9  1  0  0  0
 10 11  2  0  0  0
 10 14  1  0  0  0
 11 12  1  0  0  0
 11 13  1  0  0  0
 14 15  1  0  0  0
 14 16  1  0  0  0
 14 17  1  0  0  0
 17 18  1  0  0  0
 17 19  1  0  0  0
 19 20  1  0  0  0
 19 26  2  0  0  0
 20 21  2  0  0  0
 20 34  1  0  0  0
 21 22  1  0  0  0
 21 28  1  0  0  0
 22 23  1  0  0  0
 22 24  2  0  0  0
 24 25  1  0  0  0
 24 26  1  0  0  0
 26 27  1  0  0  0
 28 29  1  0  0  0
 28 30  2  0  0  0
 30 31  1  0  0  0
 30 32  1  0  0  0
 32 33  1  0  0  0
 32 34  2  0  0  0
 34 35  1  0  0  0
 36 37  1  0  0  0
 36 38  1  0  0  0
M  END
>  <ACTIVITY>
4.92

>  <SET>
1

>  <Min_dist>
999.9

>  <Avg_dist>
999.9

$$$$
38-8
  Cerius2 12110214133D 1   1.00000                          
Structure written by Cerius2 SD Exporter
 37 40  0  0  0  0  0  0  0  0999 V2000
   10.5030    2.7920   13.2630 N   0  0  0  0  0  0
   10.7590    1.9940   12.2140 C   0  0  0  0  0  0
   11.8610    2.0140   11.4670 N   0  0  0  0  0  0
   12.7350    2.9420   11.8720 C   0  0  0  0  0  0
   12.5980    3.8240   12.9310 C   0  0  0  0  0  0
   11.4050    3.7210   13.6500 C   0  0  0  0  0  0
   11.0790    4.5020   14.7290 N   0  0  0  0  0  0
   11.6800    5.2250   15.0980 H   0  0  0  0  0  0
   10.1860    4.3510   15.1850 H   0  0  0  0  0  0
   13.7950    4.6110   12.9580 C   0  0  0  0  0  0
   14.5620    4.1410   11.9090 C   0  0  0  0  0  0
   15.5380    4.4110   11.5240 H   0  0  0  0  0  0
   13.9310    3.1370   11.2510 O   0  0  0  0  0  0
   14.1380    5.7050   13.9150 C   0  0  0  0  0  0
   14.3230    5.2570   14.9000 H   0  0  0  0  0  0
   13.2870    6.3950   13.9710 H   0  0  0  0  0  0
   15.3060    6.4230   13.4920 O   0  0  0  0  0  0
   15.3420    7.1710   12.3480 C   0  0  0  0  0  0
   16.4900    7.6540   11.7160 C   0  0  0  0  0  0
   17.4790    7.4530   12.1200 H   0  0  0  0  0  0
   16.3960    8.4170   10.5360 C   0  0  0  0  0  0
   15.1240    8.6960    9.9860 C   0  0  0  0  0  0
   13.9790    8.2060   10.6290 C   0  0  0  0  0  0
   12.9880    8.4080   10.2250 H   0  0  0  0  0  0
   14.0910    7.4510   11.7980 C   0  0  0  0  0  0
   13.1880    7.0810   12.2810 H   0  0  0  0  0  0
   15.0330    9.4570    8.8090 C   0  0  0  0  0  0
   14.0610    9.6810    8.3700 H   0  0  0  0  0  0
   16.1830    9.9370    8.1800 C   0  0  0  0  0  0
   16.0980   10.5260    7.2680 H   0  0  0  0  0  0
   17.4360    9.6640    8.7200 C   0  0  0  0  0  0
   18.3340   10.0390    8.2310 H   0  0  0  0  0  0
   17.5430    8.9090    9.8900 C   0  0  0  0  0  0
   18.5340    8.7070   10.2940 H   0  0  0  0  0  0
    9.8010    1.0820   11.8870 N   0  0  0  0  0  0
    9.9460    0.4590   11.1070 H   0  0  0  0  0  0
    8.9510    1.0360   12.4300 H   0  0  0  0  0  0
  1  2  2  0  0  0
  1  6  1  0  0  0
  2  3  1  0  0  0
  2 35  1  0  0  0
  3  4  2  0  0  0
  4  5  1  0  0  0
  4 13  1  0  0  0
  5  6  2  0  0  0
  5 10  1  0  0  0
  6  7  1  0  0  0
  7  8  1  0  0  0
  7  9  1  0  0  0
 10 11  2  0  0  0
 10 14  1  0  0  0
 11 12  1  0  0  0
 11 13  1  0  0  0
 14 15  1  0  0  0
 14 16  1  0  0  0
 14 17  1  0  0  0
 17 18  1  0  0  0
 18 19  2  0  0  0
 18 25  1  0  0  0
 19 20  1  0  0  0
 19 21  1  0  0  0
 21 22  2  0  0  0
 21 33  1  0  0  0
 22 23  1  0  0  0
 22 27  1  0  0  0
 23 24  1  0  0  0
 23 25  2  0  0  0
 25 26  1  0  0  0
 27 28  1  0  0  0
 27 29  2  0  0  0
 29 30  1  0  0  0
 29 31  1  0  0  0
 31 32  1  0  0  0
 31 33  2  0  0  0
 33 34  1  0  0  0
 35 36  1  0  0  0
 35 37  1  0  0  0
M  END
>  <ACTIVITY>
4.22

>  <SET>
2

>  <Min_dist>
0.2

>  <Avg_dist>
0.61

$$$$
38-9
  Cerius2 12110214133D 1   1.00000                          
Structure written by Cerius2 SD Exporter
 43 46  0  0  0  0  0  0  0  0999 V2000
   10.4840    2.7710   13.2580 N   0  0  0  0  0  0
   10.7340    1.9910   12.1950 C   0  0  0  0  0  0
   11.8370    2.0170   11.4500 N   0  0  0  0  0  0
   12.7200    2.9260   11.8770 C   0  0  0  0  0  0
   12.5950    3.7840   12.9580 C   0  0  0  0  0  0
   11.3930    3.6860   13.6650 C   0  0  0  0  0  0
   11.0530    4.4580   14.7460 N   0  0  0  0  0  0
   11.6330    5.1980   15.1120 H   0  0  0  0  0  0
   10.1480    4.3100   15.1800 H   0  0  0  0  0  0
   13.8090    4.5470   13.0070 C   0  0  0  0  0  0
   14.5560    4.1090   11.9280 C   0  0  0  0  0  0
   15.5270    4.3880   11.5380 H   0  0  0  0  0  0
   13.9120    3.1270   11.2520 O   0  0  0  0  0  0
   14.1910    5.6120   13.9860 C   0  0  0  0  0  0
   14.5350    5.1360   14.9110 H   0  0  0  0  0  0
   13.2770    6.1740   14.2190 H   0  0  0  0  0  0
   15.2300    6.5330   13.5510 N   0  0  0  0  0  0
   15.9000    6.8420   14.2530 H   0  0  0  0  0  0
   15.2290    7.2250   12.3510 C   0  0  0  0  0  0
   14.0580    7.5250   11.6440 C   0  0  0  0  0  0
   13.0820    7.2380   12.0280 H   0  0  0  0  0  0
   14.1000    8.2100   10.4230 C   0  0  0  0  0  0
   13.1720    8.4340    9.8980 H   0  0  0  0  0  0
   15.3180    8.6080    9.8790 C   0  0  0  0  0  0
   15.3460    9.1480    8.9340 H   0  0  0  0  0  0
   16.5000    8.3140   10.5520 C   0  0  0  0  0  0
   17.4510    8.6340   10.1330 H   0  0  0  0  0  0
   16.4530    7.6100   11.7630 C   0  0  0  0  0  0
   17.6200    7.3440   12.4560 O   0  0  0  0  0  0
   18.5760    6.6020   11.7990 C   0  0  0  0  0  0
   18.2760    5.4460   11.0720 C   0  0  0  0  0  0
   17.2520    5.0930   10.9810 H   0  0  0  0  0  0
   19.3040    4.7250   10.4620 C   0  0  0  0  0  0
   19.0730    3.8270    9.8910 H   0  0  0  0  0  0
   20.6270    5.1490   10.5870 C   0  0  0  0  0  0
   21.4270    4.5860   10.1090 H   0  0  0  0  0  0
   20.9270    6.2900   11.3310 C   0  0  0  0  0  0
   21.9600    6.6160   11.4370 H   0  0  0  0  0  0
   19.9020    7.0130   11.9440 C   0  0  0  0  0  0
   20.1390    7.9000   12.5280 H   0  0  0  0  0  0
    9.7680    1.0950   11.8480 N   0  0  0  0  0  0
    9.9080    0.4840   11.0570 H   0  0  0  0  0  0
    8.9180    1.0460   12.3900 H   0  0  0  0  0  0
  1  2  2  0  0  0
  1  6  1  0  0  0
  2  3  1  0  0  0
  2 41  1  0  0  0
  3  4  2  0  0  0
  4  5  1  0  0  0
  4 13  1  0  0  0
  5  6  2  0  0  0
  5 10  1  0  0  0
  6  7  1  0  0  0
  7  8  1  0  0  0
  7  9  1  0  0  0
 10 11  2  0  0  0
 10 14  1  0  0  0
 11 12  1  0  0  0
 11 13  1  0  0  0
 14 15  1  0  0  0
 14 16  1  0  0  0
 14 17  1  0  0  0
 17 18  1  0  0  0
 17 19  1  0  0  0
 19 20  1  0  0  0
 19 28  2  0  0  0
 20 21  1  0  0  0
 20 22  2  0  0  0
 22 23  1  0  0  0
 22 24  1  0  0  0
 24 25  1  0  0  0
 24 26  2  0  0  0
 26 27  1  0  0  0
 26 28  1  0  0  0
 28 29  1  0  0  0
 29 30  1  0  0  0
 30 31  1  0  0  0
 30 39  2  0  0  0
 31 32  1  0  0  0
 31 33  2  0  0  0
 33 34  1  0  0  0
 33 35  1  0  0  0
 35 36  1  0  0  0
 35 37  2  0  0  0
 37 38  1  0  0  0
 37 39  1  0  0  0
 39 40  1  0  0  0
 41 42  1  0  0  0
 41 43  1  0  0  0
M  END
>  <ACTIVITY>
3.3

>  <SET>
3

>  <Min_dist>
0.16

>  <Avg_dist>
0.55

$$$$
40-3
  Cerius2 12110214133D 1   1.00000                          
Structure written by Cerius2 SD Exporter
 38 40  0  0  0  0  0  0  0  0999 V2000
   10.4760    2.8200   13.3370 N   0  0  0  0  0  0
   10.7000    2.0130   12.2960 C   0  0  0  0  0  0
   11.7880    2.0180   11.5360 N   0  0  0  0  0  0
   12.6950    2.9360   11.9050 C   0  0  0  0  0  0
   12.5950    3.8300   12.9590 C   0  0  0  0  0  0
   11.3980    3.7390   13.6950 C   0  0  0  0  0  0
   11.0780    4.5250   14.7730 N   0  0  0  0  0  0
   11.6800    5.2530   15.1270 H   0  0  0  0  0  0
   10.1870    4.3810   15.2320 H   0  0  0  0  0  0
   13.7860    4.6630   13.0450 C   0  0  0  0  0  0
   14.6980    4.3470   12.0440 C   0  0  0  0  0  0
   14.1470    3.0810   11.0380 S   0  0  0  0  0  0
   16.0100    4.9410   11.7560 C   0  0  0  0  0  0
   16.0640    6.1720   11.0810 C   0  0  0  0  0  0
   15.1400    6.6700   10.7870 H   0  0  0  0  0  0
   17.2870    6.7720   10.7740 C   0  0  0  0  0  0
   18.4670    6.1320   11.1430 C   0  0  0  0  0  0
   19.4440    6.5580   10.9270 H   0  0  0  0  0  0
   18.4280    4.9020   11.8130 C   0  0  0  0  0  0
   19.3790    4.4470   12.0770 H   0  0  0  0  0  0
   17.2070    4.2950   12.1240 C   0  0  0  0  0  0
   17.0800    3.0950   12.7770 O   0  0  0  0  0  0
   18.2800    2.4080   13.1250 C   0  0  0  0  0  0
   17.9960    1.4720   13.6160 H   0  0  0  0  0  0
   18.8740    2.9900   13.8360 H   0  0  0  0  0  0
   18.8600    2.1530   12.2320 H   0  0  0  0  0  0
   17.1920    7.9680   10.1180 O   0  0  0  0  0  0
   18.4180    8.6210    9.7910 C   0  0  0  0  0  0
   18.9810    8.8760   10.6950 H   0  0  0  0  0  0
   18.1710    9.5560    9.2780 H   0  0  0  0  0  0
   19.0170    8.0120    9.1070 H   0  0  0  0  0  0
   14.0030    5.7250   14.0780 C   0  0  0  0  0  0
   13.2470    6.5100   13.9770 H   0  0  0  0  0  0
   14.9850    6.2000   13.9890 H   0  0  0  0  0  0
   13.9410    5.2960   15.0830 H   0  0  0  0  0  0
    9.7280    1.1090   11.9910 N   0  0  0  0  0  0
    9.8550    0.4780   11.2140 H   0  0  0  0  0  0
    8.8860    1.0750   12.5480 H   0  0  0  0  0  0
  1  2  2  0  0  0
  1  6  1  0  0  0
  2  3  1  0  0  0
  2 36  1  0  0  0
  3  4  2  0  0  0
  4  5  1  0  0  0
  4 12  1  0  0  0
  5  6  2  0  0  0
  5 10  1  0  0  0
  6  7  1  0  0  0
  7  8  1  0  0  0
  7  9  1  0  0  0
 10 11  2  0  0  0
 10 32  1  0  0  0
 11 12  1  0  0  0
 11 13  1  0  0  0
 13 14  1  0  0  0
 13 21  2  0  0  0
 14 15  1  0  0  0
 14 16  2  0  0  0
 16 17  1  0  0  0
 16 27  1  0  0  0
 17 18  1  0  0  0
 17 19  2  0  0  0
 19 20  1  0  0  0
 19 21  1  0  0  0
 21 22  1  0  0  0
 22 23  1  0  0  0
 23 24  1  0  0  0
 23 25  1  0  0  0
 23 26  1  0  0  0
 27 28  1  0  0  0
 28 29  1  0  0  0
 28 30  1  0  0  0
 28 31  1  0  0  0
 32 33  1  0  0  0
 32 34  1  0  0  0
 32 35  1  0  0  0
 36 37  1  0  0  0
 36 38  1  0  0  0
M  END
>  <ACTIVITY>
6.43

>  <SET>
2

>  <Min_dist>
0.19

>  <Avg_dist>
0.62

$$$$
40-4
  Cerius2 12110214133D 1   1.00000                          
Structure written by Cerius2 SD Exporter
 41 43  0  0  0  0  0  0  0  0999 V2000
   10.2610    2.6150   13.0580 N   0  0  0  0  0  0
   10.8430    1.8240   12.1520 C   0  0  0  0  0  0
   12.0650    1.9840   11.6600 N   0  0  0  0  0  0
   12.7080    3.0510   12.1590 C   0  0  0  0  0  0
   12.2280    3.9540   13.0920 C   0  0  0  0  0  0
   10.9230    3.6850   13.5500 C   0  0  0  0  0  0
   10.2490    4.4310   14.4850 N   0  0  0  0  0  0
   10.6500    5.2300   14.9500 H   0  0  0  0  0  0
    9.3150    4.1440   14.7520 H   0  0  0  0  0  0
   13.2190    4.9860   13.3700 C   0  0  0  0  0  0
   14.3990    4.7680   12.6640 C   0  0  0  0  0  0
   14.2840    3.4000   11.6390 S   0  0  0  0  0  0
   15.6870    5.5640   12.6740 C   0  0  0  0  0  0
   16.4780    4.9150   12.2810 H   0  0  0  0  0  0
   15.9950    5.8060   13.7000 H   0  0  0  0  0  0
   15.6040    6.8720   11.9010 C   0  0  0  0  0  0
   14.3590    7.5210   11.7770 C   0  0  0  0  0  0
   13.4720    7.0810   12.2300 H   0  0  0  0  0  0
   14.2280    8.7250   11.0820 C   0  0  0  0  0  0
   15.3570    9.3000   10.5110 C   0  0  0  0  0  0
   15.3110   10.2360    9.9590 H   0  0  0  0  0  0
   16.6070    8.6810   10.6410 C   0  0  0  0  0  0
   17.4580    9.1780   10.1810 H   0  0  0  0  0  0
   16.7440    7.4760   11.3360 C   0  0  0  0  0  0
   17.9330    6.8200   11.5160 O   0  0  0  0  0  0
   19.1070    7.4250   10.9770 C   0  0  0  0  0  0
   19.9550    6.7780   11.2220 H   0  0  0  0  0  0
   19.2910    8.4030   11.4340 H   0  0  0  0  0  0
   19.0470    7.4970    9.8860 H   0  0  0  0  0  0
   12.9570    9.2270   11.0370 O   0  0  0  0  0  0
   12.7780   10.4570   10.3360 C   0  0  0  0  0  0
   11.7160   10.7160   10.3870 H   0  0  0  0  0  0
   13.0450   10.3510    9.2800 H   0  0  0  0  0  0
   13.3430   11.2650   10.8110 H   0  0  0  0  0  0
   12.9970    6.1290   14.3120 C   0  0  0  0  0  0
   13.8020    6.8650   14.2680 H   0  0  0  0  0  0
   12.9280    5.7640   15.3420 H   0  0  0  0  0  0
   12.0730    6.6590   14.0580 H   0  0  0  0  0  0
   10.1190    0.7630   11.6980 N   0  0  0  0  0  0
   10.5200    0.1380   11.0150 H   0  0  0  0  0  0
    9.1860    0.6080   12.0520 H   0  0  0  0  0  0
  1  2  2  0  0  0
  1  6  1  0  0  0
  2  3  1  0  0  0
  2 39  1  0  0  0
  3  4  2  0  0  0
  4  5  1  0  0  0
  4 12  1  0  0  0
  5  6  2  0  0  0
  5 10  1  0  0  0
  6  7  1  0  0  0
  7  8  1  0  0  0
  7  9  1  0  0  0
 10 11  2  0  0  0
 10 35  1  0  0  0
 11 12  1  0  0  0
 11 13  1  0  0  0
 13 14  1  0  0  0
 13 15  1  0  0  0
 13 16  1  0  0  0
 16 17  1  0  0  0
 16 24  2  0  0  0
 17 18  1  0  0  0
 17 19  2  0  0  0
 19 20  1  0  0  0
 19 30  1  0  0  0
 20 21  1  0  0  0
 20 22  2  0  0  0
 22 23  1  0  0  0
 22 24  1  0  0  0
 24 25  1  0  0  0
 25 26  1  0  0  0
 26 27  1  0  0  0
 26 28  1  0  0  0
 26 29  1  0  0  0
 30 31  1  0  0  0
 31 32  1  0  0  0
 31 33  1  0  0  0
 31 34  1  0  0  0
 35 36  1  0  0  0
 35 37  1  0  0  0
 35 38  1  0  0  0
 39 40  1  0  0  0
 39 41  1  0  0  0
M  END
>  <ACTIVITY>
6.4

>  <SET>
1

>  <Min_dist>
999.9

>  <Avg_dist>
999.9

$$$$
40-5
  Cerius2 12110214133D 1   1.00000                          
Structure written by Cerius2 SD Exporter
 44 46  0  0  0  0  0  0  0  0999 V2000
   10.3540    2.8230   13.1940 N   0  0  0  0  0  0
   10.6650    2.0450   12.1540 C   0  0  0  0  0  0
   11.8490    1.9930   11.5550 N   0  0  0  0  0  0
   12.7590    2.8180   12.0960 C   0  0  0  0  0  0
   12.5760    3.6730   13.1690 C   0  0  0  0  0  0
   11.2820    3.6480   13.7260 C   0  0  0  0  0  0
   10.8690    4.4120   14.7890 N   0  0  0  0  0  0
   11.4670    5.0730   15.2620 H   0  0  0  0  0  0
    9.9130    4.3200   15.1110 H   0  0  0  0  0  0
   13.8020    4.4040   13.4630 C   0  0  0  0  0  0
   14.8250    4.0580   12.5870 C   0  0  0  0  0  0
   14.3270    2.8800   11.4520 S   0  0  0  0  0  0
   16.2420    4.5720   12.5270 C   0  0  0  0  0  0
   16.6150    4.4900   11.4980 H   0  0  0  0  0  0
   16.9020    3.9300   13.1260 H   0  0  0  0  0  0
   16.3350    6.0230   13.0090 C   0  0  0  0  0  0
   15.7270    6.1610   13.9140 H   0  0  0  0  0  0
   17.3610    6.2650   13.3190 H   0  0  0  0  0  0
   15.8810    7.0020   11.9470 C   0  0  0  0  0  0
   14.5040    7.1520   11.7040 C   0  0  0  0  0  0
   13.7860    6.5750   12.2860 H   0  0  0  0  0  0
   14.0330    8.0310   10.7260 C   0  0  0  0  0  0
   14.9490    8.7650    9.9780 C   0  0  0  0  0  0
   14.6350    9.4620    9.2060 H   0  0  0  0  0  0
   16.3250    8.6200   10.2040 C   0  0  0  0  0  0
   16.9970    9.2150    9.5910 H   0  0  0  0  0  0
   16.8000    7.7410   11.1810 C   0  0  0  0  0  0
   18.1240    7.5320   11.4660 O   0  0  0  0  0  0
   19.0810    8.2480   10.6890 C   0  0  0  0  0  0
   20.0770    7.9520   11.0340 H   0  0  0  0  0  0
   18.9830    9.3280   10.8420 H   0  0  0  0  0  0
   19.0040    7.9870    9.6290 H   0  0  0  0  0  0
   12.6720    8.0770   10.6010 O   0  0  0  0  0  0
   12.1490    8.9340    9.5880 C   0  0  0  0  0  0
   11.0580    8.8570    9.6180 H   0  0  0  0  0  0
   12.4790    8.6160    8.5940 H   0  0  0  0  0  0
   12.4150    9.9790    9.7800 H   0  0  0  0  0  0
   13.9400    5.4010   14.5730 C   0  0  0  0  0  0
   14.9520    5.8070   14.6460 H   0  0  0  0  0  0
   13.7100    4.9320   15.5350 H   0  0  0  0  0  0
   13.2580    6.2420   14.4140 H   0  0  0  0  0  0
    9.6820    1.2360   11.6680 N   0  0  0  0  0  0
    9.8720    0.6320   10.8830 H   0  0  0  0  0  0
    8.7690    1.2500   12.0980 H   0  0  0  0  0  0
  1  2  2  0  0  0
  1  6  1  0  0  0
  2  3  1  0  0  0
  2 42  1  0  0  0
  3  4  2  0  0  0
  4  5  1  0  0  0
  4 12  1  0  0  0
  5  6  2  0  0  0
  5 10  1  0  0  0
  6  7  1  0  0  0
  7  8  1  0  0  0
  7  9  1  0  0  0
 10 11  2  0  0  0
 10 38  1  0  0  0
 11 12  1  0  0  0
 11 13  1  0  0  0
 13 14  1  0  0  0
 13 15  1  0  0  0
 13 16  1  0  0  0
 16 17  1  0  0  0
 16 18  1  0  0  0
 16 19  1  0  0  0
 19 20  1  0  0  0
 19 27  2  0  0  0
 20 21  1  0  0  0
 20 22  2  0  0  0
 22 23  1  0  0  0
 22 33  1  0  0  0
 23 24  1  0  0  0
 23 25  2  0  0  0
 25 26  1  0  0  0
 25 27  1  0  0  0
 27 28  1  0  0  0
 28 29  1  0  0  0
 29 30  1  0  0  0
 29 31  1  0  0  0
 29 32  1  0  0  0
 33 34  1  0  0  0
 34 35  1  0  0  0
 34 36  1  0  0  0
 34 37  1  0  0  0
 38 39  1  0  0  0
 38 40  1  0  0  0
 38 41  1  0  0  0
 42 43  1  0  0  0
 42 44  1  0  0  0
M  END
>  <ACTIVITY>
5.23

>  <SET>
2

>  <Min_dist>
0.12

>  <Avg_dist>
0.6

$$$$
40-6
  Cerius2 12110214133D 1   1.00000                          
Structure written by Cerius2 SD Exporter
 42 44  0  0  0  0  0  0  0  0999 V2000
   10.5530    2.8220   13.2870 N   0  0  0  0  0  0
   10.7560    2.0050   12.2500 C   0  0  0  0  0  0
   11.8350    1.9920   11.4780 N   0  0  0  0  0  0
   12.7580    2.9000   11.8310 C   0  0  0  0  0  0
   12.6810    3.8030   12.8780 C   0  0  0  0  0  0
   11.4900    3.7320   13.6280 C   0  0  0  0  0  0
   11.1910    4.5320   14.7020 N   0  0  0  0  0  0
   11.8030    5.2590   15.0410 H   0  0  0  0  0  0
   10.3020    4.4040   15.1700 H   0  0  0  0  0  0
   13.8840    4.6220   12.9450 C   0  0  0  0  0  0
   14.7800    4.2880   11.9360 C   0  0  0  0  0  0
   14.2010    3.0210   10.9460 S   0  0  0  0  0  0
   16.0880    4.8680   11.6230 C   0  0  0  0  0  0
   16.1630    6.1390   11.0300 C   0  0  0  0  0  0
   15.2340    6.6610   10.8140 H   0  0  0  0  0  0
   17.4020    6.7090   10.7320 C   0  0  0  0  0  0
   18.5690    5.9790   11.0190 C   0  0  0  0  0  0
   18.5140    4.7170   11.6370 C   0  0  0  0  0  0
   17.2650    4.1660   11.9300 C   0  0  0  0  0  0
   17.1750    3.1920   12.4040 H   0  0  0  0  0  0
   19.7200    4.1230   11.9070 O   0  0  0  0  0  0
   19.6900    2.8450   12.5390 C   0  0  0  0  0  0
   20.7250    2.5210   12.6820 H   0  0  0  0  0  0
   19.1920    2.1040   11.9050 H   0  0  0  0  0  0
   19.2190    2.9050   13.5260 H   0  0  0  0  0  0
   19.7990    6.5460   10.7550 O   0  0  0  0  0  0
   20.2270    6.1810    9.4380 C   0  0  0  0  0  0
   21.2030    6.6430    9.2660 H   0  0  0  0  0  0
   19.5340    6.5570    8.6770 H   0  0  0  0  0  0
   20.3430    5.0960    9.3430 H   0  0  0  0  0  0
   17.5850    7.9460   10.1690 O   0  0  0  0  0  0
   16.4170    8.7190    9.9020 C   0  0  0  0  0  0
   16.7410    9.6740    9.4770 H   0  0  0  0  0  0
   15.8670    8.9340   10.8240 H   0  0  0  0  0  0
   15.7790    8.2240    9.1630 H   0  0  0  0  0  0
   14.1250    5.6840   13.9730 C   0  0  0  0  0  0
   15.1170    6.1350   13.8820 H   0  0  0  0  0  0
   14.0570    5.2600   14.9800 H   0  0  0  0  0  0
   13.3860    6.4840   13.8720 H   0  0  0  0  0  0
    9.7690    1.1110   11.9620 N   0  0  0  0  0  0
    9.8790    0.4750   11.1860 H   0  0  0  0  0  0
    8.9320    1.0930   12.5260 H   0  0  0  0  0  0
  1  2  2  0  0  0
  1  6  1  0  0  0
  2  3  1  0  0  0
  2 40  1  0  0  0
  3  4  2  0  0  0
  4  5  1  0  0  0
  4 12  1  0  0  0
  5  6  2  0  0  0
  5 10  1  0  0  0
  6  7  1  0  0  0
  7  8  1  0  0  0
  7  9  1  0  0  0
 10 11  2  0  0  0
 10 36  1  0  0  0
 11 12  1  0  0  0
 11 13  1  0  0  0
 13 14  1  0  0  0
 13 19  2  0  0  0
 14 15  1  0  0  0
 14 16  2  0  0  0
 16 17  1  0  0  0
 16 31  1  0  0  0
 17 18  2  0  0  0
 17 26  1  0  0  0
 18 19  1  0  0  0
 18 21  1  0  0  0
 19 20  1  0  0  0
 21 22  1  0  0  0
 22 23  1  0  0  0
 22 24  1  0  0  0
 22 25  1  0  0  0
 26 27  1  0  0  0
 27 28  1  0  0  0
 27 29  1  0  0  0
 27 30  1  0  0  0
 31 32  1  0  0  0
 32 33  1  0  0  0
 32 34  1  0  0  0
 32 35  1  0  0  0
 36 37  1  0  0  0
 36 38  1  0  0  0
 36 39  1  0  0  0
 40 41  1  0  0  0
 40 42  1  0  0  0
M  END
>  <ACTIVITY>
5.74

>  <SET>
2

>  <Min_dist>
0.23

>  <Avg_dist>
0.61

$$$$
40-7
  Cerius2 12110214133D 1   1.00000                          
Structure written by Cerius2 SD Exporter
 45 47  0  0  0  0  0  0  0  0999 V2000
   10.2340    2.6360   13.0230 N   0  0  0  0  0  0
   10.8260    1.8480   12.1220 C   0  0  0  0  0  0
   12.0590    1.9980   11.6570 N   0  0  0  0  0  0
   12.7020    3.0560   12.1760 C   0  0  0  0  0  0
   12.2110    3.9570   13.1040 C   0  0  0  0  0  0
   10.8960    3.6950   13.5380 C   0  0  0  0  0  0
   10.2130    4.4360   14.4690 N   0  0  0  0  0  0
   10.6170    5.2220   14.9570 H   0  0  0  0  0  0
    9.2750    4.1500   14.7230 H   0  0  0  0  0  0
   13.2020    4.9820   13.4050 C   0  0  0  0  0  0
   14.3960    4.7560   12.7240 C   0  0  0  0  0  0
   14.2930    3.3910   11.6950 S   0  0  0  0  0  0
   15.6880    5.5400   12.7680 C   0  0  0  0  0  0
   16.5010    4.8910   12.4210 H   0  0  0  0  0  0
   15.9550    5.8120   13.7980 H   0  0  0  0  0  0
   15.6450    6.8130   11.9440 C   0  0  0  0  0  0
   16.8150    7.3200   11.3440 C   0  0  0  0  0  0
   17.7410    6.7660   11.4810 H   0  0  0  0  0  0
   16.7900    8.5020   10.5950 C   0  0  0  0  0  0
   15.5720    9.1810   10.4430 C   0  0  0  0  0  0
   14.3960    8.6550   10.9880 C   0  0  0  0  0  0
   14.4320    7.4910   11.7540 C   0  0  0  0  0  0
   13.5130    7.1140   12.1990 H   0  0  0  0  0  0
   13.1990    9.3070   10.8410 O   0  0  0  0  0  0
   13.2950   10.2680    9.7840 C   0  0  0  0  0  0
   12.3310   10.7800    9.7090 H   0  0  0  0  0  0
   13.4950    9.7790    8.8240 H   0  0  0  0  0  0
   14.0630   11.0200    9.9970 H   0  0  0  0  0  0
   15.5200   10.3350    9.6950 O   0  0  0  0  0  0
   16.7220   10.4680    8.9290 C   0  0  0  0  0  0
   16.6300   11.3730    8.3200 H   0  0  0  0  0  0
   16.8600    9.6170    8.2530 H   0  0  0  0  0  0
   17.5950   10.5830    9.5800 H   0  0  0  0  0  0
   17.8780    9.0700    9.9840 O   0  0  0  0  0  0
   19.1420    8.4450   10.1960 C   0  0  0  0  0  0
   19.8960    9.0270    9.6570 H   0  0  0  0  0  0
   19.1520    7.4290    9.7880 H   0  0  0  0  0  0
   19.4120    8.4520   11.2570 H   0  0  0  0  0  0
   12.9660    6.1270   14.3410 C   0  0  0  0  0  0
   13.7700    6.8660   14.3050 H   0  0  0  0  0  0
   12.8840    5.7640   15.3700 H   0  0  0  0  0  0
   12.0440    6.6550   14.0730 H   0  0  0  0  0  0
   10.0980    0.8010   11.6420 N   0  0  0  0  0  0
   10.5020    0.1820   10.9550 H   0  0  0  0  0  0
    9.1540    0.6600   11.9700 H   0  0  0  0  0  0
  1  2  2  0  0  0
  1  6  1  0  0  0
  2  3  1  0  0  0
  2 43  1  0  0  0
  3  4  2  0  0  0
  4  5  1  0  0  0
  4 12  1  0  0  0
  5  6  2  0  0  0
  5 10  1  0  0  0
  6  7  1  0  0  0
  7  8  1  0  0  0
  7  9  1  0  0  0
 10 11  2  0  0  0
 10 39  1  0  0  0
 11 12  1  0  0  0
 11 13  1  0  0  0
 13 14  1  0  0  0
 13 15  1  0  0  0
 13 16  1  0  0  0
 16 17  1  0  0  0
 16 22  2  0  0  0
 17 18  1  0  0  0
 17 19  2  0  0  0
 19 20  1  0  0  0
 19 34  1  0  0  0
 20 21  2  0  0  0
 20 29  1  0  0  0
 21 22  1  0  0  0
 21 24  1  0  0  0
 22 23  1  0  0  0
 24 25  1  0  0  0
 25 26  1  0  0  0
 25 27  1  0  0  0
 25 28  1  0  0  0
 29 30  1  0  0  0
 30 31  1  0  0  0
 30 32  1  0  0  0
 30 33  1  0  0  0
 34 35  1  0  0  0
 35 36  1  0  0  0
 35 37  1  0  0  0
 35 38  1  0  0  0
 39 40  1  0  0  0
 39 41  1  0  0  0
 39 42  1  0  0  0
 43 44  1  0  0  0
 43 45  1  0  0  0
M  END
>  <ACTIVITY>
4.29

>  <SET>
2

>  <Min_dist>
0.14

>  <Avg_dist>
0.62

$$$$
40-8
  Cerius2 12110214133D 1   1.00000                          
Structure written by Cerius2 SD Exporter
 48 50  0  0  0  0  0  0  0  0999 V2000
   10.3380    2.8060   13.1930 N   0  0  0  0  0  0
   10.6530    2.0290   12.1530 C   0  0  0  0  0  0
   11.8360    1.9850   11.5540 N   0  0  0  0  0  0
   12.7420    2.8140   12.0950 C   0  0  0  0  0  0
   12.5560    3.6660   13.1690 C   0  0  0  0  0  0
   11.2610    3.6360   13.7250 C   0  0  0  0  0  0
   10.8440    4.4000   14.7870 N   0  0  0  0  0  0
   11.4370    5.0680   15.2560 H   0  0  0  0  0  0
    9.8880    4.3050   15.1070 H   0  0  0  0  0  0
   13.7790    4.3990   13.4670 C   0  0  0  0  0  0
   14.8040    4.0590   12.5910 C   0  0  0  0  0  0
   14.3100    2.8840   11.4500 S   0  0  0  0  0  0
   16.2190    4.5750   12.5370 C   0  0  0  0  0  0
   16.5920    4.5130   11.5070 H   0  0  0  0  0  0
   16.8810    3.9250   13.1250 H   0  0  0  0  0  0
   16.3120    6.0160   13.0500 C   0  0  0  0  0  0
   15.6640    6.1530   13.9260 H   0  0  0  0  0  0
   17.3290    6.2340   13.4010 H   0  0  0  0  0  0
   15.9340    7.0170   11.9830 C   0  0  0  0  0  0
   14.5880    7.2220   11.6530 C   0  0  0  0  0  0
   13.8040    6.6760   12.1740 H   0  0  0  0  0  0
   14.2500    8.1290   10.6500 C   0  0  0  0  0  0
   15.2440    8.8690   10.0000 C   0  0  0  0  0  0
   16.5980    8.6550   10.2980 C   0  0  0  0  0  0
   16.9320    7.7310   11.2940 C   0  0  0  0  0  0
   17.9700    7.5420   11.5620 H   0  0  0  0  0  0
   17.5000    9.3900    9.5720 O   0  0  0  0  0  0
   18.8830    9.1900    9.8570 C   0  0  0  0  0  0
   19.4570    9.8350    9.1840 H   0  0  0  0  0  0
   19.1800    8.1550    9.6610 H   0  0  0  0  0  0
   19.1190    9.4860   10.8840 H   0  0  0  0  0  0
   14.8880    9.7530    9.0080 O   0  0  0  0  0  0
   16.0560   10.4120    8.5060 C   0  0  0  0  0  0
   15.7360   11.1030    7.7200 H   0  0  0  0  0  0
   16.7560    9.6960    8.0630 H   0  0  0  0  0  0
   16.5500   10.9950    9.2900 H   0  0  0  0  0  0
   12.9270    8.3390   10.3590 O   0  0  0  0  0  0
   12.8080    9.2690    9.2760 C   0  0  0  0  0  0
   11.7420    9.4450    9.1050 H   0  0  0  0  0  0
   13.2380    8.8600    8.3550 H   0  0  0  0  0  0
   13.2770   10.2280    9.5240 H   0  0  0  0  0  0
   13.9140    5.3920   14.5810 C   0  0  0  0  0  0
   14.9270    5.7950   14.6610 H   0  0  0  0  0  0
   13.6770    4.9210   15.5400 H   0  0  0  0  0  0
   13.2350    6.2360   14.4200 H   0  0  0  0  0  0
    9.6750    1.2140   11.6690 N   0  0  0  0  0  0
    9.8690    0.6080   10.8860 H   0  0  0  0  0  0
    8.7640    1.2170   12.1030 H   0  0  0  0  0  0
  1  2  2  0  0  0
  1  6  1  0  0  0
  2  3  1  0  0  0
  2 46  1  0  0  0
  3  4  2  0  0  0
  4  5  1  0  0  0
  4 12  1  0  0  0
  5  6  2  0  0  0
  5 10  1  0  0  0
  6  7  1  0  0  0
  7  8  1  0  0  0
  7  9  1  0  0  0
 10 11  2  0  0  0
 10 42  1  0  0  0
 11 12  1  0  0  0
 11 13  1  0  0  0
 13 14  1  0  0  0
 13 15  1  0  0  0
 13 16  1  0  0  0
 16 17  1  0  0  0
 16 18  1  0  0  0
 16 19  1  0  0  0
 19 20  1  0  0  0
 19 25  2  0  0  0
 20 21  1  0  0  0
 20 22  2  0  0  0
 22 23  1  0  0  0
 22 37  1  0  0  0
 23 24  2  0  0  0
 23 32  1  0  0  0
 24 25  1  0  0  0
 24 27  1  0  0  0
 25 26  1  0  0  0
 27 28  1  0  0  0
 28 29  1  0  0  0
 28 30  1  0  0  0
 28 31  1  0  0  0
 32 33  1  0  0  0
 33 34  1  0  0  0
 33 35  1  0  0  0
 33 36  1  0  0  0
 37 38  1  0  0  0
 38 39  1  0  0  0
 38 40  1  0  0  0
 38 41  1  0  0  0
 42 43  1  0  0  0
 42 44  1  0  0  0
 42 45  1  0  0  0
 46 47  1  0  0  0
 46 48  1  0  0  0
M  END
>  <ACTIVITY>
4.6

>  <SET>
2

>  <Min_dist>
0.21

>  <Avg_dist>
0.6

$$$$
40-9
  Cerius2 12110214133D 1   1.00000                          
Structure written by Cerius2 SD Exporter
 41 43  0  0  0  0  0  0  0  0999 V2000
   10.4630    2.7880   13.2780 N   0  0  0  0  0  0
   10.6840    1.9480   12.2630 C   0  0  0  0  0  0
   11.7670    1.9320   11.4970 N   0  0  0  0  0  0
   12.6720    2.8650   11.8300 C   0  0  0  0  0  0
   12.5760    3.7960   12.8520 C   0  0  0  0  0  0
   11.3840    3.7230   13.6000 C   0  0  0  0  0  0
   11.0660    4.5380   14.6570 N   0  0  0  0  0  0
   11.6680    5.2740   14.9950 H   0  0  0  0  0  0
   10.1780    4.3990   15.1260 H   0  0  0  0  0  0
   13.7660    4.6430   12.9000 C   0  0  0  0  0  0
   14.6640    4.2810   11.9090 C   0  0  0  0  0  0
   15.6300    4.7180   11.6920 H   0  0  0  0  0  0
   14.1210    2.9820   10.9490 S   0  0  0  0  0  0
   13.9750    5.7570   13.9030 C   0  0  0  0  0  0
   13.9650    5.3140   14.9070 H   0  0  0  0  0  0
   13.1140    6.4350   13.8410 H   0  0  0  0  0  0
   15.2580    6.5770   13.7310 C   0  0  0  0  0  0
   15.3450    7.3370   14.5190 H   0  0  0  0  0  0
   16.1380    5.9310   13.8510 H   0  0  0  0  0  0
   15.3200    7.2520   12.3750 C   0  0  0  0  0  0
   14.1200    7.5270   11.6960 C   0  0  0  0  0  0
   13.1680    7.2450   12.1450 H   0  0  0  0  0  0
   14.1200    8.1590   10.4510 C   0  0  0  0  0  0
   15.3350    8.5250    9.8790 C   0  0  0  0  0  0
   15.3900    9.0180    8.9120 H   0  0  0  0  0  0
   16.5390    8.2630   10.5460 C   0  0  0  0  0  0
   17.4590    8.5710   10.0560 H   0  0  0  0  0  0
   16.5430    7.6320   11.7930 C   0  0  0  0  0  0
   17.6680    7.3420   12.5180 O   0  0  0  0  0  0
   18.9250    7.6910   11.9410 C   0  0  0  0  0  0
   19.7070    7.4090   12.6540 H   0  0  0  0  0  0
   18.9980    8.7710   11.7780 H   0  0  0  0  0  0
   19.1010    7.1340   11.0150 H   0  0  0  0  0  0
   12.8820    8.3600    9.9070 O   0  0  0  0  0  0
   12.8370    8.9760    8.6210 C   0  0  0  0  0  0
   11.7860    9.0630    8.3290 H   0  0  0  0  0  0
   13.3420    8.3580    7.8710 H   0  0  0  0  0  0
   13.2590    9.9860    8.6540 H   0  0  0  0  0  0
    9.7130    1.0320   11.9940 N   0  0  0  0  0  0
    9.8370    0.3770   11.2370 H   0  0  0  0  0  0
    8.8750    1.0140   12.5560 H   0  0  0  0  0  0
  1  2  2  0  0  0
  1  6  1  0  0  0
  2  3  1  0  0  0
  2 39  1  0  0  0
  3  4  2  0  0  0
  4  5  1  0  0  0
  4 13  1  0  0  0
  5  6  2  0  0  0
  5 10  1  0  0  0
  6  7  1  0  0  0
  7  8  1  0  0  0
  7  9  1  0  0  0
 10 11  2  0  0  0
 10 14  1  0  0  0
 11 12  1  0  0  0
 11 13  1  0  0  0
 14 15  1  0  0  0
 14 16  1  0  0  0
 14 17  1  0  0  0
 17 18  1  0  0  0
 17 19  1  0  0  0
 17 20  1  0  0  0
 20 21  1  0  0  0
 20 28  2  0  0  0
 21 22  1  0  0  0
 21 23  2  0  0  0
 23 24  1  0  0  0
 23 34  1  0  0  0
 24 25  1  0  0  0
 24 26  2  0  0  0
 26 27  1  0  0  0
 26 28  1  0  0  0
 28 29  1  0  0  0
 29 30  1  0  0  0
 30 31  1  0  0  0
 30 32  1  0  0  0
 30 33  1  0  0  0
 34 35  1  0  0  0
 35 36  1  0  0  0
 35 37  1  0  0  0
 35 38  1  0  0  0
 39 40  1  0  0  0
 39 41  1  0  0  0
M  END
>  <ACTIVITY>
5.51

>  <SET>
1

>  <Min_dist>
999.9

>  <Avg_dist>
999.9

$$$$
40-table-2-4
  Cerius2 12110214133D 1   1.00000                          
Structure written by Cerius2 SD Exporter
 30 32  0  0  0  0  0  0  0  0999 V2000
   10.6670    2.7850   13.4250 N   0  0  0  0  0  0
   10.7620    1.9780   12.3630 C   0  0  0  0  0  0
   11.7320    2.0040   11.4570 N   0  0  0  0  0  0
   12.6590    2.9450   11.6920 C   0  0  0  0  0  0
   12.6830    3.8420   12.7450 C   0  0  0  0  0  0
   11.6090    3.7270   13.6460 C   0  0  0  0  0  0
   11.4370    4.5140   14.7580 N   0  0  0  0  0  0
   12.0880    5.2460   15.0090 H   0  0  0  0  0  0
   10.6320    4.3600   15.3510 H   0  0  0  0  0  0
   13.8450    4.6990   12.6510 C   0  0  0  0  0  0
   14.6310    4.4110   11.5450 C   0  0  0  0  0  0
   13.9760    3.1220   10.6310 S   0  0  0  0  0  0
   15.9020    5.0620   11.0970 C   0  0  0  0  0  0
   15.7400    6.1290   10.9160 H   0  0  0  0  0  0
   16.2900    4.6250   10.1710 H   0  0  0  0  0  0
   16.6750    4.9530   11.8640 H   0  0  0  0  0  0
   14.2210    5.7660   13.5670 C   0  0  0  0  0  0
   15.0480    5.4900   14.6630 C   0  0  0  0  0  0
   15.4180    4.4810   14.8390 H   0  0  0  0  0  0
   15.4070    6.5140   15.5430 C   0  0  0  0  0  0
   16.0500    6.2920   16.3910 H   0  0  0  0  0  0
   14.9380    7.8090   15.3280 C   0  0  0  0  0  0
   14.1110    8.0900   14.2400 C   0  0  0  0  0  0
   13.7430    9.0990   14.0700 H   0  0  0  0  0  0
   13.7520    7.0680   13.3580 C   0  0  0  0  0  0
   13.1050    7.2950   12.5120 H   0  0  0  0  0  0
   15.3810    9.0700   16.4120 Cl  0  0  0  0  0  0
    9.7780    1.0500   12.2000 N   0  0  0  0  0  0
    9.8080    0.4200   11.4130 H   0  0  0  0  0  0
    9.0240    1.0010   12.8690 H   0  0  0  0  0  0
  1  2  2  0  0  0
  1  6  1  0  0  0
  2  3  1  0  0  0
  2 28  1  0  0  0
  3  4  2  0  0  0
  4  5  1  0  0  0
  4 12  1  0  0  0
  5  6  2  0  0  0
  5 10  1  0  0  0
  6  7  1  0  0  0
  7  8  1  0  0  0
  7  9  1  0  0  0
 10 11  2  0  0  0
 10 17  1  0  0  0
 11 12  1  0  0  0
 11 13  1  0  0  0
 13 14  1  0  0  0
 13 15  1  0  0  0
 13 16  1  0  0  0
 17 18  1  0  0  0
 17 25  2  0  0  0
 18 19  1  0  0  0
 18 20  2  0  0  0
 20 21  1  0  0  0
 20 22  1  0  0  0
 22 23  2  0  0  0
 22 27  1  0  0  0
 23 24  1  0  0  0
 23 25  1  0  0  0
 25 26  1  0  0  0
 28 29  1  0  0  0
 28 30  1  0  0  0
M  END
>  <ACTIVITY>
3.3

>  <SET>
3

>  <Min_dist>
0.12

>  <Avg_dist>
0.64

$$$$
40-table-2-5
  Cerius2 12110214133D 1   1.00000                          
Structure written by Cerius2 SD Exporter
 33 35  0  0  0  0  0  0  0  0999 V2000
   10.2350    2.6270   13.0210 N   0  0  0  0  0  0
   10.8330    1.8390   12.1260 C   0  0  0  0  0  0
   12.0620    2.0050   11.6600 N   0  0  0  0  0  0
   12.6950    3.0680   12.1780 C   0  0  0  0  0  0
   12.2020    3.9710   13.1090 C   0  0  0  0  0  0
   10.8810    3.7000   13.5290 C   0  0  0  0  0  0
   10.1520    4.4360   14.4290 N   0  0  0  0  0  0
   10.4640    5.2950   14.8510 H   0  0  0  0  0  0
    9.2060    4.1340   14.6330 H   0  0  0  0  0  0
   13.2100    4.9900   13.4170 C   0  0  0  0  0  0
   14.3930    4.7550   12.7160 C   0  0  0  0  0  0
   14.2810    3.4020   11.6840 S   0  0  0  0  0  0
   15.6770    5.5260   12.7450 C   0  0  0  0  0  0
   15.9020    5.8750   13.7580 H   0  0  0  0  0  0
   15.6090    6.3950   12.0840 H   0  0  0  0  0  0
   16.5280    4.9180   12.4200 H   0  0  0  0  0  0
   13.0430    6.1280   14.3940 C   0  0  0  0  0  0
   13.3110    5.7950   15.4040 H   0  0  0  0  0  0
   12.0160    6.4820   14.4760 H   0  0  0  0  0  0
   13.9560    7.2470   13.9400 C   0  0  0  0  0  0
   13.4750    8.3340   13.1930 C   0  0  0  0  0  0
   12.4260    8.3930   12.9100 H   0  0  0  0  0  0
   14.3320    9.3640   12.7970 C   0  0  0  0  0  0
   13.9450   10.1980   12.2150 H   0  0  0  0  0  0
   15.6800    9.3260   13.1470 C   0  0  0  0  0  0
   16.3470   10.1290   12.8380 H   0  0  0  0  0  0
   16.1710    8.2600   13.8960 C   0  0  0  0  0  0
   17.2230    8.2300   14.1750 H   0  0  0  0  0  0
   15.3150    7.2310   14.2940 C   0  0  0  0  0  0
   15.7210    6.4100   14.8850 H   0  0  0  0  0  0
   10.1200    0.7780   11.6560 N   0  0  0  0  0  0
   10.5340    0.1560   10.9780 H   0  0  0  0  0  0
    9.1810    0.6220   11.9900 H   0  0  0  0  0  0
  1  2  2  0  0  0
  1  6  1  0  0  0
  2  3  1  0  0  0
  2 31  1  0  0  0
  3  4  2  0  0  0
  4  5  1  0  0  0
  4 12  1  0  0  0
  5  6  2  0  0  0
  5 10  1  0  0  0
  6  7  1  0  0  0
  7  8  1  0  0  0
  7  9  1  0  0  0
 10 11  2  0  0  0
 10 17  1  0  0  0
 11 12  1  0  0  0
 11 13  1  0  0  0
 13 14  1  0  0  0
 13 15  1  0  0  0
 13 16  1  0  0  0
 17 18  1  0  0  0
 17 19  1  0  0  0
 17 20  1  0  0  0
 20 21  1  0  0  0
 20 29  2  0  0  0
 21 22  1  0  0  0
 21 23  2  0  0  0
 23 24  1  0  0  0
 23 25  1  0  0  0
 25 26  1  0  0  0
 25 27  2  0  0  0
 27 28  1  0  0  0
 27 29  1  0  0  0
 29 30  1  0  0  0
 31 32  1  0  0  0
 31 33  1  0  0  0
M  END
>  <ACTIVITY>
3.3

>  <SET>
3

>  <Min_dist>
0.06

>  <Avg_dist>
0.62

$$$$
40-table-2-6
  Cerius2 12110214133D 1   1.00000                          
Structure written by Cerius2 SD Exporter
 27 29  0  0  0  0  0  0  0  0999 V2000
   10.5330    2.8210   13.2880 N   0  0  0  0  0  0
   10.7180    1.9930   12.2550 C   0  0  0  0  0  0
   11.7820    1.9720   11.4610 N   0  0  0  0  0  0
   12.7120    2.8820   11.7890 C   0  0  0  0  0  0
   12.6550    3.7900   12.8350 C   0  0  0  0  0  0
   11.4770    3.7340   13.6020 C   0  0  0  0  0  0
   11.1970    4.5580   14.6640 N   0  0  0  0  0  0
   11.8060    5.3090   14.9540 H   0  0  0  0  0  0
   10.3120    4.4500   15.1440 H   0  0  0  0  0  0
   13.8600    4.5910   12.8740 C   0  0  0  0  0  0
   14.7220    4.2690   11.8390 C   0  0  0  0  0  0
   14.1390    3.0040   10.8680 S   0  0  0  0  0  0
   16.0520    4.9110   11.5810 C   0  0  0  0  0  0
   16.2020    5.0910   10.5110 H   0  0  0  0  0  0
   16.8450    4.2330   11.9190 H   0  0  0  0  0  0
   16.1610    6.2400   12.3410 C   0  0  0  0  0  0
   15.5620    7.0070   11.8330 H   0  0  0  0  0  0
   17.2010    6.5850   12.3280 H   0  0  0  0  0  0
   15.6740    6.0970   13.7870 C   0  0  0  0  0  0
   16.2890    5.3460   14.3000 H   0  0  0  0  0  0
   15.8110    7.0420   14.3250 H   0  0  0  0  0  0
   14.1960    5.6810   13.8560 C   0  0  0  0  0  0
   13.9760    5.3530   14.8770 H   0  0  0  0  0  0
   13.5640    6.5510   13.6390 H   0  0  0  0  0  0
    9.7260    1.0960   11.9960 N   0  0  0  0  0  0
    9.8210    0.4510   11.2250 H   0  0  0  0  0  0
    8.9010    1.0830   12.5780 H   0  0  0  0  0  0
  1  2  2  0  0  0
  1  6  1  0  0  0
  2  3  1  0  0  0
  2 25  1  0  0  0
  3  4  2  0  0  0
  4  5  1  0  0  0
  4 12  1  0  0  0
  5  6  2  0  0  0
  5 10  1  0  0  0
  6  7  1  0  0  0
  7  8  1  0  0  0
  7  9  1  0  0  0
 10 11  2  0  0  0
 10 22  1  0  0  0
 11 12  1  0  0  0
 11 13  1  0  0  0
 13 14  1  0  0  0
 13 15  1  0  0  0
 13 16  1  0  0  0
 16 17  1  0  0  0
 16 18  1  0  0  0
 16 19  1  0  0  0
 19 20  1  0  0  0
 19 21  1  0  0  0
 19 22  1  0  0  0
 22 23  1  0  0  0
 22 24  1  0  0  0
 25 26  1  0  0  0
 25 27  1  0  0  0
M  END
>  <ACTIVITY>
5.41

>  <SET>
2

>  <Min_dist>
0.43

>  <Avg_dist>
0.66

$$$$
40-table2-1
  Cerius2 12110214143D 1   1.00000                          
Structure written by Cerius2 SD Exporter
 30 32  0  0  0  0  0  0  0  0999 V2000
   10.5500    2.8260   13.2830 N   0  0  0  0  0  0
   10.7550    2.0070   12.2480 C   0  0  0  0  0  0
   11.8350    1.9920   11.4780 N   0  0  0  0  0  0
   12.7540    2.9050   11.8260 C   0  0  0  0  0  0
   12.6730    3.8150   12.8670 C   0  0  0  0  0  0
   11.4860    3.7400   13.6210 C   0  0  0  0  0  0
   11.1910    4.5320   14.7020 N   0  0  0  0  0  0
   11.8180    5.2360   15.0620 H   0  0  0  0  0  0
   10.3090    4.3920   15.1810 H   0  0  0  0  0  0
   13.8670    4.6470   12.9210 C   0  0  0  0  0  0
   14.7740    4.2970   11.9280 C   0  0  0  0  0  0
   14.2010    3.0200   10.9470 S   0  0  0  0  0  0
   16.1010    4.8490   11.6410 C   0  0  0  0  0  0
   16.3100    5.6610   10.5180 C   0  0  0  0  0  0
   15.4890    5.8910    9.8410 H   0  0  0  0  0  0
   17.5760    6.1900   10.2560 C   0  0  0  0  0  0
   17.7310    6.8190    9.3810 H   0  0  0  0  0  0
   18.6400    5.9130   11.1130 C   0  0  0  0  0  0
   19.6260    6.3260   10.9080 H   0  0  0  0  0  0
   18.4410    5.1090   12.2340 C   0  0  0  0  0  0
   19.2710    4.8930   12.9050 H   0  0  0  0  0  0
   17.1750    4.5790   12.4990 C   0  0  0  0  0  0
   17.0350    3.9520   13.3780 H   0  0  0  0  0  0
   14.0860    5.7440   13.9170 C   0  0  0  0  0  0
   14.1360    5.3320   14.9300 H   0  0  0  0  0  0
   13.2690    6.4710   13.8670 H   0  0  0  0  0  0
   15.0150    6.2930   13.7370 H   0  0  0  0  0  0
    9.7690    1.1110   11.9620 N   0  0  0  0  0  0
    9.8810    0.4710   11.1890 H   0  0  0  0  0  0
    8.9330    1.0930   12.5270 H   0  0  0  0  0  0
  1  2  2  0  0  0
  1  6  1  0  0  0
  2  3  1  0  0  0
  2 28  1  0  0  0
  3  4  2  0  0  0
  4  5  1  0  0  0
  4 12  1  0  0  0
  5  6  2  0  0  0
  5 10  1  0  0  0
  6  7  1  0  0  0
  7  8  1  0  0  0
  7  9  1  0  0  0
 10 11  2  0  0  0
 10 24  1  0  0  0
 11 12  1  0  0  0
 11 13  1  0  0  0
 13 14  1  0  0  0
 13 22  2  0  0  0
 14 15  1  0  0  0
 14 16  2  0  0  0
 16 17  1  0  0  0
 16 18  1  0  0  0
 18 19  1  0  0  0
 18 20  2  0  0  0
 20 21  1  0  0  0
 20 22  1  0  0  0
 22 23  1  0  0  0
 24 25  1  0  0  0
 24 26  1  0  0  0
 24 27  1  0  0  0
 28 29  1  0  0  0
 28 30  1  0  0  0
M  END
>  <ACTIVITY>
4.24

>  <SET>
1

>  <Min_dist>
999.9

>  <Avg_dist>
999.9

$$$$
40-table2-2
  Cerius2 12110214143D 1   1.00000                          
Structure written by Cerius2 SD Exporter
 30 32  0  0  0  0  0  0  0  0999 V2000
   10.5530    2.8220   13.2870 N   0  0  0  0  0  0
   10.7560    2.0050   12.2500 C   0  0  0  0  0  0
   11.8350    1.9920   11.4780 N   0  0  0  0  0  0
   12.7580    2.9010   11.8310 C   0  0  0  0  0  0
   12.6810    3.8030   12.8780 C   0  0  0  0  0  0
   11.4900    3.7320   13.6280 C   0  0  0  0  0  0
   11.1910    4.5320   14.7020 N   0  0  0  0  0  0
   11.8020    5.2610   15.0390 H   0  0  0  0  0  0
   10.3020    4.4040   15.1700 H   0  0  0  0  0  0
   13.8840    4.6210   12.9450 C   0  0  0  0  0  0
   14.7790    4.2890   11.9350 C   0  0  0  0  0  0
   14.2000    3.0220   10.9450 S   0  0  0  0  0  0
   16.0840    4.8730   11.6190 C   0  0  0  0  0  0
   16.1770    6.1520   11.0560 C   0  0  0  0  0  0
   15.2780    6.7310   10.8470 H   0  0  0  0  0  0
   17.4250    6.7000   10.7490 C   0  0  0  0  0  0
   17.4760    7.6950   10.3120 H   0  0  0  0  0  0
   18.5920    5.9750   11.0000 C   0  0  0  0  0  0
   18.5070    4.6950   11.5600 C   0  0  0  0  0  0
   17.2570    4.1470   11.8670 C   0  0  0  0  0  0
   17.1950    3.1520   12.3030 H   0  0  0  0  0  0
   19.9090    3.7390   11.8960 Cl  0  0  0  0  0  0
   20.1040    6.7100   10.5970 Cl  0  0  0  0  0  0
   14.1270    5.6810   13.9760 C   0  0  0  0  0  0
   15.1220    6.1270   13.8900 H   0  0  0  0  0  0
   14.0510    5.2560   14.9820 H   0  0  0  0  0  0
   13.3920    6.4860   13.8720 H   0  0  0  0  0  0
    9.7690    1.1110   11.9620 N   0  0  0  0  0  0
    9.8790    0.4740   11.1870 H   0  0  0  0  0  0
    8.9330    1.0930   12.5270 H   0  0  0  0  0  0
  1  2  2  0  0  0
  1  6  1  0  0  0
  2  3  1  0  0  0
  2 28  1  0  0  0
  3  4  2  0  0  0
  4  5  1  0  0  0
  4 12  1  0  0  0
  5  6  2  0  0  0
  5 10  1  0  0  0
  6  7  1  0  0  0
  7  8  1  0  0  0
  7  9  1  0  0  0
 10 11  2  0  0  0
 10 24  1  0  0  0
 11 12  1  0  0  0
 11 13  1  0  0  0
 13 14  1  0  0  0
 13 20  2  0  0  0
 14 15  1  0  0  0
 14 16  2  0  0  0
 16 17  1  0  0  0
 16 18  1  0  0  0
 18 19  2  0  0  0
 18 23  1  0  0  0
 19 20  1  0  0  0
 19 22  1  0  0  0
 20 21  1  0  0  0
 24 25  1  0  0  0
 24 26  1  0  0  0
 24 27  1  0  0  0
 28 29  1  0  0  0
 28 30  1  0  0  0
M  END
>  <ACTIVITY>
5.34

>  <SET>
2

>  <Min_dist>
0.1

>  <Avg_dist>
0.65

$$$$
40-table2-3
  Cerius2 12110214143D 1   1.00000                          
Structure written by Cerius2 SD Exporter
 33 35  0  0  0  0  0  0  0  0999 V2000
   10.2330    2.6430   13.0180 N   0  0  0  0  0  0
   10.8250    1.8530   12.1180 C   0  0  0  0  0  0
   12.0610    1.9990   11.6580 N   0  0  0  0  0  0
   12.7060    3.0540   12.1790 C   0  0  0  0  0  0
   12.2150    3.9570   13.1060 C   0  0  0  0  0  0
   10.8970    3.6990   13.5360 C   0  0  0  0  0  0
   10.2140    4.4410   14.4660 N   0  0  0  0  0  0
   10.6210    5.2210   14.9600 H   0  0  0  0  0  0
    9.2740    4.1600   14.7160 H   0  0  0  0  0  0
   13.2080    4.9800   13.4080 C   0  0  0  0  0  0
   14.4020    4.7530   12.7290 C   0  0  0  0  0  0
   14.2990    3.3850   11.7030 S   0  0  0  0  0  0
   15.6940    5.5370   12.7670 C   0  0  0  0  0  0
   16.5140    4.8940   12.4200 H   0  0  0  0  0  0
   15.9630    5.8030   13.7980 H   0  0  0  0  0  0
   15.6460    6.8080   11.9430 C   0  0  0  0  0  0
   16.8120    7.3240   11.3550 C   0  0  0  0  0  0
   17.7650    6.8120   11.4800 H   0  0  0  0  0  0
   16.7680    8.4980   10.6010 C   0  0  0  0  0  0
   17.6780    8.8890   10.1500 H   0  0  0  0  0  0
   15.5590    9.1680   10.4220 C   0  0  0  0  0  0
   15.5260   10.0840    9.8340 H   0  0  0  0  0  0
   14.3940    8.6650   10.9960 C   0  0  0  0  0  0
   13.4490    9.1860   10.8550 H   0  0  0  0  0  0
   14.4360    7.4900   11.7500 C   0  0  0  0  0  0
   13.5120    7.1120   12.1850 H   0  0  0  0  0  0
   12.9700    6.1250   14.3430 C   0  0  0  0  0  0
   13.7700    6.8680   14.3030 H   0  0  0  0  0  0
   12.8960    5.7640   15.3740 H   0  0  0  0  0  0
   12.0460    6.6480   14.0800 H   0  0  0  0  0  0
   10.0950    0.8090   11.6330 N   0  0  0  0  0  0
   10.5010    0.1890   10.9490 H   0  0  0  0  0  0
    9.1500    0.6690   11.9580 H   0  0  0  0  0  0
  1  2  2  0  0  0
  1  6  1  0  0  0
  2  3  1  0  0  0
  2 31  1  0  0  0
  3  4  2  0  0  0
  4  5  1  0  0  0
  4 12  1  0  0  0
  5  6  2  0  0  0
  5 10  1  0  0  0
  6  7  1  0  0  0
  7  8  1  0  0  0
  7  9  1  0  0  0
 10 11  2  0  0  0
 10 27  1  0  0  0
 11 12  1  0  0  0
 11 13  1  0  0  0
 13 14  1  0  0  0
 13 15  1  0  0  0
 13 16  1  0  0  0
 16 17  1  0  0  0
 16 25  2  0  0  0
 17 18  1  0  0  0
 17 19  2  0  0  0
 19 20  1  0  0  0
 19 21  1  0  0  0
 21 22  1  0  0  0
 21 23  2  0  0  0
 23 24  1  0  0  0
 23 25  1  0  0  0
 25 26  1  0  0  0
 27 28  1  0  0  0
 27 29  1  0  0  0
 27 30  1  0  0  0
 31 32  1  0  0  0
 31 33  1  0  0  0
M  END
>  <ACTIVITY>
4.85

>  <SET>
1

>  <Min_dist>
999.9

>  <Avg_dist>
999.9

$$$$
41-4c
  Cerius2 12110214143D 1   1.00000                          
Structure written by Cerius2 SD Exporter
 43 47  0  0  0  0  0  0  0  0999 V2000
   10.4820    2.7710   13.2580 N   0  0  0  0  0  0
   10.7260    2.0060   12.1820 C   0  0  0  0  0  0
   11.8330    2.0260   11.4450 N   0  0  0  0  0  0
   12.7210    2.9250   11.8830 C   0  0  0  0  0  0
   12.5950    3.7830   12.9650 C   0  0  0  0  0  0
   11.4000    3.6690   13.6820 C   0  0  0  0  0  0
   11.0830    4.3960   14.8000 N   0  0  0  0  0  0
   11.7080    5.0580   15.2360 H   0  0  0  0  0  0
   10.1910    4.2260   15.2500 H   0  0  0  0  0  0
   13.8040    4.5540   13.0070 C   0  0  0  0  0  0
   14.5770    4.0740   11.9650 C   0  0  0  0  0  0
   15.5660    4.3230   11.6020 H   0  0  0  0  0  0
   13.9270    3.1030   11.2790 O   0  0  0  0  0  0
   14.1820    5.6300   13.9760 C   0  0  0  0  0  0
   14.4890    5.1300   14.9030 H   0  0  0  0  0  0
   13.2970    6.2350   14.1990 H   0  0  0  0  0  0
   15.2360    6.5370   13.5370 N   0  0  0  0  0  0
   16.1010    6.5020   14.0720 H   0  0  0  0  0  0
   15.2450    7.1980   12.3270 C   0  0  0  0  0  0
   16.4530    7.6150   11.7590 C   0  0  0  0  0  0
   16.5230    8.3110   10.5530 C   0  0  0  0  0  0
   15.3390    8.6300    9.8610 C   0  0  0  0  0  0
   15.3690    9.1730    8.9200 H   0  0  0  0  0  0
   14.1200    8.2420   10.4090 C   0  0  0  0  0  0
   13.1910    8.4840    9.8950 H   0  0  0  0  0  0
   14.0780    7.5420   11.6270 C   0  0  0  0  0  0
   13.0970    7.2670   12.0100 H   0  0  0  0  0  0
   17.8500    8.5810   10.2390 C   0  0  0  0  0  0
   18.6650    8.0690   11.2350 C   0  0  0  0  0  0
   17.8460    7.4020   12.3090 C   0  0  0  0  0  0
   18.0840    6.3360   12.3760 H   0  0  0  0  0  0
   17.9710    7.9100   13.2700 H   0  0  0  0  0  0
   20.0490    8.1900   11.1870 C   0  0  0  0  0  0
   20.6730    7.7820   11.9780 H   0  0  0  0  0  0
   20.6260    8.8480   10.0990 C   0  0  0  0  0  0
   21.7090    8.9530   10.0420 H   0  0  0  0  0  0
   19.8230    9.3740    9.0780 C   0  0  0  0  0  0
   20.2860    9.8850    8.2350 H   0  0  0  0  0  0
   18.4340    9.2470    9.1380 C   0  0  0  0  0  0
   17.8140    9.6560    8.3440 H   0  0  0  0  0  0
    9.7490    1.1290   11.8190 N   0  0  0  0  0  0
    9.8850    0.5300   11.0180 H   0  0  0  0  0  0
    8.8950    1.0830   12.3550 H   0  0  0  0  0  0
  1  2  2  0  0  0
  1  6  1  0  0  0
  2  3  1  0  0  0
  2 41  1  0  0  0
  3  4  2  0  0  0
  4  5  1  0  0  0
  4 13  1  0  0  0
  5  6  2  0  0  0
  5 10  1  0  0  0
  6  7  1  0  0  0
  7  8  1  0  0  0
  7  9  1  0  0  0
 10 11  2  0  0  0
 10 14  1  0  0  0
 11 12  1  0  0  0
 11 13  1  0  0  0
 14 15  1  0  0  0
 14 16  1  0  0  0
 14 17  1  0  0  0
 17 18  1  0  0  0
 17 19  1  0  0  0
 19 20  1  0  0  0
 19 26  2  0  0  0
 20 21  2  0  0  0
 20 30  1  0  0  0
 21 22  1  0  0  0
 21 28  1  0  0  0
 22 23  1  0  0  0
 22 24  2  0  0  0
 24 25  1  0  0  0
 24 26  1  0  0  0
 26 27  1  0  0  0
 28 29  1  0  0  0
 28 39  2  0  0  0
 29 30  1  0  0  0
 29 33  2  0  0  0
 30 31  1  0  0  0
 30 32  1  0  0  0
 33 34  1  0  0  0
 33 35  1  0  0  0
 35 36  1  0  0  0
 35 37  2  0  0  0
 37 38  1  0  0  0
 37 39  1  0  0  0
 39 40  1  0  0  0
 41 42  1  0  0  0
 41 43  1  0  0  0
M  END
>  <ACTIVITY>
3.3

>  <SET>
3

>  <Min_dist>
0.06

>  <Avg_dist>
0.59

$$$$
41-4d
  Cerius2 12110214143D 1   1.00000                          
Structure written by Cerius2 SD Exporter
 43 47  0  0  0  0  0  0  0  0999 V2000
   10.4790    2.7740   13.2550 N   0  0  0  0  0  0
   10.7300    1.9960   12.1890 C   0  0  0  0  0  0
   11.8400    2.0100   11.4500 N   0  0  0  0  0  0
   12.7230    2.9190   11.8780 C   0  0  0  0  0  0
   12.5890    3.7830   12.9500 C   0  0  0  0  0  0
   11.3960    3.6770   13.6680 C   0  0  0  0  0  0
   11.1060    4.4300   14.7780 N   0  0  0  0  0  0
   11.8110    5.0240   15.2050 H   0  0  0  0  0  0
   10.2440    4.2640   15.2810 H   0  0  0  0  0  0
   13.7830    4.5690   12.9910 C   0  0  0  0  0  0
   14.5610    4.1060   11.9480 C   0  0  0  0  0  0
   15.5400    4.3790   11.5720 H   0  0  0  0  0  0
   13.9280    3.1130   11.2720 O   0  0  0  0  0  0
   14.1180    5.6740   13.9380 C   0  0  0  0  0  0
   14.3390    5.2140   14.9100 H   0  0  0  0  0  0
   13.2300    6.3040   14.0760 H   0  0  0  0  0  0
   15.2340    6.5160   13.5330 N   0  0  0  0  0  0
   16.0880    6.4240   14.0800 H   0  0  0  0  0  0
   15.2930    7.2180   12.3450 C   0  0  0  0  0  0
   16.5450    7.6540   11.8840 C   0  0  0  0  0  0
   17.4500    7.4250   12.4440 H   0  0  0  0  0  0
   16.6390    8.3820   10.7000 C   0  0  0  0  0  0
   15.5210    8.7060    9.9530 C   0  0  0  0  0  0
   14.2520    8.2930   10.4030 C   0  0  0  0  0  0
   13.3550    8.5370    9.8400 H   0  0  0  0  0  0
   14.1530    7.5600   11.5940 C   0  0  0  0  0  0
   13.1600    7.2580   11.9180 H   0  0  0  0  0  0
   15.9110    9.4250    8.8280 C   0  0  0  0  0  0
   17.2900    9.5740    8.8380 C   0  0  0  0  0  0
   17.8920    8.9150   10.0540 C   0  0  0  0  0  0
   18.5660    8.1020    9.7680 H   0  0  0  0  0  0
   18.3860    9.6490   10.6970 H   0  0  0  0  0  0
   17.9610   10.2530    7.8280 C   0  0  0  0  0  0
   19.0430   10.3610    7.8490 H   0  0  0  0  0  0
   17.2180   10.7950    6.7780 C   0  0  0  0  0  0
   17.7250   11.3290    5.9750 H   0  0  0  0  0  0
   15.8230   10.6590    6.7460 C   0  0  0  0  0  0
   15.2560   11.0870    5.9210 H   0  0  0  0  0  0
   15.1580    9.9760    7.7670 C   0  0  0  0  0  0
   14.0760    9.8710    7.7400 H   0  0  0  0  0  0
    9.7590    1.1090   11.8340 N   0  0  0  0  0  0
    9.8980    0.5010   11.0410 H   0  0  0  0  0  0
    8.9050    1.0660   12.3710 H   0  0  0  0  0  0
  1  2  2  0  0  0
  1  6  1  0  0  0
  2  3  1  0  0  0
  2 41  1  0  0  0
  3  4  2  0  0  0
  4  5  1  0  0  0
  4 13  1  0  0  0
  5  6  2  0  0  0
  5 10  1  0  0  0
  6  7  1  0  0  0
  7  8  1  0  0  0
  7  9  1  0  0  0
 10 11  2  0  0  0
 10 14  1  0  0  0
 11 12  1  0  0  0
 11 13  1  0  0  0
 14 15  1  0  0  0
 14 16  1  0  0  0
 14 17  1  0  0  0
 17 18  1  0  0  0
 17 19  1  0  0  0
 19 20  1  0  0  0
 19 26  2  0  0  0
 20 21  1  0  0  0
 20 22  2  0  0  0
 22 23  1  0  0  0
 22 30  1  0  0  0
 23 24  2  0  0  0
 23 28  1  0  0  0
 24 25  1  0  0  0
 24 26  1  0  0  0
 26 27  1  0  0  0
 28 29  1  0  0  0
 28 39  2  0  0  0
 29 30  1  0  0  0
 29 33  2  0  0  0
 30 31  1  0  0  0
 30 32  1  0  0  0
 33 34  1  0  0  0
 33 35  1  0  0  0
 35 36  1  0  0  0
 35 37  2  0  0  0
 37 38  1  0  0  0
 37 39  1  0  0  0
 39 40  1  0  0  0
 41 42  1  0  0  0
 41 43  1  0  0  0
M  END
>  <ACTIVITY>
3.3

>  <SET>
1

>  <Min_dist>
999.9

>  <Avg_dist>
999.9

$$$$
41-4e
  Cerius2 12110214143D 1   1.00000                          
Structure written by Cerius2 SD Exporter
 45 49  0  0  0  0  0  0  0  0999 V2000
   10.4590    2.7400   13.2350 N   0  0  0  0  0  0
   10.7420    1.9610   12.1790 C   0  0  0  0  0  0
   11.8550    2.0050   11.4500 N   0  0  0  0  0  0
   12.7090    2.9390   11.8810 C   0  0  0  0  0  0
   12.5430    3.8080   12.9480 C   0  0  0  0  0  0
   11.3420    3.6750   13.6500 C   0  0  0  0  0  0
   10.9900    4.4260   14.7420 N   0  0  0  0  0  0
   11.5820    5.1360   15.1480 H   0  0  0  0  0  0
   10.0950    4.2480   15.1840 H   0  0  0  0  0  0
   13.7280    4.6120   13.0010 C   0  0  0  0  0  0
   14.5240    4.1540   11.9670 C   0  0  0  0  0  0
   15.5080    4.4330   11.6100 H   0  0  0  0  0  0
   13.9140    3.1520   11.2860 O   0  0  0  0  0  0
   14.0530    5.6970   13.9780 C   0  0  0  0  0  0
   14.1850    5.2140   14.9500 H   0  0  0  0  0  0
   13.1810    6.3560   14.0710 H   0  0  0  0  0  0
   15.1950    6.5380   13.6260 N   0  0  0  0  0  0
   16.0760    6.2220   14.0330 H   0  0  0  0  0  0
   15.2890    7.1770   12.3910 C   0  0  0  0  0  0
   16.5770    7.4730   11.9090 C   0  0  0  0  0  0
   17.4680    7.2410   12.4850 H   0  0  0  0  0  0
   16.6900    8.0510   10.6450 C   0  0  0  0  0  0
   15.6100    8.3600    9.8290 C   0  0  0  0  0  0
   14.3180    8.0840   10.3060 C   0  0  0  0  0  0
   13.4420    8.3180    9.7070 H   0  0  0  0  0  0
   14.1800    7.5190   11.5870 C   0  0  0  0  0  0
   12.8850    7.3140   12.0070 O   0  0  0  0  0  0
   11.9680    7.6840   10.9710 C   0  0  0  0  0  0
   10.9620    7.4210   11.3090 H   0  0  0  0  0  0
   12.1710    7.1320   10.0460 H   0  0  0  0  0  0
   11.9900    8.7630   10.7840 H   0  0  0  0  0  0
   16.1620    8.9210    8.6400 C   0  0  0  0  0  0
   17.5410    8.9110    8.8190 C   0  0  0  0  0  0
   17.8610    8.3840   10.0330 O   0  0  0  0  0  0
   18.4550    9.3790    7.8770 C   0  0  0  0  0  0
   19.5240    9.3510    8.0590 H   0  0  0  0  0  0
   17.9220    9.8870    6.6880 C   0  0  0  0  0  0
   18.5950   10.2660    5.9190 H   0  0  0  0  0  0
   16.5420    9.9160    6.4690 C   0  0  0  0  0  0
   16.1540   10.3180    5.5330 H   0  0  0  0  0  0
   15.6470    9.4370    7.4360 C   0  0  0  0  0  0
   14.5750    9.4660    7.2530 H   0  0  0  0  0  0
    9.8020    1.0400   11.8250 N   0  0  0  0  0  0
    9.9700    0.4280   11.0400 H   0  0  0  0  0  0
    8.9450    0.9740   12.3540 H   0  0  0  0  0  0
  1  2  2  0  0  0
  1  6  1  0  0  0
  2  3  1  0  0  0
  2 43  1  0  0  0
  3  4  2  0  0  0
  4  5  1  0  0  0
  4 13  1  0  0  0
  5  6  2  0  0  0
  5 10  1  0  0  0
  6  7  1  0  0  0
  7  8  1  0  0  0
  7  9  1  0  0  0
 10 11  2  0  0  0
 10 14  1  0  0  0
 11 12  1  0  0  0
 11 13  1  0  0  0
 14 15  1  0  0  0
 14 16  1  0  0  0
 14 17  1  0  0  0
 17 18  1  0  0  0
 17 19  1  0  0  0
 19 20  2  0  0  0
 19 26  1  0  0  0
 20 21  1  0  0  0
 20 22  1  0  0  0
 22 23  2  0  0  0
 22 34  1  0  0  0
 23 24  1  0  0  0
 23 32  1  0  0  0
 24 25  1  0  0  0
 24 26  2  0  0  0
 26 27  1  0  0  0
 27 28  1  0  0  0
 28 29  1  0  0  0
 28 30  1  0  0  0
 28 31  1  0  0  0
 32 33  1  0  0  0
 32 41  2  0  0  0
 33 34  1  0  0  0
 33 35  2  0  0  0
 35 36  1  0  0  0
 35 37  1  0  0  0
 37 38  1  0  0  0
 37 39  2  0  0  0
 39 40  1  0  0  0
 39 41  1  0  0  0
 41 42  1  0  0  0
 43 44  1  0  0  0
 43 45  1  0  0  0
M  END
>  <ACTIVITY>
3.3

>  <SET>
3

>  <Min_dist>
0.18

>  <Avg_dist>
0.55

$$$$
41-4f
  Cerius2 12110214143D 1   1.00000                          
Structure written by Cerius2 SD Exporter
 48 52  0  0  0  0  0  0  0  0999 V2000
   10.4860    2.7750   13.2570 N   0  0  0  0  0  0
   10.7480    1.9790   12.2070 C   0  0  0  0  0  0
   11.8450    2.0120   11.4540 N   0  0  0  0  0  0
   12.7160    2.9410   11.8640 C   0  0  0  0  0  0
   12.5800    3.8130   12.9310 C   0  0  0  0  0  0
   11.3820    3.7130   13.6410 C   0  0  0  0  0  0
   11.0490    4.5110   14.7070 N   0  0  0  0  0  0
   11.6130    5.3050   14.9800 H   0  0  0  0  0  0
   10.1400    4.3970   15.1410 H   0  0  0  0  0  0
   13.7860    4.5820   12.9780 C   0  0  0  0  0  0
   14.5480    4.1340   11.9160 C   0  0  0  0  0  0
   15.5250    4.4070   11.5360 H   0  0  0  0  0  0
   13.9110    3.1430   11.2420 O   0  0  0  0  0  0
   14.1710    5.6350   13.9650 C   0  0  0  0  0  0
   14.4430    5.1400   14.9070 H   0  0  0  0  0  0
   13.2850    6.2450   14.1780 H   0  0  0  0  0  0
   15.2680    6.4940   13.5490 N   0  0  0  0  0  0
   15.9920    6.6740   14.2420 H   0  0  0  0  0  0
   15.3090    7.1850   12.3540 C   0  0  0  0  0  0
   16.5600    7.5500   11.8270 C   0  0  0  0  0  0
   17.4710    7.2870   12.3630 H   0  0  0  0  0  0
   16.6670    8.2660   10.6120 C   0  0  0  0  0  0
   15.5000    8.6020    9.9280 C   0  0  0  0  0  0
   14.2360    8.2410   10.4160 C   0  0  0  0  0  0
   13.3240    8.4930    9.8820 H   0  0  0  0  0  0
   14.1680    7.5360   11.6280 C   0  0  0  0  0  0
   13.1770    7.2690   11.9890 H   0  0  0  0  0  0
   15.8790    9.2900    8.7900 N   0  0  0  0  0  0
   17.2560    9.4010    8.7230 C   0  0  0  0  0  0
   17.7720    8.7680    9.8550 C   0  0  0  0  0  0
   19.1720    8.7360   10.0360 C   0  0  0  0  0  0
   19.6030    8.2510   10.9090 H   0  0  0  0  0  0
   20.0080    9.3320    9.0850 C   0  0  0  0  0  0
   21.0870    9.3050    9.2260 H   0  0  0  0  0  0
   19.4710    9.9550    7.9640 C   0  0  0  0  0  0
   20.1340   10.4150    7.2320 H   0  0  0  0  0  0
   18.0880   10.0010    7.7620 C   0  0  0  0  0  0
   17.6810   10.4910    6.8800 H   0  0  0  0  0  0
   14.9590    9.8270    7.7950 C   0  0  0  0  0  0
   15.3820   10.7610    7.4110 H   0  0  0  0  0  0
   14.0230   10.0880    8.3000 H   0  0  0  0  0  0
   14.7030    8.8440    6.6660 C   0  0  0  0  0  0
   14.0070    9.2750    5.9400 H   0  0  0  0  0  0
   14.2710    7.9120    7.0440 H   0  0  0  0  0  0
   15.6310    8.5920    6.1400 H   0  0  0  0  0  0
    9.8030    1.0500   11.8890 N   0  0  0  0  0  0
    9.9630    0.4150   11.1200 H   0  0  0  0  0  0
    8.9650    0.9790   12.4450 H   0  0  0  0  0  0
  1  2  2  0  0  0
  1  6  1  0  0  0
  2  3  1  0  0  0
  2 46  1  0  0  0
  3  4  2  0  0  0
  4  5  1  0  0  0
  4 13  1  0  0  0
  5  6  2  0  0  0
  5 10  1  0  0  0
  6  7  1  0  0  0
  7  8  1  0  0  0
  7  9  1  0  0  0
 10 11  2  0  0  0
 10 14  1  0  0  0
 11 12  1  0  0  0
 11 13  1  0  0  0
 14 15  1  0  0  0
 14 16  1  0  0  0
 14 17  1  0  0  0
 17 18  1  0  0  0
 17 19  1  0  0  0
 19 20  2  0  0  0
 19 26  1  0  0  0
 20 21  1  0  0  0
 20 22  1  0  0  0
 22 23  2  0  0  0
 22 30  1  0  0  0
 23 24  1  0  0  0
 23 28  1  0  0  0
 24 25  1  0  0  0
 24 26  2  0  0  0
 26 27  1  0  0  0
 28 29  1  0  0  0
 28 39  1  0  0  0
 29 30  2  0  0  0
 29 37  1  0  0  0
 30 31  1  0  0  0
 31 32  1  0  0  0
 31 33  2  0  0  0
 33 34  1  0  0  0
 33 35  1  0  0  0
 35 36  1  0  0  0
 35 37  2  0  0  0
 37 38  1  0  0  0
 39 40  1  0  0  0
 39 41  1  0  0  0
 39 42  1  0  0  0
 42 43  1  0  0  0
 42 44  1  0  0  0
 42 45  1  0  0  0
 46 47  1  0  0  0
 46 48  1  0  0  0
M  END
>  <ACTIVITY>
4.9

>  <SET>
2

>  <Min_dist>
0.06

>  <Avg_dist>
0.54

$$$$
41-4g
  Cerius2 12110214143D 1   1.00000                          
Structure written by Cerius2 SD Exporter
 44 48  0  0  0  0  0  0  0  0999 V2000
   10.4790    2.7760   13.2550 N   0  0  0  0  0  0
   10.7310    1.9960   12.1900 C   0  0  0  0  0  0
   11.8410    2.0090   11.4510 N   0  0  0  0  0  0
   12.7230    2.9190   11.8770 C   0  0  0  0  0  0
   12.5880    3.7850   12.9490 C   0  0  0  0  0  0
   11.3960    3.6790   13.6670 C   0  0  0  0  0  0
   11.1040    4.4320   14.7760 N   0  0  0  0  0  0
   11.8060    5.0270   15.2050 H   0  0  0  0  0  0
   10.2380    4.2680   15.2740 H   0  0  0  0  0  0
   13.7830    4.5690   12.9900 C   0  0  0  0  0  0
   14.5610    4.1070   11.9460 C   0  0  0  0  0  0
   15.5400    4.3790   11.5710 H   0  0  0  0  0  0
   13.9280    3.1140   11.2710 O   0  0  0  0  0  0
   14.1190    5.6720   13.9400 C   0  0  0  0  0  0
   14.3440    5.2090   14.9100 H   0  0  0  0  0  0
   13.2320    6.3020   14.0830 H   0  0  0  0  0  0
   15.2350    6.5120   13.5320 N   0  0  0  0  0  0
   16.0850    6.4310   14.0860 H   0  0  0  0  0  0
   15.2940    7.2180   12.3460 C   0  0  0  0  0  0
   16.5460    7.6560   11.8880 C   0  0  0  0  0  0
   17.4510    7.4250   12.4460 H   0  0  0  0  0  0
   16.6430    8.3910   10.7070 C   0  0  0  0  0  0
   15.5240    8.7200    9.9620 C   0  0  0  0  0  0
   14.2550    8.3010   10.4090 C   0  0  0  0  0  0
   13.3570    8.5490    9.8470 H   0  0  0  0  0  0
   14.1550    7.5610   11.5950 C   0  0  0  0  0  0
   13.1610    7.2560   11.9160 H   0  0  0  0  0  0
   15.9100    9.4530    8.8450 C   0  0  0  0  0  0
   17.2900    9.6110    8.8530 C   0  0  0  0  0  0
   17.8920    8.9440   10.0680 C   0  0  0  0  0  0
   18.3860    9.6720   10.7190 H   0  0  0  0  0  0
   18.7730    7.8830    9.7320 O   0  0  0  0  0  0
   19.1840    8.1290    8.8800 H   0  0  0  0  0  0
   17.9490   10.3230    7.8550 C   0  0  0  0  0  0
   19.0290   10.4520    7.8780 H   0  0  0  0  0  0
   17.1970   10.8760    6.8160 C   0  0  0  0  0  0
   17.6950   11.4350    6.0250 H   0  0  0  0  0  0
   15.8050   10.7210    6.7840 C   0  0  0  0  0  0
   15.2300   11.1580    5.9680 H   0  0  0  0  0  0
   15.1500   10.0140    7.7950 C   0  0  0  0  0  0
   14.0690    9.9000    7.7690 H   0  0  0  0  0  0
    9.7600    1.1080   11.8370 N   0  0  0  0  0  0
    9.9000    0.4970   11.0460 H   0  0  0  0  0  0
    8.9060    1.0660   12.3730 H   0  0  0  0  0  0
  1  2  2  0  0  0
  1  6  1  0  0  0
  2  3  1  0  0  0
  2 42  1  0  0  0
  3  4  2  0  0  0
  4  5  1  0  0  0
  4 13  1  0  0  0
  5  6  2  0  0  0
  5 10  1  0  0  0
  6  7  1  0  0  0
  7  8  1  0  0  0
  7  9  1  0  0  0
 10 11  2  0  0  0
 10 14  1  0  0  0
 11 12  1  0  0  0
 11 13  1  0  0  0
 14 15  1  0  0  0
 14 16  1  0  0  0
 14 17  1  0  0  0
 17 18  1  0  0  0
 17 19  1  0  0  0
 19 20  1  0  0  0
 19 26  2  0  0  0
 20 21  1  0  0  0
 20 22  2  0  0  0
 22 23  1  0  0  0
 22 30  1  0  0  0
 23 24  2  0  0  0
 23 28  1  0  0  0
 24 25  1  0  0  0
 24 26  1  0  0  0
 26 27  1  0  0  0
 28 29  1  0  0  0
 28 40  2  0  0  0
 29 30  1  0  0  0
 29 34  2  0  0  0
 30 31  1  0  0  0
 30 32  1  0  0  0
 32 33  1  0  0  0
 34 35  1  0  0  0
 34 36  1  0  0  0
 36 37  1  0  0  0
 36 38  2  0  0  0
 38 39  1  0  0  0
 38 40  1  0  0  0
 40 41  1  0  0  0
 42 43  1  0  0  0
 42 44  1  0  0  0
M  END
>  <ACTIVITY>
3.3

>  <SET>
3

>  <Min_dist>
0.1

>  <Avg_dist>
0.58

$$$$
41-4h
  Cerius2 12110214143D 1   1.00000                          
Structure written by Cerius2 SD Exporter
 42 46  0  0  0  0  0  0  0  0999 V2000
   10.4790    2.7720   13.2570 N   0  0  0  0  0  0
   10.7300    1.9970   12.1880 C   0  0  0  0  0  0
   11.8400    2.0100   11.4510 N   0  0  0  0  0  0
   12.7240    2.9170   11.8800 C   0  0  0  0  0  0
   12.5900    3.7800   12.9540 C   0  0  0  0  0  0
   11.3980    3.6730   13.6710 C   0  0  0  0  0  0
   11.1070    4.4240   14.7830 N   0  0  0  0  0  0
   11.8120    5.0180   15.2100 H   0  0  0  0  0  0
   10.2450    4.2560   15.2860 H   0  0  0  0  0  0
   13.7830    4.5670   12.9940 C   0  0  0  0  0  0
   14.5620    4.1050   11.9510 C   0  0  0  0  0  0
   15.5400    4.3790   11.5750 H   0  0  0  0  0  0
   13.9290    3.1120   11.2740 O   0  0  0  0  0  0
   14.1150    5.6740   13.9390 C   0  0  0  0  0  0
   14.3390    5.2160   14.9110 H   0  0  0  0  0  0
   13.2250    6.3020   14.0770 H   0  0  0  0  0  0
   15.2290    6.5190   13.5330 N   0  0  0  0  0  0
   16.0880    6.4160   14.0710 H   0  0  0  0  0  0
   15.2860    7.2190   12.3430 C   0  0  0  0  0  0
   16.5360    7.6540   11.8800 C   0  0  0  0  0  0
   17.4460    7.4340   12.4300 H   0  0  0  0  0  0
   16.6020    8.3700   10.6930 C   0  0  0  0  0  0
   15.4980    8.6950    9.9340 C   0  0  0  0  0  0
   14.2320    8.2860   10.3930 C   0  0  0  0  0  0
   13.3310    8.5250    9.8330 H   0  0  0  0  0  0
   14.1420    7.5590   11.5910 C   0  0  0  0  0  0
   13.1500    7.2580   11.9220 H   0  0  0  0  0  0
   15.8940    9.4050    8.8010 C   0  0  0  0  0  0
   17.2680    9.5570    8.8040 C   0  0  0  0  0  0
   17.7940    8.9060   10.0150 C   0  0  0  0  0  0
   18.9510    8.8270   10.3730 O   0  0  0  0  0  0
   17.9700   10.2160    7.8070 C   0  0  0  0  0  0
   19.0500   10.3130    7.8480 H   0  0  0  0  0  0
   17.2380   10.7500    6.7450 C   0  0  0  0  0  0
   17.7530   11.2730    5.9410 H   0  0  0  0  0  0
   15.8400   10.6170    6.7040 C   0  0  0  0  0  0
   15.2830   11.0390    5.8680 H   0  0  0  0  0  0
   15.1570    9.9480    7.7260 C   0  0  0  0  0  0
   14.0750    9.8490    7.6860 H   0  0  0  0  0  0
    9.7540    1.1170   11.8270 N   0  0  0  0  0  0
    9.8900    0.5180   11.0250 H   0  0  0  0  0  0
    8.8950    1.0810   12.3550 H   0  0  0  0  0  0
  1  2  2  0  0  0
  1  6  1  0  0  0
  2  3  1  0  0  0
  2 40  1  0  0  0
  3  4  2  0  0  0
  4  5  1  0  0  0
  4 13  1  0  0  0
  5  6  2  0  0  0
  5 10  1  0  0  0
  6  7  1  0  0  0
  7  8  1  0  0  0
  7  9  1  0  0  0
 10 11  2  0  0  0
 10 14  1  0  0  0
 11 12  1  0  0  0
 11 13  1  0  0  0
 14 15  1  0  0  0
 14 16  1  0  0  0
 14 17  1  0  0  0
 17 18  1  0  0  0
 17 19  1  0  0  0
 19 20  1  0  0  0
 19 26  2  0  0  0
 20 21  1  0  0  0
 20 22  2  0  0  0
 22 23  1  0  0  0
 22 30  1  0  0  0
 23 24  2  0  0  0
 23 28  1  0  0  0
 24 25  1  0  0  0
 24 26  1  0  0  0
 26 27  1  0  0  0
 28 29  1  0  0  0
 28 38  2  0  0  0
 29 30  1  0  0  0
 29 32  2  0  0  0
 30 31  2  0  0  0
 32 33  1  0  0  0
 32 34  1  0  0  0
 34 35  1  0  0  0
 34 36  2  0  0  0
 36 37  1  0  0  0
 36 38  1  0  0  0
 38 39  1  0  0  0
 40 41  1  0  0  0
 40 42  1  0  0  0
M  END
>  <ACTIVITY>
3.3

>  <SET>
3

>  <Min_dist>
0.12

>  <Avg_dist>
0.59

$$$$
41-4i
  Cerius2 12110214143D 1   1.00000                          
Structure written by Cerius2 SD Exporter
 42 46  0  0  0  0  0  0  0  0999 V2000
   10.4870    2.7760   13.2580 N   0  0  0  0  0  0
   10.7390    1.9720   12.2140 C   0  0  0  0  0  0
   11.8390    1.9850   11.4640 N   0  0  0  0  0  0
   12.7150    2.9140   11.8620 C   0  0  0  0  0  0
   12.5850    3.8030   12.9170 C   0  0  0  0  0  0
   11.3910    3.7080   13.6370 C   0  0  0  0  0  0
   11.0610    4.4980   14.7080 N   0  0  0  0  0  0
   11.6550    5.2310   15.0680 H   0  0  0  0  0  0
   10.1670    4.3500   15.1610 H   0  0  0  0  0  0
   13.7840    4.5900   12.9350 C   0  0  0  0  0  0
   14.5400    4.1170   11.8790 C   0  0  0  0  0  0
   15.5080    4.3890   11.4780 H   0  0  0  0  0  0
   13.9060    3.1070   11.2320 O   0  0  0  0  0  0
   14.1220    5.6940   13.8870 C   0  0  0  0  0  0
   14.1970    5.2640   14.8930 H   0  0  0  0  0  0
   13.2640    6.3780   13.9100 H   0  0  0  0  0  0
   15.3030    6.5080   13.5890 N   0  0  0  0  0  0
   15.9950    6.5250   14.1640 H   0  0  0  0  0  0
   15.3370    7.2500   12.4110 C   0  0  0  0  0  0
   16.5520    7.6760   11.7850 C   0  0  0  0  0  0
   16.4580    8.2810   10.5410 C   0  0  0  0  0  0
   15.2680    8.5330    9.8740 C   0  0  0  0  0  0
   15.2590    9.0190    8.9030 H   0  0  0  0  0  0
   14.0870    8.1530   10.4980 C   0  0  0  0  0  0
   13.1300    8.3360   10.0130 H   0  0  0  0  0  0
   14.1230    7.5170   11.7490 C   0  0  0  0  0  0
   13.1790    7.2110   12.1980 H   0  0  0  0  0  0
   17.8110    8.6190   10.0780 C   0  0  0  0  0  0
   18.6940    8.1960   11.1680 C   0  0  0  0  0  0
   17.9080    7.6570   12.1710 C   0  0  0  0  0  0
   18.5660    7.2380   13.3540 C   0  0  0  0  0  0
   18.0000    6.8470   14.1950 H   0  0  0  0  0  0
   19.9580    7.3500   13.4550 C   0  0  0  0  0  0
   20.4620    7.0250   14.3650 H   0  0  0  0  0  0
   20.7090    7.8850   12.3990 C   0  0  0  0  0  0
   21.7900    7.9700   12.4930 H   0  0  0  0  0  0
   20.0750    8.3220   11.2380 C   0  0  0  0  0  0
   20.6410    8.7540   10.4190 H   0  0  0  0  0  0
   18.1270    9.1400    9.0270 O   0  0  0  0  0  0
    9.7770    1.0610   11.8930 N   0  0  0  0  0  0
    9.9180    0.4350   11.1140 H   0  0  0  0  0  0
    8.9270    1.0230   12.4350 H   0  0  0  0  0  0
  1  2  2  0  0  0
  1  6  1  0  0  0
  2  3  1  0  0  0
  2 40  1  0  0  0
  3  4  2  0  0  0
  4  5  1  0  0  0
  4 13  1  0  0  0
  5  6  2  0  0  0
  5 10  1  0  0  0
  6  7  1  0  0  0
  7  8  1  0  0  0
  7  9  1  0  0  0
 10 11  2  0  0  0
 10 14  1  0  0  0
 11 12  1  0  0  0
 11 13  1  0  0  0
 14 15  1  0  0  0
 14 16  1  0  0  0
 14 17  1  0  0  0
 17 18  1  0  0  0
 17 19  1  0  0  0
 19 20  1  0  0  0
 19 26  2  0  0  0
 20 21  2  0  0  0
 20 30  1  0  0  0
 21 22  1  0  0  0
 21 28  1  0  0  0
 22 23  1  0  0  0
 22 24  2  0  0  0
 24 25  1  0  0  0
 24 26  1  0  0  0
 26 27  1  0  0  0
 28 29  1  0  0  0
 28 39  2  0  0  0
 29 30  1  0  0  0
 29 37  2  0  0  0
 30 31  2  0  0  0
 31 32  1  0  0  0
 31 33  1  0  0  0
 33 34  1  0  0  0
 33 35  2  0  0  0
 35 36  1  0  0  0
 35 37  1  0  0  0
 37 38  1  0  0  0
 40 41  1  0  0  0
 40 42  1  0  0  0
M  END
>  <ACTIVITY>
3.3

>  <SET>
3

>  <Min_dist>
0.15

>  <Avg_dist>
0.59

$$$$
41-5a
  Cerius2 12110214143D 1   1.00000                          
Structure written by Cerius2 SD Exporter
 48 52  0  0  0  0  0  0  0  0999 V2000
   10.4600    2.7440   13.2360 N   0  0  0  0  0  0
   10.7480    1.9500   12.1930 C   0  0  0  0  0  0
   11.8630    1.9870   11.4660 N   0  0  0  0  0  0
   12.7120    2.9320   11.8840 C   0  0  0  0  0  0
   12.5440    3.8130   12.9410 C   0  0  0  0  0  0
   11.3410    3.6870   13.6390 C   0  0  0  0  0  0
   10.9840    4.4600   14.7130 N   0  0  0  0  0  0
   11.6170    5.1260   15.1400 H   0  0  0  0  0  0
   10.0980    4.2840   15.1690 H   0  0  0  0  0  0
   13.7210    4.6270   12.9760 C   0  0  0  0  0  0
   14.5090    4.1750   11.9330 C   0  0  0  0  0  0
   15.4800    4.4700   11.5550 H   0  0  0  0  0  0
   13.9090    3.1520   11.2750 O   0  0  0  0  0  0
   14.0570    5.7480   13.9090 C   0  0  0  0  0  0
   14.0860    5.3360   14.9260 H   0  0  0  0  0  0
   13.2150    6.4560   13.9060 H   0  0  0  0  0  0
   15.2980    6.5070   13.6380 N   0  0  0  0  0  0
   15.2870    7.1620   12.3910 C   0  0  0  0  0  0
   16.4860    7.5340   11.7560 C   0  0  0  0  0  0
   17.4580    7.3490   12.2000 H   0  0  0  0  0  0
   16.3970    8.1300   10.4960 C   0  0  0  0  0  0
   15.2040    8.3770    9.8280 C   0  0  0  0  0  0
   14.0010    8.0150   10.4560 C   0  0  0  0  0  0
   13.0450    8.1870    9.9710 H   0  0  0  0  0  0
   14.0650    7.4330   11.7340 C   0  0  0  0  0  0
   12.8740    7.0930   12.3360 O   0  0  0  0  0  0
   11.7860    7.4540   11.4740 C   0  0  0  0  0  0
   10.8550    7.1730   11.9750 H   0  0  0  0  0  0
   11.8340    6.9110   10.5240 H   0  0  0  0  0  0
   11.7650    8.5350   11.2980 H   0  0  0  0  0  0
   15.5660    8.9780    8.5870 C   0  0  0  0  0  0
   16.9550    9.0530    8.5900 C   0  0  0  0  0  0
   17.4580    8.5390    9.7460 O   0  0  0  0  0  0
   17.7100    9.5830    7.5460 C   0  0  0  0  0  0
   18.7930    9.6210    7.5900 H   0  0  0  0  0  0
   16.9990   10.0600    6.4400 C   0  0  0  0  0  0
   17.5440   10.4830    5.5960 H   0  0  0  0  0  0
   15.6040   10.0020    6.3970 C   0  0  0  0  0  0
   15.0760   10.3810    5.5220 H   0  0  0  0  0  0
   14.8700    9.4640    7.4640 C   0  0  0  0  0  0
   13.7840    9.4250    7.4180 H   0  0  0  0  0  0
   16.5640    5.8990   14.0480 C   0  0  0  0  0  0
   17.4100    6.5560   13.8160 H   0  0  0  0  0  0
   16.7210    4.9310   13.5590 H   0  0  0  0  0  0
   16.5810    5.7420   15.1310 H   0  0  0  0  0  0
    9.8100    1.0230   11.8490 N   0  0  0  0  0  0
    9.9800    0.4010   11.0720 H   0  0  0  0  0  0
    8.9520    0.9640   12.3770 H   0  0  0  0  0  0
  1  2  2  0  0  0
  1  6  1  0  0  0
  2  3  1  0  0  0
  2 46  1  0  0  0
  3  4  2  0  0  0
  4  5  1  0  0  0
  4 13  1  0  0  0
  5  6  2  0  0  0
  5 10  1  0  0  0
  6  7  1  0  0  0
  7  8  1  0  0  0
  7  9  1  0  0  0
 10 11  2  0  0  0
 10 14  1  0  0  0
 11 12  1  0  0  0
 11 13  1  0  0  0
 14 15  1  0  0  0
 14 16  1  0  0  0
 14 17  1  0  0  0
 17 18  1  0  0  0
 17 42  1  0  0  0
 18 19  2  0  0  0
 18 25  1  0  0  0
 19 20  1  0  0  0
 19 21  1  0  0  0
 21 22  2  0  0  0
 21 33  1  0  0  0
 22 23  1  0  0  0
 22 31  1  0  0  0
 23 24  1  0  0  0
 23 25  2  0  0  0
 25 26  1  0  0  0
 26 27  1  0  0  0
 27 28  1  0  0  0
 27 29  1  0  0  0
 27 30  1  0  0  0
 31 32  1  0  0  0
 31 40  2  0  0  0
 32 33  1  0  0  0
 32 34  2  0  0  0
 34 35  1  0  0  0
 34 36  1  0  0  0
 36 37  1  0  0  0
 36 38  2  0  0  0
 38 39  1  0  0  0
 38 40  1  0  0  0
 40 41  1  0  0  0
 42 43  1  0  0  0
 42 44  1  0  0  0
 42 45  1  0  0  0
 46 47  1  0  0  0
 46 48  1  0  0  0
M  END
>  <ACTIVITY>
3.62

>  <SET>
3

>  <Min_dist>
0.17

>  <Avg_dist>
0.56

$$$$
41-5b
  Cerius2 12110214143D 1   1.00000                          
Structure written by Cerius2 SD Exporter
 51 55  0  0  0  0  0  0  0  0999 V2000
   10.4750    2.7730   13.2530 N   0  0  0  0  0  0
   10.7250    1.9930   12.1890 C   0  0  0  0  0  0
   11.8340    2.0050   11.4500 N   0  0  0  0  0  0
   12.7190    2.9130   11.8760 C   0  0  0  0  0  0
   12.5880    3.7770   12.9500 C   0  0  0  0  0  0
   11.3940    3.6740   13.6650 C   0  0  0  0  0  0
   11.0990    4.4300   14.7710 N   0  0  0  0  0  0
   11.8070    5.0160   15.2030 H   0  0  0  0  0  0
   10.2320    4.2700   15.2670 H   0  0  0  0  0  0
   13.7870    4.5570   12.9910 C   0  0  0  0  0  0
   14.5570    4.0980   11.9390 C   0  0  0  0  0  0
   15.5340    4.3700   11.5570 H   0  0  0  0  0  0
   13.9210    3.1050   11.2650 O   0  0  0  0  0  0
   14.1410    5.6610   13.9410 C   0  0  0  0  0  0
   14.3610    5.1590   14.8930 H   0  0  0  0  0  0
   13.2550    6.2860   14.1140 H   0  0  0  0  0  0
   15.2620    6.5490   13.5780 N   0  0  0  0  0  0
   15.2910    7.2260   12.3600 C   0  0  0  0  0  0
   16.4900    7.6990   11.7950 C   0  0  0  0  0  0
   17.4380    7.5750   12.3110 H   0  0  0  0  0  0
   16.5140    8.3860   10.5560 C   0  0  0  0  0  0
   15.3130    8.5890    9.8790 C   0  0  0  0  0  0
   14.0960    8.1360   10.4010 C   0  0  0  0  0  0
   13.1550    8.2900    9.8790 H   0  0  0  0  0  0
   14.1150    7.4630   11.6330 C   0  0  0  0  0  0
   13.1560    7.1030   12.0070 H   0  0  0  0  0  0
   15.6120    9.2680    8.7130 N   0  0  0  0  0  0
   16.9690    9.5260    8.6330 C   0  0  0  0  0  0
   17.5560    8.9760    9.7750 C   0  0  0  0  0  0
   18.9530    9.0930    9.9450 C   0  0  0  0  0  0
   19.4380    8.6740   10.8240 H   0  0  0  0  0  0
   19.7150    9.7560    8.9780 C   0  0  0  0  0  0
   20.7920    9.8470    9.1110 H   0  0  0  0  0  0
   19.1080   10.3010    7.8520 C   0  0  0  0  0  0
   19.7150   10.8170    7.1090 H   0  0  0  0  0  0
   17.7280   10.1970    7.6590 C   0  0  0  0  0  0
   17.2660   10.6300    6.7750 H   0  0  0  0  0  0
   14.6340    9.6490    7.7020 C   0  0  0  0  0  0
   13.8500    8.8840    7.6830 H   0  0  0  0  0  0
   15.1260    9.6200    6.7240 H   0  0  0  0  0  0
   14.0390   11.0220    7.9630 C   0  0  0  0  0  0
   13.3040   11.2690    7.1900 H   0  0  0  0  0  0
   14.8130   11.7960    7.9590 H   0  0  0  0  0  0
   13.5360   11.0580    8.9350 H   0  0  0  0  0  0
   16.4860    6.4860   14.3810 C   0  0  0  0  0  0
   16.6090    7.4050   14.9630 H   0  0  0  0  0  0
   17.3700    6.3400   13.7490 H   0  0  0  0  0  0
   16.4720    5.6460   15.0830 H   0  0  0  0  0  0
    9.7540    1.1040   11.8380 N   0  0  0  0  0  0
    9.8980    0.4880   11.0510 H   0  0  0  0  0  0
    8.9020    1.0580   12.3780 H   0  0  0  0  0  0
  1  2  2  0  0  0
  1  6  1  0  0  0
  2  3  1  0  0  0
  2 49  1  0  0  0
  3  4  2  0  0  0
  4  5  1  0  0  0
  4 13  1  0  0  0
  5  6  2  0  0  0
  5 10  1  0  0  0
  6  7  1  0  0  0
  7  8  1  0  0  0
  7  9  1  0  0  0
 10 11  2  0  0  0
 10 14  1  0  0  0
 11 12  1  0  0  0
 11 13  1  0  0  0
 14 15  1  0  0  0
 14 16  1  0  0  0
 14 17  1  0  0  0
 17 18  1  0  0  0
 17 45  1  0  0  0
 18 19  2  0  0  0
 18 25  1  0  0  0
 19 20  1  0  0  0
 19 21  1  0  0  0
 21 22  2  0  0  0
 21 29  1  0  0  0
 22 23  1  0  0  0
 22 27  1  0  0  0
 23 24  1  0  0  0
 23 25  2  0  0  0
 25 26  1  0  0  0
 27 28  1  0  0  0
 27 38  1  0  0  0
 28 29  2  0  0  0
 28 36  1  0  0  0
 29 30  1  0  0  0
 30 31  1  0  0  0
 30 32  2  0  0  0
 32 33  1  0  0  0
 32 34  1  0  0  0
 34 35  1  0  0  0
 34 36  2  0  0  0
 36 37  1  0  0  0
 38 39  1  0  0  0
 38 40  1  0  0  0
 38 41  1  0  0  0
 41 42  1  0  0  0
 41 43  1  0  0  0
 41 44  1  0  0  0
 45 46  1  0  0  0
 45 47  1  0  0  0
 45 48  1  0  0  0
 49 50  1  0  0  0
 49 51  1  0  0  0
M  END
>  <ACTIVITY>
4.61

>  <SET>
1

>  <Min_dist>
999.9

>  <Avg_dist>
999.9

$$$$
41-7a
  Cerius2 12110214143D 1   1.00000                          
Structure written by Cerius2 SD Exporter
 41 44  0  0  0  0  0  0  0  0999 V2000
   10.4250    2.6940   13.2190 N   0  0  0  0  0  0
   10.7460    1.9160   12.1730 C   0  0  0  0  0  0
   11.8770    1.9750   11.4730 N   0  0  0  0  0  0
   12.6990    2.9330   11.9120 C   0  0  0  0  0  0
   12.4890    3.8100   12.9650 C   0  0  0  0  0  0
   11.2800    3.6500   13.6470 C   0  0  0  0  0  0
   10.8930    4.3960   14.7310 N   0  0  0  0  0  0
   11.4980    5.0720   15.1760 H   0  0  0  0  0  0
   10.0050    4.1910   15.1730 H   0  0  0  0  0  0
   13.6440    4.6550   13.0180 C   0  0  0  0  0  0
   14.4710    4.2110   12.0030 C   0  0  0  0  0  0
   15.4460    4.5260   11.6500 H   0  0  0  0  0  0
   13.9080    3.1750   11.3340 O   0  0  0  0  0  0
   13.9250    5.7920   13.9360 C   0  0  0  0  0  0
   13.7100    5.5160   14.9730 H   0  0  0  0  0  0
   13.2690    6.6310   13.6860 H   0  0  0  0  0  0
   15.6710    6.3050   13.7890 S   0  0  0  0  0  0
   15.5560    7.2320   12.2550 C   0  0  0  0  0  0
   16.6820    7.7370   11.5620 C   0  0  0  0  0  0
   16.4620    8.4360   10.3580 C   0  0  0  0  0  0
   17.3080    8.8380    9.7990 H   0  0  0  0  0  0
   15.1740    8.6400    9.8590 C   0  0  0  0  0  0
   15.0320    9.1850    8.9280 H   0  0  0  0  0  0
   14.0760    8.1490   10.5550 C   0  0  0  0  0  0
   13.0700    8.3090   10.1710 H   0  0  0  0  0  0
   14.2650    7.4510   11.7480 C   0  0  0  0  0  0
   13.3900    7.0750   12.2760 H   0  0  0  0  0  0
   18.0680    7.5690   12.0330 C   0  0  0  0  0  0
   18.9570    6.7180   11.3540 C   0  0  0  0  0  0
   18.6240    6.1690   10.4730 H   0  0  0  0  0  0
   20.2700    6.5480   11.7990 C   0  0  0  0  0  0
   20.9430    5.8790   11.2650 H   0  0  0  0  0  0
   20.7190    7.2350   12.9250 C   0  0  0  0  0  0
   21.7420    7.1030   13.2720 H   0  0  0  0  0  0
   19.8570    8.0930   13.6040 C   0  0  0  0  0  0
   20.2070    8.6340   14.4810 H   0  0  0  0  0  0
   18.5430    8.2610   13.1600 C   0  0  0  0  0  0
   17.8850    8.9380   13.7030 H   0  0  0  0  0  0
    9.8280    0.9830   11.7950 N   0  0  0  0  0  0
   10.0140    0.3860   11.0030 H   0  0  0  0  0  0
    8.9490    0.9220   12.2890 H   0  0  0  0  0  0
  1  2  2  0  0  0
  1  6  1  0  0  0
  2  3  1  0  0  0
  2 39  1  0  0  0
  3  4  2  0  0  0
  4  5  1  0  0  0
  4 13  1  0  0  0
  5  6  2  0  0  0
  5 10  1  0  0  0
  6  7  1  0  0  0
  7  8  1  0  0  0
  7  9  1  0  0  0
 10 11  2  0  0  0
 10 14  1  0  0  0
 11 12  1  0  0  0
 11 13  1  0  0  0
 14 15  1  0  0  0
 14 16  1  0  0  0
 14 17  1  0  0  0
 17 18  1  0  0  0
 18 19  1  0  0  0
 18 26  2  0  0  0
 19 20  2  0  0  0
 19 28  1  0  0  0
 20 21  1  0  0  0
 20 22  1  0  0  0
 22 23  1  0  0  0
 22 24  2  0  0  0
 24 25  1  0  0  0
 24 26  1  0  0  0
 26 27  1  0  0  0
 28 29  1  0  0  0
 28 37  2  0  0  0
 29 30  1  0  0  0
 29 31  2  0  0  0
 31 32  1  0  0  0
 31 33  1  0  0  0
 33 34  1  0  0  0
 33 35  2  0  0  0
 35 36  1  0  0  0
 35 37  1  0  0  0
 37 38  1  0  0  0
 39 40  1  0  0  0
 39 41  1  0  0  0
M  END
>  <ACTIVITY>
4.31

>  <SET>
2

>  <Min_dist>
0.14

>  <Avg_dist>
0.63

$$$$
41-7b
  Cerius2 12110214143D 1   1.00000                          
Structure written by Cerius2 SD Exporter
 41 44  0  0  0  0  0  0  0  0999 V2000
   10.4390    2.7170   13.2250 N   0  0  0  0  0  0
   10.7360    1.9310   12.1800 C   0  0  0  0  0  0
   11.8530    1.9800   11.4560 N   0  0  0  0  0  0
   12.6970    2.9220   11.8870 C   0  0  0  0  0  0
   12.5240    3.7920   12.9510 C   0  0  0  0  0  0
   11.3110    3.6660   13.6360 C   0  0  0  0  0  0
   10.9300    4.4440   14.6990 N   0  0  0  0  0  0
   11.4850    5.2050   15.0610 H   0  0  0  0  0  0
   10.0220    4.2800   15.1190 H   0  0  0  0  0  0
   13.7120    4.6000   13.0170 C   0  0  0  0  0  0
   14.4940    4.1650   11.9620 C   0  0  0  0  0  0
   15.4640    4.4610   11.5810 H   0  0  0  0  0  0
   13.8960    3.1520   11.2870 O   0  0  0  0  0  0
   13.9900    5.6840   14.0100 C   0  0  0  0  0  0
   13.9110    5.2700   15.0200 H   0  0  0  0  0  0
   13.2350    6.4700   13.8980 H   0  0  0  0  0  0
   15.6510    6.4330   13.8480 S   0  0  0  0  0  0
   15.4560    7.2670   12.2820 C   0  0  0  0  0  0
   16.5960    7.7220   11.6040 C   0  0  0  0  0  0
   17.5800    7.5370   12.0350 H   0  0  0  0  0  0
   16.4990    8.3930   10.3710 C   0  0  0  0  0  0
   15.2150    8.6040    9.8400 C   0  0  0  0  0  0
   15.0910    9.1290    8.8930 H   0  0  0  0  0  0
   14.0740    8.1670   10.5150 C   0  0  0  0  0  0
   13.0880    8.3510   10.0900 H   0  0  0  0  0  0
   14.1940    7.5040   11.7350 C   0  0  0  0  0  0
   13.2900    7.1860   12.2510 H   0  0  0  0  0  0
   17.7040    8.8610    9.6590 C   0  0  0  0  0  0
   18.7110    9.5800   10.3270 C   0  0  0  0  0  0
   18.6100    9.8150   11.3860 H   0  0  0  0  0  0
   19.8540   10.0220    9.6530 C   0  0  0  0  0  0
   20.6190   10.5790   10.1910 H   0  0  0  0  0  0
   20.0120    9.7520    8.2970 C   0  0  0  0  0  0
   20.9010   10.0960    7.7710 H   0  0  0  0  0  0
   19.0290    9.0420    7.6140 C   0  0  0  0  0  0
   19.1490    8.8270    6.5540 H   0  0  0  0  0  0
   17.8870    8.6010    8.2900 C   0  0  0  0  0  0
   17.1380    8.0390    7.7320 H   0  0  0  0  0  0
    9.8060    1.0000   11.8270 N   0  0  0  0  0  0
    9.9800    0.3850   11.0460 H   0  0  0  0  0  0
    8.9450    0.9340   12.3500 H   0  0  0  0  0  0
  1  2  2  0  0  0
  1  6  1  0  0  0
  2  3  1  0  0  0
  2 39  1  0  0  0
  3  4  2  0  0  0
  4  5  1  0  0  0
  4 13  1  0  0  0
  5  6  2  0  0  0
  5 10  1  0  0  0
  6  7  1  0  0  0
  7  8  1  0  0  0
  7  9  1  0  0  0
 10 11  2  0  0  0
 10 14  1  0  0  0
 11 12  1  0  0  0
 11 13  1  0  0  0
 14 15  1  0  0  0
 14 16  1  0  0  0
 14 17  1  0  0  0
 17 18  1  0  0  0
 18 19  1  0  0  0
 18 26  2  0  0  0
 19 20  1  0  0  0
 19 21  2  0  0  0
 21 22  1  0  0  0
 21 28  1  0  0  0
 22 23  1  0  0  0
 22 24  2  0  0  0
 24 25  1  0  0  0
 24 26  1  0  0  0
 26 27  1  0  0  0
 28 29  1  0  0  0
 28 37  2  0  0  0
 29 30  1  0  0  0
 29 31  2  0  0  0
 31 32  1  0  0  0
 31 33  1  0  0  0
 33 34  1  0  0  0
 33 35  2  0  0  0
 35 36  1  0  0  0
 35 37  1  0  0  0
 37 38  1  0  0  0
 39 40  1  0  0  0
 39 41  1  0  0  0
M  END
>  <ACTIVITY>
4.51

>  <SET>
1

>  <Min_dist>
999.9

>  <Avg_dist>
999.9

$$$$
41-7c
  Cerius2 12110214143D 1   1.00000                          
Structure written by Cerius2 SD Exporter
 41 44  0  0  0  0  0  0  0  0999 V2000
   10.4230    2.6960   13.2160 N   0  0  0  0  0  0
   10.7410    1.9250   12.1640 C   0  0  0  0  0  0
   11.8710    1.9870   11.4630 N   0  0  0  0  0  0
   12.6990    2.9350   11.9130 C   0  0  0  0  0  0
   12.4960    3.7990   12.9770 C   0  0  0  0  0  0
   11.2840    3.6420   13.6550 C   0  0  0  0  0  0
   10.8990    4.3850   14.7410 N   0  0  0  0  0  0
   11.5080    5.0570   15.1870 H   0  0  0  0  0  0
   10.0090    4.1830   15.1800 H   0  0  0  0  0  0
   13.6620    4.6310   13.0480 C   0  0  0  0  0  0
   14.4820    4.1970   12.0240 C   0  0  0  0  0  0
   15.4590    4.5080   11.6730 H   0  0  0  0  0  0
   13.9090    3.1780   11.3370 O   0  0  0  0  0  0
   13.9490    5.7490   13.9900 C   0  0  0  0  0  0
   13.7890    5.4210   15.0220 H   0  0  0  0  0  0
   13.2660    6.5830   13.7980 H   0  0  0  0  0  0
   15.6710    6.3300   13.7810 S   0  0  0  0  0  0
   15.5230    7.2260   12.2450 C   0  0  0  0  0  0
   16.6330    7.7240   11.5620 C   0  0  0  0  0  0
   17.6400    7.5810   11.9470 H   0  0  0  0  0  0
   16.4710    8.4310   10.3630 C   0  0  0  0  0  0
   17.3640    8.7910    9.8520 H   0  0  0  0  0  0
   15.1980    8.6690    9.8190 C   0  0  0  0  0  0
   14.0900    8.1750   10.5270 C   0  0  0  0  0  0
   13.0790    8.3460   10.1580 H   0  0  0  0  0  0
   14.2490    7.4670   11.7260 C   0  0  0  0  0  0
   13.3610    7.1050   12.2420 H   0  0  0  0  0  0
   15.0310    9.4130    8.5550 C   0  0  0  0  0  0
   15.7290   10.6100    8.3160 C   0  0  0  0  0  0
   16.4000   11.0170    9.0720 H   0  0  0  0  0  0
   15.5720   11.3150    7.1180 C   0  0  0  0  0  0
   16.1200   12.2410    6.9570 H   0  0  0  0  0  0
   14.7110   10.8350    6.1350 C   0  0  0  0  0  0
   14.5870   11.3840    5.2020 H   0  0  0  0  0  0
   14.0090    9.6520    6.3470 C   0  0  0  0  0  0
   13.3360    9.2730    5.5800 H   0  0  0  0  0  0
   14.1680    8.9490    7.5450 C   0  0  0  0  0  0
   13.6130    8.0210    7.6790 H   0  0  0  0  0  0
    9.8190    0.9980   11.7790 N   0  0  0  0  0  0
   10.0070    0.4010   10.9880 H   0  0  0  0  0  0
    8.9480    0.9230   12.2840 H   0  0  0  0  0  0
  1  2  2  0  0  0
  1  6  1  0  0  0
  2  3  1  0  0  0
  2 39  1  0  0  0
  3  4  2  0  0  0
  4  5  1  0  0  0
  4 13  1  0  0  0
  5  6  2  0  0  0
  5 10  1  0  0  0
  6  7  1  0  0  0
  7  8  1  0  0  0
  7  9  1  0  0  0
 10 11  2  0  0  0
 10 14  1  0  0  0
 11 12  1  0  0  0
 11 13  1  0  0  0
 14 15  1  0  0  0
 14 16  1  0  0  0
 14 17  1  0  0  0
 17 18  1  0  0  0
 18 19  1  0  0  0
 18 26  2  0  0  0
 19 20  1  0  0  0
 19 21  2  0  0  0
 21 22  1  0  0  0
 21 23  1  0  0  0
 23 24  2  0  0  0
 23 28  1  0  0  0
 24 25  1  0  0  0
 24 26  1  0  0  0
 26 27  1  0  0  0
 28 29  1  0  0  0
 28 37  2  0  0  0
 29 30  1  0  0  0
 29 31  2  0  0  0
 31 32  1  0  0  0
 31 33  1  0  0  0
 33 34  1  0  0  0
 33 35  2  0  0  0
 35 36  1  0  0  0
 35 37  1  0  0  0
 37 38  1  0  0  0
 39 40  1  0  0  0
 39 41  1  0  0  0
M  END
>  <ACTIVITY>
3.45

>  <SET>
1

>  <Min_dist>
999.9

>  <Avg_dist>
999.9

$$$$
42-10
  Cerius2 12110214143D 1   1.00000                          
Structure written by Cerius2 SD Exporter
 33 35  0  0  0  0  0  0  0  0999 V2000
   12.0070    1.9400   11.6790 N   0  0  0  0  0  0
   12.1620    1.1130   11.1240 H   0  0  0  0  0  0
   10.7340    2.2020   12.1430 C   0  0  0  0  0  0
   10.4360    3.2470   12.8680 N   0  0  0  0  0  0
   11.4910    4.0540   13.1260 C   0  0  0  0  0  0
   12.7990    3.8980   12.7210 C   0  0  0  0  0  0
   13.1130    2.7380   11.9190 C   0  0  0  0  0  0
   14.2320    2.4700   11.4860 O   0  0  0  0  0  0
   13.5330    4.9940   13.2310 C   0  0  0  0  0  0
   12.6530    5.7850   13.9560 C   0  0  0  0  0  0
   11.4050    5.1990   13.8670 N   0  0  0  0  0  0
   10.5540    5.5490   14.2920 H   0  0  0  0  0  0
   12.8500    7.0420   14.7280 C   0  0  0  0  0  0
   13.7960    7.0200   15.2770 H   0  0  0  0  0  0
   12.0480    7.1890   15.4580 H   0  0  0  0  0  0
   12.8570    7.9040   14.0530 H   0  0  0  0  0  0
   15.2490    5.2590   13.0080 S   0  0  0  0  0  0
   15.2930    6.7630   12.0490 C   0  0  0  0  0  0
   14.1300    7.5040   11.8020 C   0  0  0  0  0  0
   13.1700    7.1790   12.2000 H   0  0  0  0  0  0
   14.1820    8.6760   11.0390 C   0  0  0  0  0  0
   13.2640    9.2330   10.8670 H   0  0  0  0  0  0
   15.4070    9.1050   10.5120 C   0  0  0  0  0  0
   16.5730    8.3660   10.7440 C   0  0  0  0  0  0
   17.5340    8.6800   10.3410 H   0  0  0  0  0  0
   16.5100    7.1960   11.5090 C   0  0  0  0  0  0
   17.4240    6.6290   11.6800 H   0  0  0  0  0  0
   15.4670   10.3340    9.7100 N   0  3  0  0  0  0
   16.5730   10.6950    9.2640 O   0  0  0  0  0  0
   14.4100   10.9620    9.5090 O   0  5  0  0  0  0
    9.7830    1.3070   11.8050 N   0  0  0  0  0  0
    8.8250    1.4370   12.1120 H   0  0  0  0  0  0
    9.9670    0.4820   11.2460 H   0  0  0  0  0  0
  1  2  1  0  0  0
  1  3  1  0  0  0
  1  7  1  0  0  0
  3  4  2  0  0  0
  3 31  1  0  0  0
  4  5  1  0  0  0
  5  6  2  0  0  0
  5 11  1  0  0  0
  6  7  1  0  0  0
  6  9  1  0  0  0
  7  8  2  0  0  0
  9 10  2  0  0  0
  9 17  1  0  0  0
 10 11  1  0  0  0
 10 13  1  0  0  0
 11 12  1  0  0  0
 13 14  1  0  0  0
 13 15  1  0  0  0
 13 16  1  0  0  0
 17 18  1  0  0  0
 18 19  1  0  0  0
 18 26  2  0  0  0
 19 20  1  0  0  0
 19 21  2  0  0  0
 21 22  1  0  0  0
 21 23  1  0  0  0
 23 24  2  0  0  0
 23 28  1  0  0  0
 24 25  1  0  0  0
 24 26  1  0  0  0
 26 27  1  0  0  0
 28 29  2  0  0  0
 28 30  1  0  0  0
 31 32  1  0  0  0
 31 33  1  0  0  0
M  CHG  2  28   1  30  -1
M  END
>  <ACTIVITY>
3.3

>  <SET>
3

>  <Min_dist>
0.39

>  <Avg_dist>
0.71

$$$$
42-11
  Cerius2 12110214143D 1   1.00000                          
Structure written by Cerius2 SD Exporter
 39 41  0  0  0  0  0  0  0  0999 V2000
   12.0060    1.9480   11.6710 N   0  0  0  0  0  0
   12.1590    1.1240   11.1090 H   0  0  0  0  0  0
   10.7340    2.2080   12.1370 C   0  0  0  0  0  0
   10.4380    3.2490   12.8710 N   0  0  0  0  0  0
   11.4960    4.0510   13.1350 C   0  0  0  0  0  0
   12.8030    3.8950   12.7290 C   0  0  0  0  0  0
   13.1140    2.7400   11.9180 C   0  0  0  0  0  0
   14.2330    2.4720   11.4840 O   0  0  0  0  0  0
   13.5410    4.9810   13.2550 C   0  0  0  0  0  0
   12.6560    5.7890   13.9530 C   0  0  0  0  0  0
   11.4110    5.1940   13.8800 N   0  0  0  0  0  0
   10.5580    5.5480   14.2970 H   0  0  0  0  0  0
   12.8420    7.0670   14.6920 C   0  0  0  0  0  0
   13.5410    7.7250   14.1660 H   0  0  0  0  0  0
   13.2330    6.8720   15.6960 H   0  0  0  0  0  0
   11.8950    7.6070   14.7960 H   0  0  0  0  0  0
   15.2540    5.2530   13.0110 S   0  0  0  0  0  0
   15.2900    6.7490   12.0370 C   0  0  0  0  0  0
   14.1320    7.4970   11.8120 C   0  0  0  0  0  0
   13.1770    7.1810   12.2280 H   0  0  0  0  0  0
   14.1800    8.6660   11.0480 C   0  0  0  0  0  0
   13.2500    9.2080   10.9000 H   0  0  0  0  0  0
   15.3910    9.1050   10.5070 C   0  0  0  0  0  0
   16.5690    8.3690   10.7490 C   0  0  0  0  0  0
   16.5090    7.1960   11.5120 C   0  0  0  0  0  0
   17.4010    6.6070   11.7070 H   0  0  0  0  0  0
   17.7190    8.8760   10.1930 O   0  0  0  0  0  0
   18.9410    8.2020   10.4870 C   0  0  0  0  0  0
   19.7510    8.7570   10.0030 H   0  0  0  0  0  0
   18.9400    7.1880   10.0740 H   0  0  0  0  0  0
   19.1390    8.1950   11.5630 H   0  0  0  0  0  0
   15.5350   10.2380    9.7420 O   0  0  0  0  0  0
   16.8450   10.5420    9.2670 C   0  0  0  0  0  0
   16.7880   11.4870    8.7170 H   0  0  0  0  0  0
   17.1990    9.7730    8.5730 H   0  0  0  0  0  0
   17.5430   10.6820   10.0990 H   0  0  0  0  0  0
    9.7810    1.3180   11.7930 N   0  0  0  0  0  0
    8.8230    1.4470   12.1010 H   0  0  0  0  0  0
    9.9630    0.4980   11.2260 H   0  0  0  0  0  0
  1  2  1  0  0  0
  1  3  1  0  0  0
  1  7  1  0  0  0
  3  4  2  0  0  0
  3 37  1  0  0  0
  4  5  1  0  0  0
  5  6  2  0  0  0
  5 11  1  0  0  0
  6  7  1  0  0  0
  6  9  1  0  0  0
  7  8  2  0  0  0
  9 10  2  0  0  0
  9 17  1  0  0  0
 10 11  1  0  0  0
 10 13  1  0  0  0
 11 12  1  0  0  0
 13 14  1  0  0  0
 13 15  1  0  0  0
 13 16  1  0  0  0
 17 18  1  0  0  0
 18 19  1  0  0  0
 18 25  2  0  0  0
 19 20  1  0  0  0
 19 21  2  0  0  0
 21 22  1  0  0  0
 21 23  1  0  0  0
 23 24  2  0  0  0
 23 32  1  0  0  0
 24 25  1  0  0  0
 24 27  1  0  0  0
 25 26  1  0  0  0
 27 28  1  0  0  0
 28 29  1  0  0  0
 28 30  1  0  0  0
 28 31  1  0  0  0
 32 33  1  0  0  0
 33 34  1  0  0  0
 33 35  1  0  0  0
 33 36  1  0  0  0
 37 38  1  0  0  0
 37 39  1  0  0  0
M  END
>  <ACTIVITY>
3.3

>  <SET>
3

>  <Min_dist>
0.33

>  <Avg_dist>
0.69

$$$$
42-8
  Cerius2 12110214143D 1   1.00000                          
Structure written by Cerius2 SD Exporter
 31 33  0  0  0  0  0  0  0  0999 V2000
   12.0070    1.9420   11.6790 N   0  0  0  0  0  0
   12.1610    1.1140   11.1230 H   0  0  0  0  0  0
   10.7340    2.2090   12.1380 C   0  0  0  0  0  0
   10.4370    3.2550   12.8630 N   0  0  0  0  0  0
   11.4950    4.0580   13.1240 C   0  0  0  0  0  0
   12.8030    3.8970   12.7230 C   0  0  0  0  0  0
   13.1150    2.7350   11.9230 C   0  0  0  0  0  0
   14.2350    2.4630   11.4940 O   0  0  0  0  0  0
   13.5380    4.9920   13.2330 C   0  0  0  0  0  0
   12.6590    5.7870   13.9530 C   0  0  0  0  0  0
   11.4100    5.2040   13.8640 N   0  0  0  0  0  0
   10.5590    5.5580   14.2850 H   0  0  0  0  0  0
   12.8580    7.0480   14.7170 C   0  0  0  0  0  0
   12.8710    7.9060   14.0370 H   0  0  0  0  0  0
   13.8020    7.0270   15.2700 H   0  0  0  0  0  0
   12.0530    7.2040   15.4430 H   0  0  0  0  0  0
   15.2550    5.2560   13.0120 S   0  0  0  0  0  0
   15.2930    6.7590   12.0520 C   0  0  0  0  0  0
   16.5060    7.1970   11.5080 C   0  0  0  0  0  0
   17.4240    6.6370   11.6760 H   0  0  0  0  0  0
   16.5570    8.3670   10.7450 C   0  0  0  0  0  0
   17.5080    8.6980   10.3330 H   0  0  0  0  0  0
   15.3920    9.0970   10.5170 C   0  0  0  0  0  0
   14.1770    8.6650   11.0440 C   0  0  0  0  0  0
   13.2640    9.2280   10.8660 H   0  0  0  0  0  0
   14.1270    7.4950   11.8080 C   0  0  0  0  0  0
   13.1690    7.1680   12.2070 H   0  0  0  0  0  0
   15.4540   10.5370    9.5760 Cl  0  0  0  0  0  0
    9.7800    1.3180   11.7970 N   0  0  0  0  0  0
    8.8220    1.4520   12.1010 H   0  0  0  0  0  0
    9.9630    0.4930   11.2370 H   0  0  0  0  0  0
  1  2  1  0  0  0
  1  3  1  0  0  0
  1  7  1  0  0  0
  3  4  2  0  0  0
  3 29  1  0  0  0
  4  5  1  0  0  0
  5  6  2  0  0  0
  5 11  1  0  0  0
  6  7  1  0  0  0
  6  9  1  0  0  0
  7  8  2  0  0  0
  9 10  2  0  0  0
  9 17  1  0  0  0
 10 11  1  0  0  0
 10 13  1  0  0  0
 11 12  1  0  0  0
 13 14  1  0  0  0
 13 15  1  0  0  0
 13 16  1  0  0  0
 17 18  1  0  0  0
 18 19  1  0  0  0
 18 26  2  0  0  0
 19 20  1  0  0  0
 19 21  2  0  0  0
 21 22  1  0  0  0
 21 23  1  0  0  0
 23 24  2  0  0  0
 23 28  1  0  0  0
 24 25  1  0  0  0
 24 26  1  0  0  0
 26 27  1  0  0  0
 29 30  1  0  0  0
 29 31  1  0  0  0
M  END
>  <ACTIVITY>
4.61

>  <SET>
2

>  <Min_dist>
0.39

>  <Avg_dist>
0.71

$$$$
42-9
  Cerius2 12110214143D 1   1.00000                          
Structure written by Cerius2 SD Exporter
 31 33  0  0  0  0  0  0  0  0999 V2000
   12.0070    1.9410   11.6800 N   0  0  0  0  0  0
   12.1620    1.1130   11.1240 H   0  0  0  0  0  0
   10.7340    2.2060   12.1400 C   0  0  0  0  0  0
   10.4370    3.2520   12.8640 N   0  0  0  0  0  0
   11.4940    4.0570   13.1250 C   0  0  0  0  0  0
   12.8010    3.8970   12.7230 C   0  0  0  0  0  0
   13.1140    2.7360   11.9220 C   0  0  0  0  0  0
   14.2340    2.4660   11.4910 O   0  0  0  0  0  0
   13.5360    4.9920   13.2330 C   0  0  0  0  0  0
   12.6570    5.7860   13.9540 C   0  0  0  0  0  0
   11.4080    5.2030   13.8650 N   0  0  0  0  0  0
   10.5570    5.5560   14.2860 H   0  0  0  0  0  0
   12.8540    7.0450   14.7220 C   0  0  0  0  0  0
   12.8630    7.9050   14.0450 H   0  0  0  0  0  0
   13.8000    7.0240   15.2730 H   0  0  0  0  0  0
   12.0510    7.1960   15.4520 H   0  0  0  0  0  0
   15.2530    5.2570   13.0110 S   0  0  0  0  0  0
   15.2920    6.7590   12.0490 C   0  0  0  0  0  0
   14.1040    7.4640   11.8300 C   0  0  0  0  0  0
   13.1600    7.0980   12.2310 H   0  0  0  0  0  0
   14.1100    8.6460   11.0840 C   0  0  0  0  0  0
   13.1740    9.1760   10.9200 H   0  0  0  0  0  0
   15.3070    9.1370   10.5580 C   0  0  0  0  0  0
   16.5000    8.4430   10.7840 C   0  0  0  0  0  0
   16.4920    7.2600   11.5310 C   0  0  0  0  0  0
   17.4250    6.7300   11.7070 H   0  0  0  0  0  0
   18.0200    8.9950   10.1680 Cl  0  0  0  0  0  0
   15.2470   10.6030    9.6440 Cl  0  0  0  0  0  0
    9.7820    1.3140   11.8000 N   0  0  0  0  0  0
    8.8230    1.4470   12.1050 H   0  0  0  0  0  0
    9.9640    0.4890   11.2410 H   0  0  0  0  0  0
  1  2  1  0  0  0
  1  3  1  0  0  0
  1  7  1  0  0  0
  3  4  2  0  0  0
  3 29  1  0  0  0
  4  5  1  0  0  0
  5  6  2  0  0  0
  5 11  1  0  0  0
  6  7  1  0  0  0
  6  9  1  0  0  0
  7  8  2  0  0  0
  9 10  2  0  0  0
  9 17  1  0  0  0
 10 11  1  0  0  0
 10 13  1  0  0  0
 11 12  1  0  0  0
 13 14  1  0  0  0
 13 15  1  0  0  0
 13 16  1  0  0  0
 17 18  1  0  0  0
 18 19  1  0  0  0
 18 25  2  0  0  0
 19 20  1  0  0  0
 19 21  2  0  0  0
 21 22  1  0  0  0
 21 23  1  0  0  0
 23 24  2  0  0  0
 23 28  1  0  0  0
 24 25  1  0  0  0
 24 27  1  0  0  0
 25 26  1  0  0  0
 29 30  1  0  0  0
 29 31  1  0  0  0
M  END
>  <ACTIVITY>
3.3

>  <SET>
3

>  <Min_dist>
0.39

>  <Avg_dist>
0.71

$$$$
43-10
  Cerius2 12110214143D 1   1.00000                          
Structure written by Cerius2 SD Exporter
 47 49  0  0  0  0  0  0  0  0999 V2000
   12.0850    2.1510   11.7100 N   0  0  0  0  0  0
   12.2840    1.4170   11.0460 H   0  0  0  0  0  0
   10.7780    2.3710   12.0910 C   0  0  0  0  0  0
   10.4250    3.2890   12.9530 N   0  0  0  0  0  0
   11.4610    4.0120   13.4370 C   0  0  0  0  0  0
   12.7960    3.8940   13.1270 C   0  0  0  0  0  0
   13.1710    2.8680   12.1770 C   0  0  0  0  0  0
   14.3280    2.6450   11.8250 O   0  0  0  0  0  0
   13.5140    4.8760   13.8720 C   0  0  0  0  0  0
   12.5620    5.5430   14.6440 C   0  0  0  0  0  0
   11.3220    5.0110   14.3560 N   0  0  0  0  0  0
   10.4410    5.3040   14.7620 H   0  0  0  0  0  0
   12.7060    6.6500   15.6290 C   0  0  0  0  0  0
   12.6290    7.6180   15.1240 H   0  0  0  0  0  0
   13.6750    6.6010   16.1360 H   0  0  0  0  0  0
   11.9260    6.5980   16.3970 H   0  0  0  0  0  0
   14.9980    5.1320   13.8430 C   0  0  0  0  0  0
   15.4610    4.5320   13.0530 H   0  0  0  0  0  0
   15.4090    4.7800   14.7990 H   0  0  0  0  0  0
   15.3660    6.5280   13.6440 N   0  0  0  0  0  0
   15.6840    7.0250   14.4730 H   0  0  0  0  0  0
   15.3340    7.1930   12.4380 C   0  0  0  0  0  0
   16.4710    7.4130   11.6480 C   0  0  0  0  0  0
   17.4440    7.0400   11.9570 H   0  0  0  0  0  0
   16.3760    8.1000   10.4320 C   0  0  0  0  0  0
   15.1430    8.5580    9.9670 C   0  0  0  0  0  0
   14.0130    8.3910   10.7660 C   0  0  0  0  0  0
   14.1080    7.6940   11.9750 C   0  0  0  0  0  0
   13.2070    7.5480   12.5660 H   0  0  0  0  0  0
   12.7700    8.8210   10.3770 O   0  0  0  0  0  0
   12.8380    9.4810    9.1080 C   0  0  0  0  0  0
   11.8770    9.9750    8.9380 H   0  0  0  0  0  0
   12.9940    8.7610    8.2980 H   0  0  0  0  0  0
   13.6210   10.2480    9.0950 H   0  0  0  0  0  0
   15.0700    9.2130    8.7650 O   0  0  0  0  0  0
   16.3570    9.2310    8.1380 C   0  0  0  0  0  0
   16.2640    9.7980    7.2080 H   0  0  0  0  0  0
   16.6910    8.2190    7.8860 H   0  0  0  0  0  0
   17.1000    9.7310    8.7700 H   0  0  0  0  0  0
   17.4990    8.2440    9.6570 O   0  0  0  0  0  0
   18.6450    7.7470   10.3570 C   0  0  0  0  0  0
   19.5290    7.9810    9.7570 H   0  0  0  0  0  0
   18.5900    6.6590   10.4730 H   0  0  0  0  0  0
   18.7590    8.2300   11.3340 H   0  0  0  0  0  0
    9.8470    1.5780   11.5230 N   0  0  0  0  0  0
    8.8660    1.6980   11.7540 H   0  0  0  0  0  0
   10.0650    0.8500   10.8510 H   0  0  0  0  0  0
  1  2  1  0  0  0
  1  3  1  0  0  0
  1  7  1  0  0  0
  3  4  2  0  0  0
  3 45  1  0  0  0
  4  5  1  0  0  0
  5  6  2  0  0  0
  5 11  1  0  0  0
  6  7  1  0  0  0
  6  9  1  0  0  0
  7  8  2  0  0  0
  9 10  2  0  0  0
  9 17  1  0  0  0
 10 11  1  0  0  0
 10 13  1  0  0  0
 11 12  1  0  0  0
 13 14  1  0  0  0
 13 15  1  0  0  0
 13 16  1  0  0  0
 17 18  1  0  0  0
 17 19  1  0  0  0
 17 20  1  0  0  0
 20 21  1  0  0  0
 20 22  1  0  0  0
 22 23  1  0  0  0
 22 28  2  0  0  0
 23 24  1  0  0  0
 23 25  2  0  0  0
 25 26  1  0  0  0
 25 40  1  0  0  0
 26 27  2  0  0  0
 26 35  1  0  0  0
 27 28  1  0  0  0
 27 30  1  0  0  0
 28 29  1  0  0  0
 30 31  1  0  0  0
 31 32  1  0  0  0
 31 33  1  0  0  0
 31 34  1  0  0  0
 35 36  1  0  0  0
 36 37  1  0  0  0
 36 38  1  0  0  0
 36 39  1  0  0  0
 40 41  1  0  0  0
 41 42  1  0  0  0
 41 43  1  0  0  0
 41 44  1  0  0  0
 45 46  1  0  0  0
 45 47  1  0  0  0
M  END
>  <ACTIVITY>
4.66

>  <SET>
1

>  <Min_dist>
999.9

>  <Avg_dist>
999.9

$$$$
43-11
  Cerius2 12110214143D 1   1.00000                          
Structure written by Cerius2 SD Exporter
 35 37  0  0  0  0  0  0  0  0999 V2000
   12.1050    2.1600   11.7230 N   0  0  0  0  0  0
   12.3180    1.4420   11.0460 H   0  0  0  0  0  0
   10.7880    2.3730   12.0780 C   0  0  0  0  0  0
   10.4140    3.2820   12.9390 N   0  0  0  0  0  0
   11.4380    4.0000   13.4570 C   0  0  0  0  0  0
   12.7810    3.8770   13.1860 C   0  0  0  0  0  0
   13.1800    2.8700   12.2270 C   0  0  0  0  0  0
   14.3420    2.6620   11.8840 O   0  0  0  0  0  0
   13.4830    4.8370   13.9730 C   0  0  0  0  0  0
   12.5090    5.5280   14.6930 C   0  0  0  0  0  0
   11.2750    5.0020   14.3700 N   0  0  0  0  0  0
   10.3840    5.3060   14.7450 H   0  0  0  0  0  0
   12.6380    6.6400   15.6760 C   0  0  0  0  0  0
   13.4710    7.2980   15.4080 H   0  0  0  0  0  0
   12.8240    6.2390   16.6770 H   0  0  0  0  0  0
   11.7290    7.2480   15.7090 H   0  0  0  0  0  0
   14.9720    5.0640   14.0250 C   0  0  0  0  0  0
   15.4340    4.2770   13.4160 H   0  0  0  0  0  0
   15.3140    4.9400   15.0560 H   0  0  0  0  0  0
   15.3860    6.3670   13.5320 N   0  0  0  0  0  0
   15.8900    6.9280   14.2170 H   0  0  0  0  0  0
   15.2340    7.1330   12.3890 C   0  0  0  0  0  0
   14.0500    7.7260   11.8960 C   0  0  0  0  0  0
   13.0910    7.5840   12.4300 H   0  0  0  0  0  0
   14.0620    8.5010   10.7230 C   0  0  0  0  0  0
   15.2410    8.7020   10.0110 C   0  0  0  0  0  0
   15.2310    9.3070    9.1080 H   0  0  0  0  0  0
   16.4140    8.1240   10.4710 C   0  0  0  0  0  0
   17.3640    8.2680    9.9170 H   0  0  0  0  0  0
   16.4100    7.3540   11.6380 C   0  0  0  0  0  0
   17.9580    6.7040   12.1040 Cl  0  0  0  0  0  0
   12.5880    9.2080   10.1640 Cl  0  0  0  0  0  0
    9.8770    1.5780   11.4790 N   0  0  0  0  0  0
    8.8900    1.6830   11.6860 H   0  0  0  0  0  0
   10.1200    0.8640   10.8010 H   0  0  0  0  0  0
  1  2  1  0  0  0
  1  3  1  0  0  0
  1  7  1  0  0  0
  3  4  2  0  0  0
  3 33  1  0  0  0
  4  5  1  0  0  0
  5  6  2  0  0  0
  5 11  1  0  0  0
  6  7  1  0  0  0
  6  9  1  0  0  0
  7  8  2  0  0  0
  9 10  2  0  0  0
  9 17  1  0  0  0
 10 11  1  0  0  0
 10 13  1  0  0  0
 11 12  1  0  0  0
 13 14  1  0  0  0
 13 15  1  0  0  0
 13 16  1  0  0  0
 17 18  1  0  0  0
 17 19  1  0  0  0
 17 20  1  0  0  0
 20 21  1  0  0  0
 20 22  1  0  0  0
 22 23  1  0  0  0
 22 30  2  0  0  0
 23 24  1  0  0  0
 23 25  2  0  0  0
 25 26  1  0  0  0
 25 32  1  0  0  0
 26 27  1  0  0  0
 26 28  2  0  0  0
 28 29  1  0  0  0
 28 30  1  0  0  0
 30 31  1  0  0  0
 33 34  1  0  0  0
 33 35  1  0  0  0
M  END
>  <ACTIVITY>
4.6

>  <SET>
1

>  <Min_dist>
999.9

>  <Avg_dist>
999.9

$$$$
43-13
  Cerius2 12110214143D 1   1.00000                          
Structure written by Cerius2 SD Exporter
 35 37  0  0  0  0  0  0  0  0999 V2000
   12.0950    2.1570   11.7160 N   0  0  0  0  0  0
   12.3010    1.4340   11.0430 H   0  0  0  0  0  0
   10.7830    2.3720   12.0830 C   0  0  0  0  0  0
   10.4180    3.2870   12.9430 N   0  0  0  0  0  0
   11.4470    4.0060   13.4470 C   0  0  0  0  0  0
   12.7870    3.8840   13.1600 C   0  0  0  0  0  0
   13.1750    2.8700   12.2030 C   0  0  0  0  0  0
   14.3330    2.6610   11.8490 O   0  0  0  0  0  0
   13.4970    4.8500   13.9310 C   0  0  0  0  0  0
   12.5330    5.5380   14.6670 C   0  0  0  0  0  0
   11.2970    5.0080   14.3620 N   0  0  0  0  0  0
   10.4100    5.3070   14.7530 H   0  0  0  0  0  0
   12.6780    6.6490   15.6470 C   0  0  0  0  0  0
   13.3710    7.4080   15.2700 H   0  0  0  0  0  0
   13.0660    6.2670   16.5960 H   0  0  0  0  0  0
   11.7190    7.1390   15.8420 H   0  0  0  0  0  0
   14.9860    5.0820   13.9570 C   0  0  0  0  0  0
   15.4290    4.3780   13.2420 H   0  0  0  0  0  0
   15.3660    4.8350   14.9530 H   0  0  0  0  0  0
   15.3780    6.4380   13.6150 N   0  0  0  0  0  0
   15.7960    6.9560   14.3870 H   0  0  0  0  0  0
   15.2210    7.1570   12.4450 C   0  0  0  0  0  0
   14.0360    7.7260   11.9270 C   0  0  0  0  0  0
   13.0780    7.5980   12.4680 H   0  0  0  0  0  0
   14.0430    8.4520   10.7230 C   0  0  0  0  0  0
   13.1180    8.8780   10.3400 H   0  0  0  0  0  0
   15.2250    8.6270   10.0150 C   0  0  0  0  0  0
   16.4060    8.0830   10.4920 C   0  0  0  0  0  0
   17.3400    8.2130    9.9510 H   0  0  0  0  0  0
   16.3960    7.3580   11.6890 C   0  0  0  0  0  0
   17.9480    6.7350   12.1840 Cl  0  0  0  0  0  0
   15.2220    9.5180    8.5430 Cl  0  0  0  0  0  0
    9.8670    1.5730   11.4990 N   0  0  0  0  0  0
    8.8830    1.6700   11.7250 H   0  0  0  0  0  0
   10.1030    0.8500   10.8300 H   0  0  0  0  0  0
  1  2  1  0  0  0
  1  3  1  0  0  0
  1  7  1  0  0  0
  3  4  2  0  0  0
  3 33  1  0  0  0
  4  5  1  0  0  0
  5  6  2  0  0  0
  5 11  1  0  0  0
  6  7  1  0  0  0
  6  9  1  0  0  0
  7  8  2  0  0  0
  9 10  2  0  0  0
  9 17  1  0  0  0
 10 11  1  0  0  0
 10 13  1  0  0  0
 11 12  1  0  0  0
 13 14  1  0  0  0
 13 15  1  0  0  0
 13 16  1  0  0  0
 17 18  1  0  0  0
 17 19  1  0  0  0
 17 20  1  0  0  0
 20 21  1  0  0  0
 20 22  1  0  0  0
 22 23  1  0  0  0
 22 30  2  0  0  0
 23 24  1  0  0  0
 23 25  2  0  0  0
 25 26  1  0  0  0
 25 27  1  0  0  0
 27 28  2  0  0  0
 27 32  1  0  0  0
 28 29  1  0  0  0
 28 30  1  0  0  0
 30 31  1  0  0  0
 33 34  1  0  0  0
 33 35  1  0  0  0
M  END
>  <ACTIVITY>
4.82

>  <SET>
2

>  <Min_dist>
0.06

>  <Avg_dist>
0.63

$$$$
43-14
  Cerius2 12110214143D 1   1.00000                          
Structure written by Cerius2 SD Exporter
 35 37  0  0  0  0  0  0  0  0999 V2000
   12.0810    2.1580   11.7000 N   0  0  0  0  0  0
   12.2860    1.4430   11.0170 H   0  0  0  0  0  0
   10.7720    2.3470   12.0930 C   0  0  0  0  0  0
   10.4080    3.2500   12.9660 N   0  0  0  0  0  0
   11.4340    3.9870   13.4520 C   0  0  0  0  0  0
   12.7710    3.8920   13.1390 C   0  0  0  0  0  0
   13.1570    2.8880   12.1710 C   0  0  0  0  0  0
   14.3130    2.7000   11.7960 O   0  0  0  0  0  0
   13.4760    4.8730   13.8950 C   0  0  0  0  0  0
   12.5110    5.5460   14.6460 C   0  0  0  0  0  0
   11.2800    4.9860   14.3690 N   0  0  0  0  0  0
   10.3960    5.2690   14.7750 H   0  0  0  0  0  0
   12.6460    6.6670   15.6160 C   0  0  0  0  0  0
   13.3710    7.4040   15.2560 H   0  0  0  0  0  0
   12.9900    6.2890   16.5840 H   0  0  0  0  0  0
   11.6920    7.1820   15.7670 H   0  0  0  0  0  0
   14.9600    5.1450   13.8880 C   0  0  0  0  0  0
   15.3900    4.5270   13.0910 H   0  0  0  0  0  0
   15.3920    4.8130   14.8380 H   0  0  0  0  0  0
   15.3110    6.5400   13.6680 N   0  0  0  0  0  0
   15.4840    7.0780   14.5150 H   0  0  0  0  0  0
   15.3700    7.1990   12.4510 C   0  0  0  0  0  0
   16.5320    7.3960   11.6710 C   0  0  0  0  0  0
   17.5090    7.0080   12.0160 H   0  0  0  0  0  0
   16.4410    8.0690   10.4420 C   0  0  0  0  0  0
   17.3120    8.2270    9.8100 H   0  0  0  0  0  0
   15.2180    8.5590    9.9720 C   0  0  0  0  0  0
   15.2080    9.0700    9.0130 H   0  0  0  0  0  0
   14.0670    8.3830   10.7270 C   0  0  0  0  0  0
   14.1540    7.7090   11.9500 C   0  0  0  0  0  0
   13.2420    7.5740   12.5310 H   0  0  0  0  0  0
   12.5480    8.9780   10.1720 Cl  0  0  0  0  0  0
    9.8550    1.5400   11.5210 N   0  0  0  0  0  0
    8.8740    1.6320   11.7630 H   0  0  0  0  0  0
   10.0840    0.8290   10.8370 H   0  0  0  0  0  0
  1  2  1  0  0  0
  1  3  1  0  0  0
  1  7  1  0  0  0
  3  4  2  0  0  0
  3 33  1  0  0  0
  4  5  1  0  0  0
  5  6  2  0  0  0
  5 11  1  0  0  0
  6  7  1  0  0  0
  6  9  1  0  0  0
  7  8  2  0  0  0
  9 10  2  0  0  0
  9 17  1  0  0  0
 10 11  1  0  0  0
 10 13  1  0  0  0
 11 12  1  0  0  0
 13 14  1  0  0  0
 13 15  1  0  0  0
 13 16  1  0  0  0
 17 18  1  0  0  0
 17 19  1  0  0  0
 17 20  1  0  0  0
 20 21  1  0  0  0
 20 22  1  0  0  0
 22 23  1  0  0  0
 22 30  2  0  0  0
 23 24  1  0  0  0
 23 25  2  0  0  0
 25 26  1  0  0  0
 25 27  1  0  0  0
 27 28  1  0  0  0
 27 29  2  0  0  0
 29 30  1  0  0  0
 29 32  1  0  0  0
 30 31  1  0  0  0
 33 34  1  0  0  0
 33 35  1  0  0  0
M  END
>  <ACTIVITY>
4.59

>  <SET>
1

>  <Min_dist>
999.9

>  <Avg_dist>
999.9

$$$$
43-15
  Cerius2 12110214143D 1   1.00000                          
Structure written by Cerius2 SD Exporter
 46 48  0  0  0  0  0  0  0  0999 V2000
   12.0690    2.1590   11.7070 N   0  0  0  0  0  0
   12.2590    1.4260   11.0410 H   0  0  0  0  0  0
   10.7640    2.3900   12.0900 C   0  0  0  0  0  0
   10.4190    3.3140   12.9480 N   0  0  0  0  0  0
   11.4610    4.0290   13.4310 C   0  0  0  0  0  0
   12.7960    3.8910   13.1270 C   0  0  0  0  0  0
   13.1610    2.8650   12.1750 C   0  0  0  0  0  0
   14.3150    2.6390   11.8170 O   0  0  0  0  0  0
   13.5250    4.8600   13.8760 C   0  0  0  0  0  0
   12.5790    5.5570   14.6270 C   0  0  0  0  0  0
   11.3320    5.0420   14.3380 N   0  0  0  0  0  0
   10.4530    5.3570   14.7310 H   0  0  0  0  0  0
   12.7450    6.6800   15.5890 C   0  0  0  0  0  0
   13.6200    6.5160   16.2260 H   0  0  0  0  0  0
   11.8710    6.7800   16.2410 H   0  0  0  0  0  0
   12.8810    7.6220   15.0500 H   0  0  0  0  0  0
   15.0190    5.0820   13.8690 C   0  0  0  0  0  0
   15.4760    4.5080   13.0570 H   0  0  0  0  0  0
   15.3850    4.6460   14.8090 H   0  0  0  0  0  0
   15.4560    6.4850   13.7640 N   0  0  0  0  0  0
   15.4000    7.1420   12.5320 C   0  0  0  0  0  0
   16.5150    7.3580   11.6960 C   0  0  0  0  0  0
   16.3970    8.0590   10.4910 C   0  0  0  0  0  0
   17.2710    8.2420    9.8710 H   0  0  0  0  0  0
   15.1500    8.5210   10.0770 C   0  0  0  0  0  0
   15.0640    9.0570    9.1330 H   0  0  0  0  0  0
   14.0200    8.3000   10.8630 C   0  0  0  0  0  0
   14.1530    7.6170   12.0780 C   0  0  0  0  0  0
   13.2890    7.4620   12.7190 H   0  0  0  0  0  0
   12.8570    8.8030   10.3470 O   0  0  0  0  0  0
   12.9470    9.4710    9.0890 C   0  0  0  0  0  0
   11.9450    9.8200    8.8250 H   0  0  0  0  0  0
   13.2800    8.7850    8.3030 H   0  0  0  0  0  0
   13.6000   10.3480    9.1560 H   0  0  0  0  0  0
   17.7610    6.9070   12.0600 O   0  0  0  0  0  0
   18.7200    7.2330   11.0480 C   0  0  0  0  0  0
   19.6510    6.7130   11.2910 H   0  0  0  0  0  0
   18.9240    8.3090   11.0360 H   0  0  0  0  0  0
   18.3910    6.8940   10.0590 H   0  0  0  0  0  0
   15.2950    7.3320   14.9470 C   0  0  0  0  0  0
   15.4880    6.7720   15.8670 H   0  0  0  0  0  0
   14.2730    7.7220   15.0000 H   0  0  0  0  0  0
   15.9910    8.1770   14.9410 H   0  0  0  0  0  0
    9.8310    1.5970   11.5230 N   0  0  0  0  0  0
    8.8500    1.7120   11.7580 H   0  0  0  0  0  0
   10.0490    0.8710   10.8520 H   0  0  0  0  0  0
  1  2  1  0  0  0
  1  3  1  0  0  0
  1  7  1  0  0  0
  3  4  2  0  0  0
  3 44  1  0  0  0
  4  5  1  0  0  0
  5  6  2  0  0  0
  5 11  1  0  0  0
  6  7  1  0  0  0
  6  9  1  0  0  0
  7  8  2  0  0  0
  9 10  2  0  0  0
  9 17  1  0  0  0
 10 11  1  0  0  0
 10 13  1  0  0  0
 11 12  1  0  0  0
 13 14  1  0  0  0
 13 15  1  0  0  0
 13 16  1  0  0  0
 17 18  1  0  0  0
 17 19  1  0  0  0
 17 20  1  0  0  0
 20 21  1  0  0  0
 20 40  1  0  0  0
 21 22  1  0  0  0
 21 28  2  0  0  0
 22 23  2  0  0  0
 22 35  1  0  0  0
 23 24  1  0  0  0
 23 25  1  0  0  0
 25 26  1  0  0  0
 25 27  2  0  0  0
 27 28  1  0  0  0
 27 30  1  0  0  0
 28 29  1  0  0  0
 30 31  1  0  0  0
 31 32  1  0  0  0
 31 33  1  0  0  0
 31 34  1  0  0  0
 35 36  1  0  0  0
 36 37  1  0  0  0
 36 38  1  0  0  0
 36 39  1  0  0  0
 40 41  1  0  0  0
 40 42  1  0  0  0
 40 43  1  0  0  0
 44 45  1  0  0  0
 44 46  1  0  0  0
M  END
>  <ACTIVITY>
4.25

>  <SET>
2

>  <Min_dist>
0.05

>  <Avg_dist>
0.61

$$$$
43-16
  Cerius2 12110214143D 1   1.00000                          
Structure written by Cerius2 SD Exporter
 46 48  0  0  0  0  0  0  0  0999 V2000
   12.0840    2.1590   11.7000 N   0  0  0  0  0  0
   12.2800    1.4350   11.0240 H   0  0  0  0  0  0
   10.7790    2.3640   12.0980 C   0  0  0  0  0  0
   10.4270    3.2760   12.9660 N   0  0  0  0  0  0
   11.4620    4.0060   13.4430 C   0  0  0  0  0  0
   12.7960    3.8940   13.1230 C   0  0  0  0  0  0
   13.1690    2.8810   12.1610 C   0  0  0  0  0  0
   14.3220    2.6780   11.7870 O   0  0  0  0  0  0
   13.5150    4.8720   13.8700 C   0  0  0  0  0  0
   12.5650    5.5490   14.6340 C   0  0  0  0  0  0
   11.3250    5.0110   14.3570 N   0  0  0  0  0  0
   10.4440    5.3080   14.7620 H   0  0  0  0  0  0
   12.7220    6.6720   15.5980 C   0  0  0  0  0  0
   13.6170    6.5320   16.2120 H   0  0  0  0  0  0
   11.8610    6.7440   16.2710 H   0  0  0  0  0  0
   12.8170    7.6200   15.0590 H   0  0  0  0  0  0
   15.0040    5.1250   13.8460 C   0  0  0  0  0  0
   15.4780    4.5310   13.0570 H   0  0  0  0  0  0
   15.3750    4.7200   14.7970 H   0  0  0  0  0  0
   15.4400    6.5270   13.6870 N   0  0  0  0  0  0
   15.3240    7.1970   12.4750 C   0  0  0  0  0  0
   16.4320    7.4240   11.6410 C   0  0  0  0  0  0
   17.4160    7.0500   11.9190 H   0  0  0  0  0  0
   16.3250    8.0980   10.4160 C   0  0  0  0  0  0
   15.0830    8.5650   10.0010 C   0  0  0  0  0  0
   14.9570    9.0930    9.0600 H   0  0  0  0  0  0
   13.9560    8.3570   10.7980 C   0  0  0  0  0  0
   14.0840    7.6810   12.0180 C   0  0  0  0  0  0
   13.2080    7.5410   12.6450 H   0  0  0  0  0  0
   12.7940    8.8660   10.2810 O   0  0  0  0  0  0
   12.8790    9.5230    9.0170 C   0  0  0  0  0  0
   11.8780    9.8830    8.7620 H   0  0  0  0  0  0
   13.1940    8.8270    8.2330 H   0  0  0  0  0  0
   13.5430   10.3920    9.0690 H   0  0  0  0  0  0
   17.5020    8.2260    9.7290 O   0  0  0  0  0  0
   18.6770    7.7240   10.3660 C   0  0  0  0  0  0
   19.5220    7.9090    9.6950 H   0  0  0  0  0  0
   18.6060    6.6430   10.5250 H   0  0  0  0  0  0
   18.8730    8.2530   11.3040 H   0  0  0  0  0  0
   15.9110    7.2360   14.8760 C   0  0  0  0  0  0
   15.5820    6.7440   15.7970 H   0  0  0  0  0  0
   15.5100    8.2560   14.9170 H   0  0  0  0  0  0
   17.0050    7.2810   14.8870 H   0  0  0  0  0  0
    9.8530    1.5580   11.5370 N   0  0  0  0  0  0
    8.8740    1.6540   11.7840 H   0  0  0  0  0  0
   10.0780    0.8370   10.8620 H   0  0  0  0  0  0
  1  2  1  0  0  0
  1  3  1  0  0  0
  1  7  1  0  0  0
  3  4  2  0  0  0
  3 44  1  0  0  0
  4  5  1  0  0  0
  5  6  2  0  0  0
  5 11  1  0  0  0
  6  7  1  0  0  0
  6  9  1  0  0  0
  7  8  2  0  0  0
  9 10  2  0  0  0
  9 17  1  0  0  0
 10 11  1  0  0  0
 10 13  1  0  0  0
 11 12  1  0  0  0
 13 14  1  0  0  0
 13 15  1  0  0  0
 13 16  1  0  0  0
 17 18  1  0  0  0
 17 19  1  0  0  0
 17 20  1  0  0  0
 20 21  1  0  0  0
 20 40  1  0  0  0
 21 22  1  0  0  0
 21 28  2  0  0  0
 22 23  1  0  0  0
 22 24  2  0  0  0
 24 25  1  0  0  0
 24 35  1  0  0  0
 25 26  1  0  0  0
 25 27  2  0  0  0
 27 28  1  0  0  0
 27 30  1  0  0  0
 28 29  1  0  0  0
 30 31  1  0  0  0
 31 32  1  0  0  0
 31 33  1  0  0  0
 31 34  1  0  0  0
 35 36  1  0  0  0
 36 37  1  0  0  0
 36 38  1  0  0  0
 36 39  1  0  0  0
 40 41  1  0  0  0
 40 42  1  0  0  0
 40 43  1  0  0  0
 44 45  1  0  0  0
 44 46  1  0  0  0
M  END
>  <ACTIVITY>
4.06

>  <SET>
1

>  <Min_dist>
999.9

>  <Avg_dist>
999.9

$$$$
43-17
  Cerius2 12110214143D 1   1.00000                          
Structure written by Cerius2 SD Exporter
 50 52  0  0  0  0  0  0  0  0999 V2000
   12.0780    2.1580   11.6970 N   0  0  0  0  0  0
   12.2830    1.4400   11.0180 H   0  0  0  0  0  0
   10.7710    2.3460   12.0960 C   0  0  0  0  0  0
   10.4080    3.2510   12.9660 N   0  0  0  0  0  0
   11.4340    3.9900   13.4490 C   0  0  0  0  0  0
   12.7690    3.8930   13.1320 C   0  0  0  0  0  0
   13.1540    2.8900   12.1630 C   0  0  0  0  0  0
   14.3100    2.7040   11.7870 O   0  0  0  0  0  0
   13.4780    4.8740   13.8860 C   0  0  0  0  0  0
   12.5180    5.5420   14.6460 C   0  0  0  0  0  0
   11.2840    4.9930   14.3640 N   0  0  0  0  0  0
   10.4000    5.2810   14.7670 H   0  0  0  0  0  0
   12.6570    6.6680   15.6080 C   0  0  0  0  0  0
   13.6000    6.5960   16.1600 H   0  0  0  0  0  0
   11.8410    6.6710   16.3380 H   0  0  0  0  0  0
   12.6440    7.6230   15.0730 H   0  0  0  0  0  0
   14.9650    5.1340   13.8690 C   0  0  0  0  0  0
   15.4410    4.5410   13.0810 H   0  0  0  0  0  0
   15.3330    4.7280   14.8210 H   0  0  0  0  0  0
   15.4100    6.5330   13.7200 N   0  0  0  0  0  0
   15.3340    7.2010   12.5020 C   0  0  0  0  0  0
   16.4710    7.4110   11.6930 C   0  0  0  0  0  0
   17.4390    7.0610   12.0200 H   0  0  0  0  0  0
   16.4030    8.0710   10.4540 C   0  0  0  0  0  0
   15.1610    8.5240    9.9970 C   0  0  0  0  0  0
   14.0290    8.3680   10.7950 C   0  0  0  0  0  0
   14.1110    7.6950   12.0170 C   0  0  0  0  0  0
   13.1980    7.5790   12.5950 H   0  0  0  0  0  0
   12.8070    8.8110   10.3540 O   0  0  0  0  0  0
   12.9530    9.4690    9.0910 C   0  0  0  0  0  0
   11.9510    9.7230    8.7300 H   0  0  0  0  0  0
   13.4240    8.8120    8.3520 H   0  0  0  0  0  0
   13.5230   10.3990    9.1950 H   0  0  0  0  0  0
   15.0620    9.1890    8.7990 O   0  0  0  0  0  0
   16.3410    9.2250    8.1570 C   0  0  0  0  0  0
   16.2210    9.7440    7.2020 H   0  0  0  0  0  0
   16.7100    8.2140    7.9500 H   0  0  0  0  0  0
   17.0700    9.7810    8.7570 H   0  0  0  0  0  0
   17.4710    8.3050    9.6260 O   0  0  0  0  0  0
   18.7510    7.8560   10.0630 C   0  0  0  0  0  0
   19.4860    8.1680    9.3150 H   0  0  0  0  0  0
   18.7820    6.7630   10.1260 H   0  0  0  0  0  0
   19.0280    8.3190   11.0160 H   0  0  0  0  0  0
   15.8460    7.2490   14.9200 C   0  0  0  0  0  0
   15.4900    6.7640   15.8350 H   0  0  0  0  0  0
   15.4430    8.2690   14.9450 H   0  0  0  0  0  0
   16.9390    7.2950   14.9620 H   0  0  0  0  0  0
    9.8560    1.5320   11.5300 N   0  0  0  0  0  0
    8.8760    1.6120   11.7770 H   0  0  0  0  0  0
   10.0900    0.8180   10.8500 H   0  0  0  0  0  0
  1  2  1  0  0  0
  1  3  1  0  0  0
  1  7  1  0  0  0
  3  4  2  0  0  0
  3 48  1  0  0  0
  4  5  1  0  0  0
  5  6  2  0  0  0
  5 11  1  0  0  0
  6  7  1  0  0  0
  6  9  1  0  0  0
  7  8  2  0  0  0
  9 10  2  0  0  0
  9 17  1  0  0  0
 10 11  1  0  0  0
 10 13  1  0  0  0
 11 12  1  0  0  0
 13 14  1  0  0  0
 13 15  1  0  0  0
 13 16  1  0  0  0
 17 18  1  0  0  0
 17 19  1  0  0  0
 17 20  1  0  0  0
 20 21  1  0  0  0
 20 44  1  0  0  0
 21 22  1  0  0  0
 21 27  2  0  0  0
 22 23  1  0  0  0
 22 24  2  0  0  0
 24 25  1  0  0  0
 24 39  1  0  0  0
 25 26  2  0  0  0
 25 34  1  0  0  0
 26 27  1  0  0  0
 26 29  1  0  0  0
 27 28  1  0  0  0
 29 30  1  0  0  0
 30 31  1  0  0  0
 30 32  1  0  0  0
 30 33  1  0  0  0
 34 35  1  0  0  0
 35 36  1  0  0  0
 35 37  1  0  0  0
 35 38  1  0  0  0
 39 40  1  0  0  0
 40 41  1  0  0  0
 40 42  1  0  0  0
 40 43  1  0  0  0
 44 45  1  0  0  0
 44 46  1  0  0  0
 44 47  1  0  0  0
 48 49  1  0  0  0
 48 50  1  0  0  0
M  END
>  <ACTIVITY>
4.35

>  <SET>
1

>  <Min_dist>
999.9

>  <Avg_dist>
999.9

$$$$
43-7
  Cerius2 12110214143D 1   1.00000                          
Structure written by Cerius2 SD Exporter
 43 45  0  0  0  0  0  0  0  0999 V2000
   12.0810    2.1580   11.7000 N   0  0  0  0  0  0
   12.2860    1.4430   11.0170 H   0  0  0  0  0  0
   10.7720    2.3470   12.0930 C   0  0  0  0  0  0
   10.4080    3.2500   12.9660 N   0  0  0  0  0  0
   11.4340    3.9870   13.4520 C   0  0  0  0  0  0
   12.7710    3.8920   13.1390 C   0  0  0  0  0  0
   13.1570    2.8880   12.1710 C   0  0  0  0  0  0
   14.3130    2.7000   11.7960 O   0  0  0  0  0  0
   13.4760    4.8730   13.8950 C   0  0  0  0  0  0
   12.5110    5.5460   14.6460 C   0  0  0  0  0  0
   11.2800    4.9860   14.3690 N   0  0  0  0  0  0
   10.3960    5.2690   14.7750 H   0  0  0  0  0  0
   12.6460    6.6670   15.6160 C   0  0  0  0  0  0
   13.3710    7.4040   15.2560 H   0  0  0  0  0  0
   12.9900    6.2890   16.5840 H   0  0  0  0  0  0
   11.6920    7.1820   15.7670 H   0  0  0  0  0  0
   14.9600    5.1450   13.8880 C   0  0  0  0  0  0
   15.3900    4.5270   13.0910 H   0  0  0  0  0  0
   15.3920    4.8130   14.8380 H   0  0  0  0  0  0
   15.3110    6.5400   13.6680 N   0  0  0  0  0  0
   15.4840    7.0780   14.5150 H   0  0  0  0  0  0
   15.3700    7.1990   12.4510 C   0  0  0  0  0  0
   16.5320    7.3960   11.6710 C   0  0  0  0  0  0
   16.4410    8.0690   10.4420 C   0  0  0  0  0  0
   17.3120    8.2270    9.8100 H   0  0  0  0  0  0
   15.2180    8.5590    9.9720 C   0  0  0  0  0  0
   15.2080    9.0700    9.0130 H   0  0  0  0  0  0
   14.0670    8.3830   10.7270 C   0  0  0  0  0  0
   14.1540    7.7090   11.9500 C   0  0  0  0  0  0
   13.2420    7.5740   12.5310 H   0  0  0  0  0  0
   12.8120    8.8100   10.3920 O   0  0  0  0  0  0
   12.6780    9.4950    9.1470 C   0  0  0  0  0  0
   11.6240    9.7660    9.0310 H   0  0  0  0  0  0
   12.9510    8.8440    8.3100 H   0  0  0  0  0  0
   13.2640   10.4190    9.1400 H   0  0  0  0  0  0
   17.7140    6.9010   12.1620 O   0  0  0  0  0  0
   18.8810    7.0410   11.3550 C   0  0  0  0  0  0
   19.7350    6.7050   11.9500 H   0  0  0  0  0  0
   19.0540    8.0890   11.0860 H   0  0  0  0  0  0
   18.8210    6.4040   10.4680 H   0  0  0  0  0  0
    9.8550    1.5400   11.5210 N   0  0  0  0  0  0
    8.8740    1.6320   11.7630 H   0  0  0  0  0  0
   10.0840    0.8290   10.8370 H   0  0  0  0  0  0
  1  2  1  0  0  0
  1  3  1  0  0  0
  1  7  1  0  0  0
  3  4  2  0  0  0
  3 41  1  0  0  0
  4  5  1  0  0  0
  5  6  2  0  0  0
  5 11  1  0  0  0
  6  7  1  0  0  0
  6  9  1  0  0  0
  7  8  2  0  0  0
  9 10  2  0  0  0
  9 17  1  0  0  0
 10 11  1  0  0  0
 10 13  1  0  0  0
 11 12  1  0  0  0
 13 14  1  0  0  0
 13 15  1  0  0  0
 13 16  1  0  0  0
 17 18  1  0  0  0
 17 19  1  0  0  0
 17 20  1  0  0  0
 20 21  1  0  0  0
 20 22  1  0  0  0
 22 23  1  0  0  0
 22 29  2  0  0  0
 23 24  2  0  0  0
 23 36  1  0  0  0
 24 25  1  0  0  0
 24 26  1  0  0  0
 26 27  1  0  0  0
 26 28  2  0  0  0
 28 29  1  0  0  0
 28 31  1  0  0  0
 29 30  1  0  0  0
 31 32  1  0  0  0
 32 33  1  0  0  0
 32 34  1  0  0  0
 32 35  1  0  0  0
 36 37  1  0  0  0
 37 38  1  0  0  0
 37 39  1  0  0  0
 37 40  1  0  0  0
 41 42  1  0  0  0
 41 43  1  0  0  0
M  END
>  <ACTIVITY>
4.33

>  <SET>
1

>  <Min_dist>
999.9

>  <Avg_dist>
999.9

$$$$
43-8
  Cerius2 12110214143D 1   1.00000                          
Structure written by Cerius2 SD Exporter
 43 45  0  0  0  0  0  0  0  0999 V2000
   12.0860    2.1600   11.7020 N   0  0  0  0  0  0
   12.2800    1.4300   11.0330 H   0  0  0  0  0  0
   10.7800    2.3740   12.0970 C   0  0  0  0  0  0
   10.4330    3.2910   12.9610 N   0  0  0  0  0  0
   11.4720    4.0170   13.4380 C   0  0  0  0  0  0
   12.8050    3.8980   13.1200 C   0  0  0  0  0  0
   13.1740    2.8770   12.1650 C   0  0  0  0  0  0
   14.3270    2.6570   11.8000 O   0  0  0  0  0  0
   13.5290    4.8730   13.8690 C   0  0  0  0  0  0
   12.5800    5.5520   14.6320 C   0  0  0  0  0  0
   11.3380    5.0210   14.3530 N   0  0  0  0  0  0
   10.4590    5.3190   14.7600 H   0  0  0  0  0  0
   12.7380    6.6720   15.5990 C   0  0  0  0  0  0
   12.8560    7.6180   15.0620 H   0  0  0  0  0  0
   13.6210    6.5190   16.2280 H   0  0  0  0  0  0
   11.8680    6.7560   16.2570 H   0  0  0  0  0  0
   15.0150    5.1180   13.8520 C   0  0  0  0  0  0
   15.4780    4.5070   13.0720 H   0  0  0  0  0  0
   15.4150    4.7650   14.8110 H   0  0  0  0  0  0
   15.3970    6.5090   13.6550 N   0  0  0  0  0  0
   15.7930    6.9810   14.4650 H   0  0  0  0  0  0
   15.3280    7.1850   12.4530 C   0  0  0  0  0  0
   16.4400    7.4150   11.6340 C   0  0  0  0  0  0
   17.4250    7.0610   11.9310 H   0  0  0  0  0  0
   16.3270    8.0950   10.4160 C   0  0  0  0  0  0
   15.0810    8.5660   10.0080 C   0  0  0  0  0  0
   14.9530    9.1030    9.0730 H   0  0  0  0  0  0
   13.9540    8.3540   10.8050 C   0  0  0  0  0  0
   14.0830    7.6650   12.0150 C   0  0  0  0  0  0
   13.2160    7.4900   12.6460 H   0  0  0  0  0  0
   12.7930    8.8680   10.2920 O   0  0  0  0  0  0
   12.8750    9.5200    9.0250 C   0  0  0  0  0  0
   11.8730    9.8810    8.7740 H   0  0  0  0  0  0
   13.1850    8.8220    8.2410 H   0  0  0  0  0  0
   13.5400   10.3870    9.0730 H   0  0  0  0  0  0
   17.5010    8.2340    9.7260 O   0  0  0  0  0  0
   18.6780    7.7260   10.3540 C   0  0  0  0  0  0
   19.5250    7.9440    9.6960 H   0  0  0  0  0  0
   18.6190    6.6390   10.4750 H   0  0  0  0  0  0
   18.8600    8.2240   11.3110 H   0  0  0  0  0  0
    9.8510    1.5740   11.5350 N   0  0  0  0  0  0
    8.8710    1.6810   11.7750 H   0  0  0  0  0  0
   10.0690    0.8530   10.8580 H   0  0  0  0  0  0
  1  2  1  0  0  0
  1  3  1  0  0  0
  1  7  1  0  0  0
  3  4  2  0  0  0
  3 41  1  0  0  0
  4  5  1  0  0  0
  5  6  2  0  0  0
  5 11  1  0  0  0
  6  7  1  0  0  0
  6  9  1  0  0  0
  7  8  2  0  0  0
  9 10  2  0  0  0
  9 17  1  0  0  0
 10 11  1  0  0  0
 10 13  1  0  0  0
 11 12  1  0  0  0
 13 14  1  0  0  0
 13 15  1  0  0  0
 13 16  1  0  0  0
 17 18  1  0  0  0
 17 19  1  0  0  0
 17 20  1  0  0  0
 20 21  1  0  0  0
 20 22  1  0  0  0
 22 23  1  0  0  0
 22 29  2  0  0  0
 23 24  1  0  0  0
 23 25  2  0  0  0
 25 26  1  0  0  0
 25 36  1  0  0  0
 26 27  1  0  0  0
 26 28  2  0  0  0
 28 29  1  0  0  0
 28 31  1  0  0  0
 29 30  1  0  0  0
 31 32  1  0  0  0
 32 33  1  0  0  0
 32 34  1  0  0  0
 32 35  1  0  0  0
 36 37  1  0  0  0
 37 38  1  0  0  0
 37 39  1  0  0  0
 37 40  1  0  0  0
 41 42  1  0  0  0
 41 43  1  0  0  0
M  END
>  <ACTIVITY>
4.7

>  <SET>
1

>  <Min_dist>
999.9

>  <Avg_dist>
999.9

$$$$
43-9
  Cerius2 12110214143D 1   1.00000                          
Structure written by Cerius2 SD Exporter
 43 45  0  0  0  0  0  0  0  0999 V2000
   12.0830    2.1580   11.7030 N   0  0  0  0  0  0
   12.2880    1.4400   11.0240 H   0  0  0  0  0  0
   10.7730    2.3570   12.0890 C   0  0  0  0  0  0
   10.4110    3.2630   12.9590 N   0  0  0  0  0  0
   11.4390    3.9930   13.4510 C   0  0  0  0  0  0
   12.7770    3.8870   13.1440 C   0  0  0  0  0  0
   13.1610    2.8790   12.1800 C   0  0  0  0  0  0
   14.3170    2.6820   11.8120 O   0  0  0  0  0  0
   13.4860    4.8630   13.9030 C   0  0  0  0  0  0
   12.5240    5.5430   14.6490 C   0  0  0  0  0  0
   11.2900    4.9930   14.3690 N   0  0  0  0  0  0
   10.4060    5.2820   14.7720 H   0  0  0  0  0  0
   12.6660    6.6640   15.6180 C   0  0  0  0  0  0
   13.4500    7.3570   15.2990 H   0  0  0  0  0  0
   12.9320    6.2750   16.6060 H   0  0  0  0  0  0
   11.7350    7.2330   15.7110 H   0  0  0  0  0  0
   14.9710    5.1180   13.8990 C   0  0  0  0  0  0
   15.3960    4.5020   13.0970 H   0  0  0  0  0  0
   15.3970    4.7720   14.8460 H   0  0  0  0  0  0
   15.3370    6.5110   13.6890 N   0  0  0  0  0  0
   15.5420    7.0360   14.5360 H   0  0  0  0  0  0
   15.3490    7.1860   12.4800 C   0  0  0  0  0  0
   16.4810    7.4050   11.6630 C   0  0  0  0  0  0
   16.3430    8.0850   10.4400 C   0  0  0  0  0  0
   17.1980    8.2550    9.7900 H   0  0  0  0  0  0
   15.1040    8.5640   10.0070 C   0  0  0  0  0  0
   13.9870    8.3660   10.8060 C   0  0  0  0  0  0
   13.0000    8.7190   10.5220 H   0  0  0  0  0  0
   14.1150    7.6860   12.0230 C   0  0  0  0  0  0
   13.2160    7.5390   12.6230 H   0  0  0  0  0  0
   15.1230    9.2000    8.7960 O   0  0  0  0  0  0
   16.3740    9.2410    8.1110 C   0  0  0  0  0  0
   16.2270    9.8050    7.1840 H   0  0  0  0  0  0
   16.7060    8.2340    7.8400 H   0  0  0  0  0  0
   17.1320    9.7650    8.7030 H   0  0  0  0  0  0
   17.6860    6.9260   12.1160 O   0  0  0  0  0  0
   18.8300    7.0890   11.2810 C   0  0  0  0  0  0
   19.7010    6.7300   11.8380 H   0  0  0  0  0  0
   18.9990    8.1440   11.0410 H   0  0  0  0  0  0
   18.7420    6.4810   10.3740 H   0  0  0  0  0  0
    9.8560    1.5540   11.5110 N   0  0  0  0  0  0
    8.8730    1.6480   11.7430 H   0  0  0  0  0  0
   10.0900    0.8410   10.8300 H   0  0  0  0  0  0
  1  2  1  0  0  0
  1  3  1  0  0  0
  1  7  1  0  0  0
  3  4  2  0  0  0
  3 41  1  0  0  0
  4  5  1  0  0  0
  5  6  2  0  0  0
  5 11  1  0  0  0
  6  7  1  0  0  0
  6  9  1  0  0  0
  7  8  2  0  0  0
  9 10  2  0  0  0
  9 17  1  0  0  0
 10 11  1  0  0  0
 10 13  1  0  0  0
 11 12  1  0  0  0
 13 14  1  0  0  0
 13 15  1  0  0  0
 13 16  1  0  0  0
 17 18  1  0  0  0
 17 19  1  0  0  0
 17 20  1  0  0  0
 20 21  1  0  0  0
 20 22  1  0  0  0
 22 23  1  0  0  0
 22 29  2  0  0  0
 23 24  2  0  0  0
 23 36  1  0  0  0
 24 25  1  0  0  0
 24 26  1  0  0  0
 26 27  2  0  0  0
 26 31  1  0  0  0
 27 28  1  0  0  0
 27 29  1  0  0  0
 29 30  1  0  0  0
 31 32  1  0  0  0
 32 33  1  0  0  0
 32 34  1  0  0  0
 32 35  1  0  0  0
 36 37  1  0  0  0
 37 38  1  0  0  0
 37 39  1  0  0  0
 37 40  1  0  0  0
 41 42  1  0  0  0
 41 43  1  0  0  0
M  END
>  <ACTIVITY>
4.8

>  <SET>
1

>  <Min_dist>
999.9

>  <Avg_dist>
999.9

$$$$
44-10
  Cerius2 12110214143D 1   1.00000                          
Structure written by Cerius2 SD Exporter
 35 37  0  0  0  0  0  0  0  0999 V2000
   10.2640    2.6570   13.0280 N   0  0  0  0  0  0
   10.8730    1.8730   12.1170 C   0  0  0  0  0  0
   12.1180    2.0250   11.6430 N   0  0  0  0  0  0
   12.7400    3.0830   12.1840 C   0  0  0  0  0  0
   12.2370    3.9630   13.1210 C   0  0  0  0  0  0
   10.9240    3.7190   13.5540 C   0  0  0  0  0  0
   10.2740    4.5000   14.4810 N   0  0  0  0  0  0
   10.7390    5.3010   14.8940 H   0  0  0  0  0  0
    9.3260    4.2780   14.7560 H   0  0  0  0  0  0
   13.1740    4.9250   13.4370 N   0  0  0  0  0  0
   14.2430    4.6400   12.7050 C   0  0  0  0  0  0
   14.0060    3.5220   11.9280 N   0  0  0  0  0  0
   14.6610    3.0900   11.2910 H   0  0  0  0  0  0
   15.5150    5.3760   12.6850 C   0  0  0  0  0  0
   16.5630    4.9500   11.8520 C   0  0  0  0  0  0
   16.4420    4.0810   11.2060 H   0  0  0  0  0  0
   17.7850    5.6360   11.8110 C   0  0  0  0  0  0
   18.5550    5.2580   11.1440 H   0  0  0  0  0  0
   17.9870    6.7590   12.6100 C   0  0  0  0  0  0
   16.9550    7.1950   13.4420 C   0  0  0  0  0  0
   17.1150    8.0580   14.0860 H   0  0  0  0  0  0
   15.7250    6.5230   13.4670 C   0  0  0  0  0  0
   14.7600    6.9480   14.3480 O   0  0  0  0  0  0
   15.1860    8.1300   15.0350 C   0  0  0  0  0  0
   14.3130    8.5530   15.5400 H   0  0  0  0  0  0
   15.5740    8.8830   14.3400 H   0  0  0  0  0  0
   15.9340    7.8890   15.7970 H   0  0  0  0  0  0
   19.1310    7.5050   12.6740 O   0  0  0  0  0  0
   20.2150    7.0930   11.8420 C   0  0  0  0  0  0
   21.0450    7.7850   12.0100 H   0  0  0  0  0  0
   19.9410    7.1490   10.7830 H   0  0  0  0  0  0
   20.5570    6.0880   12.1110 H   0  0  0  0  0  0
   10.1520    0.8240   11.6300 N   0  0  0  0  0  0
   10.5640    0.2080   10.9450 H   0  0  0  0  0  0
    9.2090    0.6720   11.9580 H   0  0  0  0  0  0
  1  2  2  0  0  0
  1  6  1  0  0  0
  2  3  1  0  0  0
  2 33  1  0  0  0
  3  4  2  0  0  0
  4  5  1  0  0  0
  4 12  1  0  0  0
  5  6  2  0  0  0
  5 10  1  0  0  0
  6  7  1  0  0  0
  7  8  1  0  0  0
  7  9  1  0  0  0
 10 11  2  0  0  0
 11 12  1  0  0  0
 11 14  1  0  0  0
 12 13  1  0  0  0
 14 15  1  0  0  0
 14 22  2  0  0  0
 15 16  1  0  0  0
 15 17  2  0  0  0
 17 18  1  0  0  0
 17 19  1  0  0  0
 19 20  2  0  0  0
 19 28  1  0  0  0
 20 21  1  0  0  0
 20 22  1  0  0  0
 22 23  1  0  0  0
 23 24  1  0  0  0
 24 25  1  0  0  0
 24 26  1  0  0  0
 24 27  1  0  0  0
 28 29  1  0  0  0
 29 30  1  0  0  0
 29 31  1  0  0  0
 29 32  1  0  0  0
 33 34  1  0  0  0
 33 35  1  0  0  0
M  END
>  <ACTIVITY>
6.05

>  <SET>
1

>  <Min_dist>
999.9

>  <Avg_dist>
999.9

$$$$
44-11
  Cerius2 12110214143D 1   1.00000                          
Structure written by Cerius2 SD Exporter
 27 29  0  0  0  0  0  0  0  0999 V2000
   10.2630    2.6570   13.0280 N   0  0  0  0  0  0
   10.8720    1.8730   12.1170 C   0  0  0  0  0  0
   12.1180    2.0260   11.6440 N   0  0  0  0  0  0
   12.7390    3.0830   12.1850 C   0  0  0  0  0  0
   12.2360    3.9620   13.1210 C   0  0  0  0  0  0
   10.9240    3.7190   13.5540 C   0  0  0  0  0  0
   10.2740    4.5000   14.4810 N   0  0  0  0  0  0
   10.7380    5.3010   14.8930 H   0  0  0  0  0  0
    9.3260    4.2780   14.7560 H   0  0  0  0  0  0
   13.1740    4.9240   13.4370 N   0  0  0  0  0  0
   14.2450    4.6420   12.7030 C   0  0  0  0  0  0
   14.0070    3.5220   11.9290 N   0  0  0  0  0  0
   14.6510    3.0910   11.2820 H   0  0  0  0  0  0
   15.5040    5.4020   12.7050 C   0  0  0  0  0  0
   16.5900    5.0650   11.8840 C   0  0  0  0  0  0
   16.5460    4.2180   11.2020 H   0  0  0  0  0  0
   17.7730    5.8140   11.9160 C   0  0  0  0  0  0
   18.5980    5.5290   11.2670 H   0  0  0  0  0  0
   17.8890    6.9130   12.7680 C   0  0  0  0  0  0
   16.8160    7.2620   13.5920 C   0  0  0  0  0  0
   15.6350    6.5100   13.5570 C   0  0  0  0  0  0
   14.8050    6.7920   14.2040 H   0  0  0  0  0  0
   16.8840    8.6090   14.6750 Cl  0  0  0  0  0  0
   19.3760    7.7930   12.7570 Cl  0  0  0  0  0  0
   10.1520    0.8240   11.6300 N   0  0  0  0  0  0
   10.5650    0.2080   10.9450 H   0  0  0  0  0  0
    9.2090    0.6710   11.9570 H   0  0  0  0  0  0
  1  2  2  0  0  0
  1  6  1  0  0  0
  2  3  1  0  0  0
  2 25  1  0  0  0
  3  4  2  0  0  0
  4  5  1  0  0  0
  4 12  1  0  0  0
  5  6  2  0  0  0
  5 10  1  0  0  0
  6  7  1  0  0  0
  7  8  1  0  0  0
  7  9  1  0  0  0
 10 11  2  0  0  0
 11 12  1  0  0  0
 11 14  1  0  0  0
 12 13  1  0  0  0
 14 15  1  0  0  0
 14 21  2  0  0  0
 15 16  1  0  0  0
 15 17  2  0  0  0
 17 18  1  0  0  0
 17 19  1  0  0  0
 19 20  2  0  0  0
 19 24  1  0  0  0
 20 21  1  0  0  0
 20 23  1  0  0  0
 21 22  1  0  0  0
 25 26  1  0  0  0
 25 27  1  0  0  0
M  END
>  <ACTIVITY>
3.6

>  <SET>
2

>  <Min_dist>
0.16

>  <Avg_dist>
0.61

$$$$
44-12
  Cerius2 12110214143D 1   1.00000                          
Structure written by Cerius2 SD Exporter
 27 29  0  0  0  0  0  0  0  0999 V2000
   10.2640    2.6580   13.0270 N   0  0  0  0  0  0
   10.8730    1.8730   12.1160 C   0  0  0  0  0  0
   12.1190    2.0250   11.6440 N   0  0  0  0  0  0
   12.7410    3.0830   12.1840 C   0  0  0  0  0  0
   12.2380    3.9630   13.1210 C   0  0  0  0  0  0
   10.9250    3.7200   13.5540 C   0  0  0  0  0  0
   10.2750    4.5000   14.4810 N   0  0  0  0  0  0
   10.7400    5.3010   14.8940 H   0  0  0  0  0  0
    9.3270    4.2780   14.7570 H   0  0  0  0  0  0
   13.1740    4.9270   13.4390 N   0  0  0  0  0  0
   14.2360    4.6380   12.7030 C   0  0  0  0  0  0
   14.0080    3.5200   11.9270 N   0  0  0  0  0  0
   14.6620    3.0970   11.2830 H   0  0  0  0  0  0
   15.5030    5.3670   12.6810 C   0  0  0  0  0  0
   15.7780    6.3110   11.6740 C   0  0  0  0  0  0
   16.9900    7.0110   11.6580 C   0  0  0  0  0  0
   17.1980    7.7400   10.8770 H   0  0  0  0  0  0
   17.9450    6.7820   12.6460 C   0  0  0  0  0  0
   18.8870    7.3270   12.6330 H   0  0  0  0  0  0
   17.6900    5.8520   13.6510 C   0  0  0  0  0  0
   18.4420    5.6770   14.4180 H   0  0  0  0  0  0
   16.4790    5.1490   13.6700 C   0  0  0  0  0  0
   16.2550    3.9970   14.9470 Cl  0  0  0  0  0  0
   14.6470    6.6610   10.4070 Cl  0  0  0  0  0  0
   10.1520    0.8250   11.6300 N   0  0  0  0  0  0
   10.5650    0.2090   10.9450 H   0  0  0  0  0  0
    9.2100    0.6730   11.9570 H   0  0  0  0  0  0
  1  2  2  0  0  0
  1  6  1  0  0  0
  2  3  1  0  0  0
  2 25  1  0  0  0
  3  4  2  0  0  0
  4  5  1  0  0  0
  4 12  1  0  0  0
  5  6  2  0  0  0
  5 10  1  0  0  0
  6  7  1  0  0  0
  7  8  1  0  0  0
  7  9  1  0  0  0
 10 11  2  0  0  0
 11 12  1  0  0  0
 11 14  1  0  0  0
 12 13  1  0  0  0
 14 15  1  0  0  0
 14 22  2  0  0  0
 15 16  2  0  0  0
 15 24  1  0  0  0
 16 17  1  0  0  0
 16 18  1  0  0  0
 18 19  1  0  0  0
 18 20  2  0  0  0
 20 21  1  0  0  0
 20 22  1  0  0  0
 22 23  1  0  0  0
 25 26  1  0  0  0
 25 27  1  0  0  0
M  END
>  <ACTIVITY>
4.96

>  <SET>
1

>  <Min_dist>
999.9

>  <Avg_dist>
999.9

$$$$
44-14
  Cerius2 12110214143D 1   1.00000                          
Structure written by Cerius2 SD Exporter
 37 39  0  0  0  0  0  0  0  0999 V2000
   10.2630    2.6570   13.0270 N   0  0  0  0  0  0
   10.8720    1.8730   12.1170 C   0  0  0  0  0  0
   12.1180    2.0250   11.6440 N   0  0  0  0  0  0
   12.7400    3.0830   12.1840 C   0  0  0  0  0  0
   12.2360    3.9620   13.1210 C   0  0  0  0  0  0
   10.9240    3.7190   13.5540 C   0  0  0  0  0  0
   10.2750    4.5000   14.4810 N   0  0  0  0  0  0
   10.7390    5.3020   14.8920 H   0  0  0  0  0  0
    9.3270    4.2800   14.7560 H   0  0  0  0  0  0
   13.1750    4.9240   13.4380 N   0  0  0  0  0  0
   14.2420    4.6420   12.7030 C   0  0  0  0  0  0
   14.0070    3.5220   11.9280 N   0  0  0  0  0  0
   14.6600    3.0880   11.2910 H   0  0  0  0  0  0
   15.5040    5.3930   12.6930 C   0  0  0  0  0  0
   16.5430    5.0110   11.8250 C   0  0  0  0  0  0
   16.4270    4.1570   11.1600 H   0  0  0  0  0  0
   17.7380    5.7430   11.7640 C   0  0  0  0  0  0
   17.9480    6.8420   12.6050 C   0  0  0  0  0  0
   16.9230    7.2580   13.4500 C   0  0  0  0  0  0
   17.0630    8.1260   14.0900 H   0  0  0  0  0  0
   15.7230    6.5300   13.4880 C   0  0  0  0  0  0
   14.7200    6.9790   14.4340 N   0  3  0  0  0  0
   14.1390    8.0510   14.1890 O   0  0  0  0  0  0
   14.5490    6.2940   15.4600 O   0  5  0  0  0  0
   19.0850    7.6040   12.6280 O   0  0  0  0  0  0
   20.1070    7.1350   11.7430 C   0  0  0  0  0  0
   21.0720    7.4220   12.1720 H   0  0  0  0  0  0
   20.0180    7.6250   10.7700 H   0  0  0  0  0  0
   20.0990    6.0450   11.6340 H   0  0  0  0  0  0
   18.6920    5.3200   10.8750 O   0  0  0  0  0  0
   18.2120    4.1810   10.1480 C   0  0  0  0  0  0
   19.0060    3.8640    9.4660 H   0  0  0  0  0  0
   17.3310    4.4360    9.5500 H   0  0  0  0  0  0
   17.9890    3.3480   10.8240 H   0  0  0  0  0  0
   10.1520    0.8240   11.6300 N   0  0  0  0  0  0
   10.5650    0.2080   10.9460 H   0  0  0  0  0  0
    9.2100    0.6710   11.9580 H   0  0  0  0  0  0
  1  2  2  0  0  0
  1  6  1  0  0  0
  2  3  1  0  0  0
  2 35  1  0  0  0
  3  4  2  0  0  0
  4  5  1  0  0  0
  4 12  1  0  0  0
  5  6  2  0  0  0
  5 10  1  0  0  0
  6  7  1  0  0  0
  7  8  1  0  0  0
  7  9  1  0  0  0
 10 11  2  0  0  0
 11 12  1  0  0  0
 11 14  1  0  0  0
 12 13  1  0  0  0
 14 15  1  0  0  0
 14 21  2  0  0  0
 15 16  1  0  0  0
 15 17  2  0  0  0
 17 18  1  0  0  0
 17 30  1  0  0  0
 18 19  2  0  0  0
 18 25  1  0  0  0
 19 20  1  0  0  0
 19 21  1  0  0  0
 21 22  1  0  0  0
 22 23  2  0  0  0
 22 24  1  0  0  0
 25 26  1  0  0  0
 26 27  1  0  0  0
 26 28  1  0  0  0
 26 29  1  0  0  0
 30 31  1  0  0  0
 31 32  1  0  0  0
 31 33  1  0  0  0
 31 34  1  0  0  0
 35 36  1  0  0  0
 35 37  1  0  0  0
M  CHG  2  22   1  24  -1
M  END
>  <ACTIVITY>
4.6

>  <SET>
2

>  <Min_dist>
0.26

>  <Avg_dist>
0.62

$$$$
44-16
  Cerius2 12110214143D 1   1.00000                          
Structure written by Cerius2 SD Exporter
 26 28  0  0  0  0  0  0  0  0999 V2000
   10.2630    2.6570   13.0280 N   0  0  0  0  0  0
   10.8720    1.8730   12.1170 C   0  0  0  0  0  0
   12.1180    2.0260   11.6440 N   0  0  0  0  0  0
   12.7390    3.0830   12.1850 C   0  0  0  0  0  0
   12.2360    3.9620   13.1210 C   0  0  0  0  0  0
   10.9240    3.7190   13.5540 C   0  0  0  0  0  0
   10.2740    4.4990   14.4810 N   0  0  0  0  0  0
   10.7380    5.3010   14.8940 H   0  0  0  0  0  0
    9.3260    4.2770   14.7570 H   0  0  0  0  0  0
   13.1740    4.9240   13.4370 N   0  0  0  0  0  0
   14.2450    4.6420   12.7030 C   0  0  0  0  0  0
   14.0070    3.5220   11.9280 N   0  0  0  0  0  0
   14.6510    3.0910   11.2810 H   0  0  0  0  0  0
   15.5040    5.4000   12.7050 C   0  0  0  0  0  0
   16.5960    5.0520   11.9050 C   0  0  0  0  0  0
   16.5810    4.2000   11.2330 H   0  0  0  0  0  0
   17.7470    5.8240   11.9700 C   0  0  0  0  0  0
   18.6120    5.5750   11.3580 H   0  0  0  0  0  0
   17.8840    6.9070   12.7690 N   0  0  0  0  0  0
   16.8190    7.2300   13.5360 C   0  0  0  0  0  0
   16.9400    8.1030   14.1740 H   0  0  0  0  0  0
   15.6300    6.5180   13.5360 C   0  0  0  0  0  0
   14.8160    6.8380   14.1810 H   0  0  0  0  0  0
   10.1520    0.8240   11.6300 N   0  0  0  0  0  0
   10.5650    0.2080   10.9460 H   0  0  0  0  0  0
    9.2100    0.6710   11.9580 H   0  0  0  0  0  0
  1  2  2  0  0  0
  1  6  1  0  0  0
  2  3  1  0  0  0
  2 24  1  0  0  0
  3  4  2  0  0  0
  4  5  1  0  0  0
  4 12  1  0  0  0
  5  6  2  0  0  0
  5 10  1  0  0  0
  6  7  1  0  0  0
  7  8  1  0  0  0
  7  9  1  0  0  0
 10 11  2  0  0  0
 11 12  1  0  0  0
 11 14  1  0  0  0
 12 13  1  0  0  0
 14 15  1  0  0  0
 14 22  2  0  0  0
 15 16  1  0  0  0
 15 17  2  0  0  0
 17 18  1  0  0  0
 17 19  1  0  0  0
 19 20  2  0  0  0
 20 21  1  0  0  0
 20 22  1  0  0  0
 22 23  1  0  0  0
 24 25  1  0  0  0
 24 26  1  0  0  0
M  END
>  <ACTIVITY>
4.74

>  <SET>
2

>  <Min_dist>
0.18

>  <Avg_dist>
0.58

$$$$
44-17
  Cerius2 12110214143D 1   1.00000                          
Structure written by Cerius2 SD Exporter
 33 36  0  0  0  0  0  0  0  0999 V2000
   10.2630    2.6570   13.0280 N   0  0  0  0  0  0
   10.8720    1.8730   12.1170 C   0  0  0  0  0  0
   12.1180    2.0260   11.6440 N   0  0  0  0  0  0
   12.7390    3.0830   12.1850 C   0  0  0  0  0  0
   12.2360    3.9620   13.1210 C   0  0  0  0  0  0
   10.9240    3.7190   13.5540 C   0  0  0  0  0  0
   10.2740    4.4990   14.4810 N   0  0  0  0  0  0
   10.7380    5.3010   14.8940 H   0  0  0  0  0  0
    9.3260    4.2770   14.7570 H   0  0  0  0  0  0
   13.1740    4.9240   13.4370 N   0  0  0  0  0  0
   14.2450    4.6420   12.7030 C   0  0  0  0  0  0
   14.0070    3.5220   11.9290 N   0  0  0  0  0  0
   14.6510    3.0910   11.2820 H   0  0  0  0  0  0
   15.5060    5.3990   12.7040 C   0  0  0  0  0  0
   16.5890    5.0610   11.8830 C   0  0  0  0  0  0
   16.5430    4.2140   11.2010 H   0  0  0  0  0  0
   17.7730    5.8070   11.9130 C   0  0  0  0  0  0
   18.5950    5.5130   11.2600 H   0  0  0  0  0  0
   17.9060    6.9120   12.7650 C   0  0  0  0  0  0
   16.8250    7.2690   13.5990 C   0  0  0  0  0  0
   15.6420    6.5090   13.5560 C   0  0  0  0  0  0
   14.8080    6.7870   14.2020 H   0  0  0  0  0  0
   16.9550    8.3770   14.4540 C   0  0  0  0  0  0
   16.1330    8.6700   15.1060 H   0  0  0  0  0  0
   18.1360    9.1200   14.4840 C   0  0  0  0  0  0
   18.2230    9.9760   15.1510 H   0  0  0  0  0  0
   19.2010    8.7670   13.6610 C   0  0  0  0  0  0
   20.1230    9.3460   13.6830 H   0  0  0  0  0  0
   19.0880    7.6700   12.8060 C   0  0  0  0  0  0
   19.9330    7.4090   12.1690 H   0  0  0  0  0  0
   10.1520    0.8240   11.6300 N   0  0  0  0  0  0
   10.5650    0.2080   10.9460 H   0  0  0  0  0  0
    9.2100    0.6710   11.9580 H   0  0  0  0  0  0
  1  2  2  0  0  0
  1  6  1  0  0  0
  2  3  1  0  0  0
  2 31  1  0  0  0
  3  4  2  0  0  0
  4  5  1  0  0  0
  4 12  1  0  0  0
  5  6  2  0  0  0
  5 10  1  0  0  0
  6  7  1  0  0  0
  7  8  1  0  0  0
  7  9  1  0  0  0
 10 11  2  0  0  0
 11 12  1  0  0  0
 11 14  1  0  0  0
 12 13  1  0  0  0
 14 15  1  0  0  0
 14 21  2  0  0  0
 15 16  1  0  0  0
 15 17  2  0  0  0
 17 18  1  0  0  0
 17 19  1  0  0  0
 19 20  2  0  0  0
 19 29  1  0  0  0
 20 21  1  0  0  0
 20 23  1  0  0  0
 21 22  1  0  0  0
 23 24  1  0  0  0
 23 25  2  0  0  0
 25 26  1  0  0  0
 25 27  1  0  0  0
 27 28  1  0  0  0
 27 29  2  0  0  0
 29 30  1  0  0  0
 31 32  1  0  0  0
 31 33  1  0  0  0
M  END
>  <ACTIVITY>
3.55

>  <SET>
1

>  <Min_dist>
999.9

>  <Avg_dist>
999.9

$$$$
44-18
  Cerius2 12110214143D 1   1.00000                          
Structure written by Cerius2 SD Exporter
 37 40  0  0  0  0  0  0  0  0999 V2000
   10.3030    2.6360   13.1480 N   0  0  0  0  0  0
   10.8720    1.8410   12.2200 C   0  0  0  0  0  0
   12.0850    2.0030   11.6710 N   0  0  0  0  0  0
   12.7180    3.0840   12.1510 C   0  0  0  0  0  0
   12.2540    3.9760   13.0960 C   0  0  0  0  0  0
   10.9740    3.7210   13.6110 C   0  0  0  0  0  0
   10.3650    4.5110   14.5570 N   0  0  0  0  0  0
   10.8380    5.3290   14.9240 H   0  0  0  0  0  0
    9.4400    4.2790   14.8930 H   0  0  0  0  0  0
   13.1910    4.9630   13.3360 N   0  0  0  0  0  0
   14.2180    4.6760   12.5480 C   0  0  0  0  0  0
   13.9590    3.5380   11.8100 N   0  0  0  0  0  0
   14.5840    3.1090   11.1420 H   0  0  0  0  0  0
   15.4730    5.4340   12.4270 C   0  0  0  0  0  0
   16.6430    4.8450   12.9310 C   0  0  0  0  0  0
   16.6130    3.8580   13.3910 H   0  0  0  0  0  0
   17.8720    5.4940   12.8390 C   0  0  0  0  0  0
   18.7410    4.9820   13.2450 H   0  0  0  0  0  0
   17.9600    6.7500   12.2410 C   0  0  0  0  0  0
   16.7960    7.3770   11.7240 C   0  0  0  0  0  0
   15.5370    6.7180   11.8160 C   0  0  0  0  0  0
   14.4000    7.3930   11.3020 C   0  0  0  0  0  0
   13.4120    6.9370   11.3570 H   0  0  0  0  0  0
   14.4860    8.6540   10.7100 C   0  0  0  0  0  0
   13.5900    9.1380   10.3260 H   0  0  0  0  0  0
   15.7140    9.2850   10.6170 C   0  0  0  0  0  0
   15.7930   10.2690   10.1570 H   0  0  0  0  0  0
   16.8520    8.6540   11.1180 C   0  0  0  0  0  0
   17.8030    9.1810   11.0320 H   0  0  0  0  0  0
   19.1370    7.4520   12.1130 O   0  0  0  0  0  0
   20.3270    6.8490   12.6180 C   0  0  0  0  0  0
   21.1540    7.5400   12.4310 H   0  0  0  0  0  0
   20.5480    5.9140   12.0940 H   0  0  0  0  0  0
   20.2610    6.6960   13.7000 H   0  0  0  0  0  0
   10.1440    0.7690   11.8000 N   0  0  0  0  0  0
   10.5270    0.1440   11.1070 H   0  0  0  0  0  0
    9.2250    0.6080   12.1860 H   0  0  0  0  0  0
  1  2  2  0  0  0
  1  6  1  0  0  0
  2  3  1  0  0  0
  2 35  1  0  0  0
  3  4  2  0  0  0
  4  5  1  0  0  0
  4 12  1  0  0  0
  5  6  2  0  0  0
  5 10  1  0  0  0
  6  7  1  0  0  0
  7  8  1  0  0  0
  7  9  1  0  0  0
 10 11  2  0  0  0
 11 12  1  0  0  0
 11 14  1  0  0  0
 12 13  1  0  0  0
 14 15  2  0  0  0
 14 21  1  0  0  0
 15 16  1  0  0  0
 15 17  1  0  0  0
 17 18  1  0  0  0
 17 19  2  0  0  0
 19 20  1  0  0  0
 19 30  1  0  0  0
 20 21  2  0  0  0
 20 28  1  0  0  0
 21 22  1  0  0  0
 22 23  1  0  0  0
 22 24  2  0  0  0
 24 25  1  0  0  0
 24 26  1  0  0  0
 26 27  1  0  0  0
 26 28  2  0  0  0
 28 29  1  0  0  0
 30 31  1  0  0  0
 31 32  1  0  0  0
 31 33  1  0  0  0
 31 34  1  0  0  0
 35 36  1  0  0  0
 35 37  1  0  0  0
M  END
>  <ACTIVITY>
4.89

>  <SET>
2

>  <Min_dist>
0.17

>  <Avg_dist>
0.56

$$$$
44-19
  Cerius2 12110214143D 1   1.00000                          
Structure written by Cerius2 SD Exporter
 38 42  0  0  0  0  0  0  0  0999 V2000
   13.1300    4.9900   13.5020 N   0  0  0  0  0  0
   14.2330    4.6820   12.7290 C   0  0  0  0  0  0
   14.0710    3.6290   11.9760 N   0  0  0  0  0  0
   14.7380    3.3540   11.4380 H   0  0  0  0  0  0
   12.8020    3.1940   12.2410 C   0  0  0  0  0  0
   12.2390    2.1190   11.6620 N   0  0  0  0  0  0
   10.9980    1.8640   12.0560 C   0  0  0  0  0  0
   10.2850    2.5920   12.9740 N   0  0  0  0  0  0
   10.8760    3.6570   13.5310 C   0  0  0  0  0  0
   12.1870    4.0110   13.1810 C   0  0  0  0  0  0
   10.2000    4.4120   14.4520 N   0  0  0  0  0  0
   10.6020    5.2120   14.8920 H   0  0  0  0  0  0
    9.2630    4.1420   14.6900 H   0  0  0  0  0  0
   10.3660    0.8020   11.5210 N   0  0  0  0  0  0
    9.4300    0.5860   11.8000 H   0  0  0  0  0  0
   10.8400    0.2360   10.8460 H   0  0  0  0  0  0
   15.4830    5.5200   12.7910 C   0  0  0  0  0  0
   15.7110    5.7480   13.8460 H   0  0  0  0  0  0
   16.7030    4.8840   12.1540 C   0  0  0  0  0  0
   17.2860    3.6710   12.3960 C   0  0  0  0  0  0
   16.8610    2.9670   13.1400 H   0  0  0  0  0  0
   18.4550    3.2880   11.6770 C   0  0  0  0  0  0
   18.9110    2.3000   11.8830 H   0  0  0  0  0  0
   19.0230    4.1230   10.7330 C   0  0  0  0  0  0
   19.9320    3.8050   10.1870 H   0  0  0  0  0  0
   18.4380    5.3920   10.4500 C   0  0  0  0  0  0
   18.8930    6.0530    9.6850 H   0  0  0  0  0  0
   17.3210    5.7490   11.1350 C   0  0  0  0  0  0
   16.5160    6.9570   11.0480 C   0  0  0  0  0  0
   16.6670    8.0510   10.2570 C   0  0  0  0  0  0
   17.5020    8.1410    9.5340 H   0  0  0  0  0  0
   15.7090    9.1000   10.3720 C   0  0  0  0  0  0
   15.8060   10.0020    9.7380 H   0  0  0  0  0  0
   14.6580    8.9900   11.2630 C   0  0  0  0  0  0
   13.9130    9.8060   11.3380 H   0  0  0  0  0  0
   14.5080    7.8420   12.0930 C   0  0  0  0  0  0
   13.6470    7.7930   12.7900 H   0  0  0  0  0  0
   15.4140    6.8210   12.0140 C   0  0  0  0  0  0
  1  2  2  0  0  0
  1 10  1  0  0  0
  2  3  1  0  0  0
  2 17  1  0  0  0
  3  4  1  0  0  0
  3  5  1  0  0  0
  5  6  2  0  0  0
  5 10  1  0  0  0
  6  7  1  0  0  0
  7  8  2  0  0  0
  7 14  1  0  0  0
  8  9  1  0  0  0
  9 10  2  0  0  0
  9 11  1  0  0  0
 11 12  1  0  0  0
 11 13  1  0  0  0
 14 15  1  0  0  0
 14 16  1  0  0  0
 17 18  1  0  0  0
 17 19  1  0  0  0
 17 38  1  0  0  0
 19 20  1  0  0  0
 19 28  2  0  0  0
 20 21  1  0  0  0
 20 22  2  0  0  0
 22 23  1  0  0  0
 22 24  1  0  0  0
 24 25  1  0  0  0
 24 26  2  0  0  0
 26 27  1  0  0  0
 26 28  1  0  0  0
 28 29  1  0  0  0
 29 30  1  0  0  0
 29 38  2  0  0  0
 30 31  1  0  0  0
 30 32  2  0  0  0
 32 33  1  0  0  0
 32 34  1  0  0  0
 34 35  1  0  0  0
 34 36  2  0  0  0
 36 37  1  0  0  0
 36 38  1  0  0  0
M  END
>  <ACTIVITY>
4.53

>  <SET>
2

>  <Min_dist>
0.31

>  <Avg_dist>
0.66

$$$$
44-2
  Cerius2 12110214143D 1   1.00000                          
Structure written by Cerius2 SD Exporter
 27 29  0  0  0  0  0  0  0  0999 V2000
   10.2630    2.6570   13.0280 N   0  0  0  0  0  0
   10.8720    1.8730   12.1170 C   0  0  0  0  0  0
   12.1180    2.0260   11.6440 N   0  0  0  0  0  0
   12.7390    3.0830   12.1850 C   0  0  0  0  0  0
   12.2360    3.9620   13.1210 C   0  0  0  0  0  0
   10.9240    3.7190   13.5540 C   0  0  0  0  0  0
   10.2740    4.4990   14.4810 N   0  0  0  0  0  0
   10.7380    5.3010   14.8940 H   0  0  0  0  0  0
    9.3260    4.2770   14.7570 H   0  0  0  0  0  0
   13.1740    4.9240   13.4360 N   0  0  0  0  0  0
   14.2450    4.6420   12.7020 C   0  0  0  0  0  0
   14.0070    3.5220   11.9290 N   0  0  0  0  0  0
   14.6510    3.0910   11.2820 H   0  0  0  0  0  0
   15.5060    5.4000   12.7020 C   0  0  0  0  0  0
   16.6000    5.0460   11.8970 C   0  0  0  0  0  0
   16.5610    4.1860   11.2320 H   0  0  0  0  0  0
   17.7820    5.7940   11.9260 C   0  0  0  0  0  0
   18.6210    5.5050   11.2950 H   0  0  0  0  0  0
   17.8900    6.9050   12.7580 C   0  0  0  0  0  0
   18.8100    7.4850   12.7790 H   0  0  0  0  0  0
   16.8150    7.2710   13.5640 C   0  0  0  0  0  0
   16.8930    8.1390   14.2160 H   0  0  0  0  0  0
   15.6340    6.5240   13.5340 C   0  0  0  0  0  0
   14.8060    6.8290   14.1730 H   0  0  0  0  0  0
   10.1520    0.8240   11.6300 N   0  0  0  0  0  0
   10.5650    0.2090   10.9450 H   0  0  0  0  0  0
    9.2090    0.6710   11.9570 H   0  0  0  0  0  0
  1  2  2  0  0  0
  1  6  1  0  0  0
  2  3  1  0  0  0
  2 25  1  0  0  0
  3  4  2  0  0  0
  4  5  1  0  0  0
  4 12  1  0  0  0
  5  6  2  0  0  0
  5 10  1  0  0  0
  6  7  1  0  0  0
  7  8  1  0  0  0
  7  9  1  0  0  0
 10 11  2  0  0  0
 11 12  1  0  0  0
 11 14  1  0  0  0
 12 13  1  0  0  0
 14 15  1  0  0  0
 14 23  2  0  0  0
 15 16  1  0  0  0
 15 17  2  0  0  0
 17 18  1  0  0  0
 17 19  1  0  0  0
 19 20  1  0  0  0
 19 21  2  0  0  0
 21 22  1  0  0  0
 21 23  1  0  0  0
 23 24  1  0  0  0
 25 26  1  0  0  0
 25 27  1  0  0  0
M  END
>  <ACTIVITY>
4.22

>  <SET>
1

>  <Min_dist>
999.9

>  <Avg_dist>
999.9

$$$$
44-20
  Cerius2 12110214143D 1   1.00000                          
Structure written by Cerius2 SD Exporter
 30 32  0  0  0  0  0  0  0  0999 V2000
   10.2340    2.6360   13.0230 N   0  0  0  0  0  0
   10.8260    1.8480   12.1220 C   0  0  0  0  0  0
   12.0590    1.9980   11.6570 N   0  0  0  0  0  0
   12.7020    3.0560   12.1760 C   0  0  0  0  0  0
   12.2110    3.9570   13.1040 C   0  0  0  0  0  0
   10.8960    3.6950   13.5380 C   0  0  0  0  0  0
   10.2130    4.4360   14.4690 N   0  0  0  0  0  0
   10.6170    5.2220   14.9570 H   0  0  0  0  0  0
    9.2750    4.1500   14.7230 H   0  0  0  0  0  0
   13.3110    4.9740   13.4280 N   0  0  0  0  0  0
   14.3960    4.7560   12.7240 C   0  0  0  0  0  0
   14.0580    3.5730   11.9440 N   0  0  0  0  0  0
   14.6840    3.1170   11.2730 H   0  0  0  0  0  0
   15.6880    5.5400   12.7680 C   0  0  0  0  0  0
   16.5010    4.8910   12.4210 H   0  0  0  0  0  0
   15.9550    5.8120   13.7980 H   0  0  0  0  0  0
   15.6450    6.8130   11.9440 C   0  0  0  0  0  0
   16.8150    7.3200   11.3440 C   0  0  0  0  0  0
   17.7410    6.7660   11.4810 H   0  0  0  0  0  0
   16.7900    8.5020   10.5950 C   0  0  0  0  0  0
   17.7170    8.9030   10.1430 H   0  0  0  0  0  0
   15.5720    9.1810   10.4430 C   0  0  0  0  0  0
   15.5340   10.1220    9.8600 H   0  0  0  0  0  0
   14.3960    8.6550   10.9880 C   0  0  0  0  0  0
   13.4350    9.1860   10.8410 H   0  0  0  0  0  0
   14.4320    7.4910   11.7540 C   0  0  0  0  0  0
   13.5130    7.1140   12.1990 H   0  0  0  0  0  0
   10.0980    0.8010   11.6420 N   0  0  0  0  0  0
   10.5020    0.1820   10.9550 H   0  0  0  0  0  0
    9.1540    0.6600   11.9700 H   0  0  0  0  0  0
  1  2  2  0  0  0
  1  6  1  0  0  0
  2  3  1  0  0  0
  2 28  1  0  0  0
  3  4  2  0  0  0
  4  5  1  0  0  0
  4 12  1  0  0  0
  5  6  2  0  0  0
  5 10  1  0  0  0
  6  7  1  0  0  0
  7  8  1  0  0  0
  7  9  1  0  0  0
 10 11  2  0  0  0
 11 12  1  0  0  0
 11 14  1  0  0  0
 12 13  1  0  0  0
 14 15  1  0  0  0
 14 16  1  0  0  0
 14 17  1  0  0  0
 17 18  1  0  0  0
 17 26  2  0  0  0
 18 19  1  0  0  0
 18 20  2  0  0  0
 20 21  1  0  0  0
 20 22  1  0  0  0
 22 23  1  0  0  0
 22 24  2  0  0  0
 24 25  1  0  0  0
 24 26  1  0  0  0
 26 27  1  0  0  0
 28 29  1  0  0  0
 28 30  1  0  0  0
M  END
>  <ACTIVITY>
5.8

>  <SET>
2

>  <Min_dist>
0.2

>  <Avg_dist>
0.6

$$$$
44-21
  Cerius2 12110214143D 1   1.00000                          
Structure written by Cerius2 SD Exporter
 44 46  0  0  0  0  0  0  0  0999 V2000
   10.3910    2.8130   13.1520 N   0  0  0  0  0  0
   10.7610    2.0460   12.1080 C   0  0  0  0  0  0
   11.9750    2.0130   11.5380 N   0  0  0  0  0  0
   12.8370    2.8520   12.1300 C   0  0  0  0  0  0
   12.5920    3.6870   13.2030 C   0  0  0  0  0  0
   11.2900    3.6520   13.7270 C   0  0  0  0  0  0
   10.8790    4.4210   14.7900 N   0  0  0  0  0  0
   11.5230    5.0630   15.2390 H   0  0  0  0  0  0
    9.9260    4.3580   15.1230 H   0  0  0  0  0  0
   13.7280    4.4020   13.5360 N   0  0  0  0  0  0
   14.6530    4.0020   12.6720 C   0  0  0  0  0  0
   14.1460    3.0620   11.8010 N   0  0  0  0  0  0
   14.6490    2.6050   11.0520 H   0  0  0  0  0  0
   16.0840    4.4590   12.5820 C   0  0  0  0  0  0
   16.4660    4.1870   11.5910 H   0  0  0  0  0  0
   16.6680    3.9170   13.3360 H   0  0  0  0  0  0
   16.2470    5.8940   12.7870 N   0  0  0  0  0  0
   16.5570    6.1550   13.7230 H   0  0  0  0  0  0
   15.9520    6.8750   11.8640 C   0  0  0  0  0  0
   16.9330    7.6430   11.2200 C   0  0  0  0  0  0
   17.9770    7.4550   11.4510 H   0  0  0  0  0  0
   16.5910    8.6360   10.2950 C   0  0  0  0  0  0
   15.2360    8.8550   10.0070 C   0  0  0  0  0  0
   14.2290    8.1270   10.6560 C   0  0  0  0  0  0
   14.6030    7.1390   11.5720 C   0  0  0  0  0  0
   13.8490    6.5480   12.0880 H   0  0  0  0  0  0
   12.9380    8.4540   10.3320 O   0  0  0  0  0  0
   12.7460    9.3200    9.2150 C   0  0  0  0  0  0
   11.6690    9.4680    9.0900 H   0  0  0  0  0  0
   13.1290    8.8660    8.2950 H   0  0  0  0  0  0
   13.1990   10.3000    9.3960 H   0  0  0  0  0  0
   14.8870    9.8540    9.1220 O   0  0  0  0  0  0
   16.0660   10.3980    8.5170 C   0  0  0  0  0  0
   15.7540   11.2050    7.8470 H   0  0  0  0  0  0
   16.5890    9.6440    7.9200 H   0  0  0  0  0  0
   16.7390   10.8230    9.2690 H   0  0  0  0  0  0
   17.4860    9.4360    9.6310 O   0  0  0  0  0  0
   18.8740    9.1930    9.8540 C   0  0  0  0  0  0
   19.4380    9.9040    9.2430 H   0  0  0  0  0  0
   19.1530    8.1840    9.5340 H   0  0  0  0  0  0
   19.1400    9.3680   10.9020 H   0  0  0  0  0  0
    9.8100    1.2260   11.5820 N   0  0  0  0  0  0
   10.0400    0.6330   10.7980 H   0  0  0  0  0  0
    8.8830    1.2150   11.9800 H   0  0  0  0  0  0
  1  2  2  0  0  0
  1  6  1  0  0  0
  2  3  1  0  0  0
  2 42  1  0  0  0
  3  4  2  0  0  0
  4  5  1  0  0  0
  4 12  1  0  0  0
  5  6  2  0  0  0
  5 10  1  0  0  0
  6  7  1  0  0  0
  7  8  1  0  0  0
  7  9  1  0  0  0
 10 11  2  0  0  0
 11 12  1  0  0  0
 11 14  1  0  0  0
 12 13  1  0  0  0
 14 15  1  0  0  0
 14 16  1  0  0  0
 14 17  1  0  0  0
 17 18  1  0  0  0
 17 19  1  0  0  0
 19 20  1  0  0  0
 19 25  2  0  0  0
 20 21  1  0  0  0
 20 22  2  0  0  0
 22 23  1  0  0  0
 22 37  1  0  0  0
 23 24  2  0  0  0
 23 32  1  0  0  0
 24 25  1  0  0  0
 24 27  1  0  0  0
 25 26  1  0  0  0
 27 28  1  0  0  0
 28 29  1  0  0  0
 28 30  1  0  0  0
 28 31  1  0  0  0
 32 33  1  0  0  0
 33 34  1  0  0  0
 33 35  1  0  0  0
 33 36  1  0  0  0
 37 38  1  0  0  0
 38 39  1  0  0  0
 38 40  1  0  0  0
 38 41  1  0  0  0
 42 43  1  0  0  0
 42 44  1  0  0  0
M  END
>  <ACTIVITY>
4.47

>  <SET>
2

>  <Min_dist>
0.14

>  <Avg_dist>
0.5

$$$$
44-22
  Cerius2 12110214143D 1   1.00000                          
Structure written by Cerius2 SD Exporter
 40 42  0  0  0  0  0  0  0  0999 V2000
   10.4170    2.8250   13.1630 N   0  0  0  0  0  0
   10.7760    2.0570   12.1160 C   0  0  0  0  0  0
   11.9830    2.0220   11.5330 N   0  0  0  0  0  0
   12.8510    2.8650   12.1120 C   0  0  0  0  0  0
   12.6160    3.7040   13.1840 C   0  0  0  0  0  0
   11.3210    3.6670   13.7250 C   0  0  0  0  0  0
   10.9220    4.4360   14.7930 N   0  0  0  0  0  0
   11.5730    5.0740   15.2380 H   0  0  0  0  0  0
    9.9760    4.3660   15.1440 H   0  0  0  0  0  0
   13.7530    4.4250   13.4990 N   0  0  0  0  0  0
   14.6700    4.0240   12.6260 C   0  0  0  0  0  0
   14.1560    3.0750   11.7680 N   0  0  0  0  0  0
   14.6520    2.6160   11.0170 H   0  0  0  0  0  0
   16.0970    4.4860   12.5140 C   0  0  0  0  0  0
   16.4650    4.2240   11.5150 H   0  0  0  0  0  0
   16.6910    3.9330   13.2520 H   0  0  0  0  0  0
   16.2630    5.9140   12.7290 N   0  0  0  0  0  0
   16.6980    6.1860   13.6120 H   0  0  0  0  0  0
   15.9170    6.9190   11.8440 C   0  0  0  0  0  0
   14.5830    7.2390   11.5530 C   0  0  0  0  0  0
   13.7700    6.6900   12.0240 H   0  0  0  0  0  0
   14.2480    8.2620   10.6570 C   0  0  0  0  0  0
   15.2640    8.9840   10.0370 C   0  0  0  0  0  0
   15.0550    9.7860    9.3340 H   0  0  0  0  0  0
   16.6030    8.6870   10.3100 C   0  0  0  0  0  0
   17.3610    9.2770    9.8030 H   0  0  0  0  0  0
   16.9350    7.6650   11.2050 C   0  0  0  0  0  0
   18.2220    7.3050   11.5340 O   0  0  0  0  0  0
   19.2800    8.0330   10.9150 C   0  0  0  0  0  0
   20.2250    7.6220   11.2840 H   0  0  0  0  0  0
   19.2460    9.0910   11.1920 H   0  0  0  0  0  0
   19.2630    7.9030    9.8280 H   0  0  0  0  0  0
   12.9050    8.4510   10.4780 O   0  0  0  0  0  0
   12.5160    9.4840    9.5730 C   0  0  0  0  0  0
   11.4220    9.5050    9.5440 H   0  0  0  0  0  0
   12.8730    9.2730    8.5590 H   0  0  0  0  0  0
   12.8600   10.4630    9.9220 H   0  0  0  0  0  0
    9.8180    1.2370   11.6010 N   0  0  0  0  0  0
   10.0390    0.6430   10.8150 H   0  0  0  0  0  0
    8.8940    1.2310   12.0070 H   0  0  0  0  0  0
  1  2  2  0  0  0
  1  6  1  0  0  0
  2  3  1  0  0  0
  2 38  1  0  0  0
  3  4  2  0  0  0
  4  5  1  0  0  0
  4 12  1  0  0  0
  5  6  2  0  0  0
  5 10  1  0  0  0
  6  7  1  0  0  0
  7  8  1  0  0  0
  7  9  1  0  0  0
 10 11  2  0  0  0
 11 12  1  0  0  0
 11 14  1  0  0  0
 12 13  1  0  0  0
 14 15  1  0  0  0
 14 16  1  0  0  0
 14 17  1  0  0  0
 17 18  1  0  0  0
 17 19  1  0  0  0
 19 20  1  0  0  0
 19 27  2  0  0  0
 20 21  1  0  0  0
 20 22  2  0  0  0
 22 23  1  0  0  0
 22 33  1  0  0  0
 23 24  1  0  0  0
 23 25  2  0  0  0
 25 26  1  0  0  0
 25 27  1  0  0  0
 27 28  1  0  0  0
 28 29  1  0  0  0
 29 30  1  0  0  0
 29 31  1  0  0  0
 29 32  1  0  0  0
 33 34  1  0  0  0
 34 35  1  0  0  0
 34 36  1  0  0  0
 34 37  1  0  0  0
 38 39  1  0  0  0
 38 40  1  0  0  0
M  END
>  <ACTIVITY>
4.54

>  <SET>
1

>  <Min_dist>
999.9

>  <Avg_dist>
999.9

$$$$
44-23
  Cerius2 12110214143D 1   1.00000                          
Structure written by Cerius2 SD Exporter
 37 40  0  0  0  0  0  0  0  0999 V2000
   10.3910    2.8270   13.1770 N   0  0  0  0  0  0
   10.7130    2.0420   12.1300 C   0  0  0  0  0  0
   11.9080    1.9770   11.5240 N   0  0  0  0  0  0
   12.8040    2.8060   12.0780 C   0  0  0  0  0  0
   12.6090    3.6590   13.1480 C   0  0  0  0  0  0
   11.3240    3.6540   13.7140 C   0  0  0  0  0  0
   10.9630    4.4400   14.7830 N   0  0  0  0  0  0
   11.6350    5.0690   15.2070 H   0  0  0  0  0  0
   10.0210    4.3950   15.1510 H   0  0  0  0  0  0
   13.7680    4.3550   13.4360 N   0  0  0  0  0  0
   14.6560    3.9360   12.5460 C   0  0  0  0  0  0
   14.1060    2.9880   11.7070 N   0  0  0  0  0  0
   14.5770    2.5160   10.9470 H   0  0  0  0  0  0
   16.0800    4.3700   12.4120 C   0  0  0  0  0  0
   16.3390    4.4870   11.3550 H   0  0  0  0  0  0
   16.7350    3.6040   12.8410 H   0  0  0  0  0  0
   16.3430    5.9500   13.2980 S   0  0  0  0  0  0
   15.9310    7.0960   11.9940 C   0  0  0  0  0  0
   14.6070    7.3110   11.6070 C   0  0  0  0  0  0
   13.7900    6.7820   12.0930 H   0  0  0  0  0  0
   14.3080    8.2230   10.5910 C   0  0  0  0  0  0
   13.2660    8.3690   10.3070 H   0  0  0  0  0  0
   15.3270    8.9410    9.9490 C   0  0  0  0  0  0
   16.6690    8.7380   10.3450 C   0  0  0  0  0  0
   16.9540    7.8180   11.3700 C   0  0  0  0  0  0
   17.9880    7.6620   11.6770 H   0  0  0  0  0  0
   17.6890    9.4600    9.7040 C   0  0  0  0  0  0
   18.7300    9.3210    9.9940 H   0  0  0  0  0  0
   17.3900   10.3680    8.6870 C   0  0  0  0  0  0
   18.1920   10.9200    8.1980 H   0  0  0  0  0  0
   16.0690   10.5660    8.2970 C   0  0  0  0  0  0
   15.8350   11.2740    7.5030 H   0  0  0  0  0  0
   15.0430    9.8580    8.9240 C   0  0  0  0  0  0
   14.0150   10.0280    8.6050 H   0  0  0  0  0  0
    9.7290    1.2380   11.6410 N   0  0  0  0  0  0
    9.9210    0.6330   10.8560 H   0  0  0  0  0  0
    8.8130    1.2560   12.0650 H   0  0  0  0  0  0
  1  2  2  0  0  0
  1  6  1  0  0  0
  2  3  1  0  0  0
  2 35  1  0  0  0
  3  4  2  0  0  0
  4  5  1  0  0  0
  4 12  1  0  0  0
  5  6  2  0  0  0
  5 10  1  0  0  0
  6  7  1  0  0  0
  7  8  1  0  0  0
  7  9  1  0  0  0
 10 11  2  0  0  0
 11 12  1  0  0  0
 11 14  1  0  0  0
 12 13  1  0  0  0
 14 15  1  0  0  0
 14 16  1  0  0  0
 14 17  1  0  0  0
 17 18  1  0  0  0
 18 19  1  0  0  0
 18 25  2  0  0  0
 19 20  1  0  0  0
 19 21  2  0  0  0
 21 22  1  0  0  0
 21 23  1  0  0  0
 23 24  2  0  0  0
 23 33  1  0  0  0
 24 25  1  0  0  0
 24 27  1  0  0  0
 25 26  1  0  0  0
 27 28  1  0  0  0
 27 29  2  0  0  0
 29 30  1  0  0  0
 29 31  1  0  0  0
 31 32  1  0  0  0
 31 33  2  0  0  0
 33 34  1  0  0  0
 35 36  1  0  0  0
 35 37  1  0  0  0
M  END
>  <ACTIVITY>
3.97

>  <SET>
2

>  <Min_dist>
0.21

>  <Avg_dist>
0.57

$$$$
44-3
  Cerius2 12110214143D 1   1.00000                          
Structure written by Cerius2 SD Exporter
 39 41  0  0  0  0  0  0  0  0999 V2000
   10.2630    2.6570   13.0270 N   0  0  0  0  0  0
   10.8720    1.8730   12.1170 C   0  0  0  0  0  0
   12.1180    2.0260   11.6430 N   0  0  0  0  0  0
   12.7390    3.0830   12.1840 C   0  0  0  0  0  0
   12.2360    3.9620   13.1210 C   0  0  0  0  0  0
   10.9230    3.7200   13.5530 C   0  0  0  0  0  0
   10.2740    4.5000   14.4810 N   0  0  0  0  0  0
   10.7390    5.3010   14.8940 H   0  0  0  0  0  0
    9.3260    4.2780   14.7560 H   0  0  0  0  0  0
   13.1750    4.9230   13.4380 N   0  0  0  0  0  0
   14.2450    4.6420   12.7030 C   0  0  0  0  0  0
   14.0070    3.5220   11.9280 N   0  0  0  0  0  0
   14.6530    3.0870   11.2870 H   0  0  0  0  0  0
   15.5060    5.3990   12.7090 C   0  0  0  0  0  0
   16.5490    5.1240   11.8140 C   0  0  0  0  0  0
   16.4670    4.3350   11.0720 H   0  0  0  0  0  0
   17.7240    5.8780   11.8520 C   0  0  0  0  0  0
   17.8950    6.8790   12.8130 C   0  0  0  0  0  0
   16.8570    7.1900   13.7010 C   0  0  0  0  0  0
   15.6740    6.4440   13.6420 C   0  0  0  0  0  0
   14.8520    6.6530   14.3240 H   0  0  0  0  0  0
   17.0990    8.2180   14.5760 O   0  0  0  0  0  0
   18.3670    8.8640   14.4890 C   0  0  0  0  0  0
   18.3950    9.6450   15.2540 H   0  0  0  0  0  0
   18.4970    9.3460   13.5140 H   0  0  0  0  0  0
   19.1810    8.1620   14.6990 H   0  0  0  0  0  0
   19.0630    7.6050   12.8400 O   0  0  0  0  0  0
   19.9660    7.1050   11.8480 C   0  0  0  0  0  0
   20.8870    7.6930   11.9100 H   0  0  0  0  0  0
   19.5550    7.2250   10.8400 H   0  0  0  0  0  0
   20.2200    6.0560   12.0340 H   0  0  0  0  0  0
   18.7280    5.5610   10.9730 O   0  0  0  0  0  0
   18.3000    4.5100   10.1000 C   0  0  0  0  0  0
   19.1340    4.2710    9.4330 H   0  0  0  0  0  0
   17.4510    4.8260    9.4830 H   0  0  0  0  0  0
   18.0460    3.6070   10.6650 H   0  0  0  0  0  0
   10.1520    0.8230   11.6310 N   0  0  0  0  0  0
   10.5660    0.2060   10.9490 H   0  0  0  0  0  0
    9.2110    0.6690   11.9610 H   0  0  0  0  0  0
  1  2  2  0  0  0
  1  6  1  0  0  0
  2  3  1  0  0  0
  2 37  1  0  0  0
  3  4  2  0  0  0
  4  5  1  0  0  0
  4 12  1  0  0  0
  5  6  2  0  0  0
  5 10  1  0  0  0
  6  7  1  0  0  0
  7  8  1  0  0  0
  7  9  1  0  0  0
 10 11  2  0  0  0
 11 12  1  0  0  0
 11 14  1  0  0  0
 12 13  1  0  0  0
 14 15  1  0  0  0
 14 20  2  0  0  0
 15 16  1  0  0  0
 15 17  2  0  0  0
 17 18  1  0  0  0
 17 32  1  0  0  0
 18 19  2  0  0  0
 18 27  1  0  0  0
 19 20  1  0  0  0
 19 22  1  0  0  0
 20 21  1  0  0  0
 22 23  1  0  0  0
 23 24  1  0  0  0
 23 25  1  0  0  0
 23 26  1  0  0  0
 27 28  1  0  0  0
 28 29  1  0  0  0
 28 30  1  0  0  0
 28 31  1  0  0  0
 32 33  1  0  0  0
 33 34  1  0  0  0
 33 35  1  0  0  0
 33 36  1  0  0  0
 37 38  1  0  0  0
 37 39  1  0  0  0
M  END
>  <ACTIVITY>
4.89

>  <SET>
1

>  <Min_dist>
999.9

>  <Avg_dist>
999.9

$$$$
44-6
  Cerius2 12110214143D 1   1.00000                          
Structure written by Cerius2 SD Exporter
 39 41  0  0  0  0  0  0  0  0999 V2000
   10.2640    2.6570   13.0280 N   0  0  0  0  0  0
   10.8730    1.8730   12.1170 C   0  0  0  0  0  0
   12.1180    2.0250   11.6430 N   0  0  0  0  0  0
   12.7390    3.0830   12.1840 C   0  0  0  0  0  0
   12.2370    3.9630   13.1200 C   0  0  0  0  0  0
   10.9240    3.7200   13.5540 C   0  0  0  0  0  0
   10.2740    4.5000   14.4810 N   0  0  0  0  0  0
   10.7390    5.3010   14.8930 H   0  0  0  0  0  0
    9.3270    4.2780   14.7570 H   0  0  0  0  0  0
   13.1740    4.9250   13.4370 N   0  0  0  0  0  0
   14.2430    4.6400   12.7050 C   0  0  0  0  0  0
   14.0060    3.5220   11.9270 N   0  0  0  0  0  0
   14.6610    3.0900   11.2910 H   0  0  0  0  0  0
   15.5140    5.3760   12.6860 C   0  0  0  0  0  0
   16.5510    4.9650   11.8310 C   0  0  0  0  0  0
   16.4180    4.1110   11.1690 H   0  0  0  0  0  0
   17.7620    5.6640   11.7870 C   0  0  0  0  0  0
   17.9860    6.7480   12.6410 C   0  0  0  0  0  0
   16.9570    7.1860   13.4720 C   0  0  0  0  0  0
   17.1230    8.0340   14.1320 H   0  0  0  0  0  0
   15.7270    6.5140   13.4860 C   0  0  0  0  0  0
   14.7640    6.9220   14.3770 O   0  0  0  0  0  0
   15.0960    8.0190   15.2360 C   0  0  0  0  0  0
   14.1710    8.3630   15.7080 H   0  0  0  0  0  0
   15.5220    8.8570   14.6730 H   0  0  0  0  0  0
   15.7820    7.6990   16.0270 H   0  0  0  0  0  0
   19.1480    7.4710   12.6940 O   0  0  0  0  0  0
   20.1660    6.9740   11.8200 C   0  0  0  0  0  0
   21.1340    7.2260   12.2640 H   0  0  0  0  0  0
   20.1060    7.4730   10.8480 H   0  0  0  0  0  0
   20.1230    5.8860   11.7020 H   0  0  0  0  0  0
   18.7180    5.2190   10.9120 O   0  0  0  0  0  0
   18.2150    4.1020   10.1680 C   0  0  0  0  0  0
   19.0140    3.7590    9.5030 H   0  0  0  0  0  0
   17.3590    4.3890    9.5490 H   0  0  0  0  0  0
   17.9470    3.2740   10.8330 H   0  0  0  0  0  0
   10.1520    0.8240   11.6310 N   0  0  0  0  0  0
   10.5650    0.2070   10.9470 H   0  0  0  0  0  0
    9.2100    0.6700   11.9590 H   0  0  0  0  0  0
  1  2  2  0  0  0
  1  6  1  0  0  0
  2  3  1  0  0  0
  2 37  1  0  0  0
  3  4  2  0  0  0
  4  5  1  0  0  0
  4 12  1  0  0  0
  5  6  2  0  0  0
  5 10  1  0  0  0
  6  7  1  0  0  0
  7  8  1  0  0  0
  7  9  1  0  0  0
 10 11  2  0  0  0
 11 12  1  0  0  0
 11 14  1  0  0  0
 12 13  1  0  0  0
 14 15  1  0  0  0
 14 21  2  0  0  0
 15 16  1  0  0  0
 15 17  2  0  0  0
 17 18  1  0  0  0
 17 32  1  0  0  0
 18 19  2  0  0  0
 18 27  1  0  0  0
 19 20  1  0  0  0
 19 21  1  0  0  0
 21 22  1  0  0  0
 22 23  1  0  0  0
 23 24  1  0  0  0
 23 25  1  0  0  0
 23 26  1  0  0  0
 27 28  1  0  0  0
 28 29  1  0  0  0
 28 30  1  0  0  0
 28 31  1  0  0  0
 32 33  1  0  0  0
 33 34  1  0  0  0
 33 35  1  0  0  0
 33 36  1  0  0  0
 37 38  1  0  0  0
 37 39  1  0  0  0
M  END
>  <ACTIVITY>
5.15

>  <SET>
1

>  <Min_dist>
999.9

>  <Avg_dist>
999.9

$$$$
44-7
  Cerius2 12110214143D 1   1.00000                          
Structure written by Cerius2 SD Exporter
 35 37  0  0  0  0  0  0  0  0999 V2000
   10.2640    2.6570   13.0280 N   0  0  0  0  0  0
   10.8730    1.8730   12.1170 C   0  0  0  0  0  0
   12.1180    2.0250   11.6440 N   0  0  0  0  0  0
   12.7400    3.0830   12.1840 C   0  0  0  0  0  0
   12.2370    3.9630   13.1210 C   0  0  0  0  0  0
   10.9240    3.7190   13.5540 C   0  0  0  0  0  0
   10.2740    4.5000   14.4810 N   0  0  0  0  0  0
   10.7380    5.3010   14.8930 H   0  0  0  0  0  0
    9.3260    4.2770   14.7570 H   0  0  0  0  0  0
   13.1740    4.9260   13.4370 N   0  0  0  0  0  0
   14.2430    4.6410   12.7040 C   0  0  0  0  0  0
   14.0070    3.5220   11.9280 N   0  0  0  0  0  0
   14.6610    3.0900   11.2910 H   0  0  0  0  0  0
   15.5140    5.3780   12.6830 C   0  0  0  0  0  0
   16.5530    4.9630   11.8310 C   0  0  0  0  0  0
   16.4160    4.1010   11.1790 H   0  0  0  0  0  0
   17.7750    5.6460   11.7800 C   0  0  0  0  0  0
   17.9720    6.7590   12.5950 C   0  0  0  0  0  0
   18.9060    7.3130   12.6000 H   0  0  0  0  0  0
   16.9530    7.1880   13.4480 C   0  0  0  0  0  0
   17.1290    8.0430   14.0970 H   0  0  0  0  0  0
   15.7260    6.5150   13.4790 C   0  0  0  0  0  0
   14.7690    6.9230   14.3750 O   0  0  0  0  0  0
   15.1950    8.0970   15.0750 C   0  0  0  0  0  0
   14.3230    8.5110   15.5900 H   0  0  0  0  0  0
   15.5790    8.8590   14.3880 H   0  0  0  0  0  0
   15.9470    7.8470   15.8310 H   0  0  0  0  0  0
   18.6850    5.1250   10.9010 O   0  0  0  0  0  0
   18.2780    3.9760   10.1600 C   0  0  0  0  0  0
   19.1130    3.6810    9.5180 H   0  0  0  0  0  0
   17.4250    4.2070    9.5140 H   0  0  0  0  0  0
   18.0560    3.1360   10.8270 H   0  0  0  0  0  0
   10.1510    0.8240   11.6300 N   0  0  0  0  0  0
   10.5640    0.2090   10.9440 H   0  0  0  0  0  0
    9.2090    0.6720   11.9580 H   0  0  0  0  0  0
  1  2  2  0  0  0
  1  6  1  0  0  0
  2  3  1  0  0  0
  2 33  1  0  0  0
  3  4  2  0  0  0
  4  5  1  0  0  0
  4 12  1  0  0  0
  5  6  2  0  0  0
  5 10  1  0  0  0
  6  7  1  0  0  0
  7  8  1  0  0  0
  7  9  1  0  0  0
 10 11  2  0  0  0
 11 12  1  0  0  0
 11 14  1  0  0  0
 12 13  1  0  0  0
 14 15  1  0  0  0
 14 22  2  0  0  0
 15 16  1  0  0  0
 15 17  2  0  0  0
 17 18  1  0  0  0
 17 28  1  0  0  0
 18 19  1  0  0  0
 18 20  2  0  0  0
 20 21  1  0  0  0
 20 22  1  0  0  0
 22 23  1  0  0  0
 23 24  1  0  0  0
 24 25  1  0  0  0
 24 26  1  0  0  0
 24 27  1  0  0  0
 28 29  1  0  0  0
 29 30  1  0  0  0
 29 31  1  0  0  0
 29 32  1  0  0  0
 33 34  1  0  0  0
 33 35  1  0  0  0
M  END
>  <ACTIVITY>
5.46

>  <SET>
2

>  <Min_dist>
0.11

>  <Avg_dist>
0.57

$$$$
44-8
  Cerius2 12110214143D 1   1.00000                          
Structure written by Cerius2 SD Exporter
 35 37  0  0  0  0  0  0  0  0999 V2000
   10.2630    2.6570   13.0270 N   0  0  0  0  0  0
   10.8720    1.8730   12.1170 C   0  0  0  0  0  0
   12.1180    2.0250   11.6440 N   0  0  0  0  0  0
   12.7390    3.0830   12.1850 C   0  0  0  0  0  0
   12.2360    3.9620   13.1210 C   0  0  0  0  0  0
   10.9240    3.7190   13.5540 C   0  0  0  0  0  0
   10.2740    4.5000   14.4810 N   0  0  0  0  0  0
   10.7380    5.3010   14.8930 H   0  0  0  0  0  0
    9.3260    4.2780   14.7560 H   0  0  0  0  0  0
   13.1750    4.9230   13.4370 N   0  0  0  0  0  0
   14.2450    4.6430   12.7020 C   0  0  0  0  0  0
   14.0070    3.5220   11.9290 N   0  0  0  0  0  0
   14.6520    3.0880   11.2850 H   0  0  0  0  0  0
   15.5050    5.4020   12.7050 C   0  0  0  0  0  0
   16.5630    5.1090   11.8330 C   0  0  0  0  0  0
   16.4840    4.2980   11.1120 H   0  0  0  0  0  0
   17.7490    5.8510   11.8590 C   0  0  0  0  0  0
   17.8820    6.9000   12.7670 C   0  0  0  0  0  0
   18.7890    7.4970   12.8160 H   0  0  0  0  0  0
   16.8410    7.2120   13.6470 C   0  0  0  0  0  0
   15.6610    6.4660   13.6110 C   0  0  0  0  0  0
   14.8380    6.6930   14.2850 H   0  0  0  0  0  0
   17.1000    8.2620   14.4860 O   0  0  0  0  0  0
   18.3750    8.8910   14.3590 C   0  0  0  0  0  0
   18.4170    9.7070   15.0860 H   0  0  0  0  0  0
   18.5020    9.3260   13.3620 H   0  0  0  0  0  0
   19.1830    8.1910   14.5940 H   0  0  0  0  0  0
   18.6920    5.4510   10.9510 O   0  0  0  0  0  0
   18.3510    4.3490   10.1110 C   0  0  0  0  0  0
   19.2020    4.1590    9.4500 H   0  0  0  0  0  0
   17.4870    4.5870    9.4820 H   0  0  0  0  0  0
   18.1780    3.4430   10.7010 H   0  0  0  0  0  0
   10.1510    0.8240   11.6300 N   0  0  0  0  0  0
   10.5640    0.2080   10.9450 H   0  0  0  0  0  0
    9.2090    0.6710   11.9580 H   0  0  0  0  0  0
  1  2  2  0  0  0
  1  6  1  0  0  0
  2  3  1  0  0  0
  2 33  1  0  0  0
  3  4  2  0  0  0
  4  5  1  0  0  0
  4 12  1  0  0  0
  5  6  2  0  0  0
  5 10  1  0  0  0
  6  7  1  0  0  0
  7  8  1  0  0  0
  7  9  1  0  0  0
 10 11  2  0  0  0
 11 12  1  0  0  0
 11 14  1  0  0  0
 12 13  1  0  0  0
 14 15  1  0  0  0
 14 21  2  0  0  0
 15 16  1  0  0  0
 15 17  2  0  0  0
 17 18  1  0  0  0
 17 28  1  0  0  0
 18 19  1  0  0  0
 18 20  2  0  0  0
 20 21  1  0  0  0
 20 23  1  0  0  0
 21 22  1  0  0  0
 23 24  1  0  0  0
 24 25  1  0  0  0
 24 26  1  0  0  0
 24 27  1  0  0  0
 28 29  1  0  0  0
 29 30  1  0  0  0
 29 31  1  0  0  0
 29 32  1  0  0  0
 33 34  1  0  0  0
 33 35  1  0  0  0
M  END
>  <ACTIVITY>
4.49

>  <SET>
1

>  <Min_dist>
999.9

>  <Avg_dist>
999.9

$$$$
44-9
  Cerius2 12110214143D 1   1.00000                          
Structure written by Cerius2 SD Exporter
 35 37  0  0  0  0  0  0  0  0999 V2000
   10.2630    2.6580   13.0270 N   0  0  0  0  0  0
   10.8720    1.8730   12.1160 C   0  0  0  0  0  0
   12.1180    2.0260   11.6430 N   0  0  0  0  0  0
   12.7390    3.0830   12.1840 C   0  0  0  0  0  0
   12.2360    3.9620   13.1210 C   0  0  0  0  0  0
   10.9230    3.7190   13.5530 C   0  0  0  0  0  0
   10.2740    4.4990   14.4810 N   0  0  0  0  0  0
   10.7390    5.2980   14.8970 H   0  0  0  0  0  0
    9.3250    4.2770   14.7560 H   0  0  0  0  0  0
   13.1740    4.9240   13.4370 N   0  0  0  0  0  0
   14.2460    4.6410   12.7040 C   0  0  0  0  0  0
   14.0070    3.5230   11.9280 N   0  0  0  0  0  0
   14.6490    3.0950   11.2780 H   0  0  0  0  0  0
   15.5060    5.3980   12.7080 C   0  0  0  0  0  0
   16.6130    5.0310   11.9300 C   0  0  0  0  0  0
   16.5850    4.1560   11.2840 H   0  0  0  0  0  0
   17.7990    5.7830   11.9510 C   0  0  0  0  0  0
   18.6170    5.4490   11.3180 H   0  0  0  0  0  0
   17.9060    6.9160   12.7570 C   0  0  0  0  0  0
   16.8100    7.2700   13.5540 C   0  0  0  0  0  0
   15.6200    6.5360   13.5190 C   0  0  0  0  0  0
   14.7790    6.8570   14.1320 H   0  0  0  0  0  0
   16.8530    8.3930   14.3440 O   0  0  0  0  0  0
   18.1460    9.0030   14.2480 C   0  0  0  0  0  0
   18.1430    9.8930   14.8830 H   0  0  0  0  0  0
   18.3600    9.3190   13.2210 H   0  0  0  0  0  0
   18.9280    8.3280   14.6110 H   0  0  0  0  0  0
   19.0060    7.7280   12.8420 O   0  0  0  0  0  0
   20.1300    7.3810   12.0360 C   0  0  0  0  0  0
   20.9090    8.1290   12.2130 H   0  0  0  0  0  0
   19.8760    7.4100   10.9710 H   0  0  0  0  0  0
   20.5330    6.4040   12.3230 H   0  0  0  0  0  0
   10.1520    0.8230   11.6320 N   0  0  0  0  0  0
   10.5670    0.2040   10.9510 H   0  0  0  0  0  0
    9.2110    0.6680   11.9630 H   0  0  0  0  0  0
  1  2  2  0  0  0
  1  6  1  0  0  0
  2  3  1  0  0  0
  2 33  1  0  0  0
  3  4  2  0  0  0
  4  5  1  0  0  0
  4 12  1  0  0  0
  5  6  2  0  0  0
  5 10  1  0  0  0
  6  7  1  0  0  0
  7  8  1  0  0  0
  7  9  1  0  0  0
 10 11  2  0  0  0
 11 12  1  0  0  0
 11 14  1  0  0  0
 12 13  1  0  0  0
 14 15  1  0  0  0
 14 21  2  0  0  0
 15 16  1  0  0  0
 15 17  2  0  0  0
 17 18  1  0  0  0
 17 19  1  0  0  0
 19 20  2  0  0  0
 19 28  1  0  0  0
 20 21  1  0  0  0
 20 23  1  0  0  0
 21 22  1  0  0  0
 23 24  1  0  0  0
 24 25  1  0  0  0
 24 26  1  0  0  0
 24 27  1  0  0  0
 28 29  1  0  0  0
 29 30  1  0  0  0
 29 31  1  0  0  0
 29 32  1  0  0  0
 33 34  1  0  0  0
 33 35  1  0  0  0
M  END
>  <ACTIVITY>
4.28

>  <SET>
1

>  <Min_dist>
999.9

>  <Avg_dist>
999.9

$$$$
6-1
  Cerius2 12110214143D 1   1.00000                          
Structure written by Cerius2 SD Exporter
 23 24  0  0  0  0  0  0  0  0999 V2000
   10.1060    2.6200   12.8390 N   0  0  0  0  0  0
   10.7440    1.9350   11.8990 C   0  0  0  0  0  0
   12.0220    2.1130   11.5830 N   0  0  0  0  0  0
   12.7130    3.0410   12.2550 C   0  0  0  0  0  0
   12.1660    3.8390   13.2740 C   0  0  0  0  0  0
   10.8010    3.5540   13.5150 C   0  0  0  0  0  0
   10.0480    4.2160   14.4760 N   0  0  0  0  0  0
   10.3600    4.0660   15.4320 H   0  0  0  0  0  0
    9.9220    5.2100   14.3010 H   0  0  0  0  0  0
   13.0200    4.8060   13.9220 C   0  0  0  0  0  0
   14.3620    4.9310   13.5280 C   0  0  0  0  0  0
   15.0190    5.6560   14.0070 H   0  0  0  0  0  0
   14.8720    4.1300   12.5200 C   0  0  0  0  0  0
   15.9120    4.2260   12.2140 H   0  0  0  0  0  0
   14.0440    3.1990   11.8990 C   0  0  0  0  0  0
   14.4620    2.5770   11.1070 H   0  0  0  0  0  0
   12.5460    5.7150   15.0260 C   0  0  0  0  0  0
   12.2150    5.1320   15.8900 H   0  0  0  0  0  0
   11.7420    6.3670   14.6700 H   0  0  0  0  0  0
   13.3490    6.3720   15.3800 H   0  0  0  0  0  0
   10.0470    0.9890   11.2120 N   0  0  0  0  0  0
   10.5070    0.4530   10.4920 H   0  0  0  0  0  0
    9.0750    0.8300   11.4280 H   0  0  0  0  0  0
  1  2  1  0  0  0
  1  6  2  0  0  0
  2  3  2  0  0  0
  2 21  1  0  0  0
  3  4  1  0  0  0
  4  5  2  0  0  0
  4 15  1  0  0  0
  5  6  1  0  0  0
  5 10  1  0  0  0
  6  7  1  0  0  0
  7  8  1  0  0  0
  7  9  1  0  0  0
 10 11  2  0  0  0
 10 17  1  0  0  0
 11 12  1  0  0  0
 11 13  1  0  0  0
 13 14  1  0  0  0
 13 15  2  0  0  0
 15 16  1  0  0  0
 17 18  1  0  0  0
 17 19  1  0  0  0
 17 20  1  0  0  0
 21 22  1  0  0  0
 21 23  1  0  0  0
M  END
>  <ACTIVITY>
5.13

>  <SET>
1

>  <Min_dist>
999.9

>  <Avg_dist>
999.9

$$$$
6-13
  Cerius2 12110214143D 1   1.00000                          
Structure written by Cerius2 SD Exporter
 24 25  0  0  0  0  0  0  0  0999 V2000
   10.1150    2.6070   12.8620 N   0  0  0  0  0  0
   10.7310    1.9730   11.8720 C   0  0  0  0  0  0
   12.0050    2.1600   11.5460 N   0  0  0  0  0  0
   12.7160    3.0430   12.2560 C   0  0  0  0  0  0
   12.1940    3.7850   13.3280 C   0  0  0  0  0  0
   10.8310    3.4970   13.5750 C   0  0  0  0  0  0
   10.1110    4.0990   14.6040 N   0  0  0  0  0  0
   10.4680    3.8650   15.5290 H   0  0  0  0  0  0
   10.0920    5.1160   14.5320 H   0  0  0  0  0  0
   13.0680    4.7030   14.0100 C   0  0  0  0  0  0
   14.4000    4.8530   13.5970 C   0  0  0  0  0  0
   15.0670    5.5560   14.0940 H   0  0  0  0  0  0
   14.8880    4.1050   12.5390 C   0  0  0  0  0  0
   15.9210    4.2150   12.2170 H   0  0  0  0  0  0
   14.0430    3.2120   11.8850 C   0  0  0  0  0  0
   14.4410    2.6320   11.0530 H   0  0  0  0  0  0
   12.5550    5.7530   15.3810 S   0  0  0  0  0  0
   13.9890    6.7330   15.9130 C   0  0  0  0  0  0
   13.7090    7.3300   16.7850 H   0  0  0  0  0  0
   14.3130    7.4110   15.1190 H   0  0  0  0  0  0
   14.8170    6.0760   16.1920 H   0  0  0  0  0  0
   10.0150    1.0730   11.1450 N   0  0  0  0  0  0
   10.4590    0.5760   10.3870 H   0  0  0  0  0  0
    9.0450    0.9080   11.3680 H   0  0  0  0  0  0
  1  2  1  0  0  0
  1  6  2  0  0  0
  2  3  2  0  0  0
  2 22  1  0  0  0
  3  4  1  0  0  0
  4  5  2  0  0  0
  4 15  1  0  0  0
  5  6  1  0  0  0
  5 10  1  0  0  0
  6  7  1  0  0  0
  7  8  1  0  0  0
  7  9  1  0  0  0
 10 11  2  0  0  0
 10 17  1  0  0  0
 11 12  1  0  0  0
 11 13  1  0  0  0
 13 14  1  0  0  0
 13 15  2  0  0  0
 15 16  1  0  0  0
 17 18  1  0  0  0
 18 19  1  0  0  0
 18 20  1  0  0  0
 18 21  1  0  0  0
 22 23  1  0  0  0
 22 24  1  0  0  0
M  END
>  <ACTIVITY>
6.27

>  <SET>
2

>  <Min_dist>
0.17

>  <Avg_dist>
0.59

$$$$
6-14
  Cerius2 12110214143D 1   1.00000                          
Structure written by Cerius2 SD Exporter
 23 24  0  0  0  0  0  0  0  0999 V2000
   10.1270    2.6220   12.8790 N   0  0  0  0  0  0
   10.7280    1.9720   11.8830 C   0  0  0  0  0  0
   12.0040    2.1340   11.5340 N   0  0  0  0  0  0
   12.7320    3.0200   12.2260 C   0  0  0  0  0  0
   12.2090    3.7590   13.2900 C   0  0  0  0  0  0
   10.8670    3.4900   13.5860 C   0  0  0  0  0  0
   10.1880    4.1560   14.5920 N   0  0  0  0  0  0
   10.6810    4.3490   15.4590 H   0  0  0  0  0  0
    9.2180    3.8800   14.7120 H   0  0  0  0  0  0
   13.0320    4.6940   13.9710 C   0  0  0  0  0  0
   12.6210    5.2800   14.7930 H   0  0  0  0  0  0
   14.3670    4.8860   13.6020 C   0  0  0  0  0  0
   14.8780    4.1380   12.5450 C   0  0  0  0  0  0
   15.9130    4.2570   12.2270 H   0  0  0  0  0  0
   14.0610    3.2210   11.8730 C   0  0  0  0  0  0
   14.4830    2.6510   11.0470 H   0  0  0  0  0  0
   15.2180    5.8790   14.3370 C   0  0  0  0  0  0
   14.7880    6.8820   14.2480 H   0  0  0  0  0  0
   16.2350    5.9130   13.9330 H   0  0  0  0  0  0
   15.2850    5.6080   15.3950 H   0  0  0  0  0  0
    9.9880    1.0790   11.1710 N   0  0  0  0  0  0
   10.4140    0.5710   10.4100 H   0  0  0  0  0  0
    9.0180    0.9310   11.4080 H   0  0  0  0  0  0
  1  2  1  0  0  0
  1  6  2  0  0  0
  2  3  2  0  0  0
  2 21  1  0  0  0
  3  4  1  0  0  0
  4  5  2  0  0  0
  4 15  1  0  0  0
  5  6  1  0  0  0
  5 10  1  0  0  0
  6  7  1  0  0  0
  7  8  1  0  0  0
  7  9  1  0  0  0
 10 11  1  0  0  0
 10 12  2  0  0  0
 12 13  1  0  0  0
 12 17  1  0  0  0
 13 14  1  0  0  0
 13 15  2  0  0  0
 15 16  1  0  0  0
 17 18  1  0  0  0
 17 19  1  0  0  0
 17 20  1  0  0  0
 21 22  1  0  0  0
 21 23  1  0  0  0
M  END
>  <ACTIVITY>
4.26

>  <SET>
1

>  <Min_dist>
999.9

>  <Avg_dist>
999.9

$$$$
6-15
  Cerius2 12110214143D 1   1.00000                          
Structure written by Cerius2 SD Exporter
 23 24  0  0  0  0  0  0  0  0999 V2000
   10.1260    2.6210   12.8790 N   0  0  0  0  0  0
   10.7260    1.9700   11.8820 C   0  0  0  0  0  0
   12.0020    2.1320   11.5330 N   0  0  0  0  0  0
   12.7300    3.0180   12.2250 C   0  0  0  0  0  0
   12.2080    3.7570   13.2890 C   0  0  0  0  0  0
   10.8660    3.4890   13.5850 C   0  0  0  0  0  0
   10.1890    4.1550   14.5920 N   0  0  0  0  0  0
   10.6790    4.3400   15.4620 H   0  0  0  0  0  0
    9.2180    3.8810   14.7090 H   0  0  0  0  0  0
   13.0330    4.6940   13.9700 C   0  0  0  0  0  0
   12.6210    5.2800   14.7920 H   0  0  0  0  0  0
   14.3710    4.8900   13.6040 C   0  0  0  0  0  0
   14.8780    4.1360   12.5440 C   0  0  0  0  0  0
   15.9130    4.2540   12.2240 H   0  0  0  0  0  0
   14.0600    3.2190   11.8720 C   0  0  0  0  0  0
   14.4820    2.6480   11.0460 H   0  0  0  0  0  0
   15.2240    5.8910   14.3430 C   0  0  0  0  0  0
   15.3370    5.6090   15.6770 F   0  0  0  0  0  0
   14.7260    7.1630   14.2790 F   0  0  0  0  0  0
   16.5080    5.9810   13.8820 F   0  0  0  0  0  0
    9.9850    1.0790   11.1700 N   0  0  0  0  0  0
   10.4100    0.5700   10.4090 H   0  0  0  0  0  0
    9.0150    0.9320   11.4070 H   0  0  0  0  0  0
  1  2  1  0  0  0
  1  6  2  0  0  0
  2  3  2  0  0  0
  2 21  1  0  0  0
  3  4  1  0  0  0
  4  5  2  0  0  0
  4 15  1  0  0  0
  5  6  1  0  0  0
  5 10  1  0  0  0
  6  7  1  0  0  0
  7  8  1  0  0  0
  7  9  1  0  0  0
 10 11  1  0  0  0
 10 12  2  0  0  0
 12 13  1  0  0  0
 12 17  1  0  0  0
 13 14  1  0  0  0
 13 15  2  0  0  0
 15 16  1  0  0  0
 17 18  1  0  0  0
 17 19  1  0  0  0
 17 20  1  0  0  0
 21 22  1  0  0  0
 21 23  1  0  0  0
M  END
>  <ACTIVITY>
5.39

>  <SET>
1

>  <Min_dist>
999.9

>  <Avg_dist>
999.9

$$$$
6-16
  Cerius2 12110214143D 1   1.00000                          
Structure written by Cerius2 SD Exporter
 20 21  0  0  0  0  0  0  0  0999 V2000
   10.1230    2.6210   12.8710 N   0  0  0  0  0  0
   10.7280    1.9770   11.8730 C   0  0  0  0  0  0
   12.0060    2.1400   11.5310 N   0  0  0  0  0  0
   12.7320    3.0190   12.2320 C   0  0  0  0  0  0
   12.2020    3.7510   13.3020 C   0  0  0  0  0  0
   10.8590    3.4830   13.5890 C   0  0  0  0  0  0
   10.1770    4.1440   14.5960 N   0  0  0  0  0  0
   10.6630    4.3290   15.4670 H   0  0  0  0  0  0
    9.2050    3.8690   14.7070 H   0  0  0  0  0  0
   13.0170    4.6790   13.9960 C   0  0  0  0  0  0
   12.6240    5.2660   14.8210 H   0  0  0  0  0  0
   14.3410    4.8550   13.6220 C   0  0  0  0  0  0
   14.8760    4.1300   12.5710 C   0  0  0  0  0  0
   15.9130    4.2710   12.2820 H   0  0  0  0  0  0
   14.0650    3.2200   11.8860 C   0  0  0  0  0  0
   14.4910    2.6570   11.0580 H   0  0  0  0  0  0
   15.1070    5.7330   14.2820 F   0  0  0  0  0  0
    9.9900    1.0910   11.1500 N   0  0  0  0  0  0
   10.4190    0.5880   10.3880 H   0  0  0  0  0  0
    9.0190    0.9430   11.3820 H   0  0  0  0  0  0
  1  2  1  0  0  0
  1  6  2  0  0  0
  2  3  2  0  0  0
  2 18  1  0  0  0
  3  4  1  0  0  0
  4  5  2  0  0  0
  4 15  1  0  0  0
  5  6  1  0  0  0
  5 10  1  0  0  0
  6  7  1  0  0  0
  7  8  1  0  0  0
  7  9  1  0  0  0
 10 11  1  0  0  0
 10 12  2  0  0  0
 12 13  1  0  0  0
 12 17  1  0  0  0
 13 14  1  0  0  0
 13 15  2  0  0  0
 15 16  1  0  0  0
 18 19  1  0  0  0
 18 20  1  0  0  0
M  END
>  <ACTIVITY>
3.34

>  <SET>
1

>  <Min_dist>
999.9

>  <Avg_dist>
999.9

$$$$
6-2
  Cerius2 12110214143D 1   1.00000                          
Structure written by Cerius2 SD Exporter
 23 24  0  0  0  0  0  0  0  0999 V2000
   10.1130    2.6220   12.8510 N   0  0  0  0  0  0
   10.7490    1.9260   11.9150 C   0  0  0  0  0  0
   12.0200    2.1160   11.5790 N   0  0  0  0  0  0
   12.7120    3.0510   12.2390 C   0  0  0  0  0  0
   12.1670    3.8490   13.2580 C   0  0  0  0  0  0
   10.8010    3.5840   13.4890 C   0  0  0  0  0  0
   10.0470    4.2680   14.4230 N   0  0  0  0  0  0
    9.0910    3.9280   14.5000 H   0  0  0  0  0  0
   10.1020    5.2830   14.4300 H   0  0  0  0  0  0
   13.0180    4.7960   13.9300 C   0  0  0  0  0  0
   14.3620    4.9230   13.5350 C   0  0  0  0  0  0
   15.0250    5.6330   14.0300 H   0  0  0  0  0  0
   14.8700    4.1390   12.5110 C   0  0  0  0  0  0
   15.9110    4.2370   12.2060 H   0  0  0  0  0  0
   14.0430    3.2130   11.8820 C   0  0  0  0  0  0
   14.4600    2.5950   11.0870 H   0  0  0  0  0  0
   12.5340    5.6440   15.0810 C   0  0  0  0  0  0
   13.4740    6.5290   15.5450 F   0  0  0  0  0  0
   12.1760    4.9170   16.1800 F   0  0  0  0  0  0
   11.4570    6.4260   14.7670 F   0  0  0  0  0  0
   10.0550    0.9610   11.2550 N   0  0  0  0  0  0
   10.5120    0.4170   10.5380 H   0  0  0  0  0  0
    9.0870    0.7940   11.4870 H   0  0  0  0  0  0
  1  2  1  0  0  0
  1  6  2  0  0  0
  2  3  2  0  0  0
  2 21  1  0  0  0
  3  4  1  0  0  0
  4  5  2  0  0  0
  4 15  1  0  0  0
  5  6  1  0  0  0
  5 10  1  0  0  0
  6  7  1  0  0  0
  7  8  1  0  0  0
  7  9  1  0  0  0
 10 11  2  0  0  0
 10 17  1  0  0  0
 11 12  1  0  0  0
 11 13  1  0  0  0
 13 14  1  0  0  0
 13 15  2  0  0  0
 15 16  1  0  0  0
 17 18  1  0  0  0
 17 19  1  0  0  0
 17 20  1  0  0  0
 21 22  1  0  0  0
 21 23  1  0  0  0
M  END
>  <ACTIVITY>
3.67

>  <SET>
2

>  <Min_dist>
0.05

>  <Avg_dist>
0.58

$$$$
6-20
  Cerius2 12110214143D 1   1.00000                          
Structure written by Cerius2 SD Exporter
 24 25  0  0  0  0  0  0  0  0999 V2000
   10.1220    2.6200   12.8690 N   0  0  0  0  0  0
   10.7250    1.9750   11.8720 C   0  0  0  0  0  0
   12.0040    2.1370   11.5300 N   0  0  0  0  0  0
   12.7290    3.0170   12.2320 C   0  0  0  0  0  0
   12.2040    3.7500   13.2990 C   0  0  0  0  0  0
   10.8610    3.4820   13.5870 C   0  0  0  0  0  0
   10.1780    4.1390   14.5950 N   0  0  0  0  0  0
   10.6610    4.3140   15.4700 H   0  0  0  0  0  0
    9.2050    3.8640   14.7030 H   0  0  0  0  0  0
   13.0240    4.6830   13.9940 C   0  0  0  0  0  0
   12.5860    5.2500   14.8100 H   0  0  0  0  0  0
   14.3550    4.8710   13.6310 C   0  0  0  0  0  0
   14.8690    4.1290   12.5730 C   0  0  0  0  0  0
   15.9060    4.2550   12.2670 H   0  0  0  0  0  0
   14.0590    3.2170   11.8870 C   0  0  0  0  0  0
   14.4860    2.6540   11.0600 H   0  0  0  0  0  0
   15.2400    5.7310   14.2170 O   0  0  0  0  0  0
   14.7550    6.5080   15.3110 C   0  0  0  0  0  0
   15.5790    7.1340   15.6650 H   0  0  0  0  0  0
   14.4410    5.8670   16.1410 H   0  0  0  0  0  0
   13.9440    7.1720   14.9920 H   0  0  0  0  0  0
    9.9870    1.0900   11.1490 N   0  0  0  0  0  0
   10.4150    0.5860   10.3870 H   0  0  0  0  0  0
    9.0160    0.9430   11.3810 H   0  0  0  0  0  0
  1  2  1  0  0  0
  1  6  2  0  0  0
  2  3  2  0  0  0
  2 22  1  0  0  0
  3  4  1  0  0  0
  4  5  2  0  0  0
  4 15  1  0  0  0
  5  6  1  0  0  0
  5 10  1  0  0  0
  6  7  1  0  0  0
  7  8  1  0  0  0
  7  9  1  0  0  0
 10 11  1  0  0  0
 10 12  2  0  0  0
 12 13  1  0  0  0
 12 17  1  0  0  0
 13 14  1  0  0  0
 13 15  2  0  0  0
 15 16  1  0  0  0
 17 18  1  0  0  0
 18 19  1  0  0  0
 18 20  1  0  0  0
 18 21  1  0  0  0
 22 23  1  0  0  0
 22 24  1  0  0  0
M  END
>  <ACTIVITY>
4.34

>  <SET>
2

>  <Min_dist>
0.19

>  <Avg_dist>
0.54

$$$$
6-21
  Cerius2 12110214143D 1   1.00000                          
Structure written by Cerius2 SD Exporter
 23 24  0  0  0  0  0  0  0  0999 V2000
   10.1060    2.6290   12.8420 N   0  0  0  0  0  0
   10.7250    2.0020   11.8430 C   0  0  0  0  0  0
   12.0180    2.1420   11.5460 N   0  0  0  0  0  0
   12.7440    2.9780   12.2990 C   0  0  0  0  0  0
   12.2000    3.6890   13.3720 C   0  0  0  0  0  0
   10.8420    3.4480   13.6090 C   0  0  0  0  0  0
   10.1450    4.0950   14.6150 N   0  0  0  0  0  0
   10.6110    4.2450   15.5040 H   0  0  0  0  0  0
    9.1640    3.8420   14.6910 H   0  0  0  0  0  0
   13.0200    4.5750   14.1150 C   0  0  0  0  0  0
   12.6060    5.1480   14.9420 H   0  0  0  0  0  0
   14.3670    4.7360   13.7970 C   0  0  0  0  0  0
   14.9760    5.4270   14.3780 H   0  0  0  0  0  0
   14.9200    4.0130   12.7420 C   0  0  0  0  0  0
   14.0920    3.1540   12.0010 C   0  0  0  0  0  0
   14.5140    2.6030   11.1610 H   0  0  0  0  0  0
   16.3600    4.1950   12.3610 C   0  0  0  0  0  0
   16.4510    4.9860   11.6110 H   0  0  0  0  0  0
   16.7740    3.2680   11.9520 H   0  0  0  0  0  0
   16.9640    4.4630   13.2340 H   0  0  0  0  0  0
    9.9890    1.1590   11.0690 N   0  0  0  0  0  0
   10.4280    0.6700   10.3030 H   0  0  0  0  0  0
    9.0070    1.0300   11.2650 H   0  0  0  0  0  0
  1  2  1  0  0  0
  1  6  2  0  0  0
  2  3  2  0  0  0
  2 21  1  0  0  0
  3  4  1  0  0  0
  4  5  2  0  0  0
  4 15  1  0  0  0
  5  6  1  0  0  0
  5 10  1  0  0  0
  6  7  1  0  0  0
  7  8  1  0  0  0
  7  9  1  0  0  0
 10 11  1  0  0  0
 10 12  2  0  0  0
 12 13  1  0  0  0
 12 14  1  0  0  0
 14 15  2  0  0  0
 14 17  1  0  0  0
 15 16  1  0  0  0
 17 18  1  0  0  0
 17 19  1  0  0  0
 17 20  1  0  0  0
 21 22  1  0  0  0
 21 23  1  0  0  0
M  END
>  <ACTIVITY>
4.38

>  <SET>
1

>  <Min_dist>
999.9

>  <Avg_dist>
999.9

$$$$
6-22
  Cerius2 12110214143D 1   1.00000                          
Structure written by Cerius2 SD Exporter
 23 24  0  0  0  0  0  0  0  0999 V2000
   10.1060    2.6290   12.8420 N   0  0  0  0  0  0
   10.7250    2.0020   11.8430 C   0  0  0  0  0  0
   12.0180    2.1420   11.5460 N   0  0  0  0  0  0
   12.7430    2.9780   12.2980 C   0  0  0  0  0  0
   12.2000    3.6890   13.3710 C   0  0  0  0  0  0
   10.8420    3.4490   13.6090 C   0  0  0  0  0  0
   10.1460    4.0950   14.6160 N   0  0  0  0  0  0
   10.6120    4.2450   15.5040 H   0  0  0  0  0  0
    9.1650    3.8430   14.6910 H   0  0  0  0  0  0
   13.0210    4.5730   14.1150 C   0  0  0  0  0  0
   12.6080    5.1460   14.9440 H   0  0  0  0  0  0
   14.3690    4.7340   13.7960 C   0  0  0  0  0  0
   14.9800    5.4230   14.3790 H   0  0  0  0  0  0
   14.9240    4.0140   12.7350 C   0  0  0  0  0  0
   14.0910    3.1520   11.9980 C   0  0  0  0  0  0
   14.5120    2.5980   11.1590 H   0  0  0  0  0  0
   16.3720    4.1830   12.3530 C   0  0  0  0  0  0
   17.1680    4.6030   13.3830 F   0  0  0  0  0  0
   16.5510    5.0990   11.3550 F   0  0  0  0  0  0
   16.9510    3.0300   11.8990 F   0  0  0  0  0  0
    9.9890    1.1590   11.0690 N   0  0  0  0  0  0
   10.4280    0.6700   10.3030 H   0  0  0  0  0  0
    9.0070    1.0300   11.2640 H   0  0  0  0  0  0
  1  2  1  0  0  0
  1  6  2  0  0  0
  2  3  2  0  0  0
  2 21  1  0  0  0
  3  4  1  0  0  0
  4  5  2  0  0  0
  4 15  1  0  0  0
  5  6  1  0  0  0
  5 10  1  0  0  0
  6  7  1  0  0  0
  7  8  1  0  0  0
  7  9  1  0  0  0
 10 11  1  0  0  0
 10 12  2  0  0  0
 12 13  1  0  0  0
 12 14  1  0  0  0
 14 15  2  0  0  0
 14 17  1  0  0  0
 15 16  1  0  0  0
 17 18  1  0  0  0
 17 19  1  0  0  0
 17 20  1  0  0  0
 21 22  1  0  0  0
 21 23  1  0  0  0
M  END
>  <ACTIVITY>
4.2

>  <SET>
1

>  <Min_dist>
999.9

>  <Avg_dist>
999.9

$$$$
6-23
  Cerius2 12110214143D 1   1.00000                          
Structure written by Cerius2 SD Exporter
 20 21  0  0  0  0  0  0  0  0999 V2000
   10.1230    2.6200   12.8710 N   0  0  0  0  0  0
   10.7280    1.9760   11.8730 C   0  0  0  0  0  0
   12.0070    2.1400   11.5300 N   0  0  0  0  0  0
   12.7330    3.0190   12.2320 C   0  0  0  0  0  0
   12.2030    3.7510   13.3010 C   0  0  0  0  0  0
   10.8600    3.4830   13.5880 C   0  0  0  0  0  0
   10.1770    4.1430   14.5950 N   0  0  0  0  0  0
   10.6650    4.3320   15.4650 H   0  0  0  0  0  0
    9.2050    3.8670   14.7090 H   0  0  0  0  0  0
   13.0220    4.6800   13.9950 C   0  0  0  0  0  0
   12.6200    5.2650   14.8210 H   0  0  0  0  0  0
   14.3510    4.8640   13.6270 C   0  0  0  0  0  0
   14.9820    5.5730   14.1550 H   0  0  0  0  0  0
   14.8590    4.1260   12.5720 C   0  0  0  0  0  0
   14.0620    3.2170   11.8830 C   0  0  0  0  0  0
   14.4950    2.6590   11.0580 H   0  0  0  0  0  0
   16.1380    4.2910   12.2060 F   0  0  0  0  0  0
    9.9910    1.0900   11.1500 N   0  0  0  0  0  0
   10.4200    0.5870   10.3870 H   0  0  0  0  0  0
    9.0200    0.9410   11.3810 H   0  0  0  0  0  0
  1  2  1  0  0  0
  1  6  2  0  0  0
  2  3  2  0  0  0
  2 18  1  0  0  0
  3  4  1  0  0  0
  4  5  2  0  0  0
  4 15  1  0  0  0
  5  6  1  0  0  0
  5 10  1  0  0  0
  6  7  1  0  0  0
  7  8  1  0  0  0
  7  9  1  0  0  0
 10 11  1  0  0  0
 10 12  2  0  0  0
 12 13  1  0  0  0
 12 14  1  0  0  0
 14 15  2  0  0  0
 14 17  1  0  0  0
 15 16  1  0  0  0
 18 19  1  0  0  0
 18 20  1  0  0  0
M  END
>  <ACTIVITY>
3.72

>  <SET>
1

>  <Min_dist>
999.9

>  <Avg_dist>
999.9

$$$$
6-26
  Cerius2 12110214143D 1   1.00000                          
Structure written by Cerius2 SD Exporter
 20 21  0  0  0  0  0  0  0  0999 V2000
   10.1200    2.6030   12.8700 N   0  0  0  0  0  0
   10.7320    1.9710   11.8760 C   0  0  0  0  0  0
   12.0040    2.1620   11.5450 N   0  0  0  0  0  0
   12.7140    3.0440   12.2550 C   0  0  0  0  0  0
   12.1980    3.7740   13.3360 C   0  0  0  0  0  0
   10.8410    3.4790   13.5940 C   0  0  0  0  0  0
   10.1010    4.1230   14.5620 N   0  0  0  0  0  0
   10.5630    4.4390   15.4080 H   0  0  0  0  0  0
    9.1390    3.8200   14.6680 H   0  0  0  0  0  0
   13.0720    4.6890   14.0210 C   0  0  0  0  0  0
   14.4040    4.8490   13.6070 C   0  0  0  0  0  0
   14.8820    4.1150   12.5310 C   0  0  0  0  0  0
   15.9100    4.2220   12.1930 H   0  0  0  0  0  0
   14.0360    3.2240   11.8740 C   0  0  0  0  0  0
   14.4300    2.6550   11.0330 H   0  0  0  0  0  0
   15.5110    5.9320   14.3800 Cl  0  0  0  0  0  0
   12.5140    5.6080   15.3940 Cl  0  0  0  0  0  0
   10.0120    1.0750   11.1480 N   0  0  0  0  0  0
   10.4520    0.5820   10.3860 H   0  0  0  0  0  0
    9.0430    0.9110   11.3750 H   0  0  0  0  0  0
  1  2  1  0  0  0
  1  6  2  0  0  0
  2  3  2  0  0  0
  2 18  1  0  0  0
  3  4  1  0  0  0
  4  5  2  0  0  0
  4 14  1  0  0  0
  5  6  1  0  0  0
  5 10  1  0  0  0
  6  7  1  0  0  0
  7  8  1  0  0  0
  7  9  1  0  0  0
 10 11  2  0  0  0
 10 17  1  0  0  0
 11 12  1  0  0  0
 11 16  1  0  0  0
 12 13  1  0  0  0
 12 14  2  0  0  0
 14 15  1  0  0  0
 18 19  1  0  0  0
 18 20  1  0  0  0
M  END
>  <ACTIVITY>
5.46

>  <SET>
1

>  <Min_dist>
999.9

>  <Avg_dist>
999.9

$$$$
6-28
  Cerius2 12110214143D 1   1.00000                          
Structure written by Cerius2 SD Exporter
 26 27  0  0  0  0  0  0  0  0999 V2000
   10.1050    2.6290   12.8420 N   0  0  0  0  0  0
   10.7250    2.0020   11.8430 C   0  0  0  0  0  0
   12.0170    2.1430   11.5470 N   0  0  0  0  0  0
   12.7430    2.9800   12.2990 C   0  0  0  0  0  0
   12.2010    3.6890   13.3710 C   0  0  0  0  0  0
   10.8420    3.4480   13.6080 C   0  0  0  0  0  0
   10.1450    4.0930   14.6160 N   0  0  0  0  0  0
   10.6100    4.2370   15.5070 H   0  0  0  0  0  0
    9.1640    3.8400   14.6890 H   0  0  0  0  0  0
   13.0240    4.5730   14.1160 C   0  0  0  0  0  0
   12.5920    5.1350   14.9440 H   0  0  0  0  0  0
   14.3800    4.7450   13.8070 C   0  0  0  0  0  0
   14.9220    4.0240   12.7350 C   0  0  0  0  0  0
   14.0900    3.1570   12.0030 C   0  0  0  0  0  0
   14.5080    2.5980   11.1650 H   0  0  0  0  0  0
   16.3700    4.1590   12.3460 C   0  0  0  0  0  0
   16.5920    5.1920   12.0610 H   0  0  0  0  0  0
   16.6190    3.5200   11.4920 H   0  0  0  0  0  0
   17.0160    3.8620   13.1780 H   0  0  0  0  0  0
   15.2140    5.6930   14.6260 C   0  0  0  0  0  0
   15.6110    6.4930   13.9930 H   0  0  0  0  0  0
   16.0410    5.1580   15.1010 H   0  0  0  0  0  0
   14.6250    6.1630   15.4210 H   0  0  0  0  0  0
    9.9890    1.1590   11.0690 N   0  0  0  0  0  0
   10.4290    0.6690   10.3040 H   0  0  0  0  0  0
    9.0070    1.0290   11.2640 H   0  0  0  0  0  0
  1  2  1  0  0  0
  1  6  2  0  0  0
  2  3  2  0  0  0
  2 24  1  0  0  0
  3  4  1  0  0  0
  4  5  2  0  0  0
  4 14  1  0  0  0
  5  6  1  0  0  0
  5 10  1  0  0  0
  6  7  1  0  0  0
  7  8  1  0  0  0
  7  9  1  0  0  0
 10 11  1  0  0  0
 10 12  2  0  0  0
 12 13  1  0  0  0
 12 20  1  0  0  0
 13 14  2  0  0  0
 13 16  1  0  0  0
 14 15  1  0  0  0
 16 17  1  0  0  0
 16 18  1  0  0  0
 16 19  1  0  0  0
 20 21  1  0  0  0
 20 22  1  0  0  0
 20 23  1  0  0  0
 24 25  1  0  0  0
 24 26  1  0  0  0
M  END
>  <ACTIVITY>
5.1

>  <SET>
2

>  <Min_dist>
0.1

>  <Avg_dist>
0.55

$$$$
6-3
  Cerius2 12110214143D 1   1.00000                          
Structure written by Cerius2 SD Exporter
 20 21  0  0  0  0  0  0  0  0999 V2000
   10.1230    2.6130   12.8760 N   0  0  0  0  0  0
   10.7270    1.9730   11.8760 C   0  0  0  0  0  0
   12.0020    2.1480   11.5290 N   0  0  0  0  0  0
   12.7270    3.0270   12.2320 C   0  0  0  0  0  0
   12.1980    3.7500   13.3050 C   0  0  0  0  0  0
   10.8560    3.4830   13.5910 C   0  0  0  0  0  0
   10.1610    4.1520   14.5800 N   0  0  0  0  0  0
   10.6600    4.4550   15.4110 H   0  0  0  0  0  0
    9.1950    3.8730   14.7180 H   0  0  0  0  0  0
   13.0320    4.6600   13.9960 C   0  0  0  0  0  0
   14.3600    4.8540   13.6320 C   0  0  0  0  0  0
   14.9780    5.5580   14.1810 H   0  0  0  0  0  0
   14.8770    4.1340   12.5660 C   0  0  0  0  0  0
   15.9140    4.2690   12.2630 H   0  0  0  0  0  0
   14.0580    3.2320   11.8810 C   0  0  0  0  0  0
   14.4780    2.6730   11.0450 H   0  0  0  0  0  0
   12.5590    5.3600   15.0400 F   0  0  0  0  0  0
    9.9930    1.0820   11.1560 N   0  0  0  0  0  0
   10.4220    0.5830   10.3910 H   0  0  0  0  0  0
    9.0240    0.9270   11.3900 H   0  0  0  0  0  0
  1  2  1  0  0  0
  1  6  2  0  0  0
  2  3  2  0  0  0
  2 18  1  0  0  0
  3  4  1  0  0  0
  4  5  2  0  0  0
  4 15  1  0  0  0
  5  6  1  0  0  0
  5 10  1  0  0  0
  6  7  1  0  0  0
  7  8  1  0  0  0
  7  9  1  0  0  0
 10 11  2  0  0  0
 10 17  1  0  0  0
 11 12  1  0  0  0
 11 13  1  0  0  0
 13 14  1  0  0  0
 13 15  2  0  0  0
 15 16  1  0  0  0
 18 19  1  0  0  0
 18 20  1  0  0  0
M  END
>  <ACTIVITY>
5.3

>  <SET>
2

>  <Min_dist>
0.03

>  <Avg_dist>
0.61

$$$$
6-48
  Cerius2 12110214143D 1   1.00000                          
Structure written by Cerius2 SD Exporter
 30 33  0  0  0  0  0  0  0  0999 V2000
   12.0290    2.1610   11.5340 N   0  0  0  0  0  0
   10.7570    1.9840   11.8750 C   0  0  0  0  0  0
   10.1520    2.6220   12.8730 N   0  0  0  0  0  0
   10.8930    3.4910   13.5810 C   0  0  0  0  0  0
   12.2300    3.7680   13.3060 C   0  0  0  0  0  0
   12.9920    4.6610   14.0090 N   0  0  0  0  0  0
   14.2810    4.8320   13.6390 C   0  0  0  0  0  0
   14.7820    4.0820   12.5530 C   0  0  0  0  0  0
   14.0150    3.2040   11.8730 N   0  0  0  0  0  0
   12.7410    3.0370   12.2360 C   0  0  0  0  0  0
   16.1010    4.2460   12.1630 C   0  0  0  0  0  0
   16.4880    3.6680   11.3250 H   0  0  0  0  0  0
   16.9490    5.1360   12.8200 C   0  0  0  0  0  0
   17.9790    5.2310   12.4780 H   0  0  0  0  0  0
   16.4790    5.8880   13.8960 C   0  0  0  0  0  0
   17.3260    6.7880   14.5640 C   0  0  0  0  0  0
   18.3620    6.9090   14.2500 H   0  0  0  0  0  0
   16.8590    7.5420   15.6400 C   0  0  0  0  0  0
   17.5260    8.2350   16.1490 H   0  0  0  0  0  0
   15.5420    7.4050   16.0610 C   0  0  0  0  0  0
   15.1720    7.9910   16.9000 H   0  0  0  0  0  0
   14.6910    6.5130   15.4040 C   0  0  0  0  0  0
   13.6620    6.4270   15.7550 H   0  0  0  0  0  0
   15.1340    5.7370   14.3110 C   0  0  0  0  0  0
   10.2190    4.1740   14.5850 N   0  0  0  0  0  0
   10.7620    4.4970   15.3810 H   0  0  0  0  0  0
    9.2580    3.9010   14.7620 H   0  0  0  0  0  0
   10.0240    1.0930   11.1550 N   0  0  0  0  0  0
    9.0550    0.9370   11.3890 H   0  0  0  0  0  0
   10.4510    0.5920   10.3900 H   0  0  0  0  0  0
  1  2  2  0  0  0
  1 10  1  0  0  0
  2  3  1  0  0  0
  2 28  1  0  0  0
  3  4  2  0  0  0
  4  5  1  0  0  0
  4 25  1  0  0  0
  5  6  2  0  0  0
  5 10  1  0  0  0
  6  7  1  0  0  0
  7  8  2  0  0  0
  7 24  1  0  0  0
  8  9  1  0  0  0
  8 11  1  0  0  0
  9 10  2  0  0  0
 11 12  1  0  0  0
 11 13  2  0  0  0
 13 14  1  0  0  0
 13 15  1  0  0  0
 15 16  1  0  0  0
 15 24  2  0  0  0
 16 17  1  0  0  0
 16 18  2  0  0  0
 18 19  1  0  0  0
 18 20  1  0  0  0
 20 21  1  0  0  0
 20 22  2  0  0  0
 22 23  1  0  0  0
 22 24  1  0  0  0
 25 26  1  0  0  0
 25 27  1  0  0  0
 28 29  1  0  0  0
 28 30  1  0  0  0
M  END
>  <ACTIVITY>
5.89

>  <SET>
2

>  <Min_dist>
0.24

>  <Avg_dist>
0.57

$$$$
6-7
  Cerius2 12110214143D 1   1.00000                          
Structure written by Cerius2 SD Exporter
 24 25  0  0  0  0  0  0  0  0999 V2000
   10.1170    2.6150   12.8640 N   0  0  0  0  0  0
   10.7280    1.9750   11.8720 C   0  0  0  0  0  0
   12.0040    2.1520   11.5380 N   0  0  0  0  0  0
   12.7200    3.0350   12.2440 C   0  0  0  0  0  0
   12.1950    3.7820   13.3070 C   0  0  0  0  0  0
   10.8370    3.5090   13.5640 C   0  0  0  0  0  0
   10.1520    4.0850   14.6150 N   0  0  0  0  0  0
   10.4580    4.9950   14.9490 H   0  0  0  0  0  0
    9.1680    3.8600   14.7100 H   0  0  0  0  0  0
   13.0440    4.7130   13.9960 C   0  0  0  0  0  0
   14.3800    4.8580   13.6130 C   0  0  0  0  0  0
   15.0560    5.5510   14.1050 H   0  0  0  0  0  0
   14.8820    4.1020   12.5620 C   0  0  0  0  0  0
   15.9220    4.2110   12.2570 H   0  0  0  0  0  0
   14.0510    3.2070   11.8920 C   0  0  0  0  0  0
   14.4630    2.6260   11.0670 H   0  0  0  0  0  0
   12.4680    5.4410   15.0110 O   0  0  0  0  0  0
   13.3030    6.3350   15.7460 C   0  0  0  0  0  0
   12.6880    6.7980   16.5240 H   0  0  0  0  0  0
   13.6830    7.1350   15.1020 H   0  0  0  0  0  0
   14.1180    5.7970   16.2410 H   0  0  0  0  0  0
   10.0040    1.0760   11.1520 N   0  0  0  0  0  0
   10.4420    0.5740   10.3930 H   0  0  0  0  0  0
    9.0340    0.9170   11.3800 H   0  0  0  0  0  0
  1  2  1  0  0  0
  1  6  2  0  0  0
  2  3  2  0  0  0
  2 22  1  0  0  0
  3  4  1  0  0  0
  4  5  2  0  0  0
  4 15  1  0  0  0
  5  6  1  0  0  0
  5 10  1  0  0  0
  6  7  1  0  0  0
  7  8  1  0  0  0
  7  9  1  0  0  0
 10 11  2  0  0  0
 10 17  1  0  0  0
 11 12  1  0  0  0
 11 13  1  0  0  0
 13 14  1  0  0  0
 13 15  2  0  0  0
 15 16  1  0  0  0
 17 18  1  0  0  0
 18 19  1  0  0  0
 18 20  1  0  0  0
 18 21  1  0  0  0
 22 23  1  0  0  0
 22 24  1  0  0  0
M  END
>  <ACTIVITY>
5.92

>  <SET>
1

>  <Min_dist>
999.9

>  <Avg_dist>
999.9

$$$$
7-1
  Cerius2 12110214143D 1   1.00000                          
Structure written by Cerius2 SD Exporter
 39 42  0  0  0  0  0  0  0  0999 V2000
   10.3390    2.4040   13.4070 N   0  0  0  0  0  0
   10.6290    1.6770   12.3150 C   0  0  0  0  0  0
   11.7140    1.8010   11.5510 N   0  0  0  0  0  0
   12.5350    2.7640   11.9860 C   0  0  0  0  0  0
   12.3550    3.5860   13.0930 C   0  0  0  0  0  0
   11.1870    3.3700   13.8250 C   0  0  0  0  0  0
   10.8450    4.0790   14.9480 N   0  0  0  0  0  0
   11.4330    4.8100   15.3260 H   0  0  0  0  0  0
    9.9800    3.8610   15.4270 H   0  0  0  0  0  0
   13.4880    4.4360   13.1320 C   0  0  0  0  0  0
   14.2750    4.0680   12.0650 C   0  0  0  0  0  0
   13.7120    3.0630   11.3550 O   0  0  0  0  0  0
   15.5730    4.6680   11.6560 C   0  0  0  0  0  0
   15.4020    5.3160   10.7870 H   0  0  0  0  0  0
   16.2600    3.8660   11.3640 H   0  0  0  0  0  0
   16.1430    5.4420   12.7980 N   0  0  0  0  0  0
   15.1060    6.3170   13.4190 C   0  0  0  0  0  0
   14.7110    7.0140   12.6670 H   0  0  0  0  0  0
   15.5560    6.9230   14.2150 H   0  0  0  0  0  0
   13.9270    5.5190   14.0500 C   0  0  0  0  0  0
   14.2550    5.0730   14.9960 H   0  0  0  0  0  0
   13.1000    6.2040   14.2670 H   0  0  0  0  0  0
   17.2830    6.2650   12.3460 C   0  0  0  0  0  0
   18.0890    5.6130   11.9810 H   0  0  0  0  0  0
   17.7090    6.8340   13.1830 H   0  0  0  0  0  0
   16.9310    7.1920   11.2000 C   0  0  0  0  0  0
   17.1540    6.7990    9.8710 C   0  0  0  0  0  0
   17.5800    5.8200    9.6560 H   0  0  0  0  0  0
   16.8310    7.6530    8.8150 C   0  0  0  0  0  0
   17.0070    7.3380    7.7880 H   0  0  0  0  0  0
   16.2820    8.9070    9.0760 C   0  0  0  0  0  0
   16.0300    9.5730    8.2520 H   0  0  0  0  0  0
   16.0560    9.3090   10.3910 C   0  0  0  0  0  0
   15.6280   10.2900   10.5940 H   0  0  0  0  0  0
   16.3790    8.4570   11.4490 C   0  0  0  0  0  0
   16.1960    8.7890   12.4700 H   0  0  0  0  0  0
    9.7240    0.7220   11.9570 N   0  0  0  0  0  0
    9.8940    0.1480   11.1450 H   0  0  0  0  0  0
    8.8890    0.5950   12.5100 H   0  0  0  0  0  0
  1  2  2  0  0  0
  1  6  1  0  0  0
  2  3  1  0  0  0
  2 37  1  0  0  0
  3  4  2  0  0  0
  4  5  1  0  0  0
  4 12  1  0  0  0
  5  6  2  0  0  0
  5 10  1  0  0  0
  6  7  1  0  0  0
  7  8  1  0  0  0
  7  9  1  0  0  0
 10 11  2  0  0  0
 10 20  1  0  0  0
 11 12  1  0  0  0
 11 13  1  0  0  0
 13 14  1  0  0  0
 13 15  1  0  0  0
 13 16  1  0  0  0
 16 17  1  0  0  0
 16 23  1  0  0  0
 17 18  1  0  0  0
 17 19  1  0  0  0
 17 20  1  0  0  0
 20 21  1  0  0  0
 20 22  1  0  0  0
 23 24  1  0  0  0
 23 25  1  0  0  0
 23 26  1  0  0  0
 26 27  1  0  0  0
 26 35  2  0  0  0
 27 28  1  0  0  0
 27 29  2  0  0  0
 29 30  1  0  0  0
 29 31  1  0  0  0
 31 32  1  0  0  0
 31 33  2  0  0  0
 33 34  1  0  0  0
 33 35  1  0  0  0
 35 36  1  0  0  0
 37 38  1  0  0  0
 37 39  1  0  0  0
M  END
>  <ACTIVITY>
4.82

>  <SET>
2

>  <Min_dist>
0.13

>  <Avg_dist>
0.65

$$$$
7-2
  Cerius2 12110214143D 1   1.00000                          
Structure written by Cerius2 SD Exporter
 51 54  0  0  0  0  0  0  0  0999 V2000
   10.3440    2.3860   13.4230 N   0  0  0  0  0  0
   10.6280    1.6640   12.3260 C   0  0  0  0  0  0
   11.7080    1.7950   11.5560 N   0  0  0  0  0  0
   12.5270    2.7600   11.9870 C   0  0  0  0  0  0
   12.3500    3.5800   13.0950 C   0  0  0  0  0  0
   11.1900    3.3560   13.8360 C   0  0  0  0  0  0
   10.8540    4.0600   14.9640 N   0  0  0  0  0  0
   11.4420    4.7920   15.3400 H   0  0  0  0  0  0
    9.9950    3.8350   15.4520 H   0  0  0  0  0  0
   13.4760    4.4380   13.1270 C   0  0  0  0  0  0
   14.2600    4.0750   12.0560 C   0  0  0  0  0  0
   13.6990    3.0650   11.3490 O   0  0  0  0  0  0
   15.5540    4.6810   11.6420 C   0  0  0  0  0  0
   15.3760    5.3360   10.7800 H   0  0  0  0  0  0
   16.2420    3.8850   11.3390 H   0  0  0  0  0  0
   16.1260    5.4470   12.7870 N   0  0  0  0  0  0
   15.0900    6.3240   13.4100 C   0  0  0  0  0  0
   14.6950    7.0220   12.6580 H   0  0  0  0  0  0
   15.5420    6.9290   14.2060 H   0  0  0  0  0  0
   13.9130    5.5250   14.0420 C   0  0  0  0  0  0
   14.2420    5.0810   14.9890 H   0  0  0  0  0  0
   13.0840    6.2080   14.2570 H   0  0  0  0  0  0
   17.2730    6.2630   12.3450 C   0  0  0  0  0  0
   18.0760    5.6080   11.9800 H   0  0  0  0  0  0
   17.6970    6.8270   13.1860 H   0  0  0  0  0  0
   16.9290    7.1900   11.1970 C   0  0  0  0  0  0
   17.1630    6.7970    9.8700 C   0  0  0  0  0  0
   17.5860    5.8170    9.6590 H   0  0  0  0  0  0
   16.8530    7.6590    8.8190 C   0  0  0  0  0  0
   16.3510    8.9410    9.0720 C   0  0  0  0  0  0
   16.0720    9.3260   10.3890 C   0  0  0  0  0  0
   16.3860    8.4610   11.4430 C   0  0  0  0  0  0
   16.1980    8.7830   12.4670 H   0  0  0  0  0  0
   15.5620   10.5420   10.7620 O   0  0  0  0  0  0
   15.2500   11.4040    9.6650 C   0  0  0  0  0  0
   14.4250   12.0510    9.9780 H   0  0  0  0  0  0
   14.9250   10.8520    8.7770 H   0  0  0  0  0  0
   16.1050   12.0460    9.4350 H   0  0  0  0  0  0
   16.1160    9.7900    8.0200 O   0  0  0  0  0  0
   16.4870    9.1540    6.7920 C   0  0  0  0  0  0
   16.3050    9.8650    5.9810 H   0  0  0  0  0  0
   15.8770    8.2630    6.6060 H   0  0  0  0  0  0
   17.5520    8.8960    6.7850 H   0  0  0  0  0  0
   17.1300    7.2500    7.5390 O   0  0  0  0  0  0
   17.6280    5.9070    7.5580 C   0  0  0  0  0  0
   17.8460    5.6190    6.5250 H   0  0  0  0  0  0
   16.8820    5.2110    7.9540 H   0  0  0  0  0  0
   18.5580    5.8400    8.1340 H   0  0  0  0  0  0
    9.7230    0.7080   11.9720 N   0  0  0  0  0  0
    9.8840    0.1430   11.1510 H   0  0  0  0  0  0
    8.8920    0.5800   12.5300 H   0  0  0  0  0  0
  1  2  2  0  0  0
  1  6  1  0  0  0
  2  3  1  0  0  0
  2 49  1  0  0  0
  3  4  2  0  0  0
  4  5  1  0  0  0
  4 12  1  0  0  0
  5  6  2  0  0  0
  5 10  1  0  0  0
  6  7  1  0  0  0
  7  8  1  0  0  0
  7  9  1  0  0  0
 10 11  2  0  0  0
 10 20  1  0  0  0
 11 12  1  0  0  0
 11 13  1  0  0  0
 13 14  1  0  0  0
 13 15  1  0  0  0
 13 16  1  0  0  0
 16 17  1  0  0  0
 16 23  1  0  0  0
 17 18  1  0  0  0
 17 19  1  0  0  0
 17 20  1  0  0  0
 20 21  1  0  0  0
 20 22  1  0  0  0
 23 24  1  0  0  0
 23 25  1  0  0  0
 23 26  1  0  0  0
 26 27  1  0  0  0
 26 32  2  0  0  0
 27 28  1  0  0  0
 27 29  2  0  0  0
 29 30  1  0  0  0
 29 44  1  0  0  0
 30 31  2  0  0  0
 30 39  1  0  0  0
 31 32  1  0  0  0
 31 34  1  0  0  0
 32 33  1  0  0  0
 34 35  1  0  0  0
 35 36  1  0  0  0
 35 37  1  0  0  0
 35 38  1  0  0  0
 39 40  1  0  0  0
 40 41  1  0  0  0
 40 42  1  0  0  0
 40 43  1  0  0  0
 44 45  1  0  0  0
 45 46  1  0  0  0
 45 47  1  0  0  0
 45 48  1  0  0  0
 49 50  1  0  0  0
 49 51  1  0  0  0
M  END
>  <ACTIVITY>
3.3

>  <SET>
3

>  <Min_dist>
0.2

>  <Avg_dist>
0.62

$$$$
7-3
  Cerius2 12110214143D 1   1.00000                          
Structure written by Cerius2 SD Exporter
 47 50  0  0  0  0  0  0  0  0999 V2000
   10.3410    2.4020   13.4090 N   0  0  0  0  0  0
   10.6300    1.6760   12.3160 C   0  0  0  0  0  0
   11.7140    1.8010   11.5510 N   0  0  0  0  0  0
   12.5340    2.7640   11.9860 C   0  0  0  0  0  0
   12.3550    3.5860   13.0920 C   0  0  0  0  0  0
   11.1880    3.3690   13.8250 C   0  0  0  0  0  0
   10.8460    4.0790   14.9480 N   0  0  0  0  0  0
   11.4340    4.8100   15.3260 H   0  0  0  0  0  0
    9.9810    3.8610   15.4280 H   0  0  0  0  0  0
   13.4870    4.4370   13.1310 C   0  0  0  0  0  0
   14.2730    4.0710   12.0630 C   0  0  0  0  0  0
   13.7110    3.0640   11.3530 O   0  0  0  0  0  0
   15.5710    4.6710   11.6530 C   0  0  0  0  0  0
   15.3980    5.3210   10.7860 H   0  0  0  0  0  0
   16.2570    3.8700   11.3580 H   0  0  0  0  0  0
   16.1420    5.4420   12.7960 N   0  0  0  0  0  0
   15.1050    6.3190   13.4180 C   0  0  0  0  0  0
   14.7110    7.0170   12.6660 H   0  0  0  0  0  0
   15.5560    6.9230   14.2150 H   0  0  0  0  0  0
   13.9250    5.5220   14.0480 C   0  0  0  0  0  0
   14.2520    5.0760   14.9950 H   0  0  0  0  0  0
   13.0980    6.2070   14.2630 H   0  0  0  0  0  0
   17.2840    6.2630   12.3480 C   0  0  0  0  0  0
   18.0890    5.6110   11.9820 H   0  0  0  0  0  0
   17.7110    6.8300   13.1860 H   0  0  0  0  0  0
   16.9320    7.1900   11.2030 C   0  0  0  0  0  0
   17.1550    6.8010    9.8750 C   0  0  0  0  0  0
   17.5820    5.8200    9.6680 H   0  0  0  0  0  0
   16.8320    7.6490    8.8120 C   0  0  0  0  0  0
   16.2820    8.9070    9.0760 C   0  0  0  0  0  0
   16.0290    9.5690    8.2550 H   0  0  0  0  0  0
   16.0550    9.3130   10.3950 C   0  0  0  0  0  0
   16.3810    8.4540   11.4490 C   0  0  0  0  0  0
   16.2010    8.7780   12.4740 H   0  0  0  0  0  0
   15.5260   10.5130   10.7860 O   0  0  0  0  0  0
   15.1840   11.4370    9.7540 C   0  0  0  0  0  0
   14.7860   12.3370   10.2320 H   0  0  0  0  0  0
   14.4020   11.0300    9.1050 H   0  0  0  0  0  0
   16.0680   11.7290    9.1780 H   0  0  0  0  0  0
   17.1030    7.1340    7.5730 O   0  0  0  0  0  0
   17.6670    5.8240    7.5260 C   0  0  0  0  0  0
   17.8240    5.5680    6.4730 H   0  0  0  0  0  0
   16.9810    5.0850    7.9500 H   0  0  0  0  0  0
   18.6410    5.7980    8.0250 H   0  0  0  0  0  0
    9.7260    0.7200   11.9590 N   0  0  0  0  0  0
    9.8950    0.1470   11.1460 H   0  0  0  0  0  0
    8.8910    0.5920   12.5130 H   0  0  0  0  0  0
  1  2  2  0  0  0
  1  6  1  0  0  0
  2  3  1  0  0  0
  2 45  1  0  0  0
  3  4  2  0  0  0
  4  5  1  0  0  0
  4 12  1  0  0  0
  5  6  2  0  0  0
  5 10  1  0  0  0
  6  7  1  0  0  0
  7  8  1  0  0  0
  7  9  1  0  0  0
 10 11  2  0  0  0
 10 20  1  0  0  0
 11 12  1  0  0  0
 11 13  1  0  0  0
 13 14  1  0  0  0
 13 15  1  0  0  0
 13 16  1  0  0  0
 16 17  1  0  0  0
 16 23  1  0  0  0
 17 18  1  0  0  0
 17 19  1  0  0  0
 17 20  1  0  0  0
 20 21  1  0  0  0
 20 22  1  0  0  0
 23 24  1  0  0  0
 23 25  1  0  0  0
 23 26  1  0  0  0
 26 27  1  0  0  0
 26 33  2  0  0  0
 27 28  1  0  0  0
 27 29  2  0  0  0
 29 30  1  0  0  0
 29 40  1  0  0  0
 30 31  1  0  0  0
 30 32  2  0  0  0
 32 33  1  0  0  0
 32 35  1  0  0  0
 33 34  1  0  0  0
 35 36  1  0  0  0
 36 37  1  0  0  0
 36 38  1  0  0  0
 36 39  1  0  0  0
 40 41  1  0  0  0
 41 42  1  0  0  0
 41 43  1  0  0  0
 41 44  1  0  0  0
 45 46  1  0  0  0
 45 47  1  0  0  0
M  END
>  <ACTIVITY>
4.64

>  <SET>
2

>  <Min_dist>
0.19

>  <Avg_dist>
0.64

$$$$
7-4
  Cerius2 12110214143D 1   1.00000                          
Structure written by Cerius2 SD Exporter
 39 42  0  0  0  0  0  0  0  0999 V2000
   10.3400    2.4000   13.4130 N   0  0  0  0  0  0
   10.6260    1.6730   12.3200 C   0  0  0  0  0  0
   11.7090    1.7980   11.5530 N   0  0  0  0  0  0
   12.5310    2.7600   11.9860 C   0  0  0  0  0  0
   12.3540    3.5830   13.0920 C   0  0  0  0  0  0
   11.1880    3.3660   13.8280 C   0  0  0  0  0  0
   10.8490    4.0750   14.9520 N   0  0  0  0  0  0
   11.4380    4.8060   15.3290 H   0  0  0  0  0  0
    9.9860    3.8570   15.4340 H   0  0  0  0  0  0
   13.4860    4.4340   13.1280 C   0  0  0  0  0  0
   14.2700    4.0660   12.0590 C   0  0  0  0  0  0
   13.7060    3.0600   11.3510 O   0  0  0  0  0  0
   15.5660    4.6670   11.6460 C   0  0  0  0  0  0
   15.3880    5.3200   10.7830 H   0  0  0  0  0  0
   16.2520    3.8680   11.3450 H   0  0  0  0  0  0
   16.1410    5.4350   12.7890 N   0  0  0  0  0  0
   15.1070    6.3130   13.4130 C   0  0  0  0  0  0
   14.7140    7.0120   12.6610 H   0  0  0  0  0  0
   15.5610    6.9160   14.2090 H   0  0  0  0  0  0
   13.9270    5.5180   14.0440 C   0  0  0  0  0  0
   14.2550    5.0720   14.9910 H   0  0  0  0  0  0
   13.1010    6.2040   14.2610 H   0  0  0  0  0  0
   17.2880    6.2510   12.3400 C   0  0  0  0  0  0
   18.0640    5.5900   11.9280 H   0  0  0  0  0  0
   17.7650    6.7530   13.1880 H   0  0  0  0  0  0
   16.9260    7.2130   11.2240 C   0  0  0  0  0  0
   16.3830    8.4650   11.5730 C   0  0  0  0  0  0
   16.2370    8.7210   12.6230 H   0  0  0  0  0  0
   16.0280    9.3940   10.5940 C   0  0  0  0  0  0
   15.6110   10.3540   10.8890 H   0  0  0  0  0  0
   16.2120    9.0830    9.2510 C   0  0  0  0  0  0
   16.7490    7.8530    8.8790 C   0  0  0  0  0  0
   16.8910    7.6200    7.8270 H   0  0  0  0  0  0
   17.1050    6.9220    9.8610 C   0  0  0  0  0  0
   17.7750    5.4230    9.3190 Cl  0  0  0  0  0  0
   15.7760   10.2270    8.0400 Cl  0  0  0  0  0  0
    9.7210    0.7180   11.9650 N   0  0  0  0  0  0
    9.8880    0.1440   11.1520 H   0  0  0  0  0  0
    8.8870    0.5920   12.5200 H   0  0  0  0  0  0
  1  2  2  0  0  0
  1  6  1  0  0  0
  2  3  1  0  0  0
  2 37  1  0  0  0
  3  4  2  0  0  0
  4  5  1  0  0  0
  4 12  1  0  0  0
  5  6  2  0  0  0
  5 10  1  0  0  0
  6  7  1  0  0  0
  7  8  1  0  0  0
  7  9  1  0  0  0
 10 11  2  0  0  0
 10 20  1  0  0  0
 11 12  1  0  0  0
 11 13  1  0  0  0
 13 14  1  0  0  0
 13 15  1  0  0  0
 13 16  1  0  0  0
 16 17  1  0  0  0
 16 23  1  0  0  0
 17 18  1  0  0  0
 17 19  1  0  0  0
 17 20  1  0  0  0
 20 21  1  0  0  0
 20 22  1  0  0  0
 23 24  1  0  0  0
 23 25  1  0  0  0
 23 26  1  0  0  0
 26 27  1  0  0  0
 26 34  2  0  0  0
 27 28  1  0  0  0
 27 29  2  0  0  0
 29 30  1  0  0  0
 29 31  1  0  0  0
 31 32  2  0  0  0
 31 36  1  0  0  0
 32 33  1  0  0  0
 32 34  1  0  0  0
 34 35  1  0  0  0
 37 38  1  0  0  0
 37 39  1  0  0  0
M  END
>  <ACTIVITY>
4.29

>  <SET>
1

>  <Min_dist>
999.9

>  <Avg_dist>
999.9

$$$$
7-5
  Cerius2 12110214143D 1   1.00000                          
Structure written by Cerius2 SD Exporter
 39 42  0  0  0  0  0  0  0  0999 V2000
   10.3400    2.4060   13.4060 N   0  0  0  0  0  0
   10.6300    1.6780   12.3140 C   0  0  0  0  0  0
   11.7150    1.8020   11.5500 N   0  0  0  0  0  0
   12.5360    2.7650   11.9850 C   0  0  0  0  0  0
   12.3560    3.5870   13.0910 C   0  0  0  0  0  0
   11.1880    3.3720   13.8230 C   0  0  0  0  0  0
   10.8460    4.0820   14.9460 N   0  0  0  0  0  0
   11.4340    4.8120   15.3240 H   0  0  0  0  0  0
    9.9810    3.8640   15.4250 H   0  0  0  0  0  0
   13.4890    4.4380   13.1310 C   0  0  0  0  0  0
   14.2760    4.0690   12.0640 C   0  0  0  0  0  0
   13.7130    3.0630   11.3540 O   0  0  0  0  0  0
   15.5750    4.6690   11.6550 C   0  0  0  0  0  0
   15.4030    5.3170   10.7870 H   0  0  0  0  0  0
   16.2610    3.8670   11.3630 H   0  0  0  0  0  0
   16.1450    5.4420   12.7970 N   0  0  0  0  0  0
   15.1070    6.3180   13.4180 C   0  0  0  0  0  0
   14.7140    7.0150   12.6650 H   0  0  0  0  0  0
   15.5580    6.9240   14.2140 H   0  0  0  0  0  0
   13.9280    5.5210   14.0480 C   0  0  0  0  0  0
   14.2550    5.0750   14.9950 H   0  0  0  0  0  0
   13.1010    6.2060   14.2640 H   0  0  0  0  0  0
   17.2870    6.2620   12.3480 C   0  0  0  0  0  0
   18.0910    5.6110   11.9820 H   0  0  0  0  0  0
   17.7140    6.8300   13.1860 H   0  0  0  0  0  0
   16.9320    7.1890   11.2030 C   0  0  0  0  0  0
   16.3620    8.4460   11.4550 C   0  0  0  0  0  0
   16.1740    8.7640   12.4800 H   0  0  0  0  0  0
   16.0350    9.3020   10.4010 C   0  0  0  0  0  0
   15.5950   10.2730   10.6220 H   0  0  0  0  0  0
   16.2730    8.9130    9.0810 C   0  0  0  0  0  0
   16.8390    7.6620    8.8160 C   0  0  0  0  0  0
   17.1660    6.8050    9.8740 C   0  0  0  0  0  0
   17.6070    5.8320    9.6610 H   0  0  0  0  0  0
   17.1620    7.1160    7.2070 Cl  0  0  0  0  0  0
   15.8450   10.0210    7.8230 Cl  0  0  0  0  0  0
    9.7250    0.7240   11.9570 N   0  0  0  0  0  0
    9.8950    0.1490   11.1440 H   0  0  0  0  0  0
    8.8900    0.5970   12.5090 H   0  0  0  0  0  0
  1  2  2  0  0  0
  1  6  1  0  0  0
  2  3  1  0  0  0
  2 37  1  0  0  0
  3  4  2  0  0  0
  4  5  1  0  0  0
  4 12  1  0  0  0
  5  6  2  0  0  0
  5 10  1  0  0  0
  6  7  1  0  0  0
  7  8  1  0  0  0
  7  9  1  0  0  0
 10 11  2  0  0  0
 10 20  1  0  0  0
 11 12  1  0  0  0
 11 13  1  0  0  0
 13 14  1  0  0  0
 13 15  1  0  0  0
 13 16  1  0  0  0
 16 17  1  0  0  0
 16 23  1  0  0  0
 17 18  1  0  0  0
 17 19  1  0  0  0
 17 20  1  0  0  0
 20 21  1  0  0  0
 20 22  1  0  0  0
 23 24  1  0  0  0
 23 25  1  0  0  0
 23 26  1  0  0  0
 26 27  1  0  0  0
 26 33  2  0  0  0
 27 28  1  0  0  0
 27 29  2  0  0  0
 29 30  1  0  0  0
 29 31  1  0  0  0
 31 32  2  0  0  0
 31 36  1  0  0  0
 32 33  1  0  0  0
 32 35  1  0  0  0
 33 34  1  0  0  0
 37 38  1  0  0  0
 37 39  1  0  0  0
M  END
>  <ACTIVITY>
4.69

>  <SET>
1

>  <Min_dist>
999.9

>  <Avg_dist>
999.9

$$$$
7-6
  Cerius2 12110214143D 1   1.00000                          
Structure written by Cerius2 SD Exporter
 39 42  0  0  0  0  0  0  0  0999 V2000
   10.3370    2.3790   13.4270 N   0  0  0  0  0  0
   10.6220    1.6560   12.3300 C   0  0  0  0  0  0
   11.7010    1.7890   11.5590 N   0  0  0  0  0  0
   12.5200    2.7540   11.9900 C   0  0  0  0  0  0
   12.3430    3.5730   13.1000 C   0  0  0  0  0  0
   11.1830    3.3490   13.8400 C   0  0  0  0  0  0
   10.8450    4.0530   14.9670 N   0  0  0  0  0  0
   11.4320    4.7870   15.3430 H   0  0  0  0  0  0
    9.9850    3.8290   15.4530 H   0  0  0  0  0  0
   13.4720    4.4300   13.1330 C   0  0  0  0  0  0
   14.2520    4.0690   12.0590 C   0  0  0  0  0  0
   13.6900    3.0620   11.3500 O   0  0  0  0  0  0
   15.5430    4.6790   11.6410 C   0  0  0  0  0  0
   15.3550    5.3350   10.7830 H   0  0  0  0  0  0
   16.2310    3.8840   11.3340 H   0  0  0  0  0  0
   16.1190    5.4440   12.7830 N   0  0  0  0  0  0
   15.0860    6.3160   13.4150 C   0  0  0  0  0  0
   14.6870    7.0170   12.6690 H   0  0  0  0  0  0
   15.5400    6.9160   14.2130 H   0  0  0  0  0  0
   13.9120    5.5130   14.0500 C   0  0  0  0  0  0
   14.2460    5.0660   14.9940 H   0  0  0  0  0  0
   13.0840    6.1950   14.2720 H   0  0  0  0  0  0
   17.2730    6.2580   12.3490 C   0  0  0  0  0  0
   18.0800    5.6020   11.9960 H   0  0  0  0  0  0
   17.7170    6.7790   13.2050 H   0  0  0  0  0  0
   16.9480    7.2020   11.2070 C   0  0  0  0  0  0
   17.1780    6.8230    9.8670 C   0  0  0  0  0  0
   16.8750    7.6850    8.8060 C   0  0  0  0  0  0
   17.0580    7.3800    7.7770 H   0  0  0  0  0  0
   16.3380    8.9430    9.0550 C   0  0  0  0  0  0
   16.1030    9.6120    8.2290 H   0  0  0  0  0  0
   16.1050    9.3420   10.3670 C   0  0  0  0  0  0
   15.6860   10.3290   10.5540 H   0  0  0  0  0  0
   16.4060    8.4840   11.4320 C   0  0  0  0  0  0
   16.0730    9.0860   13.0220 Cl  0  0  0  0  0  0
   17.8580    5.2860    9.4460 Cl  0  0  0  0  0  0
    9.7210    0.6970   11.9770 N   0  0  0  0  0  0
    9.8880    0.1260   11.1620 H   0  0  0  0  0  0
    8.8900    0.5650   12.5360 H   0  0  0  0  0  0
  1  2  2  0  0  0
  1  6  1  0  0  0
  2  3  1  0  0  0
  2 37  1  0  0  0
  3  4  2  0  0  0
  4  5  1  0  0  0
  4 12  1  0  0  0
  5  6  2  0  0  0
  5 10  1  0  0  0
  6  7  1  0  0  0
  7  8  1  0  0  0
  7  9  1  0  0  0
 10 11  2  0  0  0
 10 20  1  0  0  0
 11 12  1  0  0  0
 11 13  1  0  0  0
 13 14  1  0  0  0
 13 15  1  0  0  0
 13 16  1  0  0  0
 16 17  1  0  0  0
 16 23  1  0  0  0
 17 18  1  0  0  0
 17 19  1  0  0  0
 17 20  1  0  0  0
 20 21  1  0  0  0
 20 22  1  0  0  0
 23 24  1  0  0  0
 23 25  1  0  0  0
 23 26  1  0  0  0
 26 27  1  0  0  0
 26 34  2  0  0  0
 27 28  2  0  0  0
 27 36  1  0  0  0
 28 29  1  0  0  0
 28 30  1  0  0  0
 30 31  1  0  0  0
 30 32  2  0  0  0
 32 33  1  0  0  0
 32 34  1  0  0  0
 34 35  1  0  0  0
 37 38  1  0  0  0
 37 39  1  0  0  0
M  END
>  <ACTIVITY>
4.09

>  <SET>
2

>  <Min_dist>
0.03

>  <Avg_dist>
0.65

$$$$
8-3
  Cerius2 12110214143D 1   1.00000                          
Structure written by Cerius2 SD Exporter
 33 35  0  0  0  0  0  0  0  0999 V2000
   10.1170    2.6020   12.8390 N   0  0  0  0  0  0
   10.7620    1.9860   11.8500 C   0  0  0  0  0  0
   12.0430    2.1800   11.5450 N   0  0  0  0  0  0
   12.7310    3.0480   12.2720 C   0  0  0  0  0  0
   12.1630    3.7430   13.3360 C   0  0  0  0  0  0
   10.8200    3.4600   13.5880 C   0  0  0  0  0  0
   10.1040    4.0990   14.5850 N   0  0  0  0  0  0
   10.5650    4.2850   15.4700 H   0  0  0  0  0  0
    9.1320    3.8160   14.6680 H   0  0  0  0  0  0
   12.9640    4.6610   14.0550 C   0  0  0  0  0  0
   12.5390    5.2270   14.8820 H   0  0  0  0  0  0
   14.2960    4.8610   13.6990 C   0  0  0  0  0  0
   14.7630    4.1190   12.6290 C   0  0  0  0  0  0
   15.7910    4.2170   12.2840 H   0  0  0  0  0  0
   14.0110    3.2300   11.9300 N   0  0  0  0  0  0
   15.1730    5.8510   14.4180 C   0  0  0  0  0  0
   15.4310    5.4720   15.4130 H   0  0  0  0  0  0
   14.6190    6.7850   14.5520 H   0  0  0  0  0  0
   16.7060    6.1660   13.4680 S   0  0  0  0  0  0
   16.1230    7.2020   12.1340 C   0  0  0  0  0  0
   17.0280    7.5010   11.1070 C   0  0  0  0  0  0
   18.0500    7.1250   11.1420 H   0  0  0  0  0  0
   16.6410    8.2880   10.0200 C   0  0  0  0  0  0
   17.3560    8.5150    9.2310 H   0  0  0  0  0  0
   15.3410    8.7780    9.9450 C   0  0  0  0  0  0
   15.0370    9.3910    9.0980 H   0  0  0  0  0  0
   14.4280    8.4760   10.9530 C   0  0  0  0  0  0
   13.4080    8.8490   10.8900 H   0  0  0  0  0  0
   14.8160    7.6870   12.0400 C   0  0  0  0  0  0
   14.0680    7.4540   12.7950 H   0  0  0  0  0  0
   10.0600    1.0940   11.1000 N   0  0  0  0  0  0
   10.5180    0.5950   10.3510 H   0  0  0  0  0  0
    9.0920    0.9080   11.3190 H   0  0  0  0  0  0
  1  2  1  0  0  0
  1  6  2  0  0  0
  2  3  2  0  0  0
  2 31  1  0  0  0
  3  4  1  0  0  0
  4  5  2  0  0  0
  4 15  1  0  0  0
  5  6  1  0  0  0
  5 10  1  0  0  0
  6  7  1  0  0  0
  7  8  1  0  0  0
  7  9  1  0  0  0
 10 11  1  0  0  0
 10 12  2  0  0  0
 12 13  1  0  0  0
 12 16  1  0  0  0
 13 14  1  0  0  0
 13 15  2  0  0  0
 16 17  1  0  0  0
 16 18  1  0  0  0
 16 19  1  0  0  0
 19 20  1  0  0  0
 20 21  1  0  0  0
 20 29  2  0  0  0
 21 22  1  0  0  0
 21 23  2  0  0  0
 23 24  1  0  0  0
 23 25  1  0  0  0
 25 26  1  0  0  0
 25 27  2  0  0  0
 27 28  1  0  0  0
 27 29  1  0  0  0
 29 30  1  0  0  0
 31 32  1  0  0  0
 31 33  1  0  0  0
M  END
>  <ACTIVITY>
5.72

>  <SET>
1

>  <Min_dist>
999.9

>  <Avg_dist>
999.9

$$$$
8-6
  Cerius2 12110214143D 1   1.00000                          
Structure written by Cerius2 SD Exporter
 33 35  0  0  0  0  0  0  0  0999 V2000
   10.1240    2.5920   12.8480 N   0  0  0  0  0  0
   10.7700    1.9730   11.8630 C   0  0  0  0  0  0
   12.0480    2.1720   11.5530 N   0  0  0  0  0  0
   12.7310    3.0550   12.2660 C   0  0  0  0  0  0
   12.1590    3.7620   13.3210 C   0  0  0  0  0  0
   10.8210    3.4660   13.5840 C   0  0  0  0  0  0
   10.1040    4.1070   14.5790 N   0  0  0  0  0  0
   10.5680    4.3070   15.4590 H   0  0  0  0  0  0
    9.1360    3.8110   14.6720 H   0  0  0  0  0  0
   12.9530    4.7000   14.0230 C   0  0  0  0  0  0
   12.5250    5.2770   14.8400 H   0  0  0  0  0  0
   14.2850    4.8980   13.6650 C   0  0  0  0  0  0
   14.7550    4.1450   12.6030 C   0  0  0  0  0  0
   15.7820    4.2470   12.2550 H   0  0  0  0  0  0
   14.0070    3.2430   11.9170 N   0  0  0  0  0  0
   15.1600    5.8950   14.3690 C   0  0  0  0  0  0
   15.3590    5.5560   15.3920 H   0  0  0  0  0  0
   14.6380    6.8560   14.4480 H   0  0  0  0  0  0
   16.7350    6.1330   13.4740 S   0  0  0  0  0  0
   16.1300    7.1580   12.1330 C   0  0  0  0  0  0
   14.7960    7.5880   12.2000 C   0  0  0  0  0  0
   14.1700    7.3050   13.0440 H   0  0  0  0  0  0
   14.2610    8.3820   11.1860 C   0  0  0  0  0  0
   15.0410    8.7550   10.0940 C   0  0  0  0  0  0
   14.6270    9.3740    9.3020 H   0  0  0  0  0  0
   16.3670    8.3270   10.0130 C   0  0  0  0  0  0
   16.9680    8.6180    9.1540 H   0  0  0  0  0  0
   16.9120    7.5290   11.0250 C   0  0  0  0  0  0
   18.5590    7.0300   10.8430 Cl  0  0  0  0  0  0
   12.6240    8.9060   11.2840 Cl  0  0  0  0  0  0
   10.0720    1.0720   11.1200 N   0  0  0  0  0  0
   10.5280    0.5830   10.3630 H   0  0  0  0  0  0
    9.1000    0.8980   11.3290 H   0  0  0  0  0  0
  1  2  1  0  0  0
  1  6  2  0  0  0
  2  3  2  0  0  0
  2 31  1  0  0  0
  3  4  1  0  0  0
  4  5  2  0  0  0
  4 15  1  0  0  0
  5  6  1  0  0  0
  5 10  1  0  0  0
  6  7  1  0  0  0
  7  8  1  0  0  0
  7  9  1  0  0  0
 10 11  1  0  0  0
 10 12  2  0  0  0
 12 13  1  0  0  0
 12 16  1  0  0  0
 13 14  1  0  0  0
 13 15  2  0  0  0
 16 17  1  0  0  0
 16 18  1  0  0  0
 16 19  1  0  0  0
 19 20  1  0  0  0
 20 21  1  0  0  0
 20 28  2  0  0  0
 21 22  1  0  0  0
 21 23  2  0  0  0
 23 24  1  0  0  0
 23 30  1  0  0  0
 24 25  1  0  0  0
 24 26  2  0  0  0
 26 27  1  0  0  0
 26 28  1  0  0  0
 28 29  1  0  0  0
 31 32  1  0  0  0
 31 33  1  0  0  0
M  END
>  <ACTIVITY>
5.6

>  <SET>
1

>  <Min_dist>
999.9

>  <Avg_dist>
999.9

$$$$
8-7
  Cerius2 12110214143D 1   1.00000                          
Structure written by Cerius2 SD Exporter
 33 35  0  0  0  0  0  0  0  0999 V2000
   10.1230    2.5890   12.8470 N   0  0  0  0  0  0
   10.7710    1.9710   11.8620 C   0  0  0  0  0  0
   12.0490    2.1710   11.5540 N   0  0  0  0  0  0
   12.7300    3.0560   12.2670 C   0  0  0  0  0  0
   12.1550    3.7620   13.3210 C   0  0  0  0  0  0
   10.8180    3.4640   13.5840 C   0  0  0  0  0  0
   10.0990    4.1030   14.5790 N   0  0  0  0  0  0
   10.5620    4.3020   15.4590 H   0  0  0  0  0  0
    9.1320    3.8050   14.6700 H   0  0  0  0  0  0
   12.9470    4.7030   14.0230 C   0  0  0  0  0  0
   12.5160    5.2800   14.8390 H   0  0  0  0  0  0
   14.2780    4.9020   13.6670 C   0  0  0  0  0  0
   14.7510    4.1490   12.6060 C   0  0  0  0  0  0
   15.7790    4.2520   12.2600 H   0  0  0  0  0  0
   14.0060    3.2450   11.9200 N   0  0  0  0  0  0
   15.1510    5.9010   14.3720 C   0  0  0  0  0  0
   15.3540    5.5590   15.3930 H   0  0  0  0  0  0
   14.6250    6.8600   14.4520 H   0  0  0  0  0  0
   16.7260    6.1440   13.4730 S   0  0  0  0  0  0
   16.1510    7.1530   12.1180 C   0  0  0  0  0  0
   17.0440    7.4890   11.0950 C   0  0  0  0  0  0
   18.0690    7.1250   11.1190 H   0  0  0  0  0  0
   16.6210    8.2910   10.0350 C   0  0  0  0  0  0
   15.3160    8.7720    9.9840 C   0  0  0  0  0  0
   14.9920    9.3970    9.1570 H   0  0  0  0  0  0
   14.4340    8.4470   11.0100 C   0  0  0  0  0  0
   14.8430    7.6460   12.0770 C   0  0  0  0  0  0
   14.1420    7.4190   12.8760 H   0  0  0  0  0  0
   12.8190    9.0460   10.9670 Cl  0  0  0  0  0  0
   17.7270    8.6920    8.7760 Cl  0  0  0  0  0  0
   10.0740    1.0710   11.1160 N   0  0  0  0  0  0
   10.5310    0.5830   10.3600 H   0  0  0  0  0  0
    9.1000    0.9010   11.3200 H   0  0  0  0  0  0
  1  2  1  0  0  0
  1  6  2  0  0  0
  2  3  2  0  0  0
  2 31  1  0  0  0
  3  4  1  0  0  0
  4  5  2  0  0  0
  4 15  1  0  0  0
  5  6  1  0  0  0
  5 10  1  0  0  0
  6  7  1  0  0  0
  7  8  1  0  0  0
  7  9  1  0  0  0
 10 11  1  0  0  0
 10 12  2  0  0  0
 12 13  1  0  0  0
 12 16  1  0  0  0
 13 14  1  0  0  0
 13 15  2  0  0  0
 16 17  1  0  0  0
 16 18  1  0  0  0
 16 19  1  0  0  0
 19 20  1  0  0  0
 20 21  1  0  0  0
 20 27  2  0  0  0
 21 22  1  0  0  0
 21 23  2  0  0  0
 23 24  1  0  0  0
 23 30  1  0  0  0
 24 25  1  0  0  0
 24 26  2  0  0  0
 26 27  1  0  0  0
 26 29  1  0  0  0
 27 28  1  0  0  0
 31 32  1  0  0  0
 31 33  1  0  0  0
M  END
>  <ACTIVITY>
4.42

>  <SET>
2

>  <Min_dist>
0.11

>  <Avg_dist>
0.54

$$$$
8-8
  Cerius2 12110214143D 1   1.00000                          
Structure written by Cerius2 SD Exporter
 41 43  0  0  0  0  0  0  0  0999 V2000
   10.1220    2.6020   12.8390 N   0  0  0  0  0  0
   10.7680    1.9900   11.8480 C   0  0  0  0  0  0
   12.0490    2.1810   11.5490 N   0  0  0  0  0  0
   12.7350    3.0490   12.2760 C   0  0  0  0  0  0
   12.1640    3.7480   13.3370 C   0  0  0  0  0  0
   10.8220    3.4590   13.5900 C   0  0  0  0  0  0
   10.1060    4.0900   14.5920 N   0  0  0  0  0  0
   10.5680    4.2720   15.4770 H   0  0  0  0  0  0
    9.1360    3.8000   14.6770 H   0  0  0  0  0  0
   12.9610    4.6730   14.0530 C   0  0  0  0  0  0
   12.5320    5.2430   14.8740 H   0  0  0  0  0  0
   14.2960    4.8630   13.7050 C   0  0  0  0  0  0
   14.7670    4.1170   12.6380 C   0  0  0  0  0  0
   15.7960    4.2150   12.2980 H   0  0  0  0  0  0
   14.0150    3.2290   11.9380 N   0  0  0  0  0  0
   15.1750    5.8470   14.4260 C   0  0  0  0  0  0
   15.4460    5.4390   15.4060 H   0  0  0  0  0  0
   14.6230    6.7780   14.5950 H   0  0  0  0  0  0
   16.6910    6.1920   13.4610 S   0  0  0  0  0  0
   16.0900    7.1900   12.1020 C   0  0  0  0  0  0
   14.7440    7.5830   12.1520 C   0  0  0  0  0  0
   14.1140    7.2980   12.9940 H   0  0  0  0  0  0
   14.1770    8.3380   11.1210 C   0  0  0  0  0  0
   13.1280    8.6230   11.1750 H   0  0  0  0  0  0
   14.9510    8.7020   10.0230 C   0  0  0  0  0  0
   16.3050    8.3580    9.9810 C   0  0  0  0  0  0
   16.8610    7.5760   11.0000 C   0  0  0  0  0  0
   17.9030    7.2860   10.9080 H   0  0  0  0  0  0
   17.1410    8.6910    8.9470 O   0  0  0  0  0  0
   18.4740    8.2150    9.1590 C   0  0  0  0  0  0
   18.9420    8.0930    8.1780 H   0  0  0  0  0  0
   18.4930    7.2420    9.6640 H   0  0  0  0  0  0
   19.0580    8.9510    9.7190 H   0  0  0  0  0  0
   14.3460    9.4230    9.0290 O   0  0  0  0  0  0
   15.2870    9.7070    7.9870 C   0  0  0  0  0  0
   14.7420   10.1840    7.1670 H   0  0  0  0  0  0
   15.7440    8.7880    7.6020 H   0  0  0  0  0  0
   16.0590   10.4030    8.3320 H   0  0  0  0  0  0
   10.0650    1.1070   11.0880 N   0  0  0  0  0  0
   10.5200    0.6270   10.3260 H   0  0  0  0  0  0
    9.0900    0.9400   11.2880 H   0  0  0  0  0  0
  1  2  1  0  0  0
  1  6  2  0  0  0
  2  3  2  0  0  0
  2 39  1  0  0  0
  3  4  1  0  0  0
  4  5  2  0  0  0
  4 15  1  0  0  0
  5  6  1  0  0  0
  5 10  1  0  0  0
  6  7  1  0  0  0
  7  8  1  0  0  0
  7  9  1  0  0  0
 10 11  1  0  0  0
 10 12  2  0  0  0
 12 13  1  0  0  0
 12 16  1  0  0  0
 13 14  1  0  0  0
 13 15  2  0  0  0
 16 17  1  0  0  0
 16 18  1  0  0  0
 16 19  1  0  0  0
 19 20  1  0  0  0
 20 21  1  0  0  0
 20 27  2  0  0  0
 21 22  1  0  0  0
 21 23  2  0  0  0
 23 24  1  0  0  0
 23 25  1  0  0  0
 25 26  2  0  0  0
 25 34  1  0  0  0
 26 27  1  0  0  0
 26 29  1  0  0  0
 27 28  1  0  0  0
 29 30  1  0  0  0
 30 31  1  0  0  0
 30 32  1  0  0  0
 30 33  1  0  0  0
 34 35  1  0  0  0
 35 36  1  0  0  0
 35 37  1  0  0  0
 35 38  1  0  0  0
 39 40  1  0  0  0
 39 41  1  0  0  0
M  END
>  <ACTIVITY>
5.4

>  <SET>
2

>  <Min_dist>
0.06

>  <Avg_dist>
0.51

$$$$
9-12c
  Cerius2 12110214143D 1   1.00000                          
Structure written by Cerius2 SD Exporter
 38 41  0  0  0  0  0  0  0  0999 V2000
   10.1250    2.5480   12.8460 N   0  0  0  0  0  0
   10.7790    1.9220   11.8710 C   0  0  0  0  0  0
   12.0490    2.1500   11.5500 N   0  0  0  0  0  0
   12.7080    3.0690   12.2500 C   0  0  0  0  0  0
   12.1390    3.7980   13.3020 C   0  0  0  0  0  0
   10.8110    3.4630   13.5530 C   0  0  0  0  0  0
   10.0830    4.1300   14.5310 N   0  0  0  0  0  0
   10.5940    4.4920   15.3310 H   0  0  0  0  0  0
    9.1330    3.8140   14.6930 H   0  0  0  0  0  0
   12.8410    4.7420   14.0090 N   0  0  0  0  0  0
   14.1300    4.9500   13.6430 C   0  0  0  0  0  0
   14.6800    4.2200   12.6030 C   0  0  0  0  0  0
   15.7120    4.3630   12.2940 H   0  0  0  0  0  0
   13.9820    3.2850   11.9040 N   0  0  0  0  0  0
   14.9460    5.9660   14.3970 C   0  0  0  0  0  0
   15.0210    5.6590   15.4460 H   0  0  0  0  0  0
   14.4390    6.9380   14.3750 H   0  0  0  0  0  0
   16.6320    6.1220   13.7030 S   0  0  0  0  0  0
   16.2300    7.1050   12.2510 C   0  0  0  0  0  0
   14.9120    7.5770   12.1650 C   0  0  0  0  0  0
   14.1860    7.3490   12.9440 H   0  0  0  0  0  0
   14.5060    8.3440   11.0780 C   0  0  0  0  0  0
   13.4810    8.7030   11.0160 H   0  0  0  0  0  0
   15.4150    8.6500   10.0690 C   0  0  0  0  0  0
   15.0750    9.2520    9.2260 H   0  0  0  0  0  0
   16.7420    8.2000   10.1320 C   0  0  0  0  0  0
   17.1760    7.4180   11.2340 C   0  0  0  0  0  0
   18.5310    7.0010   11.2430 C   0  0  0  0  0  0
   18.9260    6.4070   12.0660 H   0  0  0  0  0  0
   19.4120    7.3350   10.2110 C   0  0  0  0  0  0
   20.4460    6.9980   10.2480 H   0  0  0  0  0  0
   18.9650    8.0960    9.1400 C   0  0  0  0  0  0
   19.6470    8.3590    8.3330 H   0  0  0  0  0  0
   17.6400    8.5270    9.1020 C   0  0  0  0  0  0
   17.3120    9.1260    8.2530 H   0  0  0  0  0  0
   10.1010    0.9880   11.1520 N   0  0  0  0  0  0
   10.5640    0.4940   10.4030 H   0  0  0  0  0  0
    9.1350    0.7940   11.3700 H   0  0  0  0  0  0
  1  2  1  0  0  0
  1  6  2  0  0  0
  2  3  2  0  0  0
  2 36  1  0  0  0
  3  4  1  0  0  0
  4  5  2  0  0  0
  4 14  1  0  0  0
  5  6  1  0  0  0
  5 10  1  0  0  0
  6  7  1  0  0  0
  7  8  1  0  0  0
  7  9  1  0  0  0
 10 11  2  0  0  0
 11 12  1  0  0  0
 11 15  1  0  0  0
 12 13  1  0  0  0
 12 14  2  0  0  0
 15 16  1  0  0  0
 15 17  1  0  0  0
 15 18  1  0  0  0
 18 19  1  0  0  0
 19 20  2  0  0  0
 19 27  1  0  0  0
 20 21  1  0  0  0
 20 22  1  0  0  0
 22 23  1  0  0  0
 22 24  2  0  0  0
 24 25  1  0  0  0
 24 26  1  0  0  0
 26 27  2  0  0  0
 26 34  1  0  0  0
 27 28  1  0  0  0
 28 29  1  0  0  0
 28 30  2  0  0  0
 30 31  1  0  0  0
 30 32  1  0  0  0
 32 33  1  0  0  0
 32 34  2  0  0  0
 34 35  1  0  0  0
 36 37  1  0  0  0
 36 38  1  0  0  0
M  END
>  <ACTIVITY>
5.09

>  <SET>
1

>  <Min_dist>
999.9

>  <Avg_dist>
999.9

$$$$
9-12d
  Cerius2 12110214143D 1   1.00000                          
Structure written by Cerius2 SD Exporter
 35 37  0  0  0  0  0  0  0  0999 V2000
   10.1470    2.6100   12.8580 N   0  0  0  0  0  0
   10.7680    1.9840   11.8620 C   0  0  0  0  0  0
   12.0440    2.1660   11.5390 N   0  0  0  0  0  0
   12.7420    3.0420   12.2540 C   0  0  0  0  0  0
   12.2110    3.7690   13.3270 C   0  0  0  0  0  0
   10.8730    3.4790   13.5820 C   0  0  0  0  0  0
   10.1800    4.1480   14.5840 N   0  0  0  0  0  0
   10.7120    4.4740   15.3860 H   0  0  0  0  0  0
    9.2200    3.8640   14.7480 H   0  0  0  0  0  0
   12.9540    4.6710   14.0470 N   0  0  0  0  0  0
   14.2450    4.8420   13.6660 C   0  0  0  0  0  0
   14.7560    4.1170   12.6040 C   0  0  0  0  0  0
   15.7850    4.2410   12.2770 H   0  0  0  0  0  0
   14.0200    3.2170   11.9000 N   0  0  0  0  0  0
   15.0920    5.8560   14.3910 C   0  0  0  0  0  0
   15.2960    5.5060   15.4090 H   0  0  0  0  0  0
   14.5340    6.7960   14.4630 H   0  0  0  0  0  0
   16.6640    6.1580   13.4960 S   0  0  0  0  0  0
   16.1100    7.1860   12.1450 C   0  0  0  0  0  0
   14.7890    7.6490   12.1720 C   0  0  0  0  0  0
   14.1210    7.3790   12.9890 H   0  0  0  0  0  0
   14.3000    8.4570   11.1440 C   0  0  0  0  0  0
   13.2680    8.8020   11.1690 H   0  0  0  0  0  0
   15.1290    8.8190   10.0840 C   0  0  0  0  0  0
   14.7300    9.4430    9.2850 H   0  0  0  0  0  0
   16.4600    8.3910   10.0530 C   0  0  0  0  0  0
   16.9410    7.5700   11.0860 C   0  0  0  0  0  0
   17.9790    7.2440   11.0550 H   0  0  0  0  0  0
   17.3440    8.7640    8.8970 C   0  0  0  0  0  0
   18.4010    8.7260    9.1790 H   0  0  0  0  0  0
   17.1340    9.7860    8.5640 H   0  0  0  0  0  0
   17.1790    8.0750    8.0640 H   0  0  0  0  0  0
   10.0460    1.0990   11.1230 N   0  0  0  0  0  0
   10.4830    0.6120   10.3540 H   0  0  0  0  0  0
    9.0720    0.9450   11.3390 H   0  0  0  0  0  0
  1  2  1  0  0  0
  1  6  2  0  0  0
  2  3  2  0  0  0
  2 33  1  0  0  0
  3  4  1  0  0  0
  4  5  2  0  0  0
  4 14  1  0  0  0
  5  6  1  0  0  0
  5 10  1  0  0  0
  6  7  1  0  0  0
  7  8  1  0  0  0
  7  9  1  0  0  0
 10 11  2  0  0  0
 11 12  1  0  0  0
 11 15  1  0  0  0
 12 13  1  0  0  0
 12 14  2  0  0  0
 15 16  1  0  0  0
 15 17  1  0  0  0
 15 18  1  0  0  0
 18 19  1  0  0  0
 19 20  1  0  0  0
 19 27  2  0  0  0
 20 21  1  0  0  0
 20 22  2  0  0  0
 22 23  1  0  0  0
 22 24  1  0  0  0
 24 25  1  0  0  0
 24 26  2  0  0  0
 26 27  1  0  0  0
 26 29  1  0  0  0
 27 28  1  0  0  0
 29 30  1  0  0  0
 29 31  1  0  0  0
 29 32  1  0  0  0
 33 34  1  0  0  0
 33 35  1  0  0  0
M  END
>  <ACTIVITY>
5.07

>  <SET>
1

>  <Min_dist>
999.9

>  <Avg_dist>
999.9

$$$$
9-12e
  Cerius2 12110214143D 1   1.00000                          
Structure written by Cerius2 SD Exporter
 35 37  0  0  0  0  0  0  0  0999 V2000
   10.1490    2.6040   12.8660 N   0  0  0  0  0  0
   10.7690    1.9700   11.8750 C   0  0  0  0  0  0
   12.0410    2.1600   11.5390 N   0  0  0  0  0  0
   12.7380    3.0490   12.2400 C   0  0  0  0  0  0
   12.2070    3.7840   13.3070 C   0  0  0  0  0  0
   10.8730    3.4880   13.5750 C   0  0  0  0  0  0
   10.1830    4.1630   14.5750 N   0  0  0  0  0  0
   10.7210    4.4980   15.3700 H   0  0  0  0  0  0
    9.2270    3.8750   14.7510 H   0  0  0  0  0  0
   12.9480    4.6960   14.0170 N   0  0  0  0  0  0
   14.2390    4.8640   13.6380 C   0  0  0  0  0  0
   14.7510    4.1330   12.5790 C   0  0  0  0  0  0
   15.7810    4.2520   12.2530 H   0  0  0  0  0  0
   14.0150    3.2270   11.8810 N   0  0  0  0  0  0
   15.0890    5.8630   14.3800 C   0  0  0  0  0  0
   15.2730    5.5020   15.3970 H   0  0  0  0  0  0
   14.5410    6.8090   14.4560 H   0  0  0  0  0  0
   16.6790    6.1620   13.5180 S   0  0  0  0  0  0
   16.1200    7.1620   12.1490 C   0  0  0  0  0  0
   17.0280    7.4790   11.1330 C   0  0  0  0  0  0
   18.0520    7.1100   11.1690 H   0  0  0  0  0  0
   16.6350    8.2690   10.0490 C   0  0  0  0  0  0
   17.3570    8.4910    9.2640 H   0  0  0  0  0  0
   15.3310    8.7700    9.9730 C   0  0  0  0  0  0
   14.4240    8.4540   10.9890 C   0  0  0  0  0  0
   13.4000    8.8260   10.9490 H   0  0  0  0  0  0
   14.8190    7.6650   12.0740 C   0  0  0  0  0  0
   14.0920    7.4610   12.8580 H   0  0  0  0  0  0
   14.8980    9.5870    8.7900 C   0  0  0  0  0  0
   14.5320    8.9310    7.9950 H   0  0  0  0  0  0
   15.7320   10.1830    8.4040 H   0  0  0  0  0  0
   14.1010   10.2850    9.0680 H   0  0  0  0  0  0
   10.0520    1.0670   11.1550 N   0  0  0  0  0  0
   10.4870    0.5680   10.3930 H   0  0  0  0  0  0
    9.0820    0.9030   11.3830 H   0  0  0  0  0  0
  1  2  1  0  0  0
  1  6  2  0  0  0
  2  3  2  0  0  0
  2 33  1  0  0  0
  3  4  1  0  0  0
  4  5  2  0  0  0
  4 14  1  0  0  0
  5  6  1  0  0  0
  5 10  1  0  0  0
  6  7  1  0  0  0
  7  8  1  0  0  0
  7  9  1  0  0  0
 10 11  2  0  0  0
 11 12  1  0  0  0
 11 15  1  0  0  0
 12 13  1  0  0  0
 12 14  2  0  0  0
 15 16  1  0  0  0
 15 17  1  0  0  0
 15 18  1  0  0  0
 18 19  1  0  0  0
 19 20  1  0  0  0
 19 27  2  0  0  0
 20 21  1  0  0  0
 20 22  2  0  0  0
 22 23  1  0  0  0
 22 24  1  0  0  0
 24 25  2  0  0  0
 24 29  1  0  0  0
 25 26  1  0  0  0
 25 27  1  0  0  0
 27 28  1  0  0  0
 29 30  1  0  0  0
 29 31  1  0  0  0
 29 32  1  0  0  0
 33 34  1  0  0  0
 33 35  1  0  0  0
M  END
>  <ACTIVITY>
4.59

>  <SET>
1

>  <Min_dist>
999.9

>  <Avg_dist>
999.9

$$$$
9-12f
  Cerius2 12110214143D 1   1.00000                          
Structure written by Cerius2 SD Exporter
 36 38  0  0  0  0  0  0  0  0999 V2000
   10.1480    2.6040   12.8650 N   0  0  0  0  0  0
   10.7700    1.9700   11.8740 C   0  0  0  0  0  0
   12.0410    2.1610   11.5400 N   0  0  0  0  0  0
   12.7370    3.0490   12.2420 C   0  0  0  0  0  0
   12.2070    3.7850   13.3100 C   0  0  0  0  0  0
   10.8720    3.4870   13.5760 C   0  0  0  0  0  0
   10.1790    4.1590   14.5750 N   0  0  0  0  0  0
   10.7130    4.4950   15.3720 H   0  0  0  0  0  0
    9.2230    3.8700   14.7490 H   0  0  0  0  0  0
   12.9490    4.6960   14.0190 N   0  0  0  0  0  0
   14.2390    4.8630   13.6380 C   0  0  0  0  0  0
   14.7500    4.1310   12.5800 C   0  0  0  0  0  0
   15.7800    4.2490   12.2530 H   0  0  0  0  0  0
   14.0140    3.2270   11.8820 N   0  0  0  0  0  0
   15.0870    5.8720   14.3690 C   0  0  0  0  0  0
   15.2720    5.5270   15.3930 H   0  0  0  0  0  0
   14.5380    6.8170   14.4300 H   0  0  0  0  0  0
   16.6800    6.1540   13.5060 S   0  0  0  0  0  0
   16.1300    7.1830   12.1530 C   0  0  0  0  0  0
   14.8290    7.6930   12.1870 C   0  0  0  0  0  0
   14.1590    7.4570   13.0120 H   0  0  0  0  0  0
   14.3670    8.5110   11.1560 C   0  0  0  0  0  0
   13.3530    8.9030   11.1830 H   0  0  0  0  0  0
   15.2100    8.8270   10.0910 C   0  0  0  0  0  0
   14.8410    9.4660    9.2900 H   0  0  0  0  0  0
   16.5180    8.3370   10.0500 C   0  0  0  0  0  0
   16.9770    7.5200   11.0860 C   0  0  0  0  0  0
   17.9960    7.1460   11.0880 H   0  0  0  0  0  0
   17.2410    8.7310    8.9570 O   0  0  0  0  0  0
   18.5810    8.2520    8.8640 C   0  0  0  0  0  0
   19.0130    8.6460    7.9390 H   0  0  0  0  0  0
   18.6060    7.1590    8.8050 H   0  0  0  0  0  0
   19.1880    8.6190    9.6990 H   0  0  0  0  0  0
   10.0520    1.0690   11.1520 N   0  0  0  0  0  0
   10.4900    0.5710   10.3900 H   0  0  0  0  0  0
    9.0810    0.9090   11.3760 H   0  0  0  0  0  0
  1  2  1  0  0  0
  1  6  2  0  0  0
  2  3  2  0  0  0
  2 34  1  0  0  0
  3  4  1  0  0  0
  4  5  2  0  0  0
  4 14  1  0  0  0
  5  6  1  0  0  0
  5 10  1  0  0  0
  6  7  1  0  0  0
  7  8  1  0  0  0
  7  9  1  0  0  0
 10 11  2  0  0  0
 11 12  1  0  0  0
 11 15  1  0  0  0
 12 13  1  0  0  0
 12 14  2  0  0  0
 15 16  1  0  0  0
 15 17  1  0  0  0
 15 18  1  0  0  0
 18 19  1  0  0  0
 19 20  1  0  0  0
 19 27  2  0  0  0
 20 21  1  0  0  0
 20 22  2  0  0  0
 22 23  1  0  0  0
 22 24  1  0  0  0
 24 25  1  0  0  0
 24 26  2  0  0  0
 26 27  1  0  0  0
 26 29  1  0  0  0
 27 28  1  0  0  0
 29 30  1  0  0  0
 30 31  1  0  0  0
 30 32  1  0  0  0
 30 33  1  0  0  0
 34 35  1  0  0  0
 34 36  1  0  0  0
M  END
>  <ACTIVITY>
5.11

>  <SET>
1

>  <Min_dist>
999.9

>  <Avg_dist>
999.9

$$$$
9-12g
  Cerius2 12110214143D 1   1.00000                          
Structure written by Cerius2 SD Exporter
 36 38  0  0  0  0  0  0  0  0999 V2000
   10.1490    2.6010   12.8680 N   0  0  0  0  0  0
   10.7700    1.9650   11.8790 C   0  0  0  0  0  0
   12.0410    2.1600   11.5400 N   0  0  0  0  0  0
   12.7360    3.0530   12.2370 C   0  0  0  0  0  0
   12.2050    3.7890   13.3040 C   0  0  0  0  0  0
   10.8710    3.4900   13.5720 C   0  0  0  0  0  0
   10.1780    4.1680   14.5670 N   0  0  0  0  0  0
   10.7110    4.5100   15.3620 H   0  0  0  0  0  0
    9.2220    3.8780   14.7410 H   0  0  0  0  0  0
   12.9460    4.7020   14.0110 N   0  0  0  0  0  0
   14.2350    4.8730   13.6300 C   0  0  0  0  0  0
   14.7460    4.1430   12.5710 C   0  0  0  0  0  0
   15.7750    4.2660   12.2410 H   0  0  0  0  0  0
   14.0110    3.2350   11.8750 N   0  0  0  0  0  0
   15.0830    5.8810   14.3610 C   0  0  0  0  0  0
   15.2600    5.5430   15.3880 H   0  0  0  0  0  0
   14.5410    6.8310   14.4130 H   0  0  0  0  0  0
   16.6850    6.1440   13.5100 S   0  0  0  0  0  0
   16.1430    7.1730   12.1600 C   0  0  0  0  0  0
   14.8320    7.6510   12.0850 C   0  0  0  0  0  0
   14.1050    7.4080   12.8590 H   0  0  0  0  0  0
   14.4210    8.4430   11.0040 C   0  0  0  0  0  0
   13.3920    8.7900   10.9940 H   0  0  0  0  0  0
   15.3190    8.7570    9.9840 C   0  0  0  0  0  0
   16.6260    8.2710   10.0550 C   0  0  0  0  0  0
   17.3380    8.5040    9.2650 H   0  0  0  0  0  0
   17.0360    7.4790   11.1320 C   0  0  0  0  0  0
   18.0610    7.1120   11.1560 H   0  0  0  0  0  0
   15.0470    9.5150    8.8790 O   0  0  0  0  0  0
   16.1170    9.7120    7.9570 C   0  0  0  0  0  0
   15.7410   10.3340    7.1390 H   0  0  0  0  0  0
   16.4480    8.7610    7.5290 H   0  0  0  0  0  0
   16.9480   10.2480    8.4280 H   0  0  0  0  0  0
   10.0570    1.0520   11.1660 N   0  0  0  0  0  0
   10.4960    0.5470   10.4110 H   0  0  0  0  0  0
    9.0910    0.8760   11.4040 H   0  0  0  0  0  0
  1  2  1  0  0  0
  1  6  2  0  0  0
  2  3  2  0  0  0
  2 34  1  0  0  0
  3  4  1  0  0  0
  4  5  2  0  0  0
  4 14  1  0  0  0
  5  6  1  0  0  0
  5 10  1  0  0  0
  6  7  1  0  0  0
  7  8  1  0  0  0
  7  9  1  0  0  0
 10 11  2  0  0  0
 11 12  1  0  0  0
 11 15  1  0  0  0
 12 13  1  0  0  0
 12 14  2  0  0  0
 15 16  1  0  0  0
 15 17  1  0  0  0
 15 18  1  0  0  0
 18 19  1  0  0  0
 19 20  1  0  0  0
 19 27  2  0  0  0
 20 21  1  0  0  0
 20 22  2  0  0  0
 22 23  1  0  0  0
 22 24  1  0  0  0
 24 25  2  0  0  0
 24 29  1  0  0  0
 25 26  1  0  0  0
 25 27  1  0  0  0
 27 28  1  0  0  0
 29 30  1  0  0  0
 30 31  1  0  0  0
 30 32  1  0  0  0
 30 33  1  0  0  0
 34 35  1  0  0  0
 34 36  1  0  0  0
M  END
>  <ACTIVITY>
4.99

>  <SET>
1

>  <Min_dist>
999.9

>  <Avg_dist>
999.9

$$$$
9-12h
  Cerius2 12110214143D 1   1.00000                          
Structure written by Cerius2 SD Exporter
 40 42  0  0  0  0  0  0  0  0999 V2000
   10.1460    2.6090   12.8620 N   0  0  0  0  0  0
   10.7660    1.9770   11.8690 C   0  0  0  0  0  0
   12.0400    2.1630   11.5390 N   0  0  0  0  0  0
   12.7400    3.0440   12.2470 C   0  0  0  0  0  0
   12.2110    3.7720   13.3200 C   0  0  0  0  0  0
   10.8730    3.4840   13.5780 C   0  0  0  0  0  0
   10.1810    4.1620   14.5750 N   0  0  0  0  0  0
   10.7150    4.4920   15.3740 H   0  0  0  0  0  0
    9.2200    3.8860   14.7390 H   0  0  0  0  0  0
   12.9560    4.6730   14.0380 N   0  0  0  0  0  0
   14.2460    4.8450   13.6570 C   0  0  0  0  0  0
   14.7540    4.1260   12.5890 C   0  0  0  0  0  0
   15.7810    4.2510   12.2570 H   0  0  0  0  0  0
   14.0160    3.2250   11.8860 N   0  0  0  0  0  0
   15.0960    5.8480   14.3930 C   0  0  0  0  0  0
   15.3040    5.4910   15.4070 H   0  0  0  0  0  0
   14.5380    6.7870   14.4760 H   0  0  0  0  0  0
   16.6680    6.1560   13.5020 S   0  0  0  0  0  0
   16.1130    7.1930   12.1570 C   0  0  0  0  0  0
   14.7620    7.5470   12.1190 C   0  0  0  0  0  0
   14.0720    7.1800   12.8780 H   0  0  0  0  0  0
   14.2680    8.3760   11.1080 C   0  0  0  0  0  0
   13.2080    8.6130   11.1250 H   0  0  0  0  0  0
   15.1250    8.8720   10.1220 C   0  0  0  0  0  0
   16.4930    8.5310   10.1580 C   0  0  0  0  0  0
   16.9770    7.7000   11.1780 C   0  0  0  0  0  0
   18.0320    7.4540   11.2320 H   0  0  0  0  0  0
   17.2680    9.0700    9.1590 O   0  0  0  0  0  0
   18.6570    8.7500    9.1590 C   0  0  0  0  0  0
   19.1090    9.2360    8.2880 H   0  0  0  0  0  0
   18.8140    7.6710    9.0580 H   0  0  0  0  0  0
   19.1510    9.1430   10.0530 H   0  0  0  0  0  0
   14.7350    9.6920    9.0920 O   0  0  0  0  0  0
   15.7410   10.1070    8.1710 C   0  0  0  0  0  0
   15.2620   10.7480    7.4250 H   0  0  0  0  0  0
   16.1720    9.2490    7.6450 H   0  0  0  0  0  0
   16.5140   10.6990    8.6710 H   0  0  0  0  0  0
   10.0470    1.0810   11.1410 N   0  0  0  0  0  0
   10.4860    0.5800   10.3820 H   0  0  0  0  0  0
    9.0760    0.9170   11.3640 H   0  0  0  0  0  0
  1  2  1  0  0  0
  1  6  2  0  0  0
  2  3  2  0  0  0
  2 38  1  0  0  0
  3  4  1  0  0  0
  4  5  2  0  0  0
  4 14  1  0  0  0
  5  6  1  0  0  0
  5 10  1  0  0  0
  6  7  1  0  0  0
  7  8  1  0  0  0
  7  9  1  0  0  0
 10 11  2  0  0  0
 11 12  1  0  0  0
 11 15  1  0  0  0
 12 13  1  0  0  0
 12 14  2  0  0  0
 15 16  1  0  0  0
 15 17  1  0  0  0
 15 18  1  0  0  0
 18 19  1  0  0  0
 19 20  1  0  0  0
 19 26  2  0  0  0
 20 21  1  0  0  0
 20 22  2  0  0  0
 22 23  1  0  0  0
 22 24  1  0  0  0
 24 25  2  0  0  0
 24 33  1  0  0  0
 25 26  1  0  0  0
 25 28  1  0  0  0
 26 27  1  0  0  0
 28 29  1  0  0  0
 29 30  1  0  0  0
 29 31  1  0  0  0
 29 32  1  0  0  0
 33 34  1  0  0  0
 34 35  1  0  0  0
 34 36  1  0  0  0
 34 37  1  0  0  0
 38 39  1  0  0  0
 38 40  1  0  0  0
M  END
>  <ACTIVITY>
4.44

>  <SET>
2

>  <Min_dist>
0.1

>  <Avg_dist>
0.55

$$$$
9-12i
  Cerius2 12110214143D 1   1.00000                          
Structure written by Cerius2 SD Exporter
 32 34  0  0  0  0  0  0  0  0999 V2000
   10.1480    2.5960   12.8680 N   0  0  0  0  0  0
   10.7710    1.9600   11.8800 C   0  0  0  0  0  0
   12.0420    2.1560   11.5420 N   0  0  0  0  0  0
   12.7340    3.0530   12.2380 C   0  0  0  0  0  0
   12.2000    3.7910   13.3020 C   0  0  0  0  0  0
   10.8670    3.4880   13.5710 C   0  0  0  0  0  0
   10.1710    4.1650   14.5650 N   0  0  0  0  0  0
   10.7040    4.5070   15.3600 H   0  0  0  0  0  0
    9.2160    3.8710   14.7390 H   0  0  0  0  0  0
   12.9360    4.7120   14.0050 N   0  0  0  0  0  0
   14.2240    4.8870   13.6220 C   0  0  0  0  0  0
   14.7400    4.1520   12.5690 C   0  0  0  0  0  0
   15.7680    4.2760   12.2410 H   0  0  0  0  0  0
   14.0090    3.2370   11.8770 N   0  0  0  0  0  0
   15.0680    5.9000   14.3520 C   0  0  0  0  0  0
   15.2190    5.5720   15.3860 H   0  0  0  0  0  0
   14.5330    6.8560   14.3790 H   0  0  0  0  0  0
   16.6840    6.1490   13.5230 S   0  0  0  0  0  0
   16.1810    7.1690   12.1470 C   0  0  0  0  0  0
   14.8600    7.6300   12.1000 C   0  0  0  0  0  0
   14.1570    7.3830   12.8940 H   0  0  0  0  0  0
   14.4230    8.4230   11.0360 C   0  0  0  0  0  0
   13.3960    8.7830   11.0110 H   0  0  0  0  0  0
   15.3030    8.7510   10.0050 C   0  0  0  0  0  0
   14.9590    9.3690    9.1790 H   0  0  0  0  0  0
   16.6130    8.2790   10.0420 C   0  0  0  0  0  0
   17.0550    7.4870   11.1030 C   0  0  0  0  0  0
   18.0760    7.1150   11.1010 H   0  0  0  0  0  0
   17.6980    8.6730    8.7630 Cl  0  0  0  0  0  0
   10.0590    1.0480   11.1660 N   0  0  0  0  0  0
   10.4960    0.5490   10.4050 H   0  0  0  0  0  0
    9.0900    0.8800   11.3960 H   0  0  0  0  0  0
  1  2  1  0  0  0
  1  6  2  0  0  0
  2  3  2  0  0  0
  2 30  1  0  0  0
  3  4  1  0  0  0
  4  5  2  0  0  0
  4 14  1  0  0  0
  5  6  1  0  0  0
  5 10  1  0  0  0
  6  7  1  0  0  0
  7  8  1  0  0  0
  7  9  1  0  0  0
 10 11  2  0  0  0
 11 12  1  0  0  0
 11 15  1  0  0  0
 12 13  1  0  0  0
 12 14  2  0  0  0
 15 16  1  0  0  0
 15 17  1  0  0  0
 15 18  1  0  0  0
 18 19  1  0  0  0
 19 20  1  0  0  0
 19 27  2  0  0  0
 20 21  1  0  0  0
 20 22  2  0  0  0
 22 23  1  0  0  0
 22 24  1  0  0  0
 24 25  1  0  0  0
 24 26  2  0  0  0
 26 27  1  0  0  0
 26 29  1  0  0  0
 27 28  1  0  0  0
 30 31  1  0  0  0
 30 32  1  0  0  0
M  END
>  <ACTIVITY>
4.58

>  <SET>
1

>  <Min_dist>
999.9

>  <Avg_dist>
999.9

$$$$
9-12j
  Cerius2 12110214143D 1   1.00000                          
Structure written by Cerius2 SD Exporter
 32 34  0  0  0  0  0  0  0  0999 V2000
   10.1470    2.5960   12.8670 N   0  0  0  0  0  0
   10.7710    1.9620   11.8780 C   0  0  0  0  0  0
   12.0420    2.1550   11.5440 N   0  0  0  0  0  0
   12.7350    3.0500   12.2410 C   0  0  0  0  0  0
   12.2000    3.7880   13.3050 C   0  0  0  0  0  0
   10.8670    3.4860   13.5730 C   0  0  0  0  0  0
   10.1720    4.1620   14.5680 N   0  0  0  0  0  0
   10.7040    4.5010   15.3640 H   0  0  0  0  0  0
    9.2160    3.8700   14.7410 H   0  0  0  0  0  0
   12.9360    4.7070   14.0080 N   0  0  0  0  0  0
   14.2250    4.8830   13.6270 C   0  0  0  0  0  0
   14.7410    4.1490   12.5730 C   0  0  0  0  0  0
   15.7690    4.2760   12.2440 H   0  0  0  0  0  0
   14.0110    3.2340   11.8800 N   0  0  0  0  0  0
   15.0640    5.9010   14.3540 C   0  0  0  0  0  0
   15.2200    5.5800   15.3890 H   0  0  0  0  0  0
   14.5230    6.8540   14.3770 H   0  0  0  0  0  0
   16.6790    6.1490   13.5220 S   0  0  0  0  0  0
   16.1820    7.1700   12.1460 C   0  0  0  0  0  0
   14.8610    7.6330   12.0990 C   0  0  0  0  0  0
   14.1590    7.3870   12.8940 H   0  0  0  0  0  0
   14.4240    8.4240   11.0330 C   0  0  0  0  0  0
   13.3960    8.7790   11.0160 H   0  0  0  0  0  0
   15.3050    8.7480   10.0050 C   0  0  0  0  0  0
   16.6180    8.2840   10.0330 C   0  0  0  0  0  0
   17.3080    8.5270    9.2280 H   0  0  0  0  0  0
   17.0540    7.4920   11.1000 C   0  0  0  0  0  0
   18.0780    7.1250   11.0890 H   0  0  0  0  0  0
   14.7680    9.7220    8.6910 Cl  0  0  0  0  0  0
   10.0560    1.0560   11.1570 N   0  0  0  0  0  0
   10.4940    0.5600   10.3950 H   0  0  0  0  0  0
    9.0850    0.8950   11.3800 H   0  0  0  0  0  0
  1  2  1  0  0  0
  1  6  2  0  0  0
  2  3  2  0  0  0
  2 30  1  0  0  0
  3  4  1  0  0  0
  4  5  2  0  0  0
  4 14  1  0  0  0
  5  6  1  0  0  0
  5 10  1  0  0  0
  6  7  1  0  0  0
  7  8  1  0  0  0
  7  9  1  0  0  0
 10 11  2  0  0  0
 11 12  1  0  0  0
 11 15  1  0  0  0
 12 13  1  0  0  0
 12 14  2  0  0  0
 15 16  1  0  0  0
 15 17  1  0  0  0
 15 18  1  0  0  0
 18 19  1  0  0  0
 19 20  1  0  0  0
 19 27  2  0  0  0
 20 21  1  0  0  0
 20 22  2  0  0  0
 22 23  1  0  0  0
 22 24  1  0  0  0
 24 25  2  0  0  0
 24 29  1  0  0  0
 25 26  1  0  0  0
 25 27  1  0  0  0
 27 28  1  0  0  0
 30 31  1  0  0  0
 30 32  1  0  0  0
M  END
>  <ACTIVITY>
4.84

>  <SET>
1

>  <Min_dist>
999.9

>  <Avg_dist>
999.9

$$$$
9-12k
  Cerius2 12110214143D 1   1.00000                          
Structure written by Cerius2 SD Exporter
 33 35  0  0  0  0  0  0  0  0999 V2000
   10.1790    2.6470   12.9000 N   0  0  0  0  0  0
   10.7660    1.9930   11.9020 C   0  0  0  0  0  0
   12.0330    2.1590   11.5360 N   0  0  0  0  0  0
   12.7620    3.0390   12.2150 C   0  0  0  0  0  0
   12.2700    3.7900   13.2910 C   0  0  0  0  0  0
   10.9350    3.5230   13.5860 C   0  0  0  0  0  0
   10.2770    4.2210   14.5910 N   0  0  0  0  0  0
   10.8340    4.5550   15.3730 H   0  0  0  0  0  0
    9.3180    3.9530   14.7860 H   0  0  0  0  0  0
   13.0460    4.6880   13.9800 N   0  0  0  0  0  0
   14.3340    4.8190   13.5770 C   0  0  0  0  0  0
   14.8030    4.0820   12.5050 C   0  0  0  0  0  0
   15.8260    4.1860   12.1520 H   0  0  0  0  0  0
   14.0330    3.1910   11.8240 N   0  0  0  0  0  0
   15.2320    5.8110   14.2850 C   0  0  0  0  0  0
   15.7130    5.3090   15.1340 H   0  0  0  0  0  0
   14.6130    6.6230   14.6840 H   0  0  0  0  0  0
   16.2300    6.3520   13.3690 N   0  0  0  0  0  0
   17.1690    5.9640   13.4460 H   0  0  0  0  0  0
   15.9310    7.1180   12.2610 C   0  0  0  0  0  0
   16.9440    7.3740   11.3230 C   0  0  0  0  0  0
   17.9370    6.9490   11.4630 H   0  0  0  0  0  0
   16.7140    8.1720   10.1970 C   0  0  0  0  0  0
   17.5200    8.3460    9.4890 H   0  0  0  0  0  0
   15.4590    8.7370    9.9980 C   0  0  0  0  0  0
   14.4410    8.5100   10.9180 C   0  0  0  0  0  0
   13.4570    8.9500   10.7750 H   0  0  0  0  0  0
   14.6810    7.7100   12.0430 C   0  0  0  0  0  0
   13.8600    7.5600   12.7400 H   0  0  0  0  0  0
   15.1680    9.7210    8.6170 Cl  0  0  0  0  0  0
   10.0190    1.0930   11.2090 N   0  0  0  0  0  0
   10.4320    0.5730   10.4490 H   0  0  0  0  0  0
    9.0550    0.9390   11.4660 H   0  0  0  0  0  0
  1  2  1  0  0  0
  1  6  2  0  0  0
  2  3  2  0  0  0
  2 31  1  0  0  0
  3  4  1  0  0  0
  4  5  2  0  0  0
  4 14  1  0  0  0
  5  6  1  0  0  0
  5 10  1  0  0  0
  6  7  1  0  0  0
  7  8  1  0  0  0
  7  9  1  0  0  0
 10 11  2  0  0  0
 11 12  1  0  0  0
 11 15  1  0  0  0
 12 13  1  0  0  0
 12 14  2  0  0  0
 15 16  1  0  0  0
 15 17  1  0  0  0
 15 18  1  0  0  0
 18 19  1  0  0  0
 18 20  1  0  0  0
 20 21  1  0  0  0
 20 28  2  0  0  0
 21 22  1  0  0  0
 21 23  2  0  0  0
 23 24  1  0  0  0
 23 25  1  0  0  0
 25 26  2  0  0  0
 25 30  1  0  0  0
 26 27  1  0  0  0
 26 28  1  0  0  0
 28 29  1  0  0  0
 31 32  1  0  0  0
 31 33  1  0  0  0
M  END
>  <ACTIVITY>
6.52

>  <SET>
1

>  <Min_dist>
999.9

>  <Avg_dist>
999.9

$$$$
9-12l
  Cerius2 12110214143D 1   1.00000                          
Structure written by Cerius2 SD Exporter
 40 42  0  0  0  0  0  0  0  0999 V2000
   10.1820    2.6380   12.8940 N   0  0  0  0  0  0
   10.7840    1.9760   11.9090 C   0  0  0  0  0  0
   12.0500    2.1560   11.5460 N   0  0  0  0  0  0
   12.7620    3.0580   12.2140 C   0  0  0  0  0  0
   12.2510    3.8230   13.2700 C   0  0  0  0  0  0
   10.9130    3.5560   13.5500 C   0  0  0  0  0  0
   10.2670    4.1920   14.6030 N   0  0  0  0  0  0
   10.5820    5.1270   14.8500 H   0  0  0  0  0  0
    9.2830    3.9850   14.7320 H   0  0  0  0  0  0
   13.0070    4.7480   13.9440 N   0  0  0  0  0  0
   14.2970    4.8900   13.5460 C   0  0  0  0  0  0
   14.7860    4.1350   12.4960 C   0  0  0  0  0  0
   15.8090    4.2460   12.1470 H   0  0  0  0  0  0
   14.0340    3.2180   11.8310 N   0  0  0  0  0  0
   15.1670    5.9190   14.2350 C   0  0  0  0  0  0
   15.5010    5.5290   15.2010 H   0  0  0  0  0  0
   14.5560    6.8080   14.4390 H   0  0  0  0  0  0
   16.2910    6.2830   13.3680 N   0  0  0  0  0  0
   16.9400    5.5050   13.2290 H   0  0  0  0  0  0
   16.0240    7.0460   12.2320 C   0  0  0  0  0  0
   14.6860    7.3620   11.9390 C   0  0  0  0  0  0
   13.8930    6.9670   12.5730 H   0  0  0  0  0  0
   14.3390    8.1860   10.8630 C   0  0  0  0  0  0
   15.3450    8.7170   10.0650 C   0  0  0  0  0  0
   15.1330    9.3670    9.2210 H   0  0  0  0  0  0
   16.6820    8.4160   10.3400 C   0  0  0  0  0  0
   17.4560    8.8390    9.7000 H   0  0  0  0  0  0
   17.0350    7.5740   11.4100 C   0  0  0  0  0  0
   18.4950    7.2770   11.6200 C   0  0  0  0  0  0
   19.0260    7.2480   10.6630 H   0  0  0  0  0  0
   18.6430    6.2980   12.0870 H   0  0  0  0  0  0
   18.9510    8.0490   12.2480 H   0  0  0  0  0  0
   12.9960    8.3980   10.7100 O   0  0  0  0  0  0
   12.5980    9.2340    9.6240 C   0  0  0  0  0  0
   11.5060    9.2990    9.6380 H   0  0  0  0  0  0
   12.8950    8.8000    8.6640 H   0  0  0  0  0  0
   12.9940   10.2480    9.7430 H   0  0  0  0  0  0
   10.0550    1.0500   11.2300 N   0  0  0  0  0  0
   10.4790    0.5280   10.4780 H   0  0  0  0  0  0
    9.0900    0.8910   11.4810 H   0  0  0  0  0  0
  1  2  1  0  0  0
  1  6  2  0  0  0
  2  3  2  0  0  0
  2 38  1  0  0  0
  3  4  1  0  0  0
  4  5  2  0  0  0
  4 14  1  0  0  0
  5  6  1  0  0  0
  5 10  1  0  0  0
  6  7  1  0  0  0
  7  8  1  0  0  0
  7  9  1  0  0  0
 10 11  2  0  0  0
 11 12  1  0  0  0
 11 15  1  0  0  0
 12 13  1  0  0  0
 12 14  2  0  0  0
 15 16  1  0  0  0
 15 17  1  0  0  0
 15 18  1  0  0  0
 18 19  1  0  0  0
 18 20  1  0  0  0
 20 21  1  0  0  0
 20 28  2  0  0  0
 21 22  1  0  0  0
 21 23  2  0  0  0
 23 24  1  0  0  0
 23 33  1  0  0  0
 24 25  1  0  0  0
 24 26  2  0  0  0
 26 27  1  0  0  0
 26 28  1  0  0  0
 28 29  1  0  0  0
 29 30  1  0  0  0
 29 31  1  0  0  0
 29 32  1  0  0  0
 33 34  1  0  0  0
 34 35  1  0  0  0
 34 36  1  0  0  0
 34 37  1  0  0  0
 38 39  1  0  0  0
 38 40  1  0  0  0
M  END
>  <ACTIVITY>
3.3

>  <SET>
3

>  <Min_dist>
0.12

>  <Avg_dist>
0.47

$$$$
9-12m
  Cerius2 12110214143D 1   1.00000                          
Structure written by Cerius2 SD Exporter
 40 42  0  0  0  0  0  0  0  0999 V2000
   10.1850    2.6300   12.9010 N   0  0  0  0  0  0
   10.7830    1.9740   11.9100 C   0  0  0  0  0  0
   12.0480    2.1550   11.5440 N   0  0  0  0  0  0
   12.7620    3.0560   12.2120 C   0  0  0  0  0  0
   12.2540    3.8170   13.2740 C   0  0  0  0  0  0
   10.9250    3.5270   13.5760 C   0  0  0  0  0  0
   10.2570    4.2220   14.5770 N   0  0  0  0  0  0
   10.8100    4.5700   15.3550 H   0  0  0  0  0  0
    9.3050    3.9380   14.7770 H   0  0  0  0  0  0
   13.0100    4.7420   13.9480 N   0  0  0  0  0  0
   14.2940    4.8950   13.5420 C   0  0  0  0  0  0
   14.7830    4.1390   12.4910 C   0  0  0  0  0  0
   15.8070    4.2540   12.1430 H   0  0  0  0  0  0
   14.0320    3.2210   11.8250 N   0  0  0  0  0  0
   15.1750    5.9110   14.2360 C   0  0  0  0  0  0
   15.5020    5.4890   15.1910 H   0  0  0  0  0  0
   14.5790    6.8040   14.4620 H   0  0  0  0  0  0
   16.3010    6.2830   13.3760 N   0  0  0  0  0  0
   16.9040    5.4840   13.1600 H   0  0  0  0  0  0
   16.0170    7.0560   12.2360 C   0  0  0  0  0  0
   17.0880    7.4320   11.3830 C   0  0  0  0  0  0
   16.8370    8.1300   10.1990 C   0  0  0  0  0  0
   17.6330    8.4240    9.5200 H   0  0  0  0  0  0
   15.5300    8.4600    9.8480 C   0  0  0  0  0  0
   15.3360    8.9980    8.9210 H   0  0  0  0  0  0
   14.4720    8.1080   10.6820 C   0  0  0  0  0  0
   13.4590    8.3850   10.3920 H   0  0  0  0  0  0
   14.7000    7.4210   11.8860 C   0  0  0  0  0  0
   13.5100    7.1130   12.7550 C   0  0  0  0  0  0
   12.7520    7.9000   12.6660 H   0  0  0  0  0  0
   13.7850    7.0670   13.8130 H   0  0  0  0  0  0
   13.0580    6.1630   12.4560 H   0  0  0  0  0  0
   18.3400    7.0480   11.8110 O   0  0  0  0  0  0
   19.4550    7.5170   11.0550 C   0  0  0  0  0  0
   20.3640    7.1780   11.5610 H   0  0  0  0  0  0
   19.4790    8.6110   11.0220 H   0  0  0  0  0  0
   19.4540    7.0870   10.0480 H   0  0  0  0  0  0
   10.0490    1.0570   11.2250 N   0  0  0  0  0  0
   10.4690    0.5400   10.4670 H   0  0  0  0  0  0
    9.0880    0.8930   11.4850 H   0  0  0  0  0  0
  1  2  1  0  0  0
  1  6  2  0  0  0
  2  3  2  0  0  0
  2 38  1  0  0  0
  3  4  1  0  0  0
  4  5  2  0  0  0
  4 14  1  0  0  0
  5  6  1  0  0  0
  5 10  1  0  0  0
  6  7  1  0  0  0
  7  8  1  0  0  0
  7  9  1  0  0  0
 10 11  2  0  0  0
 11 12  1  0  0  0
 11 15  1  0  0  0
 12 13  1  0  0  0
 12 14  2  0  0  0
 15 16  1  0  0  0
 15 17  1  0  0  0
 15 18  1  0  0  0
 18 19  1  0  0  0
 18 20  1  0  0  0
 20 21  1  0  0  0
 20 28  2  0  0  0
 21 22  2  0  0  0
 21 33  1  0  0  0
 22 23  1  0  0  0
 22 24  1  0  0  0
 24 25  1  0  0  0
 24 26  2  0  0  0
 26 27  1  0  0  0
 26 28  1  0  0  0
 28 29  1  0  0  0
 29 30  1  0  0  0
 29 31  1  0  0  0
 29 32  1  0  0  0
 33 34  1  0  0  0
 34 35  1  0  0  0
 34 36  1  0  0  0
 34 37  1  0  0  0
 38 39  1  0  0  0
 38 40  1  0  0  0
M  END
>  <ACTIVITY>
5.24

>  <SET>
1

>  <Min_dist>
999.9

>  <Avg_dist>
999.9

$$$$
9-12n
  Cerius2 12110214143D 1   1.00000                          
Structure written by Cerius2 SD Exporter
 41 43  0  0  0  0  0  0  0  0999 V2000
   10.1780    2.6570   12.8990 N   0  0  0  0  0  0
   10.7590    2.0060   11.8950 C   0  0  0  0  0  0
   12.0290    2.1610   11.5340 N   0  0  0  0  0  0
   12.7660    3.0270   12.2220 C   0  0  0  0  0  0
   12.2790    3.7760   13.3020 C   0  0  0  0  0  0
   10.9410    3.5180   13.5940 C   0  0  0  0  0  0
   10.2890    4.2120   14.6050 N   0  0  0  0  0  0
   10.8480    4.5320   15.3910 H   0  0  0  0  0  0
    9.3280    3.9510   14.7960 H   0  0  0  0  0  0
   13.0620    4.6630   13.9980 N   0  0  0  0  0  0
   14.3520    4.7870   13.5960 C   0  0  0  0  0  0
   14.8160    4.0500   12.5210 C   0  0  0  0  0  0
   15.8400    4.1470   12.1690 H   0  0  0  0  0  0
   14.0390    3.1700   11.8350 N   0  0  0  0  0  0
   15.2570    5.7720   14.3070 C   0  0  0  0  0  0
   15.7820    5.2400   15.1090 H   0  0  0  0  0  0
   14.6290    6.5490   14.7580 H   0  0  0  0  0  0
   16.2010    6.3700   13.3710 N   0  0  0  0  0  0
   17.1650    6.0490   13.4540 H   0  0  0  0  0  0
   16.0250    7.1540   12.2390 C   0  0  0  0  0  0
   14.7540    7.7450   12.0760 C   0  0  0  0  0  0
   13.9900    7.5850   12.8370 H   0  0  0  0  0  0
   14.4260    8.5310   10.9670 C   0  0  0  0  0  0
   15.3820    8.7370    9.9830 C   0  0  0  0  0  0
   15.1840    9.3400    9.1000 H   0  0  0  0  0  0
   16.6490    8.1580   10.1080 C   0  0  0  0  0  0
   17.3600    8.3500    9.3080 H   0  0  0  0  0  0
   16.9810    7.3670   11.2190 C   0  0  0  0  0  0
   18.2140    6.7860   11.3800 O   0  0  0  0  0  0
   19.1870    6.9830   10.3570 C   0  0  0  0  0  0
   20.0920    6.4420   10.6520 H   0  0  0  0  0  0
   19.4490    8.0410   10.2610 H   0  0  0  0  0  0
   18.8470    6.5650    9.4030 H   0  0  0  0  0  0
   13.1530    9.0300   10.9690 O   0  0  0  0  0  0
   12.7780    9.8390    9.8540 C   0  0  0  0  0  0
   11.7400   10.1520   10.0050 H   0  0  0  0  0  0
   12.8230    9.2670    8.9210 H   0  0  0  0  0  0
   13.3950   10.7420    9.7990 H   0  0  0  0  0  0
   10.0030    1.1240   11.1890 N   0  0  0  0  0  0
   10.4110    0.6120   10.4200 H   0  0  0  0  0  0
    9.0340    0.9850   11.4370 H   0  0  0  0  0  0
  1  2  1  0  0  0
  1  6  2  0  0  0
  2  3  2  0  0  0
  2 39  1  0  0  0
  3  4  1  0  0  0
  4  5  2  0  0  0
  4 14  1  0  0  0
  5  6  1  0  0  0
  5 10  1  0  0  0
  6  7  1  0  0  0
  7  8  1  0  0  0
  7  9  1  0  0  0
 10 11  2  0  0  0
 11 12  1  0  0  0
 11 15  1  0  0  0
 12 13  1  0  0  0
 12 14  2  0  0  0
 15 16  1  0  0  0
 15 17  1  0  0  0
 15 18  1  0  0  0
 18 19  1  0  0  0
 18 20  1  0  0  0
 20 21  1  0  0  0
 20 28  2  0  0  0
 21 22  1  0  0  0
 21 23  2  0  0  0
 23 24  1  0  0  0
 23 34  1  0  0  0
 24 25  1  0  0  0
 24 26  2  0  0  0
 26 27  1  0  0  0
 26 28  1  0  0  0
 28 29  1  0  0  0
 29 30  1  0  0  0
 30 31  1  0  0  0
 30 32  1  0  0  0
 30 33  1  0  0  0
 34 35  1  0  0  0
 35 36  1  0  0  0
 35 37  1  0  0  0
 35 38  1  0  0  0
 39 40  1  0  0  0
 39 41  1  0  0  0
M  END
>  <ACTIVITY>
4.64

>  <SET>
1

>  <Min_dist>
999.9

>  <Avg_dist>
999.9

$$$$
9-12o
  Cerius2 12110214143D 1   1.00000                          
Structure written by Cerius2 SD Exporter
 44 46  0  0  0  0  0  0  0  0999 V2000
   10.1760    2.6320   12.9030 N   0  0  0  0  0  0
   10.7680    1.9740   11.9100 C   0  0  0  0  0  0
   12.0330    2.1480   11.5410 N   0  0  0  0  0  0
   12.7540    3.0420   12.2100 C   0  0  0  0  0  0
   12.2550    3.8000   13.2770 C   0  0  0  0  0  0
   10.9240    3.5220   13.5790 C   0  0  0  0  0  0
   10.2610    4.2250   14.5780 N   0  0  0  0  0  0
   10.8170    4.5730   15.3530 H   0  0  0  0  0  0
    9.3060    3.9500   14.7770 H   0  0  0  0  0  0
   13.0220    4.7160   13.9520 N   0  0  0  0  0  0
   14.3090    4.8620   13.5450 C   0  0  0  0  0  0
   14.7850    4.1100   12.4850 C   0  0  0  0  0  0
   15.8090    4.2080   12.1330 H   0  0  0  0  0  0
   14.0230    3.2040   11.8170 N   0  0  0  0  0  0
   15.2050    5.8610   14.2530 C   0  0  0  0  0  0
   15.5980    5.3430   15.1380 H   0  0  0  0  0  0
   14.6200    6.7170   14.6110 H   0  0  0  0  0  0
   16.3150    6.3330   13.3990 N   0  0  0  0  0  0
   16.0030    7.1160   12.2730 C   0  0  0  0  0  0
   14.7170    7.6630   12.1060 C   0  0  0  0  0  0
   13.9450    7.4780   12.8500 H   0  0  0  0  0  0
   14.3780    8.4280   10.9840 C   0  0  0  0  0  0
   15.3350    8.6560   10.0020 C   0  0  0  0  0  0
   15.1210    9.2420    9.1120 H   0  0  0  0  0  0
   16.6230    8.1260   10.1400 C   0  0  0  0  0  0
   17.3360    8.3370    9.3480 H   0  0  0  0  0  0
   16.9670    7.3620   11.2630 C   0  0  0  0  0  0
   18.2210    6.8390   11.4790 O   0  0  0  0  0  0
   19.2180    7.0860   10.4910 C   0  0  0  0  0  0
   20.1410    6.6010   10.8240 H   0  0  0  0  0  0
   19.4210    8.1570   10.3940 H   0  0  0  0  0  0
   18.9380    6.6430    9.5300 H   0  0  0  0  0  0
   13.0880    8.8840   10.9690 O   0  0  0  0  0  0
   12.6960    9.6690    9.8440 C   0  0  0  0  0  0
   11.6500    9.9550    9.9860 H   0  0  0  0  0  0
   12.7610    9.0880    8.9180 H   0  0  0  0  0  0
   13.2880   10.5880    9.7800 H   0  0  0  0  0  0
   17.4570    5.4320   13.2140 C   0  0  0  0  0  0
   18.3130    5.9310   12.7480 H   0  0  0  0  0  0
   17.1720    4.5810   12.5850 H   0  0  0  0  0  0
   17.8060    5.0420   14.1750 H   0  0  0  0  0  0
   10.0260    1.0640   11.2240 N   0  0  0  0  0  0
   10.4410    0.5470   10.4630 H   0  0  0  0  0  0
    9.0620    0.9100   11.4790 H   0  0  0  0  0  0
  1  2  1  0  0  0
  1  6  2  0  0  0
  2  3  2  0  0  0
  2 42  1  0  0  0
  3  4  1  0  0  0
  4  5  2  0  0  0
  4 14  1  0  0  0
  5  6  1  0  0  0
  5 10  1  0  0  0
  6  7  1  0  0  0
  7  8  1  0  0  0
  7  9  1  0  0  0
 10 11  2  0  0  0
 11 12  1  0  0  0
 11 15  1  0  0  0
 12 13  1  0  0  0
 12 14  2  0  0  0
 15 16  1  0  0  0
 15 17  1  0  0  0
 15 18  1  0  0  0
 18 19  1  0  0  0
 18 38  1  0  0  0
 19 20  1  0  0  0
 19 27  2  0  0  0
 20 21  1  0  0  0
 20 22  2  0  0  0
 22 23  1  0  0  0
 22 33  1  0  0  0
 23 24  1  0  0  0
 23 25  2  0  0  0
 25 26  1  0  0  0
 25 27  1  0  0  0
 27 28  1  0  0  0
 28 29  1  0  0  0
 29 30  1  0  0  0
 29 31  1  0  0  0
 29 32  1  0  0  0
 33 34  1  0  0  0
 34 35  1  0  0  0
 34 36  1  0  0  0
 34 37  1  0  0  0
 38 39  1  0  0  0
 38 40  1  0  0  0
 38 41  1  0  0  0
 42 43  1  0  0  0
 42 44  1  0  0  0
M  END
>  <ACTIVITY>
6.33

>  <SET>
2

>  <Min_dist>
0.07

>  <Avg_dist>
0.48

$$$$
9-12p
  Cerius2 12110214143D 1   1.00000                          
Structure written by Cerius2 SD Exporter
 41 43  0  0  0  0  0  0  0  0999 V2000
   10.1790    2.6480   12.9000 N   0  0  0  0  0  0
   10.7650    1.9960   11.9000 C   0  0  0  0  0  0
   12.0330    2.1590   11.5360 N   0  0  0  0  0  0
   12.7630    3.0360   12.2180 C   0  0  0  0  0  0
   12.2710    3.7870   13.2930 C   0  0  0  0  0  0
   10.9360    3.5210   13.5880 C   0  0  0  0  0  0
   10.2790    4.2180   14.5950 N   0  0  0  0  0  0
   10.8370    4.5500   15.3770 H   0  0  0  0  0  0
    9.3200    3.9520   14.7890 H   0  0  0  0  0  0
   13.0470    4.6840   13.9840 N   0  0  0  0  0  0
   14.3360    4.8150   13.5810 C   0  0  0  0  0  0
   14.8060    4.0760   12.5100 C   0  0  0  0  0  0
   15.8290    4.1800   12.1570 H   0  0  0  0  0  0
   14.0350    3.1860   11.8290 N   0  0  0  0  0  0
   15.2320    5.8090   14.2870 C   0  0  0  0  0  0
   15.7170    5.3100   15.1340 H   0  0  0  0  0  0
   14.6110    6.6200   14.6870 H   0  0  0  0  0  0
   16.2250    6.3550   13.3670 N   0  0  0  0  0  0
   17.1680    5.9740   13.4480 H   0  0  0  0  0  0
   15.9270    7.1230   12.2580 C   0  0  0  0  0  0
   16.9400    7.3770   11.3220 C   0  0  0  0  0  0
   17.9300    6.9450   11.4730 H   0  0  0  0  0  0
   16.7220    8.1730   10.1930 C   0  0  0  0  0  0
   15.4650    8.7370    9.9940 C   0  0  0  0  0  0
   15.2520    9.3610    9.1300 H   0  0  0  0  0  0
   14.4380    8.5130   10.9150 C   0  0  0  0  0  0
   14.6760    7.7150   12.0410 C   0  0  0  0  0  0
   13.8810    7.5440   12.7590 H   0  0  0  0  0  0
   13.2550    9.1290   10.6050 O   0  0  0  0  0  0
   13.2210    9.9010    9.4050 C   0  0  0  0  0  0
   12.2160   10.3240    9.3110 H   0  0  0  0  0  0
   13.4020    9.2720    8.5280 H   0  0  0  0  0  0
   13.9310   10.7330    9.4530 H   0  0  0  0  0  0
   17.8090    8.3200    9.3740 O   0  0  0  0  0  0
   19.0060    7.6510    9.7690 C   0  0  0  0  0  0
   19.7700    7.8640    9.0150 H   0  0  0  0  0  0
   18.8590    6.5670    9.7990 H   0  0  0  0  0  0
   19.3700    8.0310   10.7290 H   0  0  0  0  0  0
   10.0150    1.1020   11.2010 N   0  0  0  0  0  0
   10.4260    0.5890   10.4350 H   0  0  0  0  0  0
    9.0480    0.9550   11.4530 H   0  0  0  0  0  0
  1  2  1  0  0  0
  1  6  2  0  0  0
  2  3  2  0  0  0
  2 39  1  0  0  0
  3  4  1  0  0  0
  4  5  2  0  0  0
  4 14  1  0  0  0
  5  6  1  0  0  0
  5 10  1  0  0  0
  6  7  1  0  0  0
  7  8  1  0  0  0
  7  9  1  0  0  0
 10 11  2  0  0  0
 11 12  1  0  0  0
 11 15  1  0  0  0
 12 13  1  0  0  0
 12 14  2  0  0  0
 15 16  1  0  0  0
 15 17  1  0  0  0
 15 18  1  0  0  0
 18 19  1  0  0  0
 18 20  1  0  0  0
 20 21  1  0  0  0
 20 27  2  0  0  0
 21 22  1  0  0  0
 21 23  2  0  0  0
 23 24  1  0  0  0
 23 34  1  0  0  0
 24 25  1  0  0  0
 24 26  2  0  0  0
 26 27  1  0  0  0
 26 29  1  0  0  0
 27 28  1  0  0  0
 29 30  1  0  0  0
 30 31  1  0  0  0
 30 32  1  0  0  0
 30 33  1  0  0  0
 34 35  1  0  0  0
 35 36  1  0  0  0
 35 37  1  0  0  0
 35 38  1  0  0  0
 39 40  1  0  0  0
 39 41  1  0  0  0
M  END
>  <ACTIVITY>
6.06

>  <SET>
1

>  <Min_dist>
999.9

>  <Avg_dist>
999.9

$$$$
9-12q
  Cerius2 12110214143D 1   1.00000                          
Structure written by Cerius2 SD Exporter
 45 47  0  0  0  0  0  0  0  0999 V2000
   10.1790    2.6480   12.8990 N   0  0  0  0  0  0
   10.7660    1.9960   11.9000 C   0  0  0  0  0  0
   12.0340    2.1590   11.5370 N   0  0  0  0  0  0
   12.7630    3.0370   12.2180 C   0  0  0  0  0  0
   12.2710    3.7880   13.2940 C   0  0  0  0  0  0
   10.9360    3.5210   13.5880 C   0  0  0  0  0  0
   10.2770    4.2170   14.5940 N   0  0  0  0  0  0
   10.8340    4.5470   15.3780 H   0  0  0  0  0  0
    9.3190    3.9490   14.7870 H   0  0  0  0  0  0
   13.0470    4.6850   13.9840 N   0  0  0  0  0  0
   14.3360    4.8160   13.5820 C   0  0  0  0  0  0
   14.8060    4.0770   12.5110 C   0  0  0  0  0  0
   15.8290    4.1800   12.1580 H   0  0  0  0  0  0
   14.0350    3.1870   11.8300 N   0  0  0  0  0  0
   15.2330    5.8100   14.2870 C   0  0  0  0  0  0
   15.7190    5.3090   15.1330 H   0  0  0  0  0  0
   14.6130    6.6200   14.6880 H   0  0  0  0  0  0
   16.2260    6.3560   13.3670 N   0  0  0  0  0  0
   17.1710    5.9810   13.4540 H   0  0  0  0  0  0
   15.9310    7.1220   12.2550 C   0  0  0  0  0  0
   16.9500    7.3720   11.3250 C   0  0  0  0  0  0
   17.9410    6.9490   11.4770 H   0  0  0  0  0  0
   16.7140    8.1560   10.1960 C   0  0  0  0  0  0
   15.4680    8.7560   10.0040 C   0  0  0  0  0  0
   14.4270    8.5160   10.9090 C   0  0  0  0  0  0
   14.6740    7.7090   12.0310 C   0  0  0  0  0  0
   13.8790    7.5250   12.7470 H   0  0  0  0  0  0
   13.2260    9.1110   10.6150 O   0  0  0  0  0  0
   13.1600    9.8990    9.4280 C   0  0  0  0  0  0
   12.1480   10.3110    9.3590 H   0  0  0  0  0  0
   13.3320    9.2840    8.5390 H   0  0  0  0  0  0
   13.8600   10.7400    9.4740 H   0  0  0  0  0  0
   15.2490    9.5260    8.8860 O   0  0  0  0  0  0
   16.4550    9.6270    8.1220 C   0  0  0  0  0  0
   16.2430   10.2450    7.2440 H   0  0  0  0  0  0
   16.7870    8.6430    7.7720 H   0  0  0  0  0  0
   17.2500   10.1140    8.6970 H   0  0  0  0  0  0
   17.7460    8.3860    9.3230 O   0  0  0  0  0  0
   18.9070    7.6580    9.7420 C   0  0  0  0  0  0
   19.7030    7.8560    9.0180 H   0  0  0  0  0  0
   18.7170    6.5800    9.7520 H   0  0  0  0  0  0
   19.2500    7.9960   10.7260 H   0  0  0  0  0  0
   10.0160    1.1010   11.2010 N   0  0  0  0  0  0
   10.4280    0.5880   10.4350 H   0  0  0  0  0  0
    9.0490    0.9560   11.4510 H   0  0  0  0  0  0
  1  2  1  0  0  0
  1  6  2  0  0  0
  2  3  2  0  0  0
  2 43  1  0  0  0
  3  4  1  0  0  0
  4  5  2  0  0  0
  4 14  1  0  0  0
  5  6  1  0  0  0
  5 10  1  0  0  0
  6  7  1  0  0  0
  7  8  1  0  0  0
  7  9  1  0  0  0
 10 11  2  0  0  0
 11 12  1  0  0  0
 11 15  1  0  0  0
 12 13  1  0  0  0
 12 14  2  0  0  0
 15 16  1  0  0  0
 15 17  1  0  0  0
 15 18  1  0  0  0
 18 19  1  0  0  0
 18 20  1  0  0  0
 20 21  1  0  0  0
 20 26  2  0  0  0
 21 22  1  0  0  0
 21 23  2  0  0  0
 23 24  1  0  0  0
 23 38  1  0  0  0
 24 25  2  0  0  0
 24 33  1  0  0  0
 25 26  1  0  0  0
 25 28  1  0  0  0
 26 27  1  0  0  0
 28 29  1  0  0  0
 29 30  1  0  0  0
 29 31  1  0  0  0
 29 32  1  0  0  0
 33 34  1  0  0  0
 34 35  1  0  0  0
 34 36  1  0  0  0
 34 37  1  0  0  0
 38 39  1  0  0  0
 39 40  1  0  0  0
 39 41  1  0  0  0
 39 42  1  0  0  0
 43 44  1  0  0  0
 43 45  1  0  0  0
M  END
>  <ACTIVITY>
5.72

>  <SET>
1

>  <Min_dist>
999.9

>  <Avg_dist>
999.9

$$$$
9-12r
  Cerius2 12110214143D 1   1.00000                          
Structure written by Cerius2 SD Exporter
 40 42  0  0  0  0  0  0  0  0999 V2000
   10.1720    2.6590   12.8930 N   0  0  0  0  0  0
   10.7570    2.0040   11.8940 C   0  0  0  0  0  0
   12.0270    2.1590   11.5340 N   0  0  0  0  0  0
   12.7620    3.0270   12.2220 C   0  0  0  0  0  0
   12.2710    3.7840   13.2940 C   0  0  0  0  0  0
   10.9260    3.5450   13.5680 C   0  0  0  0  0  0
   10.2950    4.1760   14.6330 N   0  0  0  0  0  0
   10.6290    5.0990   14.8950 H   0  0  0  0  0  0
    9.3060    3.9890   14.7580 H   0  0  0  0  0  0
   13.0500    4.6750   13.9860 N   0  0  0  0  0  0
   14.3450    4.7950   13.5870 C   0  0  0  0  0  0
   14.8170    4.0410   12.5270 C   0  0  0  0  0  0
   15.8470    4.1210   12.1900 H   0  0  0  0  0  0
   14.0390    3.1610   11.8420 N   0  0  0  0  0  0
   15.2750    5.7600   14.3050 C   0  0  0  0  0  0
   15.8260    5.1940   15.0640 H   0  0  0  0  0  0
   14.6590    6.5300   14.7820 H   0  0  0  0  0  0
   16.2070    6.3770   13.3680 N   0  0  0  0  0  0
   17.1880    6.1820   13.5780 H   0  0  0  0  0  0
   16.0170    7.1740   12.2550 C   0  0  0  0  0  0
   14.7380    7.7490   12.1050 C   0  0  0  0  0  0
   13.9750    7.5480   12.8590 H   0  0  0  0  0  0
   14.4020    8.5730   11.0190 C   0  0  0  0  0  0
   15.3820    8.8440   10.0630 C   0  0  0  0  0  0
   15.1600    9.4900    9.2140 H   0  0  0  0  0  0
   16.6590    8.2890   10.1820 C   0  0  0  0  0  0
   17.3790    8.5330    9.4050 H   0  0  0  0  0  0
   16.9870    7.4570   11.2640 C   0  0  0  0  0  0
   18.2280    6.8910   11.4210 O   0  0  0  0  0  0
   19.2150    7.1520   10.4260 C   0  0  0  0  0  0
   20.1250    6.6160   10.7130 H   0  0  0  0  0  0
   19.4570    8.2180   10.3820 H   0  0  0  0  0  0
   18.8990    6.7710    9.4490 H   0  0  0  0  0  0
   13.0280    9.1810   10.9170 C   0  0  0  0  0  0
   12.9190   10.3600   11.6010 F   0  0  0  0  0  0
   12.0370    8.3790   11.4140 F   0  0  0  0  0  0
   12.6470    9.4660    9.6340 F   0  0  0  0  0  0
   10.0050    1.1120   11.1950 N   0  0  0  0  0  0
   10.4150    0.5970   10.4300 H   0  0  0  0  0  0
    9.0370    0.9700   11.4450 H   0  0  0  0  0  0
  1  2  1  0  0  0
  1  6  2  0  0  0
  2  3  2  0  0  0
  2 38  1  0  0  0
  3  4  1  0  0  0
  4  5  2  0  0  0
  4 14  1  0  0  0
  5  6  1  0  0  0
  5 10  1  0  0  0
  6  7  1  0  0  0
  7  8  1  0  0  0
  7  9  1  0  0  0
 10 11  2  0  0  0
 11 12  1  0  0  0
 11 15  1  0  0  0
 12 13  1  0  0  0
 12 14  2  0  0  0
 15 16  1  0  0  0
 15 17  1  0  0  0
 15 18  1  0  0  0
 18 19  1  0  0  0
 18 20  1  0  0  0
 20 21  1  0  0  0
 20 28  2  0  0  0
 21 22  1  0  0  0
 21 23  2  0  0  0
 23 24  1  0  0  0
 23 34  1  0  0  0
 24 25  1  0  0  0
 24 26  2  0  0  0
 26 27  1  0  0  0
 26 28  1  0  0  0
 28 29  1  0  0  0
 29 30  1  0  0  0
 30 31  1  0  0  0
 30 32  1  0  0  0
 30 33  1  0  0  0
 34 35  1  0  0  0
 34 36  1  0  0  0
 34 37  1  0  0  0
 38 39  1  0  0  0
 38 40  1  0  0  0
M  END
>  <ACTIVITY>
4.68

>  <SET>
1

>  <Min_dist>
999.9

>  <Avg_dist>
999.9

$$$$
9-12s
  Cerius2 12110214143D 1   1.00000                          
Structure written by Cerius2 SD Exporter
 40 42  0  0  0  0  0  0  0  0999 V2000
   10.1720    2.6520   12.8920 N   0  0  0  0  0  0
   10.7620    1.9950   11.8970 C   0  0  0  0  0  0
   12.0310    2.1580   11.5370 N   0  0  0  0  0  0
   12.7600    3.0340   12.2200 C   0  0  0  0  0  0
   12.2630    3.7930   13.2880 C   0  0  0  0  0  0
   10.9200    3.5460   13.5630 C   0  0  0  0  0  0
   10.2840    4.1780   14.6240 N   0  0  0  0  0  0
   10.6120    5.1050   14.8820 H   0  0  0  0  0  0
    9.2960    3.9860   14.7490 H   0  0  0  0  0  0
   13.0370    4.6930   13.9760 N   0  0  0  0  0  0
   14.3300    4.8210   13.5760 C   0  0  0  0  0  0
   14.8070    4.0660   12.5200 C   0  0  0  0  0  0
   15.8360    4.1520   12.1820 H   0  0  0  0  0  0
   14.0360    3.1750   11.8400 N   0  0  0  0  0  0
   15.2510    5.7980   14.2860 C   0  0  0  0  0  0
   15.7500    5.2690   15.1060 H   0  0  0  0  0  0
   14.6430    6.6120   14.6960 H   0  0  0  0  0  0
   16.2480    6.3410   13.3680 N   0  0  0  0  0  0
   17.2100    6.0800   13.5890 H   0  0  0  0  0  0
   15.9840    7.1480   12.2850 C   0  0  0  0  0  0
   17.0120    7.3970   11.3660 C   0  0  0  0  0  0
   17.9920    6.9460   11.5270 H   0  0  0  0  0  0
   16.8180    8.2130   10.2400 C   0  0  0  0  0  0
   15.5540    8.7760   10.0280 C   0  0  0  0  0  0
   15.3790    9.4020    9.1540 H   0  0  0  0  0  0
   14.5110    8.5440   10.9270 C   0  0  0  0  0  0
   14.7330    7.7350   12.0460 C   0  0  0  0  0  0
   13.9260    7.5500   12.7490 H   0  0  0  0  0  0
   13.3330    9.1590   10.5990 O   0  0  0  0  0  0
   13.3230    9.9440    9.4080 C   0  0  0  0  0  0
   12.3170   10.3580    9.2910 H   0  0  0  0  0  0
   13.5340    9.3260    8.5280 H   0  0  0  0  0  0
   14.0230   10.7820    9.4830 H   0  0  0  0  0  0
   17.9360    8.4440    9.2580 C   0  0  0  0  0  0
   17.9500    7.5240    8.2470 F   0  0  0  0  0  0
   19.1820    8.3880    9.8200 F   0  0  0  0  0  0
   17.8780    9.6640    8.6400 F   0  0  0  0  0  0
   10.0160    1.0950   11.2020 N   0  0  0  0  0  0
   10.4300    0.5780   10.4410 H   0  0  0  0  0  0
    9.0490    0.9490   11.4520 H   0  0  0  0  0  0
  1  2  1  0  0  0
  1  6  2  0  0  0
  2  3  2  0  0  0
  2 38  1  0  0  0
  3  4  1  0  0  0
  4  5  2  0  0  0
  4 14  1  0  0  0
  5  6  1  0  0  0
  5 10  1  0  0  0
  6  7  1  0  0  0
  7  8  1  0  0  0
  7  9  1  0  0  0
 10 11  2  0  0  0
 11 12  1  0  0  0
 11 15  1  0  0  0
 12 13  1  0  0  0
 12 14  2  0  0  0
 15 16  1  0  0  0
 15 17  1  0  0  0
 15 18  1  0  0  0
 18 19  1  0  0  0
 18 20  1  0  0  0
 20 21  1  0  0  0
 20 27  2  0  0  0
 21 22  1  0  0  0
 21 23  2  0  0  0
 23 24  1  0  0  0
 23 34  1  0  0  0
 24 25  1  0  0  0
 24 26  2  0  0  0
 26 27  1  0  0  0
 26 29  1  0  0  0
 27 28  1  0  0  0
 29 30  1  0  0  0
 30 31  1  0  0  0
 30 32  1  0  0  0
 30 33  1  0  0  0
 34 35  1  0  0  0
 34 36  1  0  0  0
 34 37  1  0  0  0
 38 39  1  0  0  0
 38 40  1  0  0  0
M  END
>  <ACTIVITY>
5.72

>  <SET>
2

>  <Min_dist>
0.14

>  <Avg_dist>
0.49

$$$$
9-12t
  Cerius2 12110214143D 1   1.00000                          
Structure written by Cerius2 SD Exporter
 40 43  0  0  0  0  0  0  0  0999 V2000
   10.1660    2.6280   12.8880 N   0  0  0  0  0  0
   10.7670    1.9810   11.8920 C   0  0  0  0  0  0
   12.0350    2.1580   11.5380 N   0  0  0  0  0  0
   12.7510    3.0430   12.2250 C   0  0  0  0  0  0
   12.2440    3.7880   13.2970 C   0  0  0  0  0  0
   10.9090    3.5080   13.5820 C   0  0  0  0  0  0
   10.2370    4.2000   14.5820 N   0  0  0  0  0  0
   10.7850    4.5380   15.3680 H   0  0  0  0  0  0
    9.2790    3.9250   14.7680 H   0  0  0  0  0  0
   13.0060    4.6920   13.9920 N   0  0  0  0  0  0
   14.2880    4.8470   13.5890 C   0  0  0  0  0  0
   14.7800    4.1040   12.5310 C   0  0  0  0  0  0
   15.8090    4.2060   12.1960 H   0  0  0  0  0  0
   14.0240    3.2060   11.8460 N   0  0  0  0  0  0
   15.1600    5.8160   14.3400 C   0  0  0  0  0  0
   15.6590    5.2810   15.1580 H   0  0  0  0  0  0
   14.5310    6.5770   14.8170 H   0  0  0  0  0  0
   16.2020    6.4550   13.4190 C   0  0  0  0  0  0
   16.8390    5.6960   12.9490 H   0  0  0  0  0  0
   16.8970    7.0630   14.0160 H   0  0  0  0  0  0
   15.9980    7.3870   12.2390 C   0  0  0  0  0  0
   14.7110    7.9230   12.0510 C   0  0  0  0  0  0
   13.9050    7.6760   12.7410 H   0  0  0  0  0  0
   14.4430    8.7770   10.9870 C   0  0  0  0  0  0
   13.4430    9.1870   10.8550 H   0  0  0  0  0  0
   15.4550    9.1040   10.0890 C   0  0  0  0  0  0
   15.2220    9.7740    9.2620 H   0  0  0  0  0  0
   16.7470    8.5810   10.2400 C   0  0  0  0  0  0
   17.0390    7.7080   11.3210 C   0  0  0  0  0  0
   18.3590    7.2090   11.4170 C   0  0  0  0  0  0
   18.6450    6.5340   12.2210 H   0  0  0  0  0  0
   19.3460    7.5570   10.4910 C   0  0  0  0  0  0
   20.3530    7.1550   10.5940 H   0  0  0  0  0  0
   19.0430    8.4130    9.4420 C   0  0  0  0  0  0
   19.8080    8.6870    8.7190 H   0  0  0  0  0  0
   17.7510    8.9210    9.3180 C   0  0  0  0  0  0
   17.5320    9.5910    8.4860 H   0  0  0  0  0  0
   10.0310    1.0800   11.1880 N   0  0  0  0  0  0
   10.4530    0.5720   10.4250 H   0  0  0  0  0  0
    9.0650    0.9220   11.4330 H   0  0  0  0  0  0
  1  2  1  0  0  0
  1  6  2  0  0  0
  2  3  2  0  0  0
  2 38  1  0  0  0
  3  4  1  0  0  0
  4  5  2  0  0  0
  4 14  1  0  0  0
  5  6  1  0  0  0
  5 10  1  0  0  0
  6  7  1  0  0  0
  7  8  1  0  0  0
  7  9  1  0  0  0
 10 11  2  0  0  0
 11 12  1  0  0  0
 11 15  1  0  0  0
 12 13  1  0  0  0
 12 14  2  0  0  0
 15 16  1  0  0  0
 15 17  1  0  0  0
 15 18  1  0  0  0
 18 19  1  0  0  0
 18 20  1  0  0  0
 18 21  1  0  0  0
 21 22  2  0  0  0
 21 29  1  0  0  0
 22 23  1  0  0  0
 22 24  1  0  0  0
 24 25  1  0  0  0
 24 26  2  0  0  0
 26 27  1  0  0  0
 26 28  1  0  0  0
 28 29  2  0  0  0
 28 36  1  0  0  0
 29 30  1  0  0  0
 30 31  1  0  0  0
 30 32  2  0  0  0
 32 33  1  0  0  0
 32 34  1  0  0  0
 34 35  1  0  0  0
 34 36  2  0  0  0
 36 37  1  0  0  0
 38 39  1  0  0  0
 38 40  1  0  0  0
M  END
>  <ACTIVITY>
4.22

>  <SET>
2

>  <Min_dist>
0.3

>  <Avg_dist>
0.55

$$$$
9-12u
  Cerius2 12110214143D 1   1.00000                          
Structure written by Cerius2 SD Exporter
 42 44  0  0  0  0  0  0  0  0999 V2000
   10.1660    2.6300   12.8860 N   0  0  0  0  0  0
   10.7670    1.9820   11.8920 C   0  0  0  0  0  0
   12.0350    2.1600   11.5370 N   0  0  0  0  0  0
   12.7510    3.0440   12.2240 C   0  0  0  0  0  0
   12.2440    3.7880   13.2970 C   0  0  0  0  0  0
   10.9090    3.5090   13.5810 C   0  0  0  0  0  0
   10.2340    4.1990   14.5810 N   0  0  0  0  0  0
   10.7800    4.5340   15.3700 H   0  0  0  0  0  0
    9.2750    3.9260   14.7620 H   0  0  0  0  0  0
   13.0080    4.6910   13.9940 N   0  0  0  0  0  0
   14.2900    4.8450   13.5910 C   0  0  0  0  0  0
   14.7800    4.1050   12.5300 C   0  0  0  0  0  0
   15.8070    4.2100   12.1920 H   0  0  0  0  0  0
   14.0240    3.2080   11.8440 N   0  0  0  0  0  0
   15.1610    5.8160   14.3410 C   0  0  0  0  0  0
   15.6560    5.2860   15.1650 H   0  0  0  0  0  0
   14.5320    6.5830   14.8090 H   0  0  0  0  0  0
   16.2060    6.4580   13.4260 C   0  0  0  0  0  0
   16.8110    5.6830   12.9360 H   0  0  0  0  0  0
   16.9230    7.0480   14.0120 H   0  0  0  0  0  0
   16.0060    7.3890   12.2480 C   0  0  0  0  0  0
   14.7300    7.9420   12.0290 C   0  0  0  0  0  0
   13.9090    7.6860   12.6970 H   0  0  0  0  0  0
   14.4920    8.8140   10.9640 C   0  0  0  0  0  0
   15.5430    9.1460   10.1140 C   0  0  0  0  0  0
   15.4110    9.8220    9.2740 H   0  0  0  0  0  0
   16.8200    8.6090   10.3250 C   0  0  0  0  0  0
   17.6060    8.9040    9.6350 H   0  0  0  0  0  0
   17.0620    7.7330   11.3870 C   0  0  0  0  0  0
   18.2770    7.1680   11.6710 O   0  0  0  0  0  0
   19.3530    7.4410   10.7750 C   0  0  0  0  0  0
   20.2290    6.8910   11.1310 H   0  0  0  0  0  0
   19.6050    8.5060   10.7760 H   0  0  0  0  0  0
   19.1250    7.0860    9.7640 H   0  0  0  0  0  0
   13.2050    9.2670   10.8700 O   0  0  0  0  0  0
   12.9180   10.1620    9.7950 C   0  0  0  0  0  0
   11.8560   10.4220    9.8530 H   0  0  0  0  0  0
   13.0920    9.6810    8.8270 H   0  0  0  0  0  0
   13.4940   11.0880    9.8900 H   0  0  0  0  0  0
   10.0320    1.0750   11.1930 N   0  0  0  0  0  0
   10.4550    0.5580   10.4370 H   0  0  0  0  0  0
    9.0670    0.9150   11.4430 H   0  0  0  0  0  0
  1  2  1  0  0  0
  1  6  2  0  0  0
  2  3  2  0  0  0
  2 40  1  0  0  0
  3  4  1  0  0  0
  4  5  2  0  0  0
  4 14  1  0  0  0
  5  6  1  0  0  0
  5 10  1  0  0  0
  6  7  1  0  0  0
  7  8  1  0  0  0
  7  9  1  0  0  0
 10 11  2  0  0  0
 11 12  1  0  0  0
 11 15  1  0  0  0
 12 13  1  0  0  0
 12 14  2  0  0  0
 15 16  1  0  0  0
 15 17  1  0  0  0
 15 18  1  0  0  0
 18 19  1  0  0  0
 18 20  1  0  0  0
 18 21  1  0  0  0
 21 22  1  0  0  0
 21 29  2  0  0  0
 22 23  1  0  0  0
 22 24  2  0  0  0
 24 25  1  0  0  0
 24 35  1  0  0  0
 25 26  1  0  0  0
 25 27  2  0  0  0
 27 28  1  0  0  0
 27 29  1  0  0  0
 29 30  1  0  0  0
 30 31  1  0  0  0
 31 32  1  0  0  0
 31 33  1  0  0  0
 31 34  1  0  0  0
 35 36  1  0  0  0
 36 37  1  0  0  0
 36 38  1  0  0  0
 36 39  1  0  0  0
 40 41  1  0  0  0
 40 42  1  0  0  0
M  END
>  <ACTIVITY>
4.63

>  <SET>
2

>  <Min_dist>
0.24

>  <Avg_dist>
0.55

$$$$
9-13b
  Cerius2 12110214143D 1   1.00000                          
Structure written by Cerius2 SD Exporter
 36 38  0  0  0  0  0  0  0  0999 V2000
   10.1030    2.5920   12.7720 N   0  0  0  0  0  0
   10.8080    1.9490   11.8540 C   0  0  0  0  0  0
   12.0900    2.1710   11.6130 N   0  0  0  0  0  0
   12.7140    3.0900   12.3300 C   0  0  0  0  0  0
   12.1010    3.8470   13.3360 C   0  0  0  0  0  0
   10.7350    3.5260   13.5010 C   0  0  0  0  0  0
    9.9100    4.1430   14.4310 N   0  0  0  0  0  0
   10.1520    3.9640   15.4020 H   0  0  0  0  0  0
    9.7630    5.1380   14.2790 H   0  0  0  0  0  0
   12.9170    4.8180   14.0420 C   0  0  0  0  0  0
   14.2700    4.9700   13.6800 C   0  0  0  0  0  0
   14.7420    4.1480   12.6700 C   0  0  0  0  0  0
   15.7810    4.1980   12.3450 H   0  0  0  0  0  0
   13.9950    3.2360   12.0100 N   0  0  0  0  0  0
   15.2400    5.9340   14.3220 C   0  0  0  0  0  0
   15.4540    5.6360   15.3540 H   0  0  0  0  0  0
   14.7810    6.9280   14.3890 H   0  0  0  0  0  0
   16.7840    6.0650   13.3470 S   0  0  0  0  0  0
   16.2240    7.1240   12.0260 C   0  0  0  0  0  0
   17.0750    7.5180   10.9880 C   0  0  0  0  0  0
   18.1100    7.1850   10.9570 H   0  0  0  0  0  0
   16.6090    8.3590    9.9750 C   0  0  0  0  0  0
   17.2760    8.6600    9.1680 H   0  0  0  0  0  0
   15.2930    8.8190    9.9970 C   0  0  0  0  0  0
   14.9320    9.4760    9.2080 H   0  0  0  0  0  0
   14.4440    8.4420   11.0350 C   0  0  0  0  0  0
   13.4170    8.8040   11.0580 H   0  0  0  0  0  0
   14.9090    7.6010   12.0490 C   0  0  0  0  0  0
   14.2300    7.3190   12.8530 H   0  0  0  0  0  0
   12.3280    5.6580   15.1490 C   0  0  0  0  0  0
   11.9410    5.0160   15.9470 H   0  0  0  0  0  0
   11.5370    6.3030   14.7560 H   0  0  0  0  0  0
   13.0500    6.3200   15.6300 H   0  0  0  0  0  0
   10.1740    1.0010   11.1120 N   0  0  0  0  0  0
   10.6840    0.4920   10.4040 H   0  0  0  0  0  0
    9.1970    0.8100   11.2740 H   0  0  0  0  0  0
  1  2  1  0  0  0
  1  6  2  0  0  0
  2  3  2  0  0  0
  2 34  1  0  0  0
  3  4  1  0  0  0
  4  5  2  0  0  0
  4 14  1  0  0  0
  5  6  1  0  0  0
  5 10  1  0  0  0
  6  7  1  0  0  0
  7  8  1  0  0  0
  7  9  1  0  0  0
 10 11  2  0  0  0
 10 30  1  0  0  0
 11 12  1  0  0  0
 11 15  1  0  0  0
 12 13  1  0  0  0
 12 14  2  0  0  0
 15 16  1  0  0  0
 15 17  1  0  0  0
 15 18  1  0  0  0
 18 19  1  0  0  0
 19 20  1  0  0  0
 19 28  2  0  0  0
 20 21  1  0  0  0
 20 22  2  0  0  0
 22 23  1  0  0  0
 22 24  1  0  0  0
 24 25  1  0  0  0
 24 26  2  0  0  0
 26 27  1  0  0  0
 26 28  1  0  0  0
 28 29  1  0  0  0
 30 31  1  0  0  0
 30 32  1  0  0  0
 30 33  1  0  0  0
 34 35  1  0  0  0
 34 36  1  0  0  0
M  END
>  <ACTIVITY>
6.37

>  <SET>
1

>  <Min_dist>
999.9

>  <Avg_dist>
999.9

$$$$
9-13d
  Cerius2 12110214143D 1   1.00000                          
Structure written by Cerius2 SD Exporter
 39 41  0  0  0  0  0  0  0  0999 V2000
   10.1040    2.5910   12.7730 N   0  0  0  0  0  0
   10.8090    1.9480   11.8550 C   0  0  0  0  0  0
   12.0910    2.1710   11.6130 N   0  0  0  0  0  0
   12.7140    3.0910   12.3290 C   0  0  0  0  0  0
   12.1020    3.8480   13.3350 C   0  0  0  0  0  0
   10.7350    3.5260   13.5010 C   0  0  0  0  0  0
    9.9110    4.1430   14.4310 N   0  0  0  0  0  0
   10.1550    3.9680   15.4020 H   0  0  0  0  0  0
    9.7600    5.1370   14.2760 H   0  0  0  0  0  0
   12.9170    4.8200   14.0390 C   0  0  0  0  0  0
   14.2700    4.9720   13.6790 C   0  0  0  0  0  0
   14.7420    4.1500   12.6680 C   0  0  0  0  0  0
   15.7810    4.2000   12.3430 H   0  0  0  0  0  0
   13.9950    3.2390   12.0080 N   0  0  0  0  0  0
   15.2410    5.9330   14.3220 C   0  0  0  0  0  0
   15.4560    5.6330   15.3530 H   0  0  0  0  0  0
   14.7830    6.9270   14.3910 H   0  0  0  0  0  0
   16.7860    6.0640   13.3470 S   0  0  0  0  0  0
   16.2230    7.1210   12.0250 C   0  0  0  0  0  0
   14.9220    7.6300   12.0000 C   0  0  0  0  0  0
   14.2130    7.3960   12.7920 H   0  0  0  0  0  0
   14.5030    8.4370   10.9410 C   0  0  0  0  0  0
   13.4860    8.8270   10.9240 H   0  0  0  0  0  0
   15.3800    8.7380    9.8990 C   0  0  0  0  0  0
   15.0350    9.3620    9.0760 H   0  0  0  0  0  0
   16.6870    8.2380    9.9100 C   0  0  0  0  0  0
   17.0950    7.4150   10.9710 C   0  0  0  0  0  0
   18.1050    7.0070   10.9710 H   0  0  0  0  0  0
   17.6200    8.5260    8.7700 C   0  0  0  0  0  0
   17.5120    7.7600    7.9960 H   0  0  0  0  0  0
   18.6600    8.5420    9.1110 H   0  0  0  0  0  0
   17.4080    9.5060    8.3310 H   0  0  0  0  0  0
   12.3280    5.6610   15.1460 C   0  0  0  0  0  0
   11.9460    5.0200   15.9460 H   0  0  0  0  0  0
   11.5340    6.3020   14.7530 H   0  0  0  0  0  0
   13.0490    6.3270   15.6230 H   0  0  0  0  0  0
   10.1750    0.9980   11.1150 N   0  0  0  0  0  0
   10.6850    0.4880   10.4090 H   0  0  0  0  0  0
    9.1980    0.8060   11.2800 H   0  0  0  0  0  0
  1  2  1  0  0  0
  1  6  2  0  0  0
  2  3  2  0  0  0
  2 37  1  0  0  0
  3  4  1  0  0  0
  4  5  2  0  0  0
  4 14  1  0  0  0
  5  6  1  0  0  0
  5 10  1  0  0  0
  6  7  1  0  0  0
  7  8  1  0  0  0
  7  9  1  0  0  0
 10 11  2  0  0  0
 10 33  1  0  0  0
 11 12  1  0  0  0
 11 15  1  0  0  0
 12 13  1  0  0  0
 12 14  2  0  0  0
 15 16  1  0  0  0
 15 17  1  0  0  0
 15 18  1  0  0  0
 18 19  1  0  0  0
 19 20  1  0  0  0
 19 27  2  0  0  0
 20 21  1  0  0  0
 20 22  2  0  0  0
 22 23  1  0  0  0
 22 24  1  0  0  0
 24 25  1  0  0  0
 24 26  2  0  0  0
 26 27  1  0  0  0
 26 29  1  0  0  0
 27 28  1  0  0  0
 29 30  1  0  0  0
 29 31  1  0  0  0
 29 32  1  0  0  0
 33 34  1  0  0  0
 33 35  1  0  0  0
 33 36  1  0  0  0
 37 38  1  0  0  0
 37 39  1  0  0  0
M  END
>  <ACTIVITY>
6.48

>  <SET>
1

>  <Min_dist>
999.9

>  <Avg_dist>
999.9

$$$$
9-13e
  Cerius2 12110214143D 1   1.00000                          
Structure written by Cerius2 SD Exporter
 39 41  0  0  0  0  0  0  0  0999 V2000
   10.1030    2.5920   12.7720 N   0  0  0  0  0  0
   10.8080    1.9490   11.8540 C   0  0  0  0  0  0
   12.0910    2.1720   11.6130 N   0  0  0  0  0  0
   12.7140    3.0900   12.3300 C   0  0  0  0  0  0
   12.1010    3.8470   13.3360 C   0  0  0  0  0  0
   10.7350    3.5260   13.5010 C   0  0  0  0  0  0
    9.9100    4.1420   14.4310 N   0  0  0  0  0  0
   10.1540    3.9670   15.4020 H   0  0  0  0  0  0
    9.7580    5.1360   14.2760 H   0  0  0  0  0  0
   12.9160    4.8190   14.0420 C   0  0  0  0  0  0
   14.2700    4.9700   13.6810 C   0  0  0  0  0  0
   14.7420    4.1470   12.6710 C   0  0  0  0  0  0
   15.7820    4.1970   12.3480 H   0  0  0  0  0  0
   13.9950    3.2370   12.0110 N   0  0  0  0  0  0
   15.2400    5.9330   14.3250 C   0  0  0  0  0  0
   15.4540    5.6340   15.3560 H   0  0  0  0  0  0
   14.7810    6.9260   14.3920 H   0  0  0  0  0  0
   16.7840    6.0650   13.3500 S   0  0  0  0  0  0
   16.2250    7.1230   12.0270 C   0  0  0  0  0  0
   17.0730    7.5140   10.9880 C   0  0  0  0  0  0
   18.1080    7.1790   10.9540 H   0  0  0  0  0  0
   16.6070    8.3560    9.9730 C   0  0  0  0  0  0
   17.2840    8.6400    9.1670 H   0  0  0  0  0  0
   15.2920    8.8330    9.9930 C   0  0  0  0  0  0
   14.4440    8.4390   11.0340 C   0  0  0  0  0  0
   13.4120    8.7860   11.0650 H   0  0  0  0  0  0
   14.9110    7.5980   12.0480 C   0  0  0  0  0  0
   14.2310    7.3140   12.8500 H   0  0  0  0  0  0
   14.7820    9.7100    8.8870 C   0  0  0  0  0  0
   14.3520    9.0950    8.0910 H   0  0  0  0  0  0
   15.5900   10.3190    8.4670 H   0  0  0  0  0  0
   14.0150   10.3980    9.2580 H   0  0  0  0  0  0
   12.3270    5.6580   15.1500 C   0  0  0  0  0  0
   11.9470    5.0160   15.9490 H   0  0  0  0  0  0
   11.5320    6.2980   14.7580 H   0  0  0  0  0  0
   13.0470    6.3250   15.6260 H   0  0  0  0  0  0
   10.1750    1.0010   11.1120 N   0  0  0  0  0  0
   10.6840    0.4920   10.4050 H   0  0  0  0  0  0
    9.1970    0.8090   11.2760 H   0  0  0  0  0  0
  1  2  1  0  0  0
  1  6  2  0  0  0
  2  3  2  0  0  0
  2 37  1  0  0  0
  3  4  1  0  0  0
  4  5  2  0  0  0
  4 14  1  0  0  0
  5  6  1  0  0  0
  5 10  1  0  0  0
  6  7  1  0  0  0
  7  8  1  0  0  0
  7  9  1  0  0  0
 10 11  2  0  0  0
 10 33  1  0  0  0
 11 12  1  0  0  0
 11 15  1  0  0  0
 12 13  1  0  0  0
 12 14  2  0  0  0
 15 16  1  0  0  0
 15 17  1  0  0  0
 15 18  1  0  0  0
 18 19  1  0  0  0
 19 20  1  0  0  0
 19 27  2  0  0  0
 20 21  1  0  0  0
 20 22  2  0  0  0
 22 23  1  0  0  0
 22 24  1  0  0  0
 24 25  2  0  0  0
 24 29  1  0  0  0
 25 26  1  0  0  0
 25 27  1  0  0  0
 27 28  1  0  0  0
 29 30  1  0  0  0
 29 31  1  0  0  0
 29 32  1  0  0  0
 33 34  1  0  0  0
 33 35  1  0  0  0
 33 36  1  0  0  0
 37 38  1  0  0  0
 37 39  1  0  0  0
M  END
>  <ACTIVITY>
6.3

>  <SET>
2

>  <Min_dist>
0.03

>  <Avg_dist>
0.53

$$$$
9-13f
  Cerius2 12110214143D 1   1.00000                          
Structure written by Cerius2 SD Exporter
 40 42  0  0  0  0  0  0  0  0999 V2000
   10.1050    2.5810   12.7790 N   0  0  0  0  0  0
   10.8100    1.9420   11.8580 C   0  0  0  0  0  0
   12.0900    2.1730   11.6120 N   0  0  0  0  0  0
   12.7110    3.0970   12.3250 C   0  0  0  0  0  0
   12.0960    3.8540   13.3290 C   0  0  0  0  0  0
   10.7330    3.5220   13.5030 C   0  0  0  0  0  0
    9.9100    4.1310   14.4380 N   0  0  0  0  0  0
   10.1640    3.9600   15.4080 H   0  0  0  0  0  0
    9.7450    5.1220   14.2840 H   0  0  0  0  0  0
   12.9080    4.8340   14.0270 C   0  0  0  0  0  0
   14.2620    4.9860   13.6680 C   0  0  0  0  0  0
   14.7360    4.1610   12.6610 C   0  0  0  0  0  0
   15.7750    4.2120   12.3370 H   0  0  0  0  0  0
   13.9910    3.2470   12.0030 N   0  0  0  0  0  0
   15.2310    5.9510   14.3090 C   0  0  0  0  0  0
   15.4420    5.6560   15.3430 H   0  0  0  0  0  0
   14.7750    6.9460   14.3710 H   0  0  0  0  0  0
   16.7790    6.0760   13.3390 S   0  0  0  0  0  0
   16.2150    7.1310   12.0150 C   0  0  0  0  0  0
   14.9050    7.6190   11.9880 C   0  0  0  0  0  0
   14.1990    7.3710   12.7780 H   0  0  0  0  0  0
   14.4820    8.4290   10.9350 C   0  0  0  0  0  0
   13.4630    8.8100   10.9160 H   0  0  0  0  0  0
   15.3650    8.7460    9.9040 C   0  0  0  0  0  0
   15.0250    9.3800    9.0860 H   0  0  0  0  0  0
   16.6740    8.2570    9.9120 C   0  0  0  0  0  0
   17.0940    7.4450   10.9690 C   0  0  0  0  0  0
   18.1050    7.0460   11.0010 H   0  0  0  0  0  0
   17.4340    8.6390    8.8400 O   0  0  0  0  0  0
   18.7790    8.1650    8.8030 C   0  0  0  0  0  0
   19.2460    8.5630    7.8970 H   0  0  0  0  0  0
   18.8080    7.0720    8.7420 H   0  0  0  0  0  0
   19.3490    8.5310    9.6620 H   0  0  0  0  0  0
   12.3140    5.6820   15.1260 C   0  0  0  0  0  0
   11.9520    5.0480   15.9400 H   0  0  0  0  0  0
   11.5040    6.3010   14.7310 H   0  0  0  0  0  0
   13.0260    6.3730   15.5810 H   0  0  0  0  0  0
   10.1800    0.9890   11.1210 N   0  0  0  0  0  0
   10.6880    0.4850   10.4090 H   0  0  0  0  0  0
    9.2050    0.7890   11.2900 H   0  0  0  0  0  0
  1  2  1  0  0  0
  1  6  2  0  0  0
  2  3  2  0  0  0
  2 38  1  0  0  0
  3  4  1  0  0  0
  4  5  2  0  0  0
  4 14  1  0  0  0
  5  6  1  0  0  0
  5 10  1  0  0  0
  6  7  1  0  0  0
  7  8  1  0  0  0
  7  9  1  0  0  0
 10 11  2  0  0  0
 10 34  1  0  0  0
 11 12  1  0  0  0
 11 15  1  0  0  0
 12 13  1  0  0  0
 12 14  2  0  0  0
 15 16  1  0  0  0
 15 17  1  0  0  0
 15 18  1  0  0  0
 18 19  1  0  0  0
 19 20  1  0  0  0
 19 27  2  0  0  0
 20 21  1  0  0  0
 20 22  2  0  0  0
 22 23  1  0  0  0
 22 24  1  0  0  0
 24 25  1  0  0  0
 24 26  2  0  0  0
 26 27  1  0  0  0
 26 29  1  0  0  0
 27 28  1  0  0  0
 29 30  1  0  0  0
 30 31  1  0  0  0
 30 32  1  0  0  0
 30 33  1  0  0  0
 34 35  1  0  0  0
 34 36  1  0  0  0
 34 37  1  0  0  0
 38 39  1  0  0  0
 38 40  1  0  0  0
M  END
>  <ACTIVITY>
6.22

>  <SET>
1

>  <Min_dist>
999.9

>  <Avg_dist>
999.9

$$$$
9-13g
  Cerius2 12110214143D 1   1.00000                          
Structure written by Cerius2 SD Exporter
 40 42  0  0  0  0  0  0  0  0999 V2000
   10.1020    2.5800   12.7680 N   0  0  0  0  0  0
   10.8130    1.9460   11.8490 C   0  0  0  0  0  0
   12.0950    2.1780   11.6120 N   0  0  0  0  0  0
   12.7100    3.0990   12.3330 C   0  0  0  0  0  0
   12.0890    3.8500   13.3380 C   0  0  0  0  0  0
   10.7260    3.5150   13.5020 C   0  0  0  0  0  0
    9.8960    4.1200   14.4350 N   0  0  0  0  0  0
   10.1530    3.9570   15.4060 H   0  0  0  0  0  0
    9.7210    5.1090   14.2760 H   0  0  0  0  0  0
   12.8950    4.8270   14.0470 C   0  0  0  0  0  0
   14.2550    4.9700   13.7080 C   0  0  0  0  0  0
   14.7320    4.1640   12.6870 C   0  0  0  0  0  0
   15.7700    4.2270   12.3610 H   0  0  0  0  0  0
   13.9920    3.2540   12.0180 N   0  0  0  0  0  0
   15.2160    5.9420   14.3530 C   0  0  0  0  0  0
   15.4510    5.6070   15.3700 H   0  0  0  0  0  0
   14.7500    6.9260   14.4650 H   0  0  0  0  0  0
   16.7750    6.0630   13.4010 S   0  0  0  0  0  0
   16.2310    7.1000   12.0570 C   0  0  0  0  0  0
   17.1380    7.4400   11.0490 C   0  0  0  0  0  0
   18.1600    7.0660   11.0740 H   0  0  0  0  0  0
   16.7480    8.2640    9.9850 C   0  0  0  0  0  0
   17.4900    8.4940    9.2240 H   0  0  0  0  0  0
   15.4480    8.7630    9.9240 C   0  0  0  0  0  0
   14.5450    8.4330   10.9380 C   0  0  0  0  0  0
   13.5280    8.8210   10.9090 H   0  0  0  0  0  0
   14.9330    7.6110   12.0010 C   0  0  0  0  0  0
   14.2090    7.3880   12.7810 H   0  0  0  0  0  0
   14.9420    9.5740    8.9460 O   0  0  0  0  0  0
   15.8080    9.8760    7.8530 C   0  0  0  0  0  0
   15.2610   10.5290    7.1660 H   0  0  0  0  0  0
   16.0810    8.9690    7.3040 H   0  0  0  0  0  0
   16.6960   10.4180    8.1930 H   0  0  0  0  0  0
   12.2890    5.6820   15.1340 C   0  0  0  0  0  0
   12.9880    6.3970   15.5700 H   0  0  0  0  0  0
   11.9420    5.0530   15.9590 H   0  0  0  0  0  0
   11.4660    6.2790   14.7310 H   0  0  0  0  0  0
   10.1880    0.9950   11.1030 N   0  0  0  0  0  0
   10.7020    0.4920   10.3950 H   0  0  0  0  0  0
    9.2110    0.7960   11.2650 H   0  0  0  0  0  0
  1  2  1  0  0  0
  1  6  2  0  0  0
  2  3  2  0  0  0
  2 38  1  0  0  0
  3  4  1  0  0  0
  4  5  2  0  0  0
  4 14  1  0  0  0
  5  6  1  0  0  0
  5 10  1  0  0  0
  6  7  1  0  0  0
  7  8  1  0  0  0
  7  9  1  0  0  0
 10 11  2  0  0  0
 10 34  1  0  0  0
 11 12  1  0  0  0
 11 15  1  0  0  0
 12 13  1  0  0  0
 12 14  2  0  0  0
 15 16  1  0  0  0
 15 17  1  0  0  0
 15 18  1  0  0  0
 18 19  1  0  0  0
 19 20  1  0  0  0
 19 27  2  0  0  0
 20 21  1  0  0  0
 20 22  2  0  0  0
 22 23  1  0  0  0
 22 24  1  0  0  0
 24 25  2  0  0  0
 24 29  1  0  0  0
 25 26  1  0  0  0
 25 27  1  0  0  0
 27 28  1  0  0  0
 29 30  1  0  0  0
 30 31  1  0  0  0
 30 32  1  0  0  0
 30 33  1  0  0  0
 34 35  1  0  0  0
 34 36  1  0  0  0
 34 37  1  0  0  0
 38 39  1  0  0  0
 38 40  1  0  0  0
M  END
>  <ACTIVITY>
6.28

>  <SET>
1

>  <Min_dist>
999.9

>  <Avg_dist>
999.9

$$$$
9-13h
  Cerius2 12110214143D 1   1.00000                          
Structure written by Cerius2 SD Exporter
 44 46  0  0  0  0  0  0  0  0999 V2000
   10.1010    2.5720   12.7700 N   0  0  0  0  0  0
   10.8160    1.9360   11.8540 C   0  0  0  0  0  0
   12.0960    2.1750   11.6150 N   0  0  0  0  0  0
   12.7070    3.1030   12.3320 C   0  0  0  0  0  0
   12.0820    3.8540   13.3350 C   0  0  0  0  0  0
   10.7200    3.5150   13.4980 C   0  0  0  0  0  0
    9.8860    4.1220   14.4260 N   0  0  0  0  0  0
   10.1310    3.9530   15.3980 H   0  0  0  0  0  0
    9.7210    5.1140   14.2690 H   0  0  0  0  0  0
   12.8840    4.8370   14.0400 C   0  0  0  0  0  0
   14.2370    5.0020   13.6850 C   0  0  0  0  0  0
   14.7210    4.1840   12.6770 C   0  0  0  0  0  0
   15.7610    4.2460   12.3560 H   0  0  0  0  0  0
   13.9870    3.2640   12.0150 N   0  0  0  0  0  0
   15.1940    5.9750   14.3310 C   0  0  0  0  0  0
   15.3770    5.7020   15.3750 H   0  0  0  0  0  0
   14.7420    6.9740   14.3600 H   0  0  0  0  0  0
   16.7680    6.0690   13.4000 S   0  0  0  0  0  0
   16.2520    7.1020   12.0390 C   0  0  0  0  0  0
   14.9570    7.6140   11.9700 C   0  0  0  0  0  0
   14.2280    7.3990   12.7490 H   0  0  0  0  0  0
   14.5650    8.4060   10.8860 C   0  0  0  0  0  0
   13.5460    8.7820   10.8800 H   0  0  0  0  0  0
   15.4660    8.6880    9.8560 C   0  0  0  0  0  0
   16.7740    8.1640    9.9150 C   0  0  0  0  0  0
   17.1550    7.3700   11.0040 C   0  0  0  0  0  0
   18.1560    6.9510   11.0700 H   0  0  0  0  0  0
   17.5960    8.4850    8.8610 O   0  0  0  0  0  0
   18.9270    7.9730    8.8870 C   0  0  0  0  0  0
   19.4370    8.3290    7.9870 H   0  0  0  0  0  0
   18.9270    6.8780    8.8590 H   0  0  0  0  0  0
   19.4770    8.3510    9.7540 H   0  0  0  0  0  0
   15.1730    9.4540    8.7540 O   0  0  0  0  0  0
   16.2110    9.6420    7.7940 C   0  0  0  0  0  0
   15.8120   10.2720    6.9930 H   0  0  0  0  0  0
   16.5140    8.6890    7.3490 H   0  0  0  0  0  0
   17.0650   10.1660    8.2360 H   0  0  0  0  0  0
   12.2810    5.6730   15.1430 C   0  0  0  0  0  0
   11.9090    5.0290   15.9460 H   0  0  0  0  0  0
   11.4760    6.2980   14.7470 H   0  0  0  0  0  0
   12.9900    6.3550   15.6160 H   0  0  0  0  0  0
   10.1960    0.9790   11.1130 N   0  0  0  0  0  0
   10.7130    0.4750   10.4080 H   0  0  0  0  0  0
    9.2200    0.7760   11.2750 H   0  0  0  0  0  0
  1  2  1  0  0  0
  1  6  2  0  0  0
  2  3  2  0  0  0
  2 42  1  0  0  0
  3  4  1  0  0  0
  4  5  2  0  0  0
  4 14  1  0  0  0
  5  6  1  0  0  0
  5 10  1  0  0  0
  6  7  1  0  0  0
  7  8  1  0  0  0
  7  9  1  0  0  0
 10 11  2  0  0  0
 10 38  1  0  0  0
 11 12  1  0  0  0
 11 15  1  0  0  0
 12 13  1  0  0  0
 12 14  2  0  0  0
 15 16  1  0  0  0
 15 17  1  0  0  0
 15 18  1  0  0  0
 18 19  1  0  0  0
 19 20  1  0  0  0
 19 26  2  0  0  0
 20 21  1  0  0  0
 20 22  2  0  0  0
 22 23  1  0  0  0
 22 24  1  0  0  0
 24 25  2  0  0  0
 24 33  1  0  0  0
 25 26  1  0  0  0
 25 28  1  0  0  0
 26 27  1  0  0  0
 28 29  1  0  0  0
 29 30  1  0  0  0
 29 31  1  0  0  0
 29 32  1  0  0  0
 33 34  1  0  0  0
 34 35  1  0  0  0
 34 36  1  0  0  0
 34 37  1  0  0  0
 38 39  1  0  0  0
 38 40  1  0  0  0
 38 41  1  0  0  0
 42 43  1  0  0  0
 42 44  1  0  0  0
M  END
>  <ACTIVITY>
6.74

>  <SET>
1

>  <Min_dist>
999.9

>  <Avg_dist>
999.9

$$$$
9-13i
  Cerius2 12110214143D 1   1.00000                          
Structure written by Cerius2 SD Exporter
 36 38  0  0  0  0  0  0  0  0999 V2000
   10.1040    2.5920   12.7740 N   0  0  0  0  0  0
   10.8080    1.9480   11.8550 C   0  0  0  0  0  0
   12.0900    2.1710   11.6130 N   0  0  0  0  0  0
   12.7140    3.0900   12.3290 C   0  0  0  0  0  0
   12.1020    3.8470   13.3350 C   0  0  0  0  0  0
   10.7350    3.5260   13.5010 C   0  0  0  0  0  0
    9.9110    4.1440   14.4310 N   0  0  0  0  0  0
   10.1530    3.9660   15.4020 H   0  0  0  0  0  0
    9.7630    5.1380   14.2780 H   0  0  0  0  0  0
   12.9180    4.8180   14.0400 C   0  0  0  0  0  0
   14.2710    4.9700   13.6790 C   0  0  0  0  0  0
   14.7420    4.1480   12.6680 C   0  0  0  0  0  0
   15.7810    4.1990   12.3420 H   0  0  0  0  0  0
   13.9950    3.2370   12.0080 N   0  0  0  0  0  0
   15.2410    5.9340   14.3200 C   0  0  0  0  0  0
   15.4550    5.6340   15.3520 H   0  0  0  0  0  0
   14.7820    6.9270   14.3890 H   0  0  0  0  0  0
   16.7850    6.0660   13.3470 S   0  0  0  0  0  0
   16.2190    7.1260   12.0280 C   0  0  0  0  0  0
   14.9120    7.6270   12.0080 C   0  0  0  0  0  0
   14.2070    7.3800   12.7990 H   0  0  0  0  0  0
   14.4870    8.4470   10.9590 C   0  0  0  0  0  0
   13.4700    8.8350   10.9500 H   0  0  0  0  0  0
   15.3630    8.7630    9.9220 C   0  0  0  0  0  0
   15.0250    9.4010    9.1080 H   0  0  0  0  0  0
   16.6600    8.2530    9.9350 C   0  0  0  0  0  0
   17.0900    7.4340   10.9790 C   0  0  0  0  0  0
   18.1050    7.0420   10.9740 H   0  0  0  0  0  0
   17.7410    8.6380    8.6500 Cl  0  0  0  0  0  0
   12.3290    5.6600   15.1470 C   0  0  0  0  0  0
   11.9410    5.0200   15.9450 H   0  0  0  0  0  0
   11.5380    6.3050   14.7520 H   0  0  0  0  0  0
   13.0510    6.3220   15.6270 H   0  0  0  0  0  0
   10.1730    1.0000   11.1140 N   0  0  0  0  0  0
   10.6810    0.4930   10.4030 H   0  0  0  0  0  0
    9.1950    0.8110   11.2770 H   0  0  0  0  0  0
  1  2  1  0  0  0
  1  6  2  0  0  0
  2  3  2  0  0  0
  2 34  1  0  0  0
  3  4  1  0  0  0
  4  5  2  0  0  0
  4 14  1  0  0  0
  5  6  1  0  0  0
  5 10  1  0  0  0
  6  7  1  0  0  0
  7  8  1  0  0  0
  7  9  1  0  0  0
 10 11  2  0  0  0
 10 30  1  0  0  0
 11 12  1  0  0  0
 11 15  1  0  0  0
 12 13  1  0  0  0
 12 14  2  0  0  0
 15 16  1  0  0  0
 15 17  1  0  0  0
 15 18  1  0  0  0
 18 19  1  0  0  0
 19 20  1  0  0  0
 19 27  2  0  0  0
 20 21  1  0  0  0
 20 22  2  0  0  0
 22 23  1  0  0  0
 22 24  1  0  0  0
 24 25  1  0  0  0
 24 26  2  0  0  0
 26 27  1  0  0  0
 26 29  1  0  0  0
 27 28  1  0  0  0
 30 31  1  0  0  0
 30 32  1  0  0  0
 30 33  1  0  0  0
 34 35  1  0  0  0
 34 36  1  0  0  0
M  END
>  <ACTIVITY>
6.72

>  <SET>
1

>  <Min_dist>
999.9

>  <Avg_dist>
999.9

$$$$
9-13j
  Cerius2 12110214143D 1   1.00000                          
Structure written by Cerius2 SD Exporter
 36 38  0  0  0  0  0  0  0  0999 V2000
   10.1050    2.5910   12.7740 N   0  0  0  0  0  0
   10.8100    1.9470   11.8570 C   0  0  0  0  0  0
   12.0910    2.1730   11.6120 N   0  0  0  0  0  0
   12.7140    3.0940   12.3270 C   0  0  0  0  0  0
   12.1010    3.8510   13.3330 C   0  0  0  0  0  0
   10.7360    3.5280   13.5000 C   0  0  0  0  0  0
    9.9110    4.1440   14.4300 N   0  0  0  0  0  0
   10.1550    3.9670   15.4020 H   0  0  0  0  0  0
    9.7590    5.1380   14.2760 H   0  0  0  0  0  0
   12.9160    4.8230   14.0370 C   0  0  0  0  0  0
   14.2700    4.9730   13.6770 C   0  0  0  0  0  0
   14.7410    4.1520   12.6650 C   0  0  0  0  0  0
   15.7800    4.2020   12.3410 H   0  0  0  0  0  0
   13.9940    3.2410   12.0050 N   0  0  0  0  0  0
   15.2430    5.9320   14.3220 C   0  0  0  0  0  0
   15.4580    5.6300   15.3520 H   0  0  0  0  0  0
   14.7860    6.9260   14.3930 H   0  0  0  0  0  0
   16.7860    6.0610   13.3460 S   0  0  0  0  0  0
   16.2200    7.1180   12.0270 C   0  0  0  0  0  0
   17.0720    7.5100   10.9890 C   0  0  0  0  0  0
   18.1060    7.1730   10.9580 H   0  0  0  0  0  0
   16.6100    8.3580    9.9780 C   0  0  0  0  0  0
   17.2840    8.6550    9.1770 H   0  0  0  0  0  0
   15.2950    8.8190   10.0060 C   0  0  0  0  0  0
   14.4410    8.4420   11.0400 C   0  0  0  0  0  0
   13.4150    8.8020   11.0700 H   0  0  0  0  0  0
   14.9050    7.5960   12.0510 C   0  0  0  0  0  0
   14.2260    7.3140   12.8550 H   0  0  0  0  0  0
   14.7280    9.8660    8.7640 Cl  0  0  0  0  0  0
   12.3270    5.6640   15.1430 C   0  0  0  0  0  0
   11.9460    5.0240   15.9450 H   0  0  0  0  0  0
   11.5310    6.3030   14.7490 H   0  0  0  0  0  0
   13.0470    6.3330   15.6170 H   0  0  0  0  0  0
   10.1780    0.9930   11.1200 N   0  0  0  0  0  0
   10.6900    0.4810   10.4170 H   0  0  0  0  0  0
    9.2030    0.7950   11.2900 H   0  0  0  0  0  0
  1  2  1  0  0  0
  1  6  2  0  0  0
  2  3  2  0  0  0
  2 34  1  0  0  0
  3  4  1  0  0  0
  4  5  2  0  0  0
  4 14  1  0  0  0
  5  6  1  0  0  0
  5 10  1  0  0  0
  6  7  1  0  0  0
  7  8  1  0  0  0
  7  9  1  0  0  0
 10 11  2  0  0  0
 10 30  1  0  0  0
 11 12  1  0  0  0
 11 15  1  0  0  0
 12 13  1  0  0  0
 12 14  2  0  0  0
 15 16  1  0  0  0
 15 17  1  0  0  0
 15 18  1  0  0  0
 18 19  1  0  0  0
 19 20  1  0  0  0
 19 27  2  0  0  0
 20 21  1  0  0  0
 20 22  2  0  0  0
 22 23  1  0  0  0
 22 24  1  0  0  0
 24 25  2  0  0  0
 24 29  1  0  0  0
 25 26  1  0  0  0
 25 27  1  0  0  0
 27 28  1  0  0  0
 30 31  1  0  0  0
 30 32  1  0  0  0
 30 33  1  0  0  0
 34 35  1  0  0  0
 34 36  1  0  0  0
M  END
>  <ACTIVITY>
6.43

>  <SET>
1

>  <Min_dist>
999.9

>  <Avg_dist>
999.9

$$$$
9-13l
  Cerius2 12110214143D 1   1.00000                          
Structure written by Cerius2 SD Exporter
 44 46  0  0  0  0  0  0  0  0999 V2000
   10.1370    2.6290   12.8220 N   0  0  0  0  0  0
   10.8000    1.9670   11.8860 C   0  0  0  0  0  0
   12.0770    2.1650   11.6010 N   0  0  0  0  0  0
   12.7390    3.0800   12.2880 C   0  0  0  0  0  0
   12.1710    3.8600   13.3030 C   0  0  0  0  0  0
   10.8080    3.5570   13.5220 C   0  0  0  0  0  0
   10.0280    4.1880   14.4810 N   0  0  0  0  0  0
   10.3290    4.0420   15.4410 H   0  0  0  0  0  0
    9.8560    5.1760   14.3090 H   0  0  0  0  0  0
   13.0220    4.8290   13.9660 C   0  0  0  0  0  0
   14.3760    4.9250   13.5890 C   0  0  0  0  0  0
   14.7980    4.0980   12.5620 C   0  0  0  0  0  0
   15.8260    4.1330   12.2010 H   0  0  0  0  0  0
   14.0130    3.2000   11.9280 N   0  0  0  0  0  0
   15.3830    5.8740   14.1970 C   0  0  0  0  0  0
   15.8520    5.3890   15.0600 H   0  0  0  0  0  0
   14.8760    6.7590   14.6000 H   0  0  0  0  0  0
   16.3770    6.2430   13.1950 N   0  0  0  0  0  0
   16.9770    5.4730   12.9000 H   0  0  0  0  0  0
   16.0090    7.1300   12.1840 C   0  0  0  0  0  0
   14.6930    7.6280   12.1890 C   0  0  0  0  0  0
   13.9920    7.2750   12.9450 H   0  0  0  0  0  0
   14.2570    8.5810   11.2630 C   0  0  0  0  0  0
   15.1520    9.0590   10.3130 C   0  0  0  0  0  0
   14.8690    9.8040    9.5740 H   0  0  0  0  0  0
   16.4620    8.5760   10.2890 C   0  0  0  0  0  0
   17.1470    8.9600    9.5320 H   0  0  0  0  0  0
   16.9000    7.6040   11.2070 C   0  0  0  0  0  0
   18.3180    7.1130   11.0850 C   0  0  0  0  0  0
   18.6470    7.1320   10.0400 H   0  0  0  0  0  0
   18.4120    6.0750   11.4210 H   0  0  0  0  0  0
   18.9890    7.7480   11.6700 H   0  0  0  0  0  0
   12.9510    8.9630   11.4010 O   0  0  0  0  0  0
   12.4650    9.9350   10.4760 C   0  0  0  0  0  0
   11.4140   10.1240   10.7130 H   0  0  0  0  0  0
   12.5130    9.5580    9.4490 H   0  0  0  0  0  0
   13.0070   10.8810   10.5790 H   0  0  0  0  0  0
   12.4750    5.7250   15.0510 C   0  0  0  0  0  0
   12.1720    5.1300   15.9180 H   0  0  0  0  0  0
   11.6320    6.3090   14.6710 H   0  0  0  0  0  0
   13.1950    6.4600   15.4150 H   0  0  0  0  0  0
   10.1260    1.0250   11.1730 N   0  0  0  0  0  0
   10.6020    0.5030   10.4520 H   0  0  0  0  0  0
    9.1500    0.8530   11.3700 H   0  0  0  0  0  0
  1  2  1  0  0  0
  1  6  2  0  0  0
  2  3  2  0  0  0
  2 42  1  0  0  0
  3  4  1  0  0  0
  4  5  2  0  0  0
  4 14  1  0  0  0
  5  6  1  0  0  0
  5 10  1  0  0  0
  6  7  1  0  0  0
  7  8  1  0  0  0
  7  9  1  0  0  0
 10 11  2  0  0  0
 10 38  1  0  0  0
 11 12  1  0  0  0
 11 15  1  0  0  0
 12 13  1  0  0  0
 12 14  2  0  0  0
 15 16  1  0  0  0
 15 17  1  0  0  0
 15 18  1  0  0  0
 18 19  1  0  0  0
 18 20  1  0  0  0
 20 21  1  0  0  0
 20 28  2  0  0  0
 21 22  1  0  0  0
 21 23  2  0  0  0
 23 24  1  0  0  0
 23 33  1  0  0  0
 24 25  1  0  0  0
 24 26  2  0  0  0
 26 27  1  0  0  0
 26 28  1  0  0  0
 28 29  1  0  0  0
 29 30  1  0  0  0
 29 31  1  0  0  0
 29 32  1  0  0  0
 33 34  1  0  0  0
 34 35  1  0  0  0
 34 36  1  0  0  0
 34 37  1  0  0  0
 38 39  1  0  0  0
 38 40  1  0  0  0
 38 41  1  0  0  0
 42 43  1  0  0  0
 42 44  1  0  0  0
M  END
>  <ACTIVITY>
6.82

>  <SET>
1

>  <Min_dist>
999.9

>  <Avg_dist>
999.9

$$$$
9-13m
  Cerius2 12110214143D 1   1.00000                          
Structure written by Cerius2 SD Exporter
 44 46  0  0  0  0  0  0  0  0999 V2000
   10.1190    2.6450   12.8050 N   0  0  0  0  0  0
   10.7840    1.9640   11.8840 C   0  0  0  0  0  0
   12.0660    2.1440   11.6100 N   0  0  0  0  0  0
   12.7330    3.0540   12.2980 C   0  0  0  0  0  0
   12.1690    3.8390   13.3090 C   0  0  0  0  0  0
   10.7950    3.5730   13.5020 C   0  0  0  0  0  0
   10.0090    4.2380   14.4310 N   0  0  0  0  0  0
   10.2230    4.0290   15.4020 H   0  0  0  0  0  0
    9.9370    5.2430   14.2910 H   0  0  0  0  0  0
   13.0340    4.7860   13.9890 C   0  0  0  0  0  0
   14.3690    4.9400   13.5580 C   0  0  0  0  0  0
   14.7930    4.0780   12.5600 C   0  0  0  0  0  0
   15.8210    4.0920   12.2010 H   0  0  0  0  0  0
   14.0090    3.1610   11.9460 N   0  0  0  0  0  0
   15.3380    5.9260   14.1810 C   0  0  0  0  0  0
   15.7360    5.4740   15.0950 H   0  0  0  0  0  0
   14.8060    6.8450   14.4520 H   0  0  0  0  0  0
   16.3990    6.3120   13.2520 N   0  0  0  0  0  0
   16.9360    5.5060   12.9200 H   0  0  0  0  0  0
   16.0430    7.1730   12.1970 C   0  0  0  0  0  0
   17.0090    7.4720   11.2000 C   0  0  0  0  0  0
   16.6630    8.2630   10.1010 C   0  0  0  0  0  0
   17.3760    8.5110    9.3200 H   0  0  0  0  0  0
   15.3650    8.7530    9.9740 C   0  0  0  0  0  0
   15.0970    9.3630    9.1130 H   0  0  0  0  0  0
   14.4100    8.4690   10.9480 C   0  0  0  0  0  0
   13.4030    8.8670   10.8300 H   0  0  0  0  0  0
   14.7380    7.6920   12.0710 C   0  0  0  0  0  0
   13.6640    7.4460   13.0980 C   0  0  0  0  0  0
   13.0900    6.5520   12.8380 H   0  0  0  0  0  0
   12.9760    8.2970   13.1500 H   0  0  0  0  0  0
   14.0870    7.3270   14.1010 H   0  0  0  0  0  0
   18.2560    6.9290   11.4110 O   0  0  0  0  0  0
   19.2750    7.2590   10.4700 C   0  0  0  0  0  0
   20.1940    6.7550   10.7850 H   0  0  0  0  0  0
   19.4710    8.3360   10.4630 H   0  0  0  0  0  0
   19.0200    6.8930    9.4700 H   0  0  0  0  0  0
   12.5190    5.6080   15.1470 C   0  0  0  0  0  0
   12.0420    4.9640   15.8900 H   0  0  0  0  0  0
   11.8190    6.3690   14.7910 H   0  0  0  0  0  0
   13.3120    6.1200   15.6980 H   0  0  0  0  0  0
   10.1050    1.0220   11.1750 N   0  0  0  0  0  0
   10.5820    0.4850   10.4660 H   0  0  0  0  0  0
    9.1260    0.8640   11.3630 H   0  0  0  0  0  0
  1  2  1  0  0  0
  1  6  2  0  0  0
  2  3  2  0  0  0
  2 42  1  0  0  0
  3  4  1  0  0  0
  4  5  2  0  0  0
  4 14  1  0  0  0
  5  6  1  0  0  0
  5 10  1  0  0  0
  6  7  1  0  0  0
  7  8  1  0  0  0
  7  9  1  0  0  0
 10 11  2  0  0  0
 10 38  1  0  0  0
 11 12  1  0  0  0
 11 15  1  0  0  0
 12 13  1  0  0  0
 12 14  2  0  0  0
 15 16  1  0  0  0
 15 17  1  0  0  0
 15 18  1  0  0  0
 18 19  1  0  0  0
 18 20  1  0  0  0
 20 21  1  0  0  0
 20 28  2  0  0  0
 21 22  2  0  0  0
 21 33  1  0  0  0
 22 23  1  0  0  0
 22 24  1  0  0  0
 24 25  1  0  0  0
 24 26  2  0  0  0
 26 27  1  0  0  0
 26 28  1  0  0  0
 28 29  1  0  0  0
 29 30  1  0  0  0
 29 31  1  0  0  0
 29 32  1  0  0  0
 33 34  1  0  0  0
 34 35  1  0  0  0
 34 36  1  0  0  0
 34 37  1  0  0  0
 38 39  1  0  0  0
 38 40  1  0  0  0
 38 41  1  0  0  0
 42 43  1  0  0  0
 42 44  1  0  0  0
M  END
>  <ACTIVITY>
6.49

>  <SET>
1

>  <Min_dist>
999.9

>  <Avg_dist>
999.9

$$$$
9-13r
  Cerius2 12110214143D 1   1.00000                          
Structure written by Cerius2 SD Exporter
 44 46  0  0  0  0  0  0  0  0999 V2000
   10.1260    2.6160   12.8080 N   0  0  0  0  0  0
   10.8000    1.9650   11.8730 C   0  0  0  0  0  0
   12.0790    2.1690   11.6010 N   0  0  0  0  0  0
   12.7310    3.0830   12.3000 C   0  0  0  0  0  0
   12.1470    3.8560   13.3120 C   0  0  0  0  0  0
   10.7850    3.5430   13.5190 C   0  0  0  0  0  0
    9.9960    4.1610   14.4790 N   0  0  0  0  0  0
   10.2960    4.0110   15.4390 H   0  0  0  0  0  0
    9.8160    5.1480   14.3130 H   0  0  0  0  0  0
   12.9870    4.8270   13.9880 C   0  0  0  0  0  0
   14.3460    4.9280   13.6290 C   0  0  0  0  0  0
   14.7840    4.1040   12.6060 C   0  0  0  0  0  0
   15.8160    4.1410   12.2590 H   0  0  0  0  0  0
   14.0080    3.2090   11.9560 N   0  0  0  0  0  0
   15.3410    5.8780   14.2610 C   0  0  0  0  0  0
   15.8380    5.3730   15.0990 H   0  0  0  0  0  0
   14.8000    6.7340   14.6800 H   0  0  0  0  0  0
   16.3260    6.2870   13.2760 N   0  0  0  0  0  0
   17.2790    5.9650   13.4350 H   0  0  0  0  0  0
   16.0950    7.0960   12.1740 C   0  0  0  0  0  0
   14.7900    7.6160   12.0440 C   0  0  0  0  0  0
   14.0410    7.3680   12.7980 H   0  0  0  0  0  0
   14.4090    8.4450   10.9770 C   0  0  0  0  0  0
   15.3690    8.7830   10.0220 C   0  0  0  0  0  0
   15.1120    9.4360    9.1880 H   0  0  0  0  0  0
   16.6700    8.2840   10.1220 C   0  0  0  0  0  0
   17.3720    8.5780    9.3450 H   0  0  0  0  0  0
   17.0440    7.4430   11.1820 C   0  0  0  0  0  0
   18.3110    6.9320   11.3150 O   0  0  0  0  0  0
   19.2970    7.3260   10.3640 C   0  0  0  0  0  0
   20.2340    6.8300   10.6340 H   0  0  0  0  0  0
   19.4710    8.4060   10.4000 H   0  0  0  0  0  0
   19.0260    6.9960    9.3550 H   0  0  0  0  0  0
   13.0070    8.9880   10.8920 C   0  0  0  0  0  0
   12.8560   10.1680   11.5680 F   0  0  0  0  0  0
   12.0610    8.1470   11.4110 F   0  0  0  0  0  0
   12.5940    9.2450    9.6140 F   0  0  0  0  0  0
   12.4240    5.7220   15.0660 C   0  0  0  0  0  0
   12.1170    5.1260   15.9300 H   0  0  0  0  0  0
   11.5800    6.2990   14.6760 H   0  0  0  0  0  0
   13.1360    6.4620   15.4340 H   0  0  0  0  0  0
   10.1350    1.0270   11.1460 N   0  0  0  0  0  0
   10.6160    0.5190   10.4180 H   0  0  0  0  0  0
    9.1560    0.8580   11.3280 H   0  0  0  0  0  0
  1  2  1  0  0  0
  1  6  2  0  0  0
  2  3  2  0  0  0
  2 42  1  0  0  0
  3  4  1  0  0  0
  4  5  2  0  0  0
  4 14  1  0  0  0
  5  6  1  0  0  0
  5 10  1  0  0  0
  6  7  1  0  0  0
  7  8  1  0  0  0
  7  9  1  0  0  0
 10 11  2  0  0  0
 10 38  1  0  0  0
 11 12  1  0  0  0
 11 15  1  0  0  0
 12 13  1  0  0  0
 12 14  2  0  0  0
 15 16  1  0  0  0
 15 17  1  0  0  0
 15 18  1  0  0  0
 18 19  1  0  0  0
 18 20  1  0  0  0
 20 21  1  0  0  0
 20 28  2  0  0  0
 21 22  1  0  0  0
 21 23  2  0  0  0
 23 24  1  0  0  0
 23 34  1  0  0  0
 24 25  1  0  0  0
 24 26  2  0  0  0
 26 27  1  0  0  0
 26 28  1  0  0  0
 28 29  1  0  0  0
 29 30  1  0  0  0
 30 31  1  0  0  0
 30 32  1  0  0  0
 30 33  1  0  0  0
 34 35  1  0  0  0
 34 36  1  0  0  0
 34 37  1  0  0  0
 38 39  1  0  0  0
 38 40  1  0  0  0
 38 41  1  0  0  0
 42 43  1  0  0  0
 42 44  1  0  0  0
M  END
>  <ACTIVITY>
7.7

>  <SET>
1

>  <Min_dist>
999.9

>  <Avg_dist>
999.9

$$$$
9-13s
  Cerius2 12110214143D 1   1.00000                          
Structure written by Cerius2 SD Exporter
 44 46  0  0  0  0  0  0  0  0999 V2000
   10.1290    2.6580   12.8020 N   0  0  0  0  0  0
   10.7900    1.9920   11.8680 C   0  0  0  0  0  0
   12.0750    2.1650   11.6010 N   0  0  0  0  0  0
   12.7470    3.0590   12.3060 C   0  0  0  0  0  0
   12.1830    3.8380   13.3230 C   0  0  0  0  0  0
   10.8100    3.5660   13.5190 C   0  0  0  0  0  0
   10.0310    4.2070   14.4720 N   0  0  0  0  0  0
   10.3020    4.0290   15.4360 H   0  0  0  0  0  0
    9.9020    5.2040   14.3180 H   0  0  0  0  0  0
   13.0470    4.7790   14.0110 C   0  0  0  0  0  0
   14.4030    4.8630   13.6390 C   0  0  0  0  0  0
   14.8220    4.0370   12.6100 C   0  0  0  0  0  0
   15.8530    4.0570   12.2580 H   0  0  0  0  0  0
   14.0270    3.1580   11.9610 N   0  0  0  0  0  0
   15.4140    5.7970   14.2630 C   0  0  0  0  0  0
   15.9810    5.2670   15.0390 H   0  0  0  0  0  0
   14.8900    6.6150   14.7710 H   0  0  0  0  0  0
   16.3270    6.2960   13.2480 N   0  0  0  0  0  0
   17.3030    6.0200   13.3310 H   0  0  0  0  0  0
   15.9620    7.1190   12.2010 C   0  0  0  0  0  0
   14.6480    7.6050   12.1570 C   0  0  0  0  0  0
   13.9460    7.3190   12.9420 H   0  0  0  0  0  0
   14.2060    8.4530   11.1300 C   0  0  0  0  0  0
   15.1050    8.8050   10.1160 C   0  0  0  0  0  0
   14.7780    9.4520    9.3020 H   0  0  0  0  0  0
   16.4190    8.3370   10.1340 C   0  0  0  0  0  0
   16.8390    7.5010   11.1760 C   0  0  0  0  0  0
   17.8600    7.1340   11.1950 H   0  0  0  0  0  0
   17.1890    8.7630    9.0860 O   0  0  0  0  0  0
   18.5430    8.3150    9.0530 C   0  0  0  0  0  0
   19.0120    8.7390    8.1600 H   0  0  0  0  0  0
   18.5940    7.2240    8.9710 H   0  0  0  0  0  0
   19.0970    8.6750    9.9250 H   0  0  0  0  0  0
   12.7820    8.9400   11.0980 C   0  0  0  0  0  0
   12.6290   10.1500   10.4780 F   0  0  0  0  0  0
   12.2300    9.1020   12.3400 F   0  0  0  0  0  0
   11.9450    8.0840   10.4370 F   0  0  0  0  0  0
   12.5100    5.6620   15.1110 C   0  0  0  0  0  0
   13.2580    6.3350   15.5350 H   0  0  0  0  0  0
   12.1460    5.0510   15.9430 H   0  0  0  0  0  0
   11.7130    6.3040   14.7260 H   0  0  0  0  0  0
   10.1050    1.0700   11.1370 N   0  0  0  0  0  0
   10.5800    0.5450   10.4180 H   0  0  0  0  0  0
    9.1240    0.9170   11.3190 H   0  0  0  0  0  0
  1  2  1  0  0  0
  1  6  2  0  0  0
  2  3  2  0  0  0
  2 42  1  0  0  0
  3  4  1  0  0  0
  4  5  2  0  0  0
  4 14  1  0  0  0
  5  6  1  0  0  0
  5 10  1  0  0  0
  6  7  1  0  0  0
  7  8  1  0  0  0
  7  9  1  0  0  0
 10 11  2  0  0  0
 10 38  1  0  0  0
 11 12  1  0  0  0
 11 15  1  0  0  0
 12 13  1  0  0  0
 12 14  2  0  0  0
 15 16  1  0  0  0
 15 17  1  0  0  0
 15 18  1  0  0  0
 18 19  1  0  0  0
 18 20  1  0  0  0
 20 21  1  0  0  0
 20 27  2  0  0  0
 21 22  1  0  0  0
 21 23  2  0  0  0
 23 24  1  0  0  0
 23 34  1  0  0  0
 24 25  1  0  0  0
 24 26  2  0  0  0
 26 27  1  0  0  0
 26 29  1  0  0  0
 27 28  1  0  0  0
 29 30  1  0  0  0
 30 31  1  0  0  0
 30 32  1  0  0  0
 30 33  1  0  0  0
 34 35  1  0  0  0
 34 36  1  0  0  0
 34 37  1  0  0  0
 38 39  1  0  0  0
 38 40  1  0  0  0
 38 41  1  0  0  0
 42 43  1  0  0  0
 42 44  1  0  0  0
M  END
>  <ACTIVITY>
7.77

>  <SET>
2

>  <Min_dist>
0.1

>  <Avg_dist>
0.47

$$$$
9-13t
  Cerius2 12110214143D 1   1.00000                          
Structure written by Cerius2 SD Exporter
 44 47  0  0  0  0  0  0  0  0999 V2000
   10.1280    2.5790   12.8660 N   0  0  0  0  0  0
   10.7670    1.9500   11.8920 C   0  0  0  0  0  0
   12.0320    2.1710   11.5710 N   0  0  0  0  0  0
   12.7060    3.0750   12.2620 C   0  0  0  0  0  0
   12.1650    3.8180   13.3150 C   0  0  0  0  0  0
   10.8120    3.4970   13.5680 C   0  0  0  0  0  0
   10.0560    4.0960   14.5650 N   0  0  0  0  0  0
   10.3750    3.9130   15.5130 H   0  0  0  0  0  0
    9.8860    5.0900   14.4340 H   0  0  0  0  0  0
   13.0330    4.7760   13.9770 C   0  0  0  0  0  0
   14.3710    4.9200   13.5480 C   0  0  0  0  0  0
   14.7630    4.1140   12.4920 C   0  0  0  0  0  0
   15.7710    4.1470   12.0840 H   0  0  0  0  0  0
   13.9640    3.2210   11.8650 N   0  0  0  0  0  0
   15.3270    5.9000   14.2020 C   0  0  0  0  0  0
   15.6870    5.4410   15.1330 H   0  0  0  0  0  0
   14.7510    6.7930   14.4740 H   0  0  0  0  0  0
   16.5570    6.3470   13.3950 C   0  0  0  0  0  0
   17.1580    5.4880   13.0740 H   0  0  0  0  0  0
   17.2260    6.9390   14.0350 H   0  0  0  0  0  0
   16.1690    7.1810   12.1870 C   0  0  0  0  0  0
   14.8460    7.6570   12.1250 C   0  0  0  0  0  0
   14.1420    7.4330   12.9260 H   0  0  0  0  0  0
   14.4110    8.4170   11.0450 C   0  0  0  0  0  0
   13.3860    8.7800   11.0110 H   0  0  0  0  0  0
   15.2900    8.7110   10.0070 C   0  0  0  0  0  0
   14.9280    9.3080    9.1700 H   0  0  0  0  0  0
   16.6130    8.2480   10.0300 C   0  0  0  0  0  0
   17.0740    7.4700   11.1250 C   0  0  0  0  0  0
   18.4170    7.0260   11.0890 C   0  0  0  0  0  0
   18.8290    6.4220   11.8950 H   0  0  0  0  0  0
   19.2670    7.3380   10.0240 C   0  0  0  0  0  0
   20.2950    6.9810   10.0270 H   0  0  0  0  0  0
   18.7990    8.1020    8.9640 C   0  0  0  0  0  0
   19.4570    8.3480    8.1340 H   0  0  0  0  0  0
   17.4800    8.5530    8.9680 C   0  0  0  0  0  0
   17.1310    9.1510    8.1260 H   0  0  0  0  0  0
   12.5110    5.6160   15.1200 C   0  0  0  0  0  0
   12.2060    4.9750   15.9520 H   0  0  0  0  0  0
   11.6750    6.2360   14.7830 H   0  0  0  0  0  0
   13.2490    6.3090   15.5290 H   0  0  0  0  0  0
   10.0800    1.0190   11.1760 N   0  0  0  0  0  0
   10.5380    0.5210   10.4270 H   0  0  0  0  0  0
    9.1140    0.8300   11.4000 H   0  0  0  0  0  0
  1  2  1  0  0  0
  1  6  2  0  0  0
  2  3  2  0  0  0
  2 42  1  0  0  0
  3  4  1  0  0  0
  4  5  2  0  0  0
  4 14  1  0  0  0
  5  6  1  0  0  0
  5 10  1  0  0  0
  6  7  1  0  0  0
  7  8  1  0  0  0
  7  9  1  0  0  0
 10 11  2  0  0  0
 10 38  1  0  0  0
 11 12  1  0  0  0
 11 15  1  0  0  0
 12 13  1  0  0  0
 12 14  2  0  0  0
 15 16  1  0  0  0
 15 17  1  0  0  0
 15 18  1  0  0  0
 18 19  1  0  0  0
 18 20  1  0  0  0
 18 21  1  0  0  0
 21 22  2  0  0  0
 21 29  1  0  0  0
 22 23  1  0  0  0
 22 24  1  0  0  0
 24 25  1  0  0  0
 24 26  2  0  0  0
 26 27  1  0  0  0
 26 28  1  0  0  0
 28 29  2  0  0  0
 28 36  1  0  0  0
 29 30  1  0  0  0
 30 31  1  0  0  0
 30 32  2  0  0  0
 32 33  1  0  0  0
 32 34  1  0  0  0
 34 35  1  0  0  0
 34 36  2  0  0  0
 36 37  1  0  0  0
 38 39  1  0  0  0
 38 40  1  0  0  0
 38 41  1  0  0  0
 42 43  1  0  0  0
 42 44  1  0  0  0
M  END
>  <ACTIVITY>
6.87

>  <SET>
2

>  <Min_dist>
0.21

>  <Avg_dist>
0.53

$$$$
9-13u
  Cerius2 12110214143D 1   1.00000                          
Structure written by Cerius2 SD Exporter
 46 48  0  0  0  0  0  0  0  0999 V2000
   10.1250    2.5610   12.8650 N   0  0  0  0  0  0
   10.7730    1.9330   11.8960 C   0  0  0  0  0  0
   12.0360    2.1670   11.5750 N   0  0  0  0  0  0
   12.6980    3.0840   12.2610 C   0  0  0  0  0  0
   12.1470    3.8270   13.3090 C   0  0  0  0  0  0
   10.7960    3.4910   13.5610 C   0  0  0  0  0  0
   10.0310    4.0900   14.5520 N   0  0  0  0  0  0
   10.3490    3.9160   15.5020 H   0  0  0  0  0  0
    9.8520    5.0810   14.4140 H   0  0  0  0  0  0
   13.0020    4.7990   13.9650 C   0  0  0  0  0  0
   14.3380    4.9580   13.5350 C   0  0  0  0  0  0
   14.7410    4.1510   12.4850 C   0  0  0  0  0  0
   15.7480    4.1950   12.0770 H   0  0  0  0  0  0
   13.9540    3.2440   11.8630 N   0  0  0  0  0  0
   15.2810    5.9550   14.1840 C   0  0  0  0  0  0
   15.6130    5.5230   15.1370 H   0  0  0  0  0  0
   14.7040    6.8610   14.4120 H   0  0  0  0  0  0
   16.5290    6.3790   13.3920 C   0  0  0  0  0  0
   17.1010    5.4940   13.0860 H   0  0  0  0  0  0
   17.2090    6.9690   14.0200 H   0  0  0  0  0  0
   16.1670    7.1830   12.1580 C   0  0  0  0  0  0
   14.8660    7.7050   12.0430 C   0  0  0  0  0  0
   14.1370    7.5190   12.8310 H   0  0  0  0  0  0
   14.4850    8.4630   10.9330 C   0  0  0  0  0  0
   15.4170    8.7060    9.9280 C   0  0  0  0  0  0
   15.1710    9.2890    9.0440 H   0  0  0  0  0  0
   16.7180    8.1980   10.0320 C   0  0  0  0  0  0
   17.4070    8.4180    9.2200 H   0  0  0  0  0  0
   17.1040    7.4390   11.1410 C   0  0  0  0  0  0
   18.3530    6.9090   11.3270 O   0  0  0  0  0  0
   19.3350    7.1800   10.3290 C   0  0  0  0  0  0
   20.2670    6.6990   10.6420 H   0  0  0  0  0  0
   19.5260    8.2550   10.2470 H   0  0  0  0  0  0
   19.0440    6.7500    9.3650 H   0  0  0  0  0  0
   13.1910    8.9030   10.9540 O   0  0  0  0  0  0
   12.7800    9.7400    9.8730 C   0  0  0  0  0  0
   11.7300   10.0030   10.0380 H   0  0  0  0  0  0
   12.8460    9.2090    8.9180 H   0  0  0  0  0  0
   13.3580   10.6690    9.8540 H   0  0  0  0  0  0
   12.4700    5.6370   15.1050 C   0  0  0  0  0  0
   12.1700    4.9950   15.9390 H   0  0  0  0  0  0
   11.6290    6.2480   14.7650 H   0  0  0  0  0  0
   13.2010    6.3380   15.5150 H   0  0  0  0  0  0
   10.0990    0.9880   11.1850 N   0  0  0  0  0  0
   10.5650    0.4910   10.4400 H   0  0  0  0  0  0
    9.1350    0.7880   11.4090 H   0  0  0  0  0  0
  1  2  1  0  0  0
  1  6  2  0  0  0
  2  3  2  0  0  0
  2 44  1  0  0  0
  3  4  1  0  0  0
  4  5  2  0  0  0
  4 14  1  0  0  0
  5  6  1  0  0  0
  5 10  1  0  0  0
  6  7  1  0  0  0
  7  8  1  0  0  0
  7  9  1  0  0  0
 10 11  2  0  0  0
 10 40  1  0  0  0
 11 12  1  0  0  0
 11 15  1  0  0  0
 12 13  1  0  0  0
 12 14  2  0  0  0
 15 16  1  0  0  0
 15 17  1  0  0  0
 15 18  1  0  0  0
 18 19  1  0  0  0
 18 20  1  0  0  0
 18 21  1  0  0  0
 21 22  1  0  0  0
 21 29  2  0  0  0
 22 23  1  0  0  0
 22 24  2  0  0  0
 24 25  1  0  0  0
 24 35  1  0  0  0
 25 26  1  0  0  0
 25 27  2  0  0  0
 27 28  1  0  0  0
 27 29  1  0  0  0
 29 30  1  0  0  0
 30 31  1  0  0  0
 31 32  1  0  0  0
 31 33  1  0  0  0
 31 34  1  0  0  0
 35 36  1  0  0  0
 36 37  1  0  0  0
 36 38  1  0  0  0
 36 39  1  0  0  0
 40 41  1  0  0  0
 40 42  1  0  0  0
 40 43  1  0  0  0
 44 45  1  0  0  0
 44 46  1  0  0  0
M  END
>  <ACTIVITY>
6.11

>  <SET>
1

>  <Min_dist>
999.9

>  <Avg_dist>
999.9

$$$$
9-14a
  Cerius2 12110214143D 1   1.00000                          
Structure written by Cerius2 SD Exporter
 43 45  0  0  0  0  0  0  0  0999 V2000
   10.1300    2.6220   12.8160 N   0  0  0  0  0  0
   10.7990    1.9640   11.8810 C   0  0  0  0  0  0
   12.0770    2.1650   11.6020 N   0  0  0  0  0  0
   12.7340    3.0810   12.2940 C   0  0  0  0  0  0
   12.1590    3.8570   13.3070 C   0  0  0  0  0  0
   10.7960    3.5510   13.5200 C   0  0  0  0  0  0
   10.0110    4.1790   14.4760 N   0  0  0  0  0  0
   10.3060    4.0300   15.4380 H   0  0  0  0  0  0
    9.8380    5.1660   14.3070 H   0  0  0  0  0  0
   13.0050    4.8280   13.9760 C   0  0  0  0  0  0
   14.3600    4.9290   13.6040 C   0  0  0  0  0  0
   14.7890    4.1040   12.5780 C   0  0  0  0  0  0
   15.8180    4.1440   12.2210 H   0  0  0  0  0  0
   14.0090    3.2050   11.9390 N   0  0  0  0  0  0
   15.3610    5.8820   14.2160 C   0  0  0  0  0  0
   15.8140    5.4080   15.0930 H   0  0  0  0  0  0
   14.8520    6.7750   14.5980 H   0  0  0  0  0  0
   16.3720    6.2330   13.2240 N   0  0  0  0  0  0
   16.9570    5.4500   12.9320 H   0  0  0  0  0  0
   16.0210    7.1210   12.2070 C   0  0  0  0  0  0
   14.7030    7.6110   12.1840 C   0  0  0  0  0  0
   13.9900    7.2530   12.9270 H   0  0  0  0  0  0
   14.2830    8.5610   11.2430 C   0  0  0  0  0  0
   15.2100    9.0580   10.3280 C   0  0  0  0  0  0
   14.9190    9.8160    9.6010 H   0  0  0  0  0  0
   16.5220    8.5840   10.3330 C   0  0  0  0  0  0
   17.2260    8.9790    9.6010 H   0  0  0  0  0  0
   16.9370    7.6060   11.2560 C   0  0  0  0  0  0
   18.3600    7.1220   11.1720 C   0  0  0  0  0  0
   18.7140    7.1380   10.1360 H   0  0  0  0  0  0
   18.4530    6.0880   11.5170 H   0  0  0  0  0  0
   19.0120    7.7650   11.7710 H   0  0  0  0  0  0
   12.8780    9.0870   11.2700 C   0  0  0  0  0  0
   12.8100    9.9380   11.9560 H   0  0  0  0  0  0
   12.1780    8.3110   11.5970 H   0  0  0  0  0  0
   12.5620    9.4110   10.2730 H   0  0  0  0  0  0
   12.4500    5.7190   15.0610 C   0  0  0  0  0  0
   12.1430    5.1210   15.9240 H   0  0  0  0  0  0
   11.6090    6.3040   14.6780 H   0  0  0  0  0  0
   13.1680    6.4530   15.4320 H   0  0  0  0  0  0
   10.1300    1.0210   11.1630 N   0  0  0  0  0  0
   10.6110    0.5020   10.4440 H   0  0  0  0  0  0
    9.1550    0.8470   11.3550 H   0  0  0  0  0  0
  1  2  1  0  0  0
  1  6  2  0  0  0
  2  3  2  0  0  0
  2 41  1  0  0  0
  3  4  1  0  0  0
  4  5  2  0  0  0
  4 14  1  0  0  0
  5  6  1  0  0  0
  5 10  1  0  0  0
  6  7  1  0  0  0
  7  8  1  0  0  0
  7  9  1  0  0  0
 10 11  2  0  0  0
 10 37  1  0  0  0
 11 12  1  0  0  0
 11 15  1  0  0  0
 12 13  1  0  0  0
 12 14  2  0  0  0
 15 16  1  0  0  0
 15 17  1  0  0  0
 15 18  1  0  0  0
 18 19  1  0  0  0
 18 20  1  0  0  0
 20 21  1  0  0  0
 20 28  2  0  0  0
 21 22  1  0  0  0
 21 23  2  0  0  0
 23 24  1  0  0  0
 23 33  1  0  0  0
 24 25  1  0  0  0
 24 26  2  0  0  0
 26 27  1  0  0  0
 26 28  1  0  0  0
 28 29  1  0  0  0
 29 30  1  0  0  0
 29 31  1  0  0  0
 29 32  1  0  0  0
 33 34  1  0  0  0
 33 35  1  0  0  0
 33 36  1  0  0  0
 37 38  1  0  0  0
 37 39  1  0  0  0
 37 40  1  0  0  0
 41 42  1  0  0  0
 41 43  1  0  0  0
M  END
>  <ACTIVITY>
6.92

>  <SET>
1

>  <Min_dist>
999.9

>  <Avg_dist>
999.9

$$$$
9-14b
  Cerius2 12110214143D 1   1.00000                          
Structure written by Cerius2 SD Exporter
 44 46  0  0  0  0  0  0  0  0999 V2000
   10.1300    2.6200   12.8130 N   0  0  0  0  0  0
   10.8020    1.9640   11.8790 C   0  0  0  0  0  0
   12.0800    2.1680   11.6030 N   0  0  0  0  0  0
   12.7340    3.0840   12.2960 C   0  0  0  0  0  0
   12.1550    3.8590   13.3090 C   0  0  0  0  0  0
   10.7930    3.5490   13.5200 C   0  0  0  0  0  0
   10.0040    4.1750   14.4740 N   0  0  0  0  0  0
   10.2990    4.0270   15.4370 H   0  0  0  0  0  0
    9.8290    5.1620   14.3050 H   0  0  0  0  0  0
   12.9980    4.8300   13.9800 C   0  0  0  0  0  0
   14.3540    4.9340   13.6110 C   0  0  0  0  0  0
   14.7860    4.1100   12.5840 C   0  0  0  0  0  0
   15.8160    4.1520   12.2300 H   0  0  0  0  0  0
   14.0090    3.2100   11.9440 N   0  0  0  0  0  0
   15.3520    5.8880   14.2250 C   0  0  0  0  0  0
   15.8000    5.4150   15.1050 H   0  0  0  0  0  0
   14.8410    6.7820   14.6030 H   0  0  0  0  0  0
   16.3690    6.2360   13.2390 N   0  0  0  0  0  0
   16.9670    5.4570   12.9640 H   0  0  0  0  0  0
   16.0290    7.1120   12.2100 C   0  0  0  0  0  0
   14.7130    7.6010   12.1680 C   0  0  0  0  0  0
   13.9820    7.2560   12.8990 H   0  0  0  0  0  0
   14.3070    8.5460   11.2180 C   0  0  0  0  0  0
   13.2750    8.8820   11.2450 H   0  0  0  0  0  0
   15.2200    9.0300   10.2890 C   0  0  0  0  0  0
   16.5320    8.5520   10.3180 C   0  0  0  0  0  0
   17.2460    8.9290    9.5860 H   0  0  0  0  0  0
   16.9470    7.5880   11.2590 C   0  0  0  0  0  0
   18.3710    7.1060   11.1860 C   0  0  0  0  0  0
   18.7320    7.1170   10.1520 H   0  0  0  0  0  0
   18.4630    6.0730   11.5360 H   0  0  0  0  0  0
   19.0190    7.7530   11.7850 H   0  0  0  0  0  0
   14.9650    9.9560    9.3160 O   0  0  0  0  0  0
   16.0560   10.3110    8.4670 C   0  0  0  0  0  0
   15.6910   11.0530    7.7510 H   0  0  0  0  0  0
   16.4100    9.4440    7.8990 H   0  0  0  0  0  0
   16.8670   10.7700    9.0410 H   0  0  0  0  0  0
   12.4400    5.7200   15.0650 C   0  0  0  0  0  0
   12.1330    5.1210   15.9270 H   0  0  0  0  0  0
   11.5980    6.3030   14.6810 H   0  0  0  0  0  0
   13.1560    6.4560   15.4360 H   0  0  0  0  0  0
   10.1360    1.0200   11.1600 N   0  0  0  0  0  0
   10.6190    0.5020   10.4410 H   0  0  0  0  0  0
    9.1600    0.8430   11.3500 H   0  0  0  0  0  0
  1  2  1  0  0  0
  1  6  2  0  0  0
  2  3  2  0  0  0
  2 42  1  0  0  0
  3  4  1  0  0  0
  4  5  2  0  0  0
  4 14  1  0  0  0
  5  6  1  0  0  0
  5 10  1  0  0  0
  6  7  1  0  0  0
  7  8  1  0  0  0
  7  9  1  0  0  0
 10 11  2  0  0  0
 10 38  1  0  0  0
 11 12  1  0  0  0
 11 15  1  0  0  0
 12 13  1  0  0  0
 12 14  2  0  0  0
 15 16  1  0  0  0
 15 17  1  0  0  0
 15 18  1  0  0  0
 18 19  1  0  0  0
 18 20  1  0  0  0
 20 21  1  0  0  0
 20 28  2  0  0  0
 21 22  1  0  0  0
 21 23  2  0  0  0
 23 24  1  0  0  0
 23 25  1  0  0  0
 25 26  2  0  0  0
 25 33  1  0  0  0
 26 27  1  0  0  0
 26 28  1  0  0  0
 28 29  1  0  0  0
 29 30  1  0  0  0
 29 31  1  0  0  0
 29 32  1  0  0  0
 33 34  1  0  0  0
 34 35  1  0  0  0
 34 36  1  0  0  0
 34 37  1  0  0  0
 38 39  1  0  0  0
 38 40  1  0  0  0
 38 41  1  0  0  0
 42 43  1  0  0  0
 42 44  1  0  0  0
M  END
>  <ACTIVITY>
7.54

>  <SET>
1

>  <Min_dist>
999.9

>  <Avg_dist>
999.9

$$$$
9-14c
  Cerius2 12110214143D 1   1.00000                          
Structure written by Cerius2 SD Exporter
 44 46  0  0  0  0  0  0  0  0999 V2000
   10.1230    2.6220   12.8010 N   0  0  0  0  0  0
   10.7990    1.9690   11.8690 C   0  0  0  0  0  0
   12.0800    2.1690   11.6030 N   0  0  0  0  0  0
   12.7330    3.0790   12.3060 C   0  0  0  0  0  0
   12.1490    3.8510   13.3190 C   0  0  0  0  0  0
   10.7830    3.5460   13.5160 C   0  0  0  0  0  0
    9.9910    4.1680   14.4700 N   0  0  0  0  0  0
   10.2710    4.0000   15.4330 H   0  0  0  0  0  0
    9.8340    5.1610   14.3150 H   0  0  0  0  0  0
   12.9900    4.8160   14.0010 C   0  0  0  0  0  0
   14.3470    4.9240   13.6360 C   0  0  0  0  0  0
   14.7860    4.1000   12.6130 C   0  0  0  0  0  0
   15.8180    4.1400   12.2650 H   0  0  0  0  0  0
   14.0110    3.2030   11.9650 N   0  0  0  0  0  0
   15.3380    5.8840   14.2590 C   0  0  0  0  0  0
   15.8380    5.3900   15.1020 H   0  0  0  0  0  0
   14.7950    6.7420   14.6690 H   0  0  0  0  0  0
   16.3210    6.2880   13.2700 N   0  0  0  0  0  0
   17.2670    5.9390   13.4080 H   0  0  0  0  0  0
   16.0920    7.1010   12.1690 C   0  0  0  0  0  0
   14.7880    7.6230   12.0360 C   0  0  0  0  0  0
   14.0380    7.3760   12.7880 H   0  0  0  0  0  0
   14.4140    8.4480   10.9660 C   0  0  0  0  0  0
   15.3710    8.7880   10.0150 C   0  0  0  0  0  0
   15.1170    9.4430    9.1830 H   0  0  0  0  0  0
   16.6710    8.2880   10.1180 C   0  0  0  0  0  0
   17.3760    8.5830    9.3440 H   0  0  0  0  0  0
   17.0420    7.4460   11.1790 C   0  0  0  0  0  0
   18.3080    6.9320   11.3140 O   0  0  0  0  0  0
   19.2970    7.3250   10.3650 C   0  0  0  0  0  0
   20.2260    6.8050   10.6200 H   0  0  0  0  0  0
   19.4910    8.4010   10.4230 H   0  0  0  0  0  0
   19.0140    7.0220    9.3520 H   0  0  0  0  0  0
   13.0220    9.0020   10.8830 C   0  0  0  0  0  0
   12.9620    9.9470   11.4310 H   0  0  0  0  0  0
   12.2960    8.3000   11.3060 H   0  0  0  0  0  0
   12.7330    9.1770    9.8410 H   0  0  0  0  0  0
   12.4280    5.6990   15.0890 C   0  0  0  0  0  0
   12.0920    5.0910   15.9330 H   0  0  0  0  0  0
   11.6060    6.3050   14.6980 H   0  0  0  0  0  0
   13.1520    6.4100   15.4920 H   0  0  0  0  0  0
   10.1350    1.0320   11.1390 N   0  0  0  0  0  0
   10.6200    0.5170   10.4190 H   0  0  0  0  0  0
    9.1570    0.8580   11.3200 H   0  0  0  0  0  0
  1  2  1  0  0  0
  1  6  2  0  0  0
  2  3  2  0  0  0
  2 42  1  0  0  0
  3  4  1  0  0  0
  4  5  2  0  0  0
  4 14  1  0  0  0
  5  6  1  0  0  0
  5 10  1  0  0  0
  6  7  1  0  0  0
  7  8  1  0  0  0
  7  9  1  0  0  0
 10 11  2  0  0  0
 10 38  1  0  0  0
 11 12  1  0  0  0
 11 15  1  0  0  0
 12 13  1  0  0  0
 12 14  2  0  0  0
 15 16  1  0  0  0
 15 17  1  0  0  0
 15 18  1  0  0  0
 18 19  1  0  0  0
 18 20  1  0  0  0
 20 21  1  0  0  0
 20 28  2  0  0  0
 21 22  1  0  0  0
 21 23  2  0  0  0
 23 24  1  0  0  0
 23 34  1  0  0  0
 24 25  1  0  0  0
 24 26  2  0  0  0
 26 27  1  0  0  0
 26 28  1  0  0  0
 28 29  1  0  0  0
 29 30  1  0  0  0
 30 31  1  0  0  0
 30 32  1  0  0  0
 30 33  1  0  0  0
 34 35  1  0  0  0
 34 36  1  0  0  0
 34 37  1  0  0  0
 38 39  1  0  0  0
 38 40  1  0  0  0
 38 41  1  0  0  0
 42 43  1  0  0  0
 42 44  1  0  0  0
M  END
>  <ACTIVITY>
6.8

>  <SET>
1

>  <Min_dist>
999.9

>  <Avg_dist>
999.9

$$$$
9-14h
  Cerius2 12110214143D 1   1.00000                          
Structure written by Cerius2 SD Exporter
 48 50  0  0  0  0  0  0  0  0999 V2000
   10.1090    2.6400   12.7790 N   0  0  0  0  0  0
   10.7890    1.9730   11.8600 C   0  0  0  0  0  0
   12.0760    2.1590   11.6090 N   0  0  0  0  0  0
   12.7300    3.0610   12.3200 C   0  0  0  0  0  0
   12.1470    3.8320   13.3330 C   0  0  0  0  0  0
   10.7710    3.5580   13.5010 C   0  0  0  0  0  0
    9.9700    4.2040   14.4310 N   0  0  0  0  0  0
   10.1820    3.9890   15.4020 H   0  0  0  0  0  0
    9.8850    5.2090   14.2990 H   0  0  0  0  0  0
   12.9970    4.7720   14.0390 C   0  0  0  0  0  0
   14.3450    4.9080   13.6490 C   0  0  0  0  0  0
   14.7850    4.0770   12.6310 C   0  0  0  0  0  0
   15.8160    4.1140   12.2820 H   0  0  0  0  0  0
   14.0110    3.1760   11.9870 N   0  0  0  0  0  0
   15.3390    5.8760   14.2620 C   0  0  0  0  0  0
   15.8400    5.4210   15.1260 H   0  0  0  0  0  0
   14.7510    6.7120   14.6620 H   0  0  0  0  0  0
   16.3700    6.3220   13.3100 N   0  0  0  0  0  0
   16.0570    7.1150   12.2110 C   0  0  0  0  0  0
   14.7790    7.6740   12.0590 C   0  0  0  0  0  0
   14.0100    7.5120   12.8140 H   0  0  0  0  0  0
   14.4410    8.4780   10.9620 C   0  0  0  0  0  0
   13.4300    8.8760   10.9250 H   0  0  0  0  0  0
   15.3820    8.7470    9.9720 C   0  0  0  0  0  0
   16.6720    8.2030   10.0900 C   0  0  0  0  0  0
   16.9910    7.3990   11.1980 C   0  0  0  0  0  0
   17.9780    6.9530   11.2630 H   0  0  0  0  0  0
   17.5440    8.5060    9.0710 O   0  0  0  0  0  0
   18.8530    7.9450    9.1340 C   0  0  0  0  0  0
   19.4130    8.3110    8.2690 H   0  0  0  0  0  0
   18.8150    6.8530    9.0680 H   0  0  0  0  0  0
   19.3800    8.2730   10.0360 H   0  0  0  0  0  0
   15.1480    9.5200    8.8620 O   0  0  0  0  0  0
   16.2160    9.6620    7.9280 C   0  0  0  0  0  0
   15.8650   10.3070    7.1170 H   0  0  0  0  0  0
   16.4870    8.6950    7.4910 H   0  0  0  0  0  0
   17.0810   10.1480    8.3900 H   0  0  0  0  0  0
   17.7800    6.0840   13.6330 C   0  0  0  0  0  0
   18.1740    5.2540   13.0380 H   0  0  0  0  0  0
   17.9160    5.8390   14.6910 H   0  0  0  0  0  0
   18.3880    6.9770   13.4490 H   0  0  0  0  0  0
   12.4530    5.6080   15.1710 C   0  0  0  0  0  0
   11.9850    4.9700   15.9260 H   0  0  0  0  0  0
   11.7370    6.3430   14.7900 H   0  0  0  0  0  0
   13.2250    6.1600   15.7110 H   0  0  0  0  0  0
   10.1250    1.0390   11.1270 N   0  0  0  0  0  0
   10.6160    0.5120   10.4190 H   0  0  0  0  0  0
    9.1440    0.8750   11.2970 H   0  0  0  0  0  0
  1  2  1  0  0  0
  1  6  2  0  0  0
  2  3  2  0  0  0
  2 46  1  0  0  0
  3  4  1  0  0  0
  4  5  2  0  0  0
  4 14  1  0  0  0
  5  6  1  0  0  0
  5 10  1  0  0  0
  6  7  1  0  0  0
  7  8  1  0  0  0
  7  9  1  0  0  0
 10 11  2  0  0  0
 10 42  1  0  0  0
 11 12  1  0  0  0
 11 15  1  0  0  0
 12 13  1  0  0  0
 12 14  2  0  0  0
 15 16  1  0  0  0
 15 17  1  0  0  0
 15 18  1  0  0  0
 18 19  1  0  0  0
 18 38  1  0  0  0
 19 20  1  0  0  0
 19 26  2  0  0  0
 20 21  1  0  0  0
 20 22  2  0  0  0
 22 23  1  0  0  0
 22 24  1  0  0  0
 24 25  2  0  0  0
 24 33  1  0  0  0
 25 26  1  0  0  0
 25 28  1  0  0  0
 26 27  1  0  0  0
 28 29  1  0  0  0
 29 30  1  0  0  0
 29 31  1  0  0  0
 29 32  1  0  0  0
 33 34  1  0  0  0
 34 35  1  0  0  0
 34 36  1  0  0  0
 34 37  1  0  0  0
 38 39  1  0  0  0
 38 40  1  0  0  0
 38 41  1  0  0  0
 42 43  1  0  0  0
 42 44  1  0  0  0
 42 45  1  0  0  0
 46 47  1  0  0  0
 46 48  1  0  0  0
M  END
>  <ACTIVITY>
8.36

>  <SET>
1

>  <Min_dist>
999.9

>  <Avg_dist>
999.9

$$$$
9-14k
  Cerius2 12110214143D 1   1.00000                          
Structure written by Cerius2 SD Exporter
 47 49  0  0  0  0  0  0  0  0999 V2000
   10.1200    2.6200   12.7940 N   0  0  0  0  0  0
   10.8050    1.9590   11.8730 C   0  0  0  0  0  0
   12.0860    2.1620   11.6120 N   0  0  0  0  0  0
   12.7310    3.0800   12.3120 C   0  0  0  0  0  0
   12.1430    3.8490   13.3230 C   0  0  0  0  0  0
   10.7730    3.5530   13.5040 C   0  0  0  0  0  0
    9.9680    4.1920   14.4360 N   0  0  0  0  0  0
   10.1950    3.9920   15.4070 H   0  0  0  0  0  0
    9.8620    5.1940   14.2950 H   0  0  0  0  0  0
   12.9820    4.8110   14.0130 C   0  0  0  0  0  0
   14.3250    4.9630   13.6130 C   0  0  0  0  0  0
   14.7710    4.1330   12.5980 C   0  0  0  0  0  0
   15.7980    4.1860   12.2390 H   0  0  0  0  0  0
   14.0080    3.2130   11.9680 N   0  0  0  0  0  0
   15.3040    5.9590   14.2060 C   0  0  0  0  0  0
   15.7240    5.5660   15.1410 H   0  0  0  0  0  0
   14.7370    6.8580   14.4800 H   0  0  0  0  0  0
   16.3910    6.2620   13.2630 N   0  0  0  0  0  0
   16.1120    7.0950   12.1680 C   0  0  0  0  0  0
   14.7950    7.5820   12.0490 C   0  0  0  0  0  0
   14.0600    7.3030   12.8050 H   0  0  0  0  0  0
   14.4080    8.4310   11.0020 C   0  0  0  0  0  0
   15.3590    8.7780   10.0390 C   0  0  0  0  0  0
   15.0870    9.4270    9.2060 H   0  0  0  0  0  0
   16.6690    8.2970   10.1250 C   0  0  0  0  0  0
   17.3620    8.5950    9.3420 H   0  0  0  0  0  0
   17.0560    7.4550   11.1770 C   0  0  0  0  0  0
   18.3130    6.9160   11.2980 O   0  0  0  0  0  0
   19.3030    7.3270   10.3580 C   0  0  0  0  0  0
   20.2330    6.8060   10.6060 H   0  0  0  0  0  0
   19.4940    8.4020   10.4330 H   0  0  0  0  0  0
   19.0230    7.0400    9.3390 H   0  0  0  0  0  0
   12.9870    8.9240   10.9080 C   0  0  0  0  0  0
   12.8510   10.0840   10.1950 F   0  0  0  0  0  0
   12.4200    9.1840   12.1260 F   0  0  0  0  0  0
   12.1550    8.0250   10.3020 F   0  0  0  0  0  0
   17.6850    5.7430   13.5190 C   0  0  0  0  0  0
   17.8550    4.6660   13.4060 H   0  0  0  0  0  0
   18.0990    6.0260   14.4910 H   0  0  0  0  0  0
   18.2500    6.2690   12.7420 H   0  0  0  0  0  0
   12.4300    5.6520   15.1380 C   0  0  0  0  0  0
   11.9770    5.0160   15.9030 H   0  0  0  0  0  0
   11.7000    6.3690   14.7520 H   0  0  0  0  0  0
   13.1940    6.2240   15.6660 H   0  0  0  0  0  0
   10.1480    1.0120   11.1490 N   0  0  0  0  0  0
   10.6380    0.4940   10.4350 H   0  0  0  0  0  0
    9.1680    0.8410   11.3240 H   0  0  0  0  0  0
  1  2  1  0  0  0
  1  6  2  0  0  0
  2  3  2  0  0  0
  2 45  1  0  0  0
  3  4  1  0  0  0
  4  5  2  0  0  0
  4 14  1  0  0  0
  5  6  1  0  0  0
  5 10  1  0  0  0
  6  7  1  0  0  0
  7  8  1  0  0  0
  7  9  1  0  0  0
 10 11  2  0  0  0
 10 41  1  0  0  0
 11 12  1  0  0  0
 11 15  1  0  0  0
 12 13  1  0  0  0
 12 14  2  0  0  0
 15 16  1  0  0  0
 15 17  1  0  0  0
 15 18  1  0  0  0
 18 19  1  0  0  0
 18 37  1  0  0  0
 19 20  1  0  0  0
 19 27  2  0  0  0
 20 21  1  0  0  0
 20 22  2  0  0  0
 22 23  1  0  0  0
 22 33  1  0  0  0
 23 24  1  0  0  0
 23 25  2  0  0  0
 25 26  1  0  0  0
 25 27  1  0  0  0
 27 28  1  0  0  0
 28 29  1  0  0  0
 29 30  1  0  0  0
 29 31  1  0  0  0
 29 32  1  0  0  0
 33 34  1  0  0  0
 33 35  1  0  0  0
 33 36  1  0  0  0
 37 38  1  0  0  0
 37 39  1  0  0  0
 37 40  1  0  0  0
 41 42  1  0  0  0
 41 43  1  0  0  0
 41 44  1  0  0  0
 45 46  1  0  0  0
 45 47  1  0  0  0
M  END
>  <ACTIVITY>
6.64

>  <SET>
1

>  <Min_dist>
999.9

>  <Avg_dist>
999.9

$$$$
9-14m
  Cerius2 12110214143D 1   1.00000                          
Structure written by Cerius2 SD Exporter
 46 49  0  0  0  0  0  0  0  0999 V2000
   10.1220    2.6270   12.8020 N   0  0  0  0  0  0
   10.7980    1.9630   11.8760 C   0  0  0  0  0  0
   12.0790    2.1600   11.6080 N   0  0  0  0  0  0
   12.7320    3.0740   12.3040 C   0  0  0  0  0  0
   12.1540    3.8490   13.3160 C   0  0  0  0  0  0
   10.7840    3.5570   13.5090 C   0  0  0  0  0  0
    9.9900    4.1970   14.4490 N   0  0  0  0  0  0
   10.2380    4.0100   15.4180 H   0  0  0  0  0  0
    9.8700    5.1950   14.3000 H   0  0  0  0  0  0
   13.0000    4.8090   13.9980 C   0  0  0  0  0  0
   14.3470    4.9420   13.6030 C   0  0  0  0  0  0
   14.7830    4.1060   12.5880 C   0  0  0  0  0  0
   15.8110    4.1470   12.2310 H   0  0  0  0  0  0
   14.0090    3.1970   11.9570 N   0  0  0  0  0  0
   15.3380    5.9200   14.2000 C   0  0  0  0  0  0
   15.7780    5.5080   15.1180 H   0  0  0  0  0  0
   14.7810    6.8130   14.5150 H   0  0  0  0  0  0
   16.4070    6.2560   13.2460 N   0  0  0  0  0  0
   16.0650    7.1100   12.1780 C   0  0  0  0  0  0
   14.7660    7.6390   12.0800 C   0  0  0  0  0  0
   14.0110    7.3940   12.8240 H   0  0  0  0  0  0
   14.4160    8.5050   11.0470 C   0  0  0  0  0  0
   13.4060    8.9060   10.9910 H   0  0  0  0  0  0
   15.3620    8.8640   10.0910 C   0  0  0  0  0  0
   15.0660    9.5440    9.2920 H   0  0  0  0  0  0
   16.6690    8.3620   10.1520 C   0  0  0  0  0  0
   17.0370    7.4770   11.1980 C   0  0  0  0  0  0
   18.3630    6.9870   11.2030 C   0  0  0  0  0  0
   18.6850    6.2950   11.9800 H   0  0  0  0  0  0
   19.2910    7.3600   10.2270 C   0  0  0  0  0  0
   20.3040    6.9650   10.2610 H   0  0  0  0  0  0
   18.9150    8.2330    9.2150 C   0  0  0  0  0  0
   19.6330    8.5280    8.4520 H   0  0  0  0  0  0
   17.6120    8.7300    9.1770 C   0  0  0  0  0  0
   17.3370    9.4110    8.3720 H   0  0  0  0  0  0
   17.6010    6.0940   13.5690 C   0  0  0  0  0  0
   18.2970    6.1790   12.7280 H   0  0  0  0  0  0
   17.7490    5.1000   14.0020 H   0  0  0  0  0  0
   17.8760    6.8400   14.3230 H   0  0  0  0  0  0
   12.4540    5.6620   15.1170 C   0  0  0  0  0  0
   12.0500    5.0310   15.9130 H   0  0  0  0  0  0
   11.6850    6.3410   14.7360 H   0  0  0  0  0  0
   13.2100    6.2850   15.5990 H   0  0  0  0  0  0
   10.1330    1.0190   11.1560 N   0  0  0  0  0  0
   10.6180    0.4950   10.4440 H   0  0  0  0  0  0
    9.1550    0.8480   11.3400 H   0  0  0  0  0  0
  1  2  1  0  0  0
  1  6  2  0  0  0
  2  3  2  0  0  0
  2 44  1  0  0  0
  3  4  1  0  0  0
  4  5  2  0  0  0
  4 14  1  0  0  0
  5  6  1  0  0  0
  5 10  1  0  0  0
  6  7  1  0  0  0
  7  8  1  0  0  0
  7  9  1  0  0  0
 10 11  2  0  0  0
 10 40  1  0  0  0
 11 12  1  0  0  0
 11 15  1  0  0  0
 12 13  1  0  0  0
 12 14  2  0  0  0
 15 16  1  0  0  0
 15 17  1  0  0  0
 15 18  1  0  0  0
 18 19  1  0  0  0
 18 36  1  0  0  0
 19 20  2  0  0  0
 19 27  1  0  0  0
 20 21  1  0  0  0
 20 22  1  0  0  0
 22 23  1  0  0  0
 22 24  2  0  0  0
 24 25  1  0  0  0
 24 26  1  0  0  0
 26 27  2  0  0  0
 26 34  1  0  0  0
 27 28  1  0  0  0
 28 29  1  0  0  0
 28 30  2  0  0  0
 30 31  1  0  0  0
 30 32  1  0  0  0
 32 33  1  0  0  0
 32 34  2  0  0  0
 34 35  1  0  0  0
 36 37  1  0  0  0
 36 38  1  0  0  0
 36 39  1  0  0  0
 40 41  1  0  0  0
 40 42  1  0  0  0
 40 43  1  0  0  0
 44 45  1  0  0  0
 44 46  1  0  0  0
M  END
>  <ACTIVITY>
6.85

>  <SET>
1

>  <Min_dist>
999.9

>  <Avg_dist>
999.9

$$$$
9-15a
  Cerius2 12110214143D 1   1.00000                          
Structure written by Cerius2 SD Exporter
 40 43  0  0  0  0  0  0  0  0999 V2000
   10.1510    2.6340   12.8790 N   0  0  0  0  0  0
   10.7650    1.9970   11.8850 C   0  0  0  0  0  0
   12.0410    2.1680   11.5500 N   0  0  0  0  0  0
   12.7550    3.0420   12.2440 C   0  0  0  0  0  0
   12.2170    3.7670   13.3050 C   0  0  0  0  0  0
   10.8790    3.4980   13.5960 C   0  0  0  0  0  0
   10.1950    4.1550   14.6030 N   0  0  0  0  0  0
   10.6810    4.3500   15.4730 H   0  0  0  0  0  0
    9.2240    3.8770   14.7160 H   0  0  0  0  0  0
   13.0430    4.6950   13.9850 C   0  0  0  0  0  0
   12.6420    5.2870   14.8050 H   0  0  0  0  0  0
   14.3730    4.8570   13.6050 C   0  0  0  0  0  0
   14.8070    4.0900   12.5380 C   0  0  0  0  0  0
   15.8290    4.1720   12.1710 H   0  0  0  0  0  0
   14.0280    3.2000   11.8700 N   0  0  0  0  0  0
   15.2860    5.8390   14.2860 C   0  0  0  0  0  0
   15.7680    5.3420   15.1370 H   0  0  0  0  0  0
   14.6960    6.6740   14.6850 H   0  0  0  0  0  0
   16.2790    6.3240   13.3420 N   0  0  0  0  0  0
   17.1900    5.8760   13.3890 H   0  0  0  0  0  0
   15.9980    7.1400   12.2510 C   0  0  0  0  0  0
   14.7130    7.6810   12.0690 C   0  0  0  0  0  0
   13.9030    7.4520   12.7580 H   0  0  0  0  0  0
   14.4160    8.5170   10.9950 C   0  0  0  0  0  0
   13.4080    8.9110   10.8740 H   0  0  0  0  0  0
   15.4060    8.8460   10.0780 C   0  0  0  0  0  0
   15.1510    9.5020    9.2450 H   0  0  0  0  0  0
   16.7070    8.3540   10.2280 C   0  0  0  0  0  0
   17.0250    7.5010   11.3200 C   0  0  0  0  0  0
   18.3700    7.0620   11.4150 C   0  0  0  0  0  0
   18.6920    6.4200   12.2330 H   0  0  0  0  0  0
   19.3430    7.4320   10.4800 C   0  0  0  0  0  0
   20.3650    7.0740   10.5890 H   0  0  0  0  0  0
   19.0030    8.2580    9.4190 C   0  0  0  0  0  0
   19.7560    8.5500    8.6890 H   0  0  0  0  0  0
   17.6940    8.7170    9.2960 C   0  0  0  0  0  0
   17.4490    9.3700    8.4580 H   0  0  0  0  0  0
   10.0340    1.1070   11.1600 N   0  0  0  0  0  0
   10.4640    0.6050   10.3970 H   0  0  0  0  0  0
    9.0630    0.9560   11.3880 H   0  0  0  0  0  0
  1  2  1  0  0  0
  1  6  2  0  0  0
  2  3  2  0  0  0
  2 38  1  0  0  0
  3  4  1  0  0  0
  4  5  2  0  0  0
  4 15  1  0  0  0
  5  6  1  0  0  0
  5 10  1  0  0  0
  6  7  1  0  0  0
  7  8  1  0  0  0
  7  9  1  0  0  0
 10 11  1  0  0  0
 10 12  2  0  0  0
 12 13  1  0  0  0
 12 16  1  0  0  0
 13 14  1  0  0  0
 13 15  2  0  0  0
 16 17  1  0  0  0
 16 18  1  0  0  0
 16 19  1  0  0  0
 19 20  1  0  0  0
 19 21  1  0  0  0
 21 22  2  0  0  0
 21 29  1  0  0  0
 22 23  1  0  0  0
 22 24  1  0  0  0
 24 25  1  0  0  0
 24 26  2  0  0  0
 26 27  1  0  0  0
 26 28  1  0  0  0
 28 29  2  0  0  0
 28 36  1  0  0  0
 29 30  1  0  0  0
 30 31  1  0  0  0
 30 32  2  0  0  0
 32 33  1  0  0  0
 32 34  1  0  0  0
 34 35  1  0  0  0
 34 36  2  0  0  0
 36 37  1  0  0  0
 38 39  1  0  0  0
 38 40  1  0  0  0
M  END
>  <ACTIVITY>
6.64

>  <SET>
2

>  <Min_dist>
0.06

>  <Avg_dist>
0.46

$$$$
9-15b
  Cerius2 12110214143D 1   1.00000                          
Structure written by Cerius2 SD Exporter
 34 36  0  0  0  0  0  0  0  0999 V2000
   10.1520    2.6380   12.8810 N   0  0  0  0  0  0
   10.7640    1.9970   11.8870 C   0  0  0  0  0  0
   12.0390    2.1670   11.5490 N   0  0  0  0  0  0
   12.7550    3.0400   12.2410 C   0  0  0  0  0  0
   12.2210    3.7660   13.3030 C   0  0  0  0  0  0
   10.8830    3.5010   13.5960 C   0  0  0  0  0  0
   10.2010    4.1630   14.6020 N   0  0  0  0  0  0
   10.6880    4.3600   15.4700 H   0  0  0  0  0  0
    9.2290    3.8880   14.7170 H   0  0  0  0  0  0
   13.0500    4.6900   13.9830 C   0  0  0  0  0  0
   12.6540    5.2830   14.8050 H   0  0  0  0  0  0
   14.3790    4.8530   13.6000 C   0  0  0  0  0  0
   14.8100    4.0870   12.5310 C   0  0  0  0  0  0
   15.8310    4.1680   12.1600 H   0  0  0  0  0  0
   14.0280    3.1980   11.8640 N   0  0  0  0  0  0
   15.2940    5.8310   14.2850 C   0  0  0  0  0  0
   15.7950    5.3350   15.1250 H   0  0  0  0  0  0
   14.6950    6.6500   14.7020 H   0  0  0  0  0  0
   16.2710    6.3430   13.3410 N   0  0  0  0  0  0
   17.2400    6.0610   13.4760 H   0  0  0  0  0  0
   15.9610    7.1290   12.2490 C   0  0  0  0  0  0
   16.9560    7.3860   11.2950 C   0  0  0  0  0  0
   17.9530    6.9620   11.4180 H   0  0  0  0  0  0
   16.7060    8.1850   10.1740 C   0  0  0  0  0  0
   17.5010    8.3630    9.4540 H   0  0  0  0  0  0
   15.4450    8.7410    9.9930 C   0  0  0  0  0  0
   14.4400    8.5040   10.9250 C   0  0  0  0  0  0
   13.4500    8.9350   10.7940 H   0  0  0  0  0  0
   14.7010    7.7040   12.0450 C   0  0  0  0  0  0
   13.8900    7.5430   12.7510 H   0  0  0  0  0  0
   15.1270    9.7250    8.6170 Cl  0  0  0  0  0  0
   10.0320    1.1050   11.1660 N   0  0  0  0  0  0
   10.4610    0.5990   10.4060 H   0  0  0  0  0  0
    9.0610    0.9530   11.3990 H   0  0  0  0  0  0
  1  2  1  0  0  0
  1  6  2  0  0  0
  2  3  2  0  0  0
  2 32  1  0  0  0
  3  4  1  0  0  0
  4  5  2  0  0  0
  4 15  1  0  0  0
  5  6  1  0  0  0
  5 10  1  0  0  0
  6  7  1  0  0  0
  7  8  1  0  0  0
  7  9  1  0  0  0
 10 11  1  0  0  0
 10 12  2  0  0  0
 12 13  1  0  0  0
 12 16  1  0  0  0
 13 14  1  0  0  0
 13 15  2  0  0  0
 16 17  1  0  0  0
 16 18  1  0  0  0
 16 19  1  0  0  0
 19 20  1  0  0  0
 19 21  1  0  0  0
 21 22  1  0  0  0
 21 29  2  0  0  0
 22 23  1  0  0  0
 22 24  2  0  0  0
 24 25  1  0  0  0
 24 26  1  0  0  0
 26 27  2  0  0  0
 26 31  1  0  0  0
 27 28  1  0  0  0
 27 29  1  0  0  0
 29 30  1  0  0  0
 32 33  1  0  0  0
 32 34  1  0  0  0
M  END
>  <ACTIVITY>
6.14

>  <SET>
1

>  <Min_dist>
999.9

>  <Avg_dist>
999.9

$$$$
9-15c
  Cerius2 12110214143D 1   1.00000                          
Structure written by Cerius2 SD Exporter
 46 48  0  0  0  0  0  0  0  0999 V2000
   10.1720    2.6640   12.8960 N   0  0  0  0  0  0
   10.7670    2.0190   11.8950 C   0  0  0  0  0  0
   12.0410    2.1720   11.5470 N   0  0  0  0  0  0
   12.7740    3.0340   12.2350 C   0  0  0  0  0  0
   12.2580    3.7650   13.3030 C   0  0  0  0  0  0
   10.9190    3.5170   13.6060 C   0  0  0  0  0  0
   10.2530    4.1850   14.6180 N   0  0  0  0  0  0
   10.7480    4.3750   15.4830 H   0  0  0  0  0  0
    9.2800    3.9210   14.7400 H   0  0  0  0  0  0
   13.1060    4.6780   13.9770 C   0  0  0  0  0  0
   12.7230    5.2750   14.8030 H   0  0  0  0  0  0
   14.4340    4.8220   13.5830 C   0  0  0  0  0  0
   14.8450    4.0520   12.5100 C   0  0  0  0  0  0
   15.8630    4.1210   12.1310 H   0  0  0  0  0  0
   14.0460    3.1750   11.8490 N   0  0  0  0  0  0
   15.3660    5.7890   14.2590 C   0  0  0  0  0  0
   15.9050    5.2700   15.0620 H   0  0  0  0  0  0
   14.7820    6.5920   14.7250 H   0  0  0  0  0  0
   16.2990    6.3370   13.2890 N   0  0  0  0  0  0
   17.2790    6.0830   13.3990 H   0  0  0  0  0  0
   15.9410    7.1250   12.2130 C   0  0  0  0  0  0
   16.9040    7.3990   11.2320 C   0  0  0  0  0  0
   17.9080    6.9900   11.3260 H   0  0  0  0  0  0
   16.5960    8.1910   10.1260 C   0  0  0  0  0  0
   15.3320    8.7700   10.0050 C   0  0  0  0  0  0
   14.3420    8.4980   10.9580 C   0  0  0  0  0  0
   14.6600    7.6820   12.0550 C   0  0  0  0  0  0
   13.9050    7.4700   12.8050 H   0  0  0  0  0  0
   13.1160    9.0720   10.7310 O   0  0  0  0  0  0
   12.9740    9.8690    9.5580 C   0  0  0  0  0  0
   11.9470   10.2460    9.5360 H   0  0  0  0  0  0
   13.1280    9.2710    8.6540 H   0  0  0  0  0  0
   13.6460   10.7330    9.5850 H   0  0  0  0  0  0
   15.0410    9.5440    8.9070 O   0  0  0  0  0  0
   16.1810    9.6080    8.0430 C   0  0  0  0  0  0
   15.9130   10.2320    7.1850 H   0  0  0  0  0  0
   16.4510    8.6140    7.6690 H   0  0  0  0  0  0
   17.0360   10.0720    8.5460 H   0  0  0  0  0  0
   17.5720    8.4500    9.1980 O   0  0  0  0  0  0
   18.7590    7.7200    9.5260 C   0  0  0  0  0  0
   19.4970    7.9150    8.7420 H   0  0  0  0  0  0
   18.5670    6.6420    9.5520 H   0  0  0  0  0  0
   19.1780    8.0580   10.4800 H   0  0  0  0  0  0
   10.0150    1.1390   11.1780 N   0  0  0  0  0  0
   10.4300    0.6330   10.4090 H   0  0  0  0  0  0
    9.0440    1.0030   11.4160 H   0  0  0  0  0  0
  1  2  1  0  0  0
  1  6  2  0  0  0
  2  3  2  0  0  0
  2 44  1  0  0  0
  3  4  1  0  0  0
  4  5  2  0  0  0
  4 15  1  0  0  0
  5  6  1  0  0  0
  5 10  1  0  0  0
  6  7  1  0  0  0
  7  8  1  0  0  0
  7  9  1  0  0  0
 10 11  1  0  0  0
 10 12  2  0  0  0
 12 13  1  0  0  0
 12 16  1  0  0  0
 13 14  1  0  0  0
 13 15  2  0  0  0
 16 17  1  0  0  0
 16 18  1  0  0  0
 16 19  1  0  0  0
 19 20  1  0  0  0
 19 21  1  0  0  0
 21 22  1  0  0  0
 21 27  2  0  0  0
 22 23  1  0  0  0
 22 24  2  0  0  0
 24 25  1  0  0  0
 24 39  1  0  0  0
 25 26  2  0  0  0
 25 34  1  0  0  0
 26 27  1  0  0  0
 26 29  1  0  0  0
 27 28  1  0  0  0
 29 30  1  0  0  0
 30 31  1  0  0  0
 30 32  1  0  0  0
 30 33  1  0  0  0
 34 35  1  0  0  0
 35 36  1  0  0  0
 35 37  1  0  0  0
 35 38  1  0  0  0
 39 40  1  0  0  0
 40 41  1  0  0  0
 40 42  1  0  0  0
 40 43  1  0  0  0
 44 45  1  0  0  0
 44 46  1  0  0  0
M  END
>  <ACTIVITY>
6.09

>  <SET>
1

>  <Min_dist>
999.9

>  <Avg_dist>
999.9

$$$$
9-16b
  Cerius2 12110214143D 1   1.00000                          
Structure written by Cerius2 SD Exporter
 35 37  0  0  0  0  0  0  0  0999 V2000
   10.1300    2.6280   12.8890 N   0  0  0  0  0  0
   10.7240    1.9690   11.8940 C   0  0  0  0  0  0
   11.9980    2.1270   11.5350 N   0  0  0  0  0  0
   12.7320    3.0150   12.2160 C   0  0  0  0  0  0
   12.2180    3.7610   13.2800 C   0  0  0  0  0  0
   10.8770    3.4990   13.5850 C   0  0  0  0  0  0
   10.2060    4.1730   14.5910 N   0  0  0  0  0  0
   10.7030    4.3700   15.4540 H   0  0  0  0  0  0
    9.2360    3.9000   14.7170 H   0  0  0  0  0  0
   13.0480    4.6980   13.9520 C   0  0  0  0  0  0
   12.6420    5.2940   14.7670 H   0  0  0  0  0  0
   14.3870    4.8780   13.5810 C   0  0  0  0  0  0
   14.8830    4.1280   12.5140 C   0  0  0  0  0  0
   15.9140    4.2530   12.1840 H   0  0  0  0  0  0
   14.0590    3.2120   11.8510 C   0  0  0  0  0  0
   14.4720    2.6400   11.0220 H   0  0  0  0  0  0
   15.2590    5.8880   14.2900 C   0  0  0  0  0  0
   15.7160    5.4170   15.1690 H   0  0  0  0  0  0
   14.6350    6.7160   14.6510 H   0  0  0  0  0  0
   16.2820    6.3760   13.3820 N   0  0  0  0  0  0
   17.2460    6.1410   13.6090 H   0  0  0  0  0  0
   16.0310    7.1390   12.2610 C   0  0  0  0  0  0
   14.7510    7.6840   12.0850 C   0  0  0  0  0  0
   13.9740    7.5010   12.8260 H   0  0  0  0  0  0
   14.4370    8.4680   10.9680 C   0  0  0  0  0  0
   13.4340    8.8730   10.8630 H   0  0  0  0  0  0
   15.4090    8.7180   10.0070 C   0  0  0  0  0  0
   16.6870    8.1900   10.1580 C   0  0  0  0  0  0
   17.4570    8.3790    9.4130 H   0  0  0  0  0  0
   16.9920    7.4070   11.2790 C   0  0  0  0  0  0
   18.0030    7.0130   11.3610 H   0  0  0  0  0  0
   15.0330    9.6810    8.6320 Cl  0  0  0  0  0  0
    9.9780    1.0730   11.1930 N   0  0  0  0  0  0
   10.3980    0.5580   10.4330 H   0  0  0  0  0  0
    9.0100    0.9270   11.4370 H   0  0  0  0  0  0
  1  2  1  0  0  0
  1  6  2  0  0  0
  2  3  2  0  0  0
  2 33  1  0  0  0
  3  4  1  0  0  0
  4  5  2  0  0  0
  4 15  1  0  0  0
  5  6  1  0  0  0
  5 10  1  0  0  0
  6  7  1  0  0  0
  7  8  1  0  0  0
  7  9  1  0  0  0
 10 11  1  0  0  0
 10 12  2  0  0  0
 12 13  1  0  0  0
 12 17  1  0  0  0
 13 14  1  0  0  0
 13 15  2  0  0  0
 15 16  1  0  0  0
 17 18  1  0  0  0
 17 19  1  0  0  0
 17 20  1  0  0  0
 20 21  1  0  0  0
 20 22  1  0  0  0
 22 23  1  0  0  0
 22 30  2  0  0  0
 23 24  1  0  0  0
 23 25  2  0  0  0
 25 26  1  0  0  0
 25 27  1  0  0  0
 27 28  2  0  0  0
 27 32  1  0  0  0
 28 29  1  0  0  0
 28 30  1  0  0  0
 30 31  1  0  0  0
 33 34  1  0  0  0
 33 35  1  0  0  0
M  END
>  <ACTIVITY>
7.14

>  <SET>
1

>  <Min_dist>
999.9

>  <Avg_dist>
999.9

$$$$
9-16c
  Cerius2 12110214143D 1   1.00000                          
Structure written by Cerius2 SD Exporter
 38 40  0  0  0  0  0  0  0  0999 V2000
   10.1380    2.6160   12.8940 N   0  0  0  0  0  0
   10.7360    1.9540   11.9040 C   0  0  0  0  0  0
   12.0080    2.1200   11.5420 N   0  0  0  0  0  0
   12.7330    3.0260   12.2110 C   0  0  0  0  0  0
   12.2110    3.7810   13.2640 C   0  0  0  0  0  0
   10.8760    3.5050   13.5780 C   0  0  0  0  0  0
   10.2000    4.1800   14.5810 N   0  0  0  0  0  0
   10.6990    4.3900   15.4390 H   0  0  0  0  0  0
    9.2350    3.8950   14.7130 H   0  0  0  0  0  0
   13.0290    4.7400   13.9210 C   0  0  0  0  0  0
   12.6140    5.3340   14.7350 H   0  0  0  0  0  0
   14.3610    4.9410   13.5400 C   0  0  0  0  0  0
   14.8690    4.1690   12.4930 C   0  0  0  0  0  0
   15.9010    4.2980   12.1680 H   0  0  0  0  0  0
   14.0570    3.2300   11.8450 C   0  0  0  0  0  0
   14.4800    2.6460   11.0300 H   0  0  0  0  0  0
   15.2330    5.9460   14.2590 C   0  0  0  0  0  0
   15.5750    5.4880   15.1920 H   0  0  0  0  0  0
   14.6450    6.8310   14.5310 H   0  0  0  0  0  0
   16.3400    6.3470   13.3960 N   0  0  0  0  0  0
   17.0520    5.6230   13.2920 H   0  0  0  0  0  0
   16.0530    7.0780   12.2450 C   0  0  0  0  0  0
   14.7650    7.6230   12.1110 C   0  0  0  0  0  0
   14.0080    7.4260   12.8700 H   0  0  0  0  0  0
   14.4260    8.4390   11.0280 C   0  0  0  0  0  0
   13.4220    8.8490   10.9570 H   0  0  0  0  0  0
   15.3830    8.7310   10.0650 C   0  0  0  0  0  0
   16.6660    8.2000   10.1710 C   0  0  0  0  0  0
   17.4070    8.4320    9.4090 H   0  0  0  0  0  0
   17.0100    7.3590   11.2490 C   0  0  0  0  0  0
   18.4040    6.7900   11.2760 C   0  0  0  0  0  0
   19.0830    7.4840   11.7800 H   0  0  0  0  0  0
   18.7730    6.6210   10.2590 H   0  0  0  0  0  0
   18.4330    5.8200   11.7830 H   0  0  0  0  0  0
   14.9830    9.7500    8.7370 Cl  0  0  0  0  0  0
    9.9960    1.0450   11.2130 N   0  0  0  0  0  0
   10.4210    0.5230   10.4600 H   0  0  0  0  0  0
    9.0310    0.8910   11.4620 H   0  0  0  0  0  0
  1  2  1  0  0  0
  1  6  2  0  0  0
  2  3  2  0  0  0
  2 36  1  0  0  0
  3  4  1  0  0  0
  4  5  2  0  0  0
  4 15  1  0  0  0
  5  6  1  0  0  0
  5 10  1  0  0  0
  6  7  1  0  0  0
  7  8  1  0  0  0
  7  9  1  0  0  0
 10 11  1  0  0  0
 10 12  2  0  0  0
 12 13  1  0  0  0
 12 17  1  0  0  0
 13 14  1  0  0  0
 13 15  2  0  0  0
 15 16  1  0  0  0
 17 18  1  0  0  0
 17 19  1  0  0  0
 17 20  1  0  0  0
 20 21  1  0  0  0
 20 22  1  0  0  0
 22 23  1  0  0  0
 22 30  2  0  0  0
 23 24  1  0  0  0
 23 25  2  0  0  0
 25 26  1  0  0  0
 25 27  1  0  0  0
 27 28  2  0  0  0
 27 35  1  0  0  0
 28 29  1  0  0  0
 28 30  1  0  0  0
 30 31  1  0  0  0
 31 32  1  0  0  0
 31 33  1  0  0  0
 31 34  1  0  0  0
 36 37  1  0  0  0
 36 38  1  0  0  0
M  END
>  <ACTIVITY>
7.64

>  <SET>
2

>  <Min_dist>
0.1

>  <Avg_dist>
0.48

$$$$
9-16d
  Cerius2 12110214143D 1   1.00000                          
Structure written by Cerius2 SD Exporter
 42 44  0  0  0  0  0  0  0  0999 V2000
   10.1490    2.6160   12.8800 N   0  0  0  0  0  0
   10.7720    1.9770   11.8920 C   0  0  0  0  0  0
   12.0450    2.1620   11.5550 N   0  0  0  0  0  0
   12.7470    3.0520   12.2400 C   0  0  0  0  0  0
   12.1990    3.7810   13.2930 C   0  0  0  0  0  0
   10.8650    3.4980   13.5880 C   0  0  0  0  0  0
   10.1710    4.1570   14.5870 N   0  0  0  0  0  0
   10.6550    4.3680   15.4550 H   0  0  0  0  0  0
    9.2040    3.8670   14.7040 H   0  0  0  0  0  0
   13.0120    4.7280   13.9620 C   0  0  0  0  0  0
   12.6030    5.3250   14.7750 H   0  0  0  0  0  0
   14.3400    4.9050   13.5810 C   0  0  0  0  0  0
   14.7850    4.1330   12.5230 C   0  0  0  0  0  0
   15.8050    4.2240   12.1540 H   0  0  0  0  0  0
   14.0180    3.2250   11.8650 N   0  0  0  0  0  0
   15.2370    5.9100   14.2550 C   0  0  0  0  0  0
   15.6840    5.4440   15.1410 H   0  0  0  0  0  0
   14.6280    6.7580   14.5880 H   0  0  0  0  0  0
   16.2650    6.3480   13.3290 N   0  0  0  0  0  0
   17.2070    6.0020   13.5050 H   0  0  0  0  0  0
   16.0710    7.1380   12.2040 C   0  0  0  0  0  0
   14.7790    7.6750   12.0280 C   0  0  0  0  0  0
   14.0060    7.4600   12.7660 H   0  0  0  0  0  0
   14.4390    8.4760   10.9330 C   0  0  0  0  0  0
   15.4080    8.7600    9.9820 C   0  0  0  0  0  0
   15.2020    9.3800    9.1140 H   0  0  0  0  0  0
   16.6990    8.2410   10.1240 C   0  0  0  0  0  0
   17.4200    8.4940    9.3500 H   0  0  0  0  0  0
   17.0420    7.4340   11.2200 C   0  0  0  0  0  0
   18.2980    6.9090   11.3940 O   0  0  0  0  0  0
   19.3100    7.2580   10.4530 C   0  0  0  0  0  0
   20.2290    6.7410   10.7480 H   0  0  0  0  0  0
   19.5120    8.3330   10.4740 H   0  0  0  0  0  0
   19.0460    6.9180    9.4460 H   0  0  0  0  0  0
   13.1430    8.9120   10.9170 O   0  0  0  0  0  0
   12.7640    9.7610    9.8350 C   0  0  0  0  0  0
   11.7050   10.0050    9.9580 H   0  0  0  0  0  0
   12.8800    9.2480    8.8740 H   0  0  0  0  0  0
   13.3280   10.6990    9.8550 H   0  0  0  0  0  0
   10.0540    1.0690   11.1770 N   0  0  0  0  0  0
   10.4890    0.5710   10.4140 H   0  0  0  0  0  0
    9.0840    0.9080   11.4060 H   0  0  0  0  0  0
  1  2  1  0  0  0
  1  6  2  0  0  0
  2  3  2  0  0  0
  2 40  1  0  0  0
  3  4  1  0  0  0
  4  5  2  0  0  0
  4 15  1  0  0  0
  5  6  1  0  0  0
  5 10  1  0  0  0
  6  7  1  0  0  0
  7  8  1  0  0  0
  7  9  1  0  0  0
 10 11  1  0  0  0
 10 12  2  0  0  0
 12 13  1  0  0  0
 12 16  1  0  0  0
 13 14  1  0  0  0
 13 15  2  0  0  0
 16 17  1  0  0  0
 16 18  1  0  0  0
 16 19  1  0  0  0
 19 20  1  0  0  0
 19 21  1  0  0  0
 21 22  1  0  0  0
 21 29  2  0  0  0
 22 23  1  0  0  0
 22 24  2  0  0  0
 24 25  1  0  0  0
 24 35  1  0  0  0
 25 26  1  0  0  0
 25 27  2  0  0  0
 27 28  1  0  0  0
 27 29  1  0  0  0
 29 30  1  0  0  0
 30 31  1  0  0  0
 31 32  1  0  0  0
 31 33  1  0  0  0
 31 34  1  0  0  0
 35 36  1  0  0  0
 36 37  1  0  0  0
 36 38  1  0  0  0
 36 39  1  0  0  0
 40 41  1  0  0  0
 40 42  1  0  0  0
M  END
>  <ACTIVITY>
6.34

>  <SET>
1

>  <Min_dist>
999.9

>  <Avg_dist>
999.9

$$$$
