1
  Cerius2 12110214173D 1   1.00000                          
Structure written by Cerius2 SD Exporter
 24 24  0  0  0  0  0  0  0  0999 V2000
    1.4990    1.4870    0.7700 C   0  0  0  0  0  0
    1.5640    1.6810   -0.7630 C   0  0  0  0  0  0
    0.3790    1.0100   -1.4860 C   0  0  0  0  0  0
    0.1900   -0.4230   -0.9850 C   0  0  0  0  0  0
    0.0080   -0.3790    0.5370 C   0  0  0  0  0  0
   -0.3890   -1.7590    1.0840 C   0  0  0  0  0  0
    1.6370    3.0730   -1.0800 O   0  0  0  0  0  0
    0.5520    1.0520   -2.9030 O   0  0  0  0  0  0
   -0.9230   -1.0600   -1.6070 O   0  0  0  0  0  0
    1.1950    0.1310    1.1580 O   0  0  0  0  0  0
    0.3560   -2.7930    0.4430 O   0  0  0  0  0  0
    0.6260    2.4370    1.3860 O   0  0  0  0  0  0
    2.5090    1.6969    1.1519 H   0  0  0  0  0  0
    2.4866    1.2020   -1.1228 H   0  0  0  0  0  0
   -0.5322    1.5760   -1.2423 H   0  0  0  0  0  0
    1.0949   -1.0023   -1.2206 H   0  0  0  0  0  0
   -0.8140    0.3165    0.7618 H   0  0  0  0  0  0
   -1.4617   -1.9231    0.9039 H   0  0  0  0  0  0
   -0.1900   -1.7889    2.1654 H   0  0  0  0  0  0
    2.3732    3.4635   -0.6238 H   0  0  0  0  0  0
    0.6665    1.9530   -3.1814 H   0  0  0  0  0  0
   -0.7925   -1.0778   -2.5478 H   0  0  0  0  0  0
    0.0955   -3.6359    0.7953 H   0  0  0  0  0  0
    0.8613    3.3130    1.1035 H   0  0  0  0  0  0
  1  2  1  0  0  0
  1 10  1  0  0  0
  1 12  1  0  0  0
  1 13  1  0  0  0
  2  3  1  0  0  0
  2  7  1  0  0  0
  2 14  1  0  0  0
  3  4  1  0  0  0
  3  8  1  0  0  0
  3 15  1  0  0  0
  4  5  1  0  0  0
  4  9  1  0  0  0
  4 16  1  0  0  0
  5  6  1  0  0  0
  5 10  1  0  0  0
  5 17  1  0  0  0
  6 11  1  0  0  0
  6 18  1  0  0  0
  6 19  1  0  0  0
  7 20  1  0  0  0
  8 21  1  0  0  0
  9 22  1  0  0  0
 11 23  1  0  0  0
 12 24  1  0  0  0
M  END
>  <ACTIVITY>
2.8

>  <SET>
1

>  <Min_dist>
999.9

>  <Avg_dist>
999.9

$$$$
10
  Cerius2 12110214173D 1   1.00000                          
Structure written by Cerius2 SD Exporter
 27 27  0  0  0  0  0  0  0  0999 V2000
    1.2800    1.1460    0.8410 C   0  0  0  0  0  0
    1.3520    1.4670   -0.6730 C   0  0  0  0  0  0
    0.1830    0.8230   -1.4480 C   0  0  0  0  0  0
    0.0000   -0.6420   -1.0160 C   0  0  0  0  0  0
   -0.1470   -0.6980    0.5070 C   0  0  0  0  0  0
   -0.4930   -2.1160    0.9750 C   0  0  0  0  0  0
    2.5700    1.5630    1.5390 C   0  0  0  0  0  0
    1.3830    2.8870   -0.8910 O   0  0  0  0  0  0
    0.3840    0.9450   -2.8600 O   0  0  0  0  0  0
   -1.1270   -1.2500   -1.6280 O   0  0  0  0  0  0
    1.0590   -0.2430    1.1030 O   0  0  0  0  0  0
    0.4060   -3.0550    0.3960 O   0  0  0  0  0  0
    2.2920    2.4680    2.5950 O   0  0  0  0  0  0
    0.4434    1.7176    1.2692 H   0  0  0  0  0  0
    2.2889    1.0425   -1.0628 H   0  0  0  0  0  0
   -0.7379    1.3673   -1.1919 H   0  0  0  0  0  0
    0.8979   -1.2056   -1.3094 H   0  0  0  0  0  0
   -0.9645   -0.0263    0.8077 H   0  0  0  0  0  0
   -1.5209   -2.3597    0.6684 H   0  0  0  0  0  0
   -0.4156   -2.1664    2.0711 H   0  0  0  0  0  0
    3.2350    2.0498    0.8105 H   0  0  0  0  0  0
    3.0654    0.6702    1.9482 H   0  0  0  0  0  0
    2.1075    3.2659   -0.4072 H   0  0  0  0  0  0
    0.4925    1.8612   -3.0864 H   0  0  0  0  0  0
   -1.0325   -1.2135   -2.5726 H   0  0  0  0  0  0
    0.1837   -3.9300    0.6917 H   0  0  0  0  0  0
    3.1042    2.7183    3.0196 H   0  0  0  0  0  0
  1  2  1  0  0  0
  1  7  1  0  0  0
  1 11  1  0  0  0
  1 14  1  0  0  0
  2  3  1  0  0  0
  2  8  1  0  0  0
  2 15  1  0  0  0
  3  4  1  0  0  0
  3  9  1  0  0  0
  3 16  1  0  0  0
  4  5  1  0  0  0
  4 10  1  0  0  0
  4 17  1  0  0  0
  5  6  1  0  0  0
  5 11  1  0  0  0
  5 18  1  0  0  0
  6 12  1  0  0  0
  6 19  1  0  0  0
  6 20  1  0  0  0
  7 13  1  0  0  0
  7 21  1  0  0  0
  7 22  1  0  0  0
  8 23  1  0  0  0
  9 24  1  0  0  0
 10 25  1  0  0  0
 12 26  1  0  0  0
 13 27  1  0  0  0
M  END
>  <ACTIVITY>
1.7

>  <SET>
1

>  <Min_dist>
999.9

>  <Avg_dist>
999.9

$$$$
11
  Cerius2 12110214173D 1   1.00000                          
Structure written by Cerius2 SD Exporter
 28 28  0  0  0  0  0  0  0  0999 V2000
    1.2410    1.4300    0.8490 C   0  0  0  0  0  0
    1.3990    1.5880   -0.6830 C   0  0  0  0  0  0
    0.2380    0.9390   -1.4540 C   0  0  0  0  0  0
    0.0410   -0.4950   -0.9530 C   0  0  0  0  0  0
   -0.2660   -0.4540    0.5480 C   0  0  0  0  0  0
   -0.5930   -1.8630    1.0630 C   0  0  0  0  0  0
    2.6250    1.6070    1.4730 C   0  0  0  0  0  0
    1.5460    2.9700   -1.0350 O   0  0  0  0  0  0
    0.4730    0.9890   -2.8640 O   0  0  0  0  0  0
   -0.9960   -1.1750   -1.6470 O   0  0  0  0  0  0
    0.8350    0.1110    1.2640 O   0  0  0  0  0  0
    0.2990   -2.8220    0.4970 O   0  0  0  0  0  0
    2.5580    2.3060    2.7090 O   0  0  0  0  0  0
    0.3560    2.4430    1.3420 O   0  0  0  0  0  0
    2.3221    1.0671   -0.9770 H   0  0  0  0  0  0
   -0.6807    1.5063   -1.2438 H   0  0  0  0  0  0
    0.9781   -1.0494   -1.1093 H   0  0  0  0  0  0
   -1.1468    0.1855    0.7066 H   0  0  0  0  0  0
   -1.6254   -2.1199    0.7835 H   0  0  0  0  0  0
   -0.4947   -1.8798    2.1585 H   0  0  0  0  0  0
    3.2604    2.1740    0.7767 H   0  0  0  0  0  0
    3.0669    0.6150    1.6478 H   0  0  0  0  0  0
    2.2683    3.3462   -0.5458 H   0  0  0  0  0  0
    0.5896    1.8924   -3.1337 H   0  0  0  0  0  0
   -0.7957   -1.1945   -2.5754 H   0  0  0  0  0  0
    0.0836   -3.6871    0.8252 H   0  0  0  0  0  0
    3.4325    2.3983    3.0684 H   0  0  0  0  0  0
    0.6556    3.2954    1.0485 H   0  0  0  0  0  0
  1  2  1  0  0  0
  1  7  1  0  0  0
  1 11  1  0  0  0
  1 14  1  0  0  0
  2  3  1  0  0  0
  2  8  1  0  0  0
  2 15  1  0  0  0
  3  4  1  0  0  0
  3  9  1  0  0  0
  3 16  1  0  0  0
  4  5  1  0  0  0
  4 10  1  0  0  0
  4 17  1  0  0  0
  5  6  1  0  0  0
  5 11  1  0  0  0
  5 18  1  0  0  0
  6 12  1  0  0  0
  6 19  1  0  0  0
  6 20  1  0  0  0
  7 13  1  0  0  0
  7 21  1  0  0  0
  7 22  1  0  0  0
  8 23  1  0  0  0
  9 24  1  0  0  0
 10 25  1  0  0  0
 12 26  1  0  0  0
 13 27  1  0  0  0
 14 28  1  0  0  0
M  END
>  <ACTIVITY>
1.8

>  <SET>
1

>  <Min_dist>
999.9

>  <Avg_dist>
999.9

$$$$
12
  Cerius2 12110214173D 1   1.00000                          
Structure written by Cerius2 SD Exporter
 33 33  0  0  0  0  0  0  0  0999 V2000
    1.0960    1.2570    0.8270 C   0  0  0  0  0  0
    1.2450    1.4920   -0.6880 C   0  0  0  0  0  0
    0.0950    0.8300   -1.4680 C   0  0  0  0  0  0
   -0.0690   -0.6280   -1.0030 C   0  0  0  0  0  0
   -0.2560   -0.6560    0.5190 C   0  0  0  0  0  0
   -0.5420   -2.0810    1.0050 C   0  0  0  0  0  0
    2.3530    1.7440    1.5260 C   0  0  0  0  0  0
    1.3260    2.8970   -0.9610 O   0  0  0  0  0  0
    0.3230    0.9250   -2.8770 O   0  0  0  0  0  0
   -1.1620   -1.2820   -1.6290 O   0  0  0  0  0  0
    0.9040   -0.1250    1.1490 O   0  0  0  0  0  0
    0.3810   -2.9940    0.4200 O   0  0  0  0  0  0
    2.0350    2.4920    2.6930 O   0  0  0  0  0  0
    3.1610    2.5900    3.8400 S   0  0  0  0  0  0
    4.0953    3.6845    3.6618 O   0  0  0  0  0  0
    3.8077    1.2935    3.8977 O   0  0  0  0  0  0
    2.2660    2.9380    5.3400 C   0  0  0  0  0  0
    0.2292    1.8291    1.1894 H   0  0  0  0  0  0
    2.1861    1.0263   -1.0158 H   0  0  0  0  0  0
   -0.8362    1.3688   -1.2389 H   0  0  0  0  0  0
    0.8501   -1.1759   -1.2580 H   0  0  0  0  0  0
   -1.1170   -0.0227    0.7790 H   0  0  0  0  0  0
   -1.5652   -2.3645    0.7177 H   0  0  0  0  0  0
   -0.4451   -2.1179    2.1001 H   0  0  0  0  0  0
    2.9235    2.3821    0.8351 H   0  0  0  0  0  0
    2.9641    0.8753    1.8121 H   0  0  0  0  0  0
    2.0434    3.2749   -0.4660 H   0  0  0  0  0  0
    0.4183    1.8380   -3.1215 H   0  0  0  0  0  0
   -1.0443   -1.2636   -2.5715 H   0  0  0  0  0  0
    0.1948   -3.8733    0.7278 H   0  0  0  0  0  0
    2.9734    3.0204    6.1783 H   0  0  0  0  0  0
    1.5542    2.1235    5.5396 H   0  0  0  0  0  0
    1.7177    3.8851    5.2286 H   0  0  0  0  0  0
  1  2  1  0  0  0
  1  7  1  0  0  0
  1 11  1  0  0  0
  1 18  1  0  0  0
  2  3  1  0  0  0
  2  8  1  0  0  0
  2 19  1  0  0  0
  3  4  1  0  0  0
  3  9  1  0  0  0
  3 20  1  0  0  0
  4  5  1  0  0  0
  4 10  1  0  0  0
  4 21  1  0  0  0
  5  6  1  0  0  0
  5 11  1  0  0  0
  5 22  1  0  0  0
  6 12  1  0  0  0
  6 23  1  0  0  0
  6 24  1  0  0  0
  7 13  1  0  0  0
  7 25  1  0  0  0
  7 26  1  0  0  0
  8 27  1  0  0  0
  9 28  1  0  0  0
 10 29  1  0  0  0
 12 30  1  0  0  0
 13 14  1  0  0  0
 14 15  2  0  0  0
 14 16  2  0  0  0
 14 17  1  0  0  0
 17 31  1  0  0  0
 17 32  1  0  0  0
 17 33  1  0  0  0
M  END
>  <ACTIVITY>
2.3

>  <SET>
2

>  <Min_dist>
0.14

>  <Avg_dist>
0.49

$$$$
13
  Cerius2 12110214173D 1   1.00000                          
Structure written by Cerius2 SD Exporter
 34 34  0  0  0  0  0  0  0  0999 V2000
    0.9680    1.5690    0.8820 C   0  0  0  0  0  0
    1.2850    1.6390   -0.6270 C   0  0  0  0  0  0
    0.1870    0.9590   -1.4590 C   0  0  0  0  0  0
   -0.0010   -0.4670   -0.9340 C   0  0  0  0  0  0
   -0.4250   -0.4050    0.5390 C   0  0  0  0  0  0
   -0.6960   -1.8220    1.0710 C   0  0  0  0  0  0
    2.2700    1.8460    1.6200 C   0  0  0  0  0  0
    1.5000    2.9960   -1.0330 O   0  0  0  0  0  0
    0.5030    0.9930   -2.8530 O   0  0  0  0  0  0
   -0.9560   -1.2040   -1.6840 O   0  0  0  0  0  0
    0.5690    0.2580    1.3300 O   0  0  0  0  0  0
    0.2540   -2.7500    0.5440 O   0  0  0  0  0  0
    0.0190    2.5830    1.2240 O   0  0  0  0  0  0
    2.0440    2.5650    2.8310 O   0  0  0  0  0  0
    3.2510    2.6280    3.8950 S   0  0  0  0  0  0
    4.2082    3.6883    3.6457 O   0  0  0  0  0  0
    3.8466    1.3060    3.9031 O   0  0  0  0  0  0
    2.4840    3.0030    5.4580 C   0  0  0  0  0  0
    2.2206    1.0870   -0.7996 H   0  0  0  0  0  0
   -0.7550    1.5082   -1.3141 H   0  0  0  0  0  0
    0.9643   -0.9899   -1.0031 H   0  0  0  0  0  0
   -1.3582    0.1735    0.6061 H   0  0  0  0  0  0
   -1.7080   -2.1325    0.7720 H   0  0  0  0  0  0
   -0.6237   -1.8155    2.1686 H   0  0  0  0  0  0
    2.9295    2.4398    0.9700 H   0  0  0  0  0  0
    2.7558    0.8884    1.8587 H   0  0  0  0  0  0
    2.1834    3.3821   -0.4979 H   0  0  0  0  0  0
    0.6098    1.8949   -3.1315 H   0  0  0  0  0  0
   -0.6862   -1.2376   -2.5943 H   0  0  0  0  0  0
    0.0705   -3.6181    0.8835 H   0  0  0  0  0  0
    0.3269    3.4244    0.9081 H   0  0  0  0  0  0
    3.2553    3.0622    6.2401 H   0  0  0  0  0  0
    1.7639    2.2113    5.7124 H   0  0  0  0  0  0
    1.9592    3.9671    5.3870 H   0  0  0  0  0  0
  1  2  1  0  0  0
  1  7  1  0  0  0
  1 11  1  0  0  0
  1 13  1  0  0  0
  2  3  1  0  0  0
  2  8  1  0  0  0
  2 19  1  0  0  0
  3  4  1  0  0  0
  3  9  1  0  0  0
  3 20  1  0  0  0
  4  5  1  0  0  0
  4 10  1  0  0  0
  4 21  1  0  0  0
  5  6  1  0  0  0
  5 11  1  0  0  0
  5 22  1  0  0  0
  6 12  1  0  0  0
  6 23  1  0  0  0
  6 24  1  0  0  0
  7 14  1  0  0  0
  7 25  1  0  0  0
  7 26  1  0  0  0
  8 27  1  0  0  0
  9 28  1  0  0  0
 10 29  1  0  0  0
 12 30  1  0  0  0
 13 31  1  0  0  0
 14 15  1  0  0  0
 15 16  2  0  0  0
 15 17  2  0  0  0
 15 18  1  0  0  0
 18 32  1  0  0  0
 18 33  1  0  0  0
 18 34  1  0  0  0
M  END
>  <ACTIVITY>
2.4

>  <SET>
1

>  <Min_dist>
999.9

>  <Avg_dist>
999.9

$$$$
14
  Cerius2 12110214173D 1   1.00000                          
Structure written by Cerius2 SD Exporter
 29 29  0  0  0  0  0  0  0  0999 V2000
    1.0220    1.2550    0.9150 C   0  0  0  0  0  0
    1.2310    1.5050   -0.6010 C   0  0  0  0  0  0
    0.1500    0.7880   -1.4330 C   0  0  0  0  0  0
    0.0860   -0.7020   -1.0210 C   0  0  0  0  0  0
   -0.0470   -0.8000    0.5000 C   0  0  0  0  0  0
   -0.2760   -2.2710    0.8780 C   0  0  0  0  0  0
   -0.3230    1.8290    1.4970 C   0  0  0  0  0  0
    1.3510    2.8810   -0.9580 O   0  0  0  0  0  0
    0.3700    0.9230   -2.8440 O   0  0  0  0  0  0
   -1.0090   -1.3670   -1.6210 O   0  0  0  0  0  0
    1.0900   -0.1770    1.1470 O   0  0  0  0  0  0
    0.6590   -3.0900    0.1710 O   0  0  0  0  0  0
   -0.5265    3.2718    1.3022 N   0  3  0  0  0  0
    1.8488    1.7410    1.4537 H   0  0  0  0  0  0
    2.1924    1.0378   -0.8606 H   0  0  0  0  0  0
   -0.8202    1.2513   -1.2006 H   0  0  0  0  0  0
    1.0167   -1.1959   -1.3371 H   0  0  0  0  0  0
   -0.9415   -0.2377    0.8060 H   0  0  0  0  0  0
   -1.3008   -2.5651    0.6072 H   0  0  0  0  0  0
   -0.1318   -2.3992    1.9609 H   0  0  0  0  0  0
   -0.3394    1.6264    2.5780 H   0  0  0  0  0  0
   -1.1565    1.2998    1.0120 H   0  0  0  0  0  0
    2.0244    3.2885   -0.4261 H   0  0  0  0  0  0
    0.4054    1.8445   -3.0722 H   0  0  0  0  0  0
   -0.9341   -1.3109   -2.5664 H   0  0  0  0  0  0
    0.5203   -4.0009    0.4024 H   0  0  0  0  0  0
   -1.4091    3.5441    1.7059 H   0  0  0  0  0  0
   -0.5294    3.4806    0.3161 H   0  0  0  0  0  0
    0.2194    3.7799    1.7511 H   0  0  0  0  0  0
  1  2  1  0  0  0
  1  7  1  0  0  0
  1 11  1  0  0  0
  1 14  1  0  0  0
  2  3  1  0  0  0
  2  8  1  0  0  0
  2 15  1  0  0  0
  3  4  1  0  0  0
  3  9  1  0  0  0
  3 16  1  0  0  0
  4  5  1  0  0  0
  4 10  1  0  0  0
  4 17  1  0  0  0
  5  6  1  0  0  0
  5 11  1  0  0  0
  5 18  1  0  0  0
  6 12  1  0  0  0
  6 19  1  0  0  0
  6 20  1  0  0  0
  7 13  1  0  0  0
  7 21  1  0  0  0
  7 22  1  0  0  0
  8 23  1  0  0  0
  9 24  1  0  0  0
 10 25  1  0  0  0
 12 26  1  0  0  0
 13 27  1  0  0  0
 13 28  1  0  0  0
 13 29  1  0  0  0
M  CHG  1  13   1
M  END
>  <ACTIVITY>
1.5

>  <SET>
1

>  <Min_dist>
999.9

>  <Avg_dist>
999.9

$$$$
15
  Cerius2 12110214173D 1   1.00000                          
Structure written by Cerius2 SD Exporter
 29 29  0  0  0  0  0  0  0  0999 V2000
    1.3630    1.1280    0.7610 C   0  0  0  0  0  0
    1.4720    1.3840   -0.7450 C   0  0  0  0  0  0
    0.2270    0.8510   -1.4540 C   0  0  0  0  0  0
   -0.0760   -0.5740   -0.9820 C   0  0  0  0  0  0
   -0.1380   -0.6000    0.5380 C   0  0  0  0  0  0
   -0.5620   -1.9650    1.0510 C   0  0  0  0  0  0
    1.6470    2.7740   -1.0100 O   0  0  0  0  0  0
    0.3660    0.9370   -2.8640 O   0  0  0  0  0  0
   -1.2860   -1.0620   -1.5020 O   0  0  0  0  0  0
    1.1120   -0.2310    1.0630 O   0  0  0  0  0  0
    0.2040   -2.9800    0.4360 O   0  0  0  0  0  0
    2.5830    1.5910    1.5120 C   0  0  0  0  0  0
    2.1400    2.5490    2.5610 N   0  3  0  0  0  0
    0.5059    1.7133    1.1255 H   0  0  0  0  0  0
    2.3507    0.8448   -1.1286 H   0  0  0  0  0  0
   -0.6242    1.4858   -1.1669 H   0  0  0  0  0  0
    0.7383   -1.2322   -1.3191 H   0  0  0  0  0  0
   -0.8858    0.1363    0.8678 H   0  0  0  0  0  0
   -1.6260   -2.1243    0.8218 H   0  0  0  0  0  0
   -0.4113   -2.0062    2.1398 H   0  0  0  0  0  0
    2.4242    3.0864   -0.5618 H   0  0  0  0  0  0
    0.5525    1.8356   -3.1096 H   0  0  0  0  0  0
   -1.2515   -1.0474   -2.4513 H   0  0  0  0  0  0
   -0.0709   -3.8276    0.7653 H   0  0  0  0  0  0
    3.2798    2.0890    0.8218 H   0  0  0  0  0  0
    3.0828    0.7299    1.9797 H   0  0  0  0  0  0
    2.9412    2.8742    3.0790 H   0  0  0  0  0  0
    1.4991    2.0882    3.1879 H   0  0  0  0  0  0
    1.6797    3.3336    2.1268 H   0  0  0  0  0  0
  1  2  1  0  0  0
  1 10  1  0  0  0
  1 12  1  0  0  0
  1 14  1  0  0  0
  2  3  1  0  0  0
  2  7  1  0  0  0
  2 15  1  0  0  0
  3  4  1  0  0  0
  3  8  1  0  0  0
  3 16  1  0  0  0
  4  5  1  0  0  0
  4  9  1  0  0  0
  4 17  1  0  0  0
  5  6  1  0  0  0
  5 10  1  0  0  0
  5 18  1  0  0  0
  6 11  1  0  0  0
  6 19  1  0  0  0
  6 20  1  0  0  0
  7 21  1  0  0  0
  8 22  1  0  0  0
  9 23  1  0  0  0
 11 24  1  0  0  0
 12 13  1  0  0  0
 12 25  1  0  0  0
 12 26  1  0  0  0
 13 27  1  0  0  0
 13 28  1  0  0  0
 13 29  1  0  0  0
M  CHG  1  13   1
M  END
>  <ACTIVITY>
1.8

>  <SET>
2

>  <Min_dist>
0

>  <Avg_dist>
0.39

$$$$
16
  Cerius2 12110214173D 1   1.00000                          
Structure written by Cerius2 SD Exporter
 32 32  0  0  0  0  0  0  0  0999 V2000
    1.5680    1.1760    0.8720 C   0  0  0  0  0  0
    1.5960    1.5450   -0.6680 C   0  0  0  0  0  0
    0.4310    0.9150   -1.4820 C   0  0  0  0  0  0
    0.2100   -0.5520   -1.0730 C   0  0  0  0  0  0
    0.0150   -0.6030    0.4400 C   0  0  0  0  0  0
   -0.4230   -2.0080    0.8860 C   0  0  0  0  0  0
    1.5730    2.9680   -0.8680 O   0  0  0  0  0  0
    0.6610    1.0310   -2.8840 O   0  0  0  0  0  0
   -0.9140   -1.1060   -1.7480 O   0  0  0  0  0  0
    1.2220   -0.2070    1.0900 O   0  0  0  0  0  0
    0.3700   -3.0080    0.2530 O   0  0  0  0  0  0
    2.8830    1.5390    1.6320 C   0  0  0  0  0  0
    2.7530    1.9910    3.1240 C   0  0  0  0  0  0
    4.1310    1.9620    3.8550 N   0  3  0  0  0  0
    0.7675    1.7822    1.3211 H   0  0  0  0  0  0
    2.5398    1.1560   -1.0778 H   0  0  0  0  0  0
   -0.4868    1.4731   -1.2449 H   0  0  0  0  0  0
    1.1020   -1.1375   -1.3404 H   0  0  0  0  0  0
   -0.7781    0.1079    0.7150 H   0  0  0  0  0  0
   -1.4784   -2.1598    0.6159 H   0  0  0  0  0  0
   -0.3077   -2.0928    1.9766 H   0  0  0  0  0  0
    2.2803    3.3684   -0.3761 H   0  0  0  0  0  0
    0.7939    1.9445   -3.1086 H   0  0  0  0  0  0
   -0.7720   -1.0643   -2.6864 H   0  0  0  0  0  0
    0.0848   -3.8673    0.5407 H   0  0  0  0  0  0
    3.3670    2.3584    1.0804 H   0  0  0  0  0  0
    3.5312    0.6505    1.6121 H   0  0  0  0  0  0
    2.0592    1.3134    3.6431 H   0  0  0  0  0  0
    2.3550    3.0161    3.1531 H   0  0  0  0  0  0
    4.0105    2.2581    4.8110 H   0  0  0  0  0  0
    4.7719    2.5847    3.3887 H   0  0  0  0  0  0
    4.5009    1.0245    3.8377 H   0  0  0  0  0  0
  1  2  1  0  0  0
  1 10  1  0  0  0
  1 12  1  0  0  0
  1 15  1  0  0  0
  2  3  1  0  0  0
  2  7  1  0  0  0
  2 16  1  0  0  0
  3  4  1  0  0  0
  3  8  1  0  0  0
  3 17  1  0  0  0
  4  5  1  0  0  0
  4  9  1  0  0  0
  4 18  1  0  0  0
  5  6  1  0  0  0
  5 10  1  0  0  0
  5 19  1  0  0  0
  6 11  1  0  0  0
  6 20  1  0  0  0
  6 21  1  0  0  0
  7 22  1  0  0  0
  8 23  1  0  0  0
  9 24  1  0  0  0
 11 25  1  0  0  0
 12 13  1  0  0  0
 12 26  1  0  0  0
 12 27  1  0  0  0
 13 14  1  0  0  0
 13 28  1  0  0  0
 13 29  1  0  0  0
 14 30  1  0  0  0
 14 31  1  0  0  0
 14 32  1  0  0  0
M  CHG  1  14   1
M  END
>  <ACTIVITY>
2.3

>  <SET>
1

>  <Min_dist>
999.9

>  <Avg_dist>
999.9

$$$$
17
  Cerius2 12110214173D 1   1.00000                          
Structure written by Cerius2 SD Exporter
 27 27  0  0  0  0  0  0  0  0999 V2000
    1.1990    1.2200    0.8910 C   0  0  0  0  0  0
    1.3500    1.5040   -0.6260 C   0  0  0  0  0  0
    0.2210    0.8370   -1.4400 C   0  0  0  0  0  0
    0.0440   -0.6280   -1.0020 C   0  0  0  0  0  0
   -0.1730   -0.6670    0.5130 C   0  0  0  0  0  0
    0.9870   -0.1710    1.1690 O   0  0  0  0  0  0
   -0.5080   -2.0860    0.9840 C   0  0  0  0  0  0
    0.3950   -3.0230    0.4120 O   0  0  0  0  0  0
    2.4440    1.6780    1.6520 C   0  0  0  0  0  0
    1.3840    2.9180   -0.8770 O   0  0  0  0  0  0
    0.4610    0.9590   -2.8470 O   0  0  0  0  0  0
   -1.0480   -1.2580   -1.6550 O   0  0  0  0  0  0
    2.0950    2.1490    2.9980 C   0  0  0  0  0  0
    1.8260    2.5440    4.0390 N   0  0  0  0  0  0
    0.3299    1.7854    1.2584 H   0  0  0  0  0  0
    2.3068    1.0745   -0.9576 H   0  0  0  0  0  0
   -0.7163    1.3677   -1.2169 H   0  0  0  0  0  0
    0.9624   -1.1808   -1.2488 H   0  0  0  0  0  0
   -1.0217   -0.0130    0.7617 H   0  0  0  0  0  0
   -1.5340   -2.3373    0.6770 H   0  0  0  0  0  0
   -0.4317   -2.1317    2.0804 H   0  0  0  0  0  0
    0.1761   -3.8974    0.7120 H   0  0  0  0  0  0
    2.9233    2.4980    1.0971 H   0  0  0  0  0  0
    3.1444    0.8341    1.7367 H   0  0  0  0  0  0
    2.0831    3.3130   -0.3694 H   0  0  0  0  0  0
    0.5638    1.8762   -3.0723 H   0  0  0  0  0  0
   -0.9120   -1.2331   -2.5949 H   0  0  0  0  0  0
  1  2  1  0  0  0
  1  6  1  0  0  0
  1  9  1  0  0  0
  1 15  1  0  0  0
  2  3  1  0  0  0
  2 10  1  0  0  0
  2 16  1  0  0  0
  3  4  1  0  0  0
  3 11  1  0  0  0
  3 17  1  0  0  0
  4  5  1  0  0  0
  4 12  1  0  0  0
  4 18  1  0  0  0
  5  6  1  0  0  0
  5  7  1  0  0  0
  5 19  1  0  0  0
  7  8  1  0  0  0
  7 20  1  0  0  0
  7 21  1  0  0  0
  8 22  1  0  0  0
  9 13  1  0  0  0
  9 23  1  0  0  0
  9 24  1  0  0  0
 10 25  1  0  0  0
 11 26  1  0  0  0
 12 27  1  0  0  0
 13 14  3  0  0  0
M  END
>  <ACTIVITY>
2

>  <SET>
2

>  <Min_dist>
0.12

>  <Avg_dist>
0.47

$$$$
18
  Cerius2 12110214173D 1   1.00000                          
Structure written by Cerius2 SD Exporter
 28 28  0  0  0  0  0  0  0  0999 V2000
    1.1780    1.4690    0.9120 C   0  0  0  0  0  0
    1.4090    1.6150   -0.6150 C   0  0  0  0  0  0
    0.2800    0.9580   -1.4290 C   0  0  0  0  0  0
    0.0750   -0.4770   -0.9380 C   0  0  0  0  0  0
   -0.2960   -0.4380    0.5480 C   0  0  0  0  0  0
   -0.6230   -1.8520    1.0520 C   0  0  0  0  0  0
    1.5570    2.9960   -0.9760 O   0  0  0  0  0  0
    0.5550    1.0140   -2.8320 O   0  0  0  0  0  0
   -0.9270   -1.1640   -1.6750 O   0  0  0  0  0  0
    0.7620    0.1460    1.3120 O   0  0  0  0  0  0
    0.2900   -2.8040    0.5050 O   0  0  0  0  0  0
    2.5160    1.6690    1.6360 C   0  0  0  0  0  0
    0.2520    2.4760    1.3380 O   0  0  0  0  0  0
    2.3230    2.1550    3.0130 C   0  0  0  0  0  0
    2.1660    2.5690    4.0690 N   0  0  0  0  0  0
    2.3469    1.0968   -0.8635 H   0  0  0  0  0  0
   -0.6490    1.5181   -1.2468 H   0  0  0  0  0  0
    1.0222   -1.0239   -1.0548 H   0  0  0  0  0  0
   -1.1931    0.1874    0.6663 H   0  0  0  0  0  0
   -1.6465   -2.1166    0.7479 H   0  0  0  0  0  0
   -0.5502   -1.8705    2.1494 H   0  0  0  0  0  0
    2.2571    3.3838   -0.4642 H   0  0  0  0  0  0
    0.6753    1.9188   -3.0952 H   0  0  0  0  0  0
   -0.6874   -1.1824   -2.5941 H   0  0  0  0  0  0
    0.0735   -3.6713    0.8266 H   0  0  0  0  0  0
    3.1161    2.4039    1.0795 H   0  0  0  0  0  0
    3.0507    0.7083    1.6688 H   0  0  0  0  0  0
    0.5604    3.3293    1.0564 H   0  0  0  0  0  0
  1  2  1  0  0  0
  1 10  1  0  0  0
  1 12  1  0  0  0
  1 13  1  0  0  0
  2  3  1  0  0  0
  2  7  1  0  0  0
  2 16  1  0  0  0
  3  4  1  0  0  0
  3  8  1  0  0  0
  3 17  1  0  0  0
  4  5  1  0  0  0
  4  9  1  0  0  0
  4 18  1  0  0  0
  5  6  1  0  0  0
  5 10  1  0  0  0
  5 19  1  0  0  0
  6 11  1  0  0  0
  6 20  1  0  0  0
  6 21  1  0  0  0
  7 22  1  0  0  0
  8 23  1  0  0  0
  9 24  1  0  0  0
 11 25  1  0  0  0
 12 14  1  0  0  0
 12 26  1  0  0  0
 12 27  1  0  0  0
 13 28  1  0  0  0
 14 15  3  0  0  0
M  END
>  <ACTIVITY>
2.1

>  <SET>
1

>  <Min_dist>
999.9

>  <Avg_dist>
999.9

$$$$
19
  Cerius2 12110214173D 1   1.00000                          
Structure written by Cerius2 SD Exporter
 45 46  0  0  0  0  0  0  0  0999 V2000
    1.2240   -0.1760    1.0910 O   0  0  0  0  0  0
   -0.0270   -0.5710    0.5320 C   0  0  0  0  0  0
    0.0820   -0.5440   -0.9940 C   0  0  0  0  0  0
    0.2640    0.9090   -1.4440 C   0  0  0  0  0  0
    1.4700    1.5550   -0.7300 C   0  0  0  0  0  0
    1.5850    1.1790    0.7750 C   0  0  0  0  0  0
   -1.0640   -1.1480   -1.5850 O   0  0  0  0  0  0
    0.4180    0.9970   -2.8640 O   0  0  0  0  0  0
    1.4780    2.9770   -0.9150 O   0  0  0  0  0  0
    1.0100    2.1500    1.6570 O   0  0  0  0  0  0
   -0.4410   -1.9640    1.0240 C   0  0  0  0  0  0
    0.3720   -2.9630    0.4160 O   0  0  0  0  0  0
    1.9750    2.8490    5.1380 O   0  0  0  0  0  0
    2.2990    2.7080    3.7340 C   0  0  0  0  0  0
    3.6890    2.0580    3.5500 C   0  0  0  0  0  0
    4.7380    2.8770    4.2990 C   0  0  0  0  0  0
    4.4000    2.7810    5.7860 C   0  0  0  0  0  0
    2.9790    3.3170    6.0750 C   0  0  0  0  0  0
    4.0530    1.9090    2.1840 O   0  0  0  0  0  0
    6.0480    2.3720    4.0430 O   0  0  0  0  0  0
    5.3960    3.4060    6.5970 O   0  0  0  0  0  0
    2.9660    4.7270    6.2000 O   0  0  0  0  0  0
    1.1910    1.8660    3.0540 C   0  0  0  0  0  0
   -0.7968    0.1496    0.8453 H   0  0  0  0  0  0
    0.9691   -1.1189   -1.2983 H   0  0  0  0  0  0
   -0.6409    1.4681   -1.1635 H   0  0  0  0  0  0
    2.3724    1.1610   -1.2203 H   0  0  0  0  0  0
    2.6642    1.2256    0.9827 H   0  0  0  0  0  0
   -0.9822   -1.1239   -2.5312 H   0  0  0  0  0  0
    0.5288    1.9066   -3.1147 H   0  0  0  0  0  0
    2.2280    3.3504   -0.4672 H   0  0  0  0  0  0
   -1.4941   -2.1437    0.7618 H   0  0  0  0  0  0
   -0.3214   -2.0138    2.1163 H   0  0  0  0  0  0
    0.1067   -3.8202    0.7279 H   0  0  0  0  0  0
    2.3198    3.7060    3.2718 H   0  0  0  0  0  0
    3.6525    1.0532    3.9962 H   0  0  0  0  0  0
    4.6901    3.9271    3.9749 H   0  0  0  0  0  0
    4.3992    1.7129    6.0489 H   0  0  0  0  0  0
    2.6930    2.9127    7.0572 H   0  0  0  0  0  0
    4.9117    1.5066    2.1272 H   0  0  0  0  0  0
    6.6862    2.8928    4.5163 H   0  0  0  0  0  0
    5.1541    3.3275    7.5123 H   0  0  0  0  0  0
    3.6341    4.9961    6.8194 H   0  0  0  0  0  0
    1.4523    0.8027    3.1590 H   0  0  0  0  0  0
    0.2409    2.0630    3.5722 H   0  0  0  0  0  0
  1  2  1  0  0  0
  1  6  1  0  0  0
  2  3  1  0  0  0
  2 11  1  0  0  0
  2 24  1  0  0  0
  3  4  1  0  0  0
  3  7  1  0  0  0
  3 25  1  0  0  0
  4  5  1  0  0  0
  4  8  1  0  0  0
  4 26  1  0  0  0
  5  6  1  0  0  0
  5  9  1  0  0  0
  5 27  1  0  0  0
  6 10  1  0  0  0
  6 28  1  0  0  0
  7 29  1  0  0  0
  8 30  1  0  0  0
  9 31  1  0  0  0
 10 23  1  0  0  0
 11 12  1  0  0  0
 11 32  1  0  0  0
 11 33  1  0  0  0
 12 34  1  0  0  0
 13 14  1  0  0  0
 13 18  1  0  0  0
 14 15  1  0  0  0
 14 23  1  0  0  0
 14 35  1  0  0  0
 15 16  1  0  0  0
 15 19  1  0  0  0
 15 36  1  0  0  0
 16 17  1  0  0  0
 16 20  1  0  0  0
 16 37  1  0  0  0
 17 18  1  0  0  0
 17 21  1  0  0  0
 17 38  1  0  0  0
 18 22  1  0  0  0
 18 39  1  0  0  0
 19 40  1  0  0  0
 20 41  1  0  0  0
 21 42  1  0  0  0
 22 43  1  0  0  0
 23 44  1  0  0  0
 23 45  1  0  0  0
M  END
>  <ACTIVITY>
1.8

>  <SET>
2

>  <Min_dist>
0.13

>  <Avg_dist>
0.46

$$$$
2
  Cerius2 12110214173D 1   1.00000                          
Structure written by Cerius2 SD Exporter
 26 26  0  0  0  0  0  0  0  0999 V2000
    1.1500    1.4030    0.9190 C   0  0  0  0  0  0
    1.3480    1.6400   -0.5990 C   0  0  0  0  0  0
    0.2610    0.9300   -1.4360 C   0  0  0  0  0  0
    0.1130   -0.5290   -0.9780 C   0  0  0  0  0  0
   -0.1330   -0.5590    0.5360 C   0  0  0  0  0  0
   -0.4570   -1.9780    1.0200 C   0  0  0  0  0  0
   -0.0140    2.2340    1.4910 C   0  0  0  0  0  0
    1.4190    3.0390   -0.9020 O   0  0  0  0  0  0
    0.5430    1.0200   -2.8360 O   0  0  0  0  0  0
   -0.9430   -1.1960   -1.6580 O   0  0  0  0  0  0
    0.9880    0.0060    1.2250 O   0  0  0  0  0  0
    0.4060   -2.9270    0.3990 O   0  0  0  0  0  0
    2.0684    1.7424    1.4204 H   0  0  0  0  0  0
    2.3151    1.1952   -0.8763 H   0  0  0  0  0  0
   -0.6962    1.4406   -1.2543 H   0  0  0  0  0  0
    1.0520   -1.0590   -1.1955 H   0  0  0  0  0  0
   -1.0094    0.0707    0.7491 H   0  0  0  0  0  0
   -1.5003   -2.2175    0.7665 H   0  0  0  0  0  0
   -0.3240   -2.0275    2.1108 H   0  0  0  0  0  0
    0.1361    3.2950    1.2424 H   0  0  0  0  0  0
   -0.0473    2.1147    2.5840 H   0  0  0  0  0  0
   -0.9620    1.8859    1.0551 H   0  0  0  0  0  0
    2.0952    3.4439   -0.3716 H   0  0  0  0  0  0
    0.6279    1.9332   -3.0838 H   0  0  0  0  0  0
   -0.7818   -1.1721   -2.5939 H   0  0  0  0  0  0
    0.1927   -3.7993    0.7089 H   0  0  0  0  0  0
  1  2  1  0  0  0
  1  7  1  0  0  0
  1 11  1  0  0  0
  1 13  1  0  0  0
  2  3  1  0  0  0
  2  8  1  0  0  0
  2 14  1  0  0  0
  3  4  1  0  0  0
  3  9  1  0  0  0
  3 15  1  0  0  0
  4  5  1  0  0  0
  4 10  1  0  0  0
  4 16  1  0  0  0
  5  6  1  0  0  0
  5 11  1  0  0  0
  5 17  1  0  0  0
  6 12  1  0  0  0
  6 18  1  0  0  0
  6 19  1  0  0  0
  7 20  1  0  0  0
  7 21  1  0  0  0
  7 22  1  0  0  0
  8 23  1  0  0  0
  9 24  1  0  0  0
 10 25  1  0  0  0
 12 26  1  0  0  0
M  END
>  <ACTIVITY>
1.3

>  <SET>
1

>  <Min_dist>
999.9

>  <Avg_dist>
999.9

$$$$
20
  Cerius2 12110214173D 1   1.00000                          
Structure written by Cerius2 SD Exporter
 27 27  0  0  0  0  0  0  0  0999 V2000
    1.0630    1.3530    1.0020 C   0  0  0  0  0  0
    1.2220    1.6480   -0.5230 C   0  0  0  0  0  0
    0.1820    0.9020   -1.3910 C   0  0  0  0  0  0
    0.0650   -0.5640   -0.9460 C   0  0  0  0  0  0
   -0.1680   -0.6170    0.5700 C   0  0  0  0  0  0
   -0.4730   -2.0470    1.0350 C   0  0  0  0  0  0
   -0.0590    2.1060    1.6970 C   0  0  0  0  0  0
    1.2510    3.0510   -0.8170 O   0  0  0  0  0  0
    0.5010    1.0050   -2.7850 O   0  0  0  0  0  0
   -0.9830   -1.2420   -1.6290 O   0  0  0  0  0  0
    0.9570   -0.0570    1.2550 O   0  0  0  0  0  0
    0.4070   -2.9720    0.4030 O   0  0  0  0  0  0
   -0.2810    1.9680    2.8980 O   0  0  0  0  0  0
   -0.8300    2.9930    0.9590 N   0  0  0  0  0  0
    1.9965    1.6929    1.4742 H   0  0  0  0  0  0
    2.2067    1.2508   -0.8103 H   0  0  0  0  0  0
   -0.7958    1.3811   -1.2350 H   0  0  0  0  0  0
    1.0122   -1.0738   -1.1760 H   0  0  0  0  0  0
   -1.0468    0.0027    0.8015 H   0  0  0  0  0  0
   -1.5117   -2.2991    0.7750 H   0  0  0  0  0  0
   -0.3424   -2.1094    2.1254 H   0  0  0  0  0  0
    1.8987    3.4764   -0.2674 H   0  0  0  0  0  0
    0.5661    1.9211   -3.0281 H   0  0  0  0  0  0
   -0.8281   -1.2026   -2.5655 H   0  0  0  0  0  0
    0.2074   -3.8522    0.6995 H   0  0  0  0  0  0
   -1.5725    3.4970    1.4002 H   0  0  0  0  0  0
   -0.6431    3.1282   -0.0140 H   0  0  0  0  0  0
  1  2  1  0  0  0
  1  7  1  0  0  0
  1 11  1  0  0  0
  1 15  1  0  0  0
  2  3  1  0  0  0
  2  8  1  0  0  0
  2 16  1  0  0  0
  3  4  1  0  0  0
  3  9  1  0  0  0
  3 17  1  0  0  0
  4  5  1  0  0  0
  4 10  1  0  0  0
  4 18  1  0  0  0
  5  6  1  0  0  0
  5 11  1  0  0  0
  5 19  1  0  0  0
  6 12  1  0  0  0
  6 20  1  0  0  0
  6 21  1  0  0  0
  7 13  2  0  0  0
  7 14  1  0  0  0
  8 22  1  0  0  0
  9 23  1  0  0  0
 10 24  1  0  0  0
 12 25  1  0  0  0
 14 26  1  0  0  0
 14 27  1  0  0  0
M  END
>  <ACTIVITY>
3.4

>  <SET>
1

>  <Min_dist>
999.9

>  <Avg_dist>
999.9

$$$$
21
  Cerius2 12110214173D 1   1.00000                          
Structure written by Cerius2 SD Exporter
 24 24  0  0  0  0  0  0  0  0999 V2000
    1.3450    1.5010    0.9620 C   0  0  0  0  0  0
    1.4440    1.6410   -0.5690 C   0  0  0  0  0  0
    0.3030    0.9450   -1.3320 C   0  0  0  0  0  0
    0.2020   -0.5470   -1.0000 C   0  0  0  0  0  0
   -0.1390   -0.7560    0.4680 C   0  0  0  0  0  0
   -0.5170   -2.2170    0.7390 C   0  0  0  0  0  0
    1.4910    3.0230   -0.9010 O   0  0  0  0  0  0
    0.4160    1.1500   -2.7380 O   0  0  0  0  0  0
   -0.7620   -1.1840   -1.8190 O   0  0  0  0  0  0
    1.2310   -0.2220    1.5150 S   0  0  0  0  0  0
    0.3830   -3.1060    0.1030 O   0  0  0  0  0  0
    0.2940    2.3040    1.4850 O   0  0  0  0  0  0
    2.2839    1.8983    1.3751 H   0  0  0  0  0  0
    2.3873    1.1740   -0.8883 H   0  0  0  0  0  0
   -0.6370    1.4143   -1.0063 H   0  0  0  0  0  0
    1.1811   -1.0084   -1.1962 H   0  0  0  0  0  0
   -1.0123   -0.1316    0.7077 H   0  0  0  0  0  0
   -1.5324   -2.4013    0.3582 H   0  0  0  0  0  0
   -0.4937   -2.3982    1.8237 H   0  0  0  0  0  0
    2.1989    3.4395   -0.4235 H   0  0  0  0  0  0
    0.4771    2.0807   -2.9184 H   0  0  0  0  0  0
   -0.5407   -1.0480   -2.7328 H   0  0  0  0  0  0
    0.1262   -4.0019    0.2869 H   0  0  0  0  0  0
    0.3910    3.1957    1.1719 H   0  0  0  0  0  0
  1  2  1  0  0  0
  1 10  1  0  0  0
  1 12  1  0  0  0
  1 13  1  0  0  0
  2  3  1  0  0  0
  2  7  1  0  0  0
  2 14  1  0  0  0
  3  4  1  0  0  0
  3  8  1  0  0  0
  3 15  1  0  0  0
  4  5  1  0  0  0
  4  9  1  0  0  0
  4 16  1  0  0  0
  5  6  1  0  0  0
  5 10  1  0  0  0
  5 17  1  0  0  0
  6 11  1  0  0  0
  6 18  1  0  0  0
  6 19  1  0  0  0
  7 20  1  0  0  0
  8 21  1  0  0  0
  9 22  1  0  0  0
 11 23  1  0  0  0
 12 24  1  0  0  0
M  END
>  <ACTIVITY>
2.7

>  <SET>
1

>  <Min_dist>
999.9

>  <Avg_dist>
999.9

$$$$
22
  Cerius2 12110214173D 1   1.00000                          
Structure written by Cerius2 SD Exporter
 24 24  0  0  0  0  0  0  0  0999 V2000
    1.1820    1.2480    0.8740 C   0  0  0  0  0  0
    1.3310    1.5380   -0.6390 C   0  0  0  0  0  0
    0.2070    0.8610   -1.4510 C   0  0  0  0  0  0
    0.0410   -0.6040   -1.0100 C   0  0  0  0  0  0
   -0.1550   -0.6500    0.5080 C   0  0  0  0  0  0
   -0.4850   -2.0710    0.9800 C   0  0  0  0  0  0
    2.6250    1.8500    1.7840 S   0  0  0  0  0  0
    1.3550    2.9520   -0.8820 O   0  0  0  0  0  0
    0.4520    0.9730   -2.8560 O   0  0  0  0  0  0
   -1.0520   -1.2410   -1.6540 O   0  0  0  0  0  0
    1.0130   -0.1480    1.1450 O   0  0  0  0  0  0
    0.4110   -3.0070    0.3920 O   0  0  0  0  0  0
    0.2904    1.7811    1.2357 H   0  0  0  0  0  0
    2.2911    1.1177   -0.9729 H   0  0  0  0  0  0
   -0.7343    1.3868   -1.2332 H   0  0  0  0  0  0
    0.9599   -1.1508   -1.2680 H   0  0  0  0  0  0
   -1.0016    0.0014    0.7706 H   0  0  0  0  0  0
   -1.5151   -2.3210    0.6862 H   0  0  0  0  0  0
   -0.3938   -2.1200    2.0751 H   0  0  0  0  0  0
    2.7525    2.8328    1.5996 H   0  0  0  0  0  0
    2.0526    3.3488   -0.3737 H   0  0  0  0  0  0
    0.5485    1.8890   -3.0886 H   0  0  0  0  0  0
   -0.9266   -1.2103   -2.5952 H   0  0  0  0  0  0
    0.1962   -3.8824    0.6920 H   0  0  0  0  0  0
  1  2  1  0  0  0
  1  7  1  0  0  0
  1 11  1  0  0  0
  1 13  1  0  0  0
  2  3  1  0  0  0
  2  8  1  0  0  0
  2 14  1  0  0  0
  3  4  1  0  0  0
  3  9  1  0  0  0
  3 15  1  0  0  0
  4  5  1  0  0  0
  4 10  1  0  0  0
  4 16  1  0  0  0
  5  6  1  0  0  0
  5 11  1  0  0  0
  5 17  1  0  0  0
  6 12  1  0  0  0
  6 18  1  0  0  0
  6 19  1  0  0  0
  7 20  1  0  0  0
  8 21  1  0  0  0
  9 22  1  0  0  0
 10 23  1  0  0  0
 12 24  1  0  0  0
M  END
>  <ACTIVITY>
3

>  <SET>
2

>  <Min_dist>
0.09

>  <Avg_dist>
0.42

$$$$
23
  Cerius2 12110214173D 1   1.00000                          
Structure written by Cerius2 SD Exporter
 38 39  0  0  0  0  0  0  0  0999 V2000
    1.6384    0.9011    0.5632 C   0  0  0  0  0  0
    1.3854    1.3491   -0.8978 C   0  0  0  0  0  0
    0.1134    0.7401   -1.5178 C   0  0  0  0  0  0
   -0.0886   -0.7189   -1.0758 C   0  0  0  0  0  0
    0.0184   -0.7769    0.4462 C   0  0  0  0  0  0
   -0.4316   -2.1229    1.0082 C   0  0  0  0  0  0
    1.6270    2.1330    2.6030 C   0  0  0  0  0  0
    1.3774    2.7811   -1.0008 O   0  0  0  0  0  0
    0.1474    0.8641   -2.9418 O   0  0  0  0  0  0
   -1.3246   -1.2629   -1.5228 O   0  0  0  0  0  0
    1.3604   -0.4759    0.8042 O   0  0  0  0  0  0
    0.3514   -3.1579    0.4432 O   0  0  0  0  0  0
    0.8980    2.8380    3.5320 C   0  0  0  0  0  0
    1.5290    3.4440    4.6070 C   0  0  0  0  0  0
    2.9040    3.2770    4.7700 C   0  0  0  0  0  0
    3.6250    2.4930    3.8640 C   0  0  0  0  0  0
    2.9870    1.9110    2.7730 C   0  0  0  0  0  0
   -0.6024    2.8266    3.2597 C   0  0  0  0  0  0
   -1.2724    2.9236    4.4997 O   0  0  0  0  0  0
    0.9031    1.6905    1.5019 O   0  0  0  0  0  0
    2.7091    1.0581    0.7605 H   0  0  0  0  0  0
    2.2346    0.9837   -1.4938 H   0  0  0  0  0  0
   -0.7481    1.3181   -1.1520 H   0  0  0  0  0  0
    0.7205   -1.3258   -1.5082 H   0  0  0  0  0  0
   -0.6378   -0.0024    0.8701 H   0  0  0  0  0  0
   -1.4906   -2.2878    0.7603 H   0  0  0  0  0  0
   -0.3064   -2.1239    2.1011 H   0  0  0  0  0  0
    2.1705    3.1310   -0.6121 H   0  0  0  0  0  0
    0.2731    1.7758   -3.1773 H   0  0  0  0  0  0
   -1.3671   -1.2155   -2.4706 H   0  0  0  0  0  0
    0.0703   -3.9949    0.7938 H   0  0  0  0  0  0
    0.9610    4.0401    5.3121 H   0  0  0  0  0  0
    3.4137    3.7548    5.5988 H   0  0  0  0  0  0
    4.6875    2.3377    4.0125 H   0  0  0  0  0  0
    3.5399    1.2975    2.0709 H   0  0  0  0  0  0
   -0.8833    1.8899    2.7561 H   0  0  0  0  0  0
   -0.8725    3.6811    2.6218 H   0  0  0  0  0  0
   -2.2111    2.9183    4.3536 H   0  0  0  0  0  0
  1  2  1  0  0  0
  1 11  1  0  0  0
  1 20  1  0  0  0
  1 21  1  0  0  0
  2  3  1  0  0  0
  2  8  1  0  0  0
  2 22  1  0  0  0
  3  4  1  0  0  0
  3  9  1  0  0  0
  3 23  1  0  0  0
  4  5  1  0  0  0
  4 10  1  0  0  0
  4 24  1  0  0  0
  5  6  1  0  0  0
  5 11  1  0  0  0
  5 25  1  0  0  0
  6 12  1  0  0  0
  6 26  1  0  0  0
  6 27  1  0  0  0
  7 13  1  0  0  0
  7 17  2  0  0  0
  7 20  1  0  0  0
  8 28  1  0  0  0
  9 29  1  0  0  0
 10 30  1  0  0  0
 12 31  1  0  0  0
 13 14  2  0  0  0
 13 18  1  0  0  0
 14 15  1  0  0  0
 14 32  1  0  0  0
 15 16  2  0  0  0
 15 33  1  0  0  0
 16 17  1  0  0  0
 16 34  1  0  0  0
 17 35  1  0  0  0
 18 19  1  0  0  0
 18 36  1  0  0  0
 18 37  1  0  0  0
 19 38  1  0  0  0
M  END
>  <ACTIVITY>
2.1

>  <SET>
2

>  <Min_dist>
0.27

>  <Avg_dist>
0.53

$$$$
24
  Cerius2 12110214173D 1   1.00000                          
Structure written by Cerius2 SD Exporter
 38 40  0  0  0  0  0  0  0  0999 V2000
    1.4145    1.1019    0.8430 C   0  0  0  0  0  0
    0.4800    1.7870    1.6810 O   0  0  0  0  0  0
    1.3295    1.5439   -0.6460 C   0  0  0  0  0  0
    0.1975    0.8419   -1.4340 C   0  0  0  0  0  0
    0.0795   -0.6391   -1.0390 C   0  0  0  0  0  0
    0.0215   -0.7351    0.4850 C   0  0  0  0  0  0
   -0.3635   -2.1431    0.9500 C   0  0  0  0  0  0
    0.3384    2.7971    3.8655 C   0  0  0  0  0  0
    1.2235    2.9709   -0.7550 O   0  0  0  0  0  0
    0.4035    0.9829   -2.8440 O   0  0  0  0  0  0
   -1.0695   -1.2511   -1.6130 O   0  0  0  0  0  0
    1.2735   -0.3111    1.0170 O   0  0  0  0  0  0
    0.4775   -3.1111    0.3360 O   0  0  0  0  0  0
    0.9984    2.2151    2.8285 C   0  0  0  0  0  0
    1.3444    3.1751    4.8145 C   0  0  0  0  0  0
    1.2704    3.8231    6.0635 C   0  0  0  0  0  0
    2.5934    2.8021    4.3125 C   0  0  0  0  0  0
    2.4044    2.1411    3.0635 N   0  0  0  0  0  0
    2.4494    4.0801    6.7455 C   0  0  0  0  0  0
    3.7954    3.0661    4.9855 C   0  0  0  0  0  0
    3.7034    3.7101    6.2115 C   0  0  0  0  0  0
    2.4220    1.3722    1.1922 H   0  0  0  0  0  0
    2.2774    1.2492   -1.1199 H   0  0  0  0  0  0
   -0.7511    1.3363   -1.1779 H   0  0  0  0  0  0
    0.9723   -1.1718   -1.3982 H   0  0  0  0  0  0
   -0.7547   -0.0436    0.8446 H   0  0  0  0  0  0
   -1.4093   -2.3434    0.6741 H   0  0  0  0  0  0
   -0.2537   -2.2074    2.0426 H   0  0  0  0  0  0
   -0.7365    2.9459    3.9566 H   0  0  0  0  0  0
    1.9273    3.3791   -0.2644 H   0  0  0  0  0  0
    0.4732    1.9047   -3.0632 H   0  0  0  0  0  0
   -1.0234   -1.1859   -2.5596 H   0  0  0  0  0  0
    0.2295   -3.9791    0.6317 H   0  0  0  0  0  0
    0.3134    4.1140    6.4814 H   0  0  0  0  0  0
    3.1217    1.7074    2.4649 H   0  0  0  0  0  0
    2.4081    4.5755    7.7089 H   0  0  0  0  0  0
    4.7534    2.7800    4.5668 H   0  0  0  0  0  0
    4.6072    3.9324    6.7673 H   0  0  0  0  0  0
  1  2  1  0  0  0
  1  3  1  0  0  0
  1 12  1  0  0  0
  1 22  1  0  0  0
  2 14  1  0  0  0
  3  4  1  0  0  0
  3  9  1  0  0  0
  3 23  1  0  0  0
  4  5  1  0  0  0
  4 10  1  0  0  0
  4 24  1  0  0  0
  5  6  1  0  0  0
  5 11  1  0  0  0
  5 25  1  0  0  0
  6  7  1  0  0  0
  6 12  1  0  0  0
  6 26  1  0  0  0
  7 13  1  0  0  0
  7 27  1  0  0  0
  7 28  1  0  0  0
  8 14  2  0  0  0
  8 15  1  0  0  0
  8 29  1  0  0  0
  9 30  1  0  0  0
 10 31  1  0  0  0
 11 32  1  0  0  0
 13 33  1  0  0  0
 14 18  1  0  0  0
 15 16  2  0  0  0
 15 17  1  0  0  0
 16 19  1  0  0  0
 16 34  1  0  0  0
 17 18  1  0  0  0
 17 20  2  0  0  0
 18 35  1  0  0  0
 19 21  2  0  0  0
 19 36  1  0  0  0
 20 21  1  0  0  0
 20 37  1  0  0  0
 21 38  1  0  0  0
M  END
>  <ACTIVITY>
2.6

>  <SET>
1

>  <Min_dist>
999.9

>  <Avg_dist>
999.9

$$$$
25
  Cerius2 12110214173D 1   1.00000                          
Structure written by Cerius2 SD Exporter
 29 29  0  0  0  0  0  0  0  0999 V2000
    0.9650    1.3240    1.0440 C   0  0  0  0  0  0
    1.1540    1.6000   -0.4770 C   0  0  0  0  0  0
    0.0930    0.8920   -1.3460 C   0  0  0  0  0  0
   -0.0510   -0.5690   -0.8930 C   0  0  0  0  0  0
   -0.3370   -0.6240    0.6160 C   0  0  0  0  0  0
   -0.6060   -2.0680    1.0580 C   0  0  0  0  0  0
   -0.0190    2.2330    1.7550 C   0  0  0  0  0  0
    1.2630    2.9980   -0.7810 O   0  0  0  0  0  0
    0.4290    0.9790   -2.7380 O   0  0  0  0  0  0
   -1.0660   -1.2570   -1.6120 O   0  0  0  0  0  0
    0.7580   -0.0630    1.3440 O   0  0  0  0  0  0
    0.3410   -2.9500    0.4610 O   0  0  0  0  0  0
   -0.8060    3.1070    0.9770 N   0  0  0  0  0  0
   -0.0920    2.2800    2.9850 O   0  0  0  0  0  0
   -1.4570    4.3470    1.4430 N   0  0  0  0  0  0
    1.9397    1.5693    1.4909 H   0  0  0  0  0  0
    2.1210    1.1521   -0.7494 H   0  0  0  0  0  0
   -0.8726    1.3972   -1.1962 H   0  0  0  0  0  0
    0.9044   -1.0797   -1.0837 H   0  0  0  0  0  0
   -1.2359   -0.0250    0.8235 H   0  0  0  0  0  0
   -1.6202   -2.3600    0.7479 H   0  0  0  0  0  0
   -0.5240   -2.1341    2.1529 H   0  0  0  0  0  0
    1.9247    3.3923   -0.2250 H   0  0  0  0  0  0
    0.5109    1.8920   -2.9875 H   0  0  0  0  0  0
   -0.8782   -1.2160   -2.5423 H   0  0  0  0  0  0
    0.1650   -3.8404    0.7415 H   0  0  0  0  0  0
   -0.9357    2.8629    0.0160 H   0  0  0  0  0  0
   -2.0127    4.9146    0.7874 H   0  0  0  0  0  0
   -1.3556    4.6447    2.4238 H   0  0  0  0  0  0
  1  2  1  0  0  0
  1  7  1  0  0  0
  1 11  1  0  0  0
  1 16  1  0  0  0
  2  3  1  0  0  0
  2  8  1  0  0  0
  2 17  1  0  0  0
  3  4  1  0  0  0
  3  9  1  0  0  0
  3 18  1  0  0  0
  4  5  1  0  0  0
  4 10  1  0  0  0
  4 19  1  0  0  0
  5  6  1  0  0  0
  5 11  1  0  0  0
  5 20  1  0  0  0
  6 12  1  0  0  0
  6 21  1  0  0  0
  6 22  1  0  0  0
  7 13  1  0  0  0
  7 14  2  0  0  0
  8 23  1  0  0  0
  9 24  1  0  0  0
 10 25  1  0  0  0
 12 26  1  0  0  0
 13 15  1  0  0  0
 13 27  1  0  0  0
 15 28  1  0  0  0
 15 29  1  0  0  0
M  END
>  <ACTIVITY>
2.5

>  <SET>
1

>  <Min_dist>
999.9

>  <Avg_dist>
999.9

$$$$
26
  Cerius2 12110214173D 1   1.00000                          
Structure written by Cerius2 SD Exporter
 31 31  0  0  0  0  0  0  0  0999 V2000
    1.0780    1.2440    0.9450 C   0  0  0  0  0  0
    1.2090    1.5570   -0.5650 C   0  0  0  0  0  0
    0.1320    0.8360   -1.4070 C   0  0  0  0  0  0
    0.0020   -0.6340   -0.9690 C   0  0  0  0  0  0
   -0.2280   -0.6800    0.5470 C   0  0  0  0  0  0
   -0.5310   -2.1090    1.0190 C   0  0  0  0  0  0
    1.1690    2.9710   -0.7850 O   0  0  0  0  0  0
    0.4100    0.9550   -2.8080 O   0  0  0  0  0  0
   -1.0610   -1.2990   -1.6360 O   0  0  0  0  0  0
    0.9160   -0.1520    1.2050 O   0  0  0  0  0  0
    0.3850   -3.0260    0.4280 O   0  0  0  0  0  0
    2.5460    1.8190    1.8350 S   0  0  0  0  0  0
    1.7690    2.1800    3.4340 C   0  0  0  0  0  0
    2.7540    2.8540    4.3510 C   0  0  0  0  0  0
    3.9720    2.8260    4.1700 O   0  0  0  0  0  0
    2.2210    3.5170    5.4520 N   0  0  0  0  0  0
    0.1952    1.7758    1.3294 H   0  0  0  0  0  0
    2.1911    1.1902   -0.8982 H   0  0  0  0  0  0
   -0.8327    1.3289   -1.2161 H   0  0  0  0  0  0
    0.9412   -1.1552   -1.2062 H   0  0  0  0  0  0
   -1.0949   -0.0478    0.7897 H   0  0  0  0  0  0
   -1.5561   -2.3791    0.7254 H   0  0  0  0  0  0
   -0.4383   -2.1575    2.1140 H   0  0  0  0  0  0
    1.8381    3.3924   -0.2585 H   0  0  0  0  0  0
    0.4830    1.8735   -3.0394 H   0  0  0  0  0  0
   -0.9147   -1.2682   -2.5742 H   0  0  0  0  0  0
    0.1888   -3.9063    0.7265 H   0  0  0  0  0  0
    1.4296    1.2399    3.8934 H   0  0  0  0  0  0
    0.9061    2.8438    3.2769 H   0  0  0  0  0  0
    2.8270    3.9833    6.0964 H   0  0  0  0  0  0
    1.2319    3.5272    5.5989 H   0  0  0  0  0  0
  1  2  1  0  0  0
  1 10  1  0  0  0
  1 12  1  0  0  0
  1 17  1  0  0  0
  2  3  1  0  0  0
  2  7  1  0  0  0
  2 18  1  0  0  0
  3  4  1  0  0  0
  3  8  1  0  0  0
  3 19  1  0  0  0
  4  5  1  0  0  0
  4  9  1  0  0  0
  4 20  1  0  0  0
  5  6  1  0  0  0
  5 10  1  0  0  0
  5 21  1  0  0  0
  6 11  1  0  0  0
  6 22  1  0  0  0
  6 23  1  0  0  0
  7 24  1  0  0  0
  8 25  1  0  0  0
  9 26  1  0  0  0
 11 27  1  0  0  0
 12 13  1  0  0  0
 13 14  1  0  0  0
 13 28  1  0  0  0
 13 29  1  0  0  0
 14 15  2  0  0  0
 14 16  1  0  0  0
 16 30  1  0  0  0
 16 31  1  0  0  0
M  END
>  <ACTIVITY>
1.7

>  <SET>
1

>  <Min_dist>
999.9

>  <Avg_dist>
999.9

$$$$
27
  Cerius2 12110214173D 1   1.00000                          
Structure written by Cerius2 SD Exporter
 27 27  0  0  0  0  0  0  0  0999 V2000
    0.5370    1.3210    1.1190 C   0  0  0  0  0  0
    1.0060    1.5810   -0.3400 C   0  0  0  0  0  0
    0.0770    0.8460   -1.3310 C   0  0  0  0  0  0
   -0.0690   -0.6270   -0.9060 C   0  0  0  0  0  0
   -0.5200   -0.7090    0.5580 C   0  0  0  0  0  0
   -0.7220   -2.1670    0.9830 C   0  0  0  0  0  0
    1.1170    2.5950    3.0690 O   0  0  0  0  0  0
    1.0710    2.9830   -0.6440 O   0  0  0  0  0  0
    0.5340    0.9770   -2.6860 O   0  0  0  0  0  0
   -0.9900   -1.3320   -1.7180 O   0  0  0  0  0  0
    0.4410   -0.0780    1.3890 O   0  0  0  0  0  0
    0.3270   -2.9810    0.4680 O   0  0  0  0  0  0
    1.4830    1.8830    2.1340 C   0  0  0  0  0  0
    2.8100    1.4990    2.0180 N   0  0  0  0  0  0
   -0.4507    1.7870    1.2502 H   0  0  0  0  0  0
    2.0193    1.1671   -0.4487 H   0  0  0  0  0  0
   -0.9171    1.3132   -1.2727 H   0  0  0  0  0  0
    0.9148   -1.1099   -1.0005 H   0  0  0  0  0  0
   -1.4785   -0.1793    0.6614 H   0  0  0  0  0  0
   -1.6857   -2.5282    0.5947 H   0  0  0  0  0  0
   -0.7231   -2.2282    2.0813 H   0  0  0  0  0  0
    1.6464    3.4151   -0.0238 H   0  0  0  0  0  0
    0.6102    1.8978   -2.9069 H   0  0  0  0  0  0
   -0.7138   -1.2833   -2.6257 H   0  0  0  0  0  0
    0.1906   -3.8816    0.7380 H   0  0  0  0  0  0
    3.0982    0.9204    1.2550 H   0  0  0  0  0  0
    3.4790    1.8006    2.6973 H   0  0  0  0  0  0
  1  2  1  0  0  0
  1 11  1  0  0  0
  1 13  1  0  0  0
  1 15  1  0  0  0
  2  3  1  0  0  0
  2  8  1  0  0  0
  2 16  1  0  0  0
  3  4  1  0  0  0
  3  9  1  0  0  0
  3 17  1  0  0  0
  4  5  1  0  0  0
  4 10  1  0  0  0
  4 18  1  0  0  0
  5  6  1  0  0  0
  5 11  1  0  0  0
  5 19  1  0  0  0
  6 12  1  0  0  0
  6 20  1  0  0  0
  6 21  1  0  0  0
  7 13  2  0  0  0
  8 22  1  0  0  0
  9 23  1  0  0  0
 10 24  1  0  0  0
 12 25  1  0  0  0
 13 14  1  0  0  0
 14 26  1  0  0  0
 14 27  1  0  0  0
M  END
>  <ACTIVITY>
3.4

>  <SET>
1

>  <Min_dist>
999.9

>  <Avg_dist>
999.9

$$$$
28
  Cerius2 12110214173D 1   1.00000                          
Structure written by Cerius2 SD Exporter
 37 38  0  0  0  0  0  0  0  0999 V2000
    1.1620    1.4080    0.8620 C   0  0  0  0  0  0
    1.3190    1.6870   -0.6480 C   0  0  0  0  0  0
    0.2580    0.9370   -1.4890 C   0  0  0  0  0  0
    0.1640   -0.5350   -1.0540 C   0  0  0  0  0  0
   -0.0180   -0.5880    0.4630 C   0  0  0  0  0  0
   -0.3540   -1.9990    0.9600 C   0  0  0  0  0  0
   -0.0620    2.0610    1.4640 C   0  0  0  0  0  0
    1.3210    3.0930   -0.9050 O   0  0  0  0  0  0
    0.5360    1.0460   -2.8860 O   0  0  0  0  0  0
   -0.9140   -1.2060   -1.6900 O   0  0  0  0  0  0
    1.1190   -0.0080    1.1150 O   0  0  0  0  0  0
    0.4780   -2.9650    0.3300 O   0  0  0  0  0  0
   -0.7280    3.2070    0.9400 N   0  0  0  0  0  0
   -0.4890    1.6230    2.5230 O   0  0  0  0  0  0
   -2.1370    3.3472    0.9361 C   0  0  0  0  0  0
   -2.7260    4.5302    1.3961 C   0  0  0  0  0  0
   -4.1010    4.7082    1.2691 C   0  0  0  0  0  0
   -4.8790    3.7202    0.6651 C   0  0  0  0  0  0
   -4.2840    2.5532    0.1821 C   0  0  0  0  0  0
   -2.9100    2.3642    0.3101 C   0  0  0  0  0  0
    2.0464    1.8220    1.3684 H   0  0  0  0  0  0
    2.3025    1.2990   -0.9517 H   0  0  0  0  0  0
   -0.7180    1.4085   -1.3020 H   0  0  0  0  0  0
    1.1011   -1.0440   -1.3235 H   0  0  0  0  0  0
   -0.8845    0.0437    0.7082 H   0  0  0  0  0  0
   -1.4059   -2.2225    0.7286 H   0  0  0  0  0  0
   -0.2003   -2.0447    2.0482 H   0  0  0  0  0  0
    1.9847    3.5118   -0.3696 H   0  0  0  0  0  0
    0.5887    1.9632   -3.1277 H   0  0  0  0  0  0
   -0.7972   -1.1708   -2.6321 H   0  0  0  0  0  0
    0.2555   -3.8314    0.6499 H   0  0  0  0  0  0
   -0.1743    3.9466    0.5572 H   0  0  0  0  0  0
   -2.1155    5.3033    1.8485 H   0  0  0  0  0  0
   -4.5669    5.6142    1.6394 H   0  0  0  0  0  0
   -5.9499    3.8592    0.5704 H   0  0  0  0  0  0
   -4.8926    1.7927   -0.2935 H   0  0  0  0  0  0
   -2.4440    1.4632   -0.0721 H   0  0  0  0  0  0
  1  2  1  0  0  0
  1  7  1  0  0  0
  1 11  1  0  0  0
  1 21  1  0  0  0
  2  3  1  0  0  0
  2  8  1  0  0  0
  2 22  1  0  0  0
  3  4  1  0  0  0
  3  9  1  0  0  0
  3 23  1  0  0  0
  4  5  1  0  0  0
  4 10  1  0  0  0
  4 24  1  0  0  0
  5  6  1  0  0  0
  5 11  1  0  0  0
  5 25  1  0  0  0
  6 12  1  0  0  0
  6 26  1  0  0  0
  6 27  1  0  0  0
  7 13  1  0  0  0
  7 14  2  0  0  0
  8 28  1  0  0  0
  9 29  1  0  0  0
 10 30  1  0  0  0
 12 31  1  0  0  0
 13 15  1  0  0  0
 13 32  1  0  0  0
 15 16  1  0  0  0
 15 20  2  0  0  0
 16 17  2  0  0  0
 16 33  1  0  0  0
 17 18  1  0  0  0
 17 34  1  0  0  0
 18 19  2  0  0  0
 18 35  1  0  0  0
 19 20  1  0  0  0
 19 36  1  0  0  0
 20 37  1  0  0  0
M  END
>  <ACTIVITY>
1.9

>  <SET>
1

>  <Min_dist>
999.9

>  <Avg_dist>
999.9

$$$$
29
  Cerius2 12110214173D 1   1.00000                          
Structure written by Cerius2 SD Exporter
 30 30  0  0  0  0  0  0  0  0999 V2000
    1.1230    1.3280    0.9520 C   0  0  0  0  0  0
    1.2780    1.6110   -0.5730 C   0  0  0  0  0  0
    0.2080    0.8860   -1.4210 C   0  0  0  0  0  0
    0.0780   -0.5780   -0.9740 C   0  0  0  0  0  0
   -0.1360   -0.6260    0.5440 C   0  0  0  0  0  0
   -0.4560   -2.0480    1.0180 C   0  0  0  0  0  0
   -0.0100    2.0850    1.6210 C   0  0  0  0  0  0
    1.3320    3.0120   -0.8700 O   0  0  0  0  0  0
    0.4980    0.9930   -2.8200 O   0  0  0  0  0  0
   -0.9890   -1.2430   -1.6390 O   0  0  0  0  0  0
    1.0050   -0.0790    1.2130 O   0  0  0  0  0  0
    0.4150   -2.9860    0.3950 O   0  0  0  0  0  0
   -0.2800    1.9280    2.8110 O   0  0  0  0  0  0
   -0.7360    2.9870    0.8570 N   0  0  0  0  0  0
   -1.9010    3.7300    1.3650 C   0  0  0  0  0  0
    2.0538    1.6707    1.4276 H   0  0  0  0  0  0
    2.2503    1.1905   -0.8694 H   0  0  0  0  0  0
   -0.7586    1.3797   -1.2421 H   0  0  0  0  0  0
    1.0150   -1.1006   -1.2167 H   0  0  0  0  0  0
   -1.0031    0.0066    0.7849 H   0  0  0  0  0  0
   -1.4967   -2.2913    0.7578 H   0  0  0  0  0  0
   -0.3282   -2.1039    2.1091 H   0  0  0  0  0  0
    1.9980    3.4242   -0.3324 H   0  0  0  0  0  0
    0.5710    1.9095   -3.0590 H   0  0  0  0  0  0
   -0.8478   -1.2081   -2.5778 H   0  0  0  0  0  0
    0.2057   -3.8619    0.6975 H   0  0  0  0  0  0
   -0.4528    3.1408   -0.0897 H   0  0  0  0  0  0
   -2.2985    4.3772    0.5693 H   0  0  0  0  0  0
   -1.5963    4.3481    2.2224 H   0  0  0  0  0  0
   -2.6787    3.0199    1.6828 H   0  0  0  0  0  0
  1  2  1  0  0  0
  1  7  1  0  0  0
  1 11  1  0  0  0
  1 16  1  0  0  0
  2  3  1  0  0  0
  2  8  1  0  0  0
  2 17  1  0  0  0
  3  4  1  0  0  0
  3  9  1  0  0  0
  3 18  1  0  0  0
  4  5  1  0  0  0
  4 10  1  0  0  0
  4 19  1  0  0  0
  5  6  1  0  0  0
  5 11  1  0  0  0
  5 20  1  0  0  0
  6 12  1  0  0  0
  6 21  1  0  0  0
  6 22  1  0  0  0
  7 13  2  0  0  0
  7 14  1  0  0  0
  8 23  1  0  0  0
  9 24  1  0  0  0
 10 25  1  0  0  0
 12 26  1  0  0  0
 14 15  1  0  0  0
 14 27  1  0  0  0
 15 28  1  0  0  0
 15 29  1  0  0  0
 15 30  1  0  0  0
M  END
>  <ACTIVITY>
1.4

>  <SET>
2

>  <Min_dist>
0

>  <Avg_dist>
0.38

$$$$
3
  Cerius2 12110214173D 1   1.00000                          
Structure written by Cerius2 SD Exporter
 27 27  0  0  0  0  0  0  0  0999 V2000
    1.1340    1.4100    0.9130 C   0  0  0  0  0  0
    1.3430    1.6410   -0.6020 C   0  0  0  0  0  0
    0.2560    0.9290   -1.4370 C   0  0  0  0  0  0
    0.1090   -0.5290   -0.9760 C   0  0  0  0  0  0
   -0.1380   -0.5520    0.5380 C   0  0  0  0  0  0
   -0.4630   -1.9700    1.0260 C   0  0  0  0  0  0
    0.0300    2.1700    1.4090 O   0  0  0  0  0  0
    1.3910    3.0420   -0.8950 O   0  0  0  0  0  0
    0.5380    1.0180   -2.8370 O   0  0  0  0  0  0
   -0.9470   -1.1980   -1.6550 O   0  0  0  0  0  0
    0.9820    0.0140    1.2250 O   0  0  0  0  0  0
    0.3970   -2.9220    0.4070 O   0  0  0  0  0  0
    0.2060    2.4900    2.7880 C   0  0  0  0  0  0
    2.0388    1.7660    1.4273 H   0  0  0  0  0  0
    2.3147    1.2055   -0.8781 H   0  0  0  0  0  0
   -0.7015    1.4393   -1.2559 H   0  0  0  0  0  0
    1.0482   -1.0596   -1.1913 H   0  0  0  0  0  0
   -1.0140    0.0792    0.7482 H   0  0  0  0  0  0
   -1.5070   -2.2086    0.7746 H   0  0  0  0  0  0
   -0.3286   -2.0168    2.1167 H   0  0  0  0  0  0
    2.0666    3.4527   -0.3683 H   0  0  0  0  0  0
    0.6221    1.9310   -3.0856 H   0  0  0  0  0  0
   -0.7845   -1.1781   -2.5908 H   0  0  0  0  0  0
    0.1825   -3.7930    0.7198 H   0  0  0  0  0  0
   -0.6566    3.0737    3.1419 H   0  0  0  0  0  0
    1.1250    3.0815    2.9128 H   0  0  0  0  0  0
    0.2853    1.5616    3.3727 H   0  0  0  0  0  0
  1  2  1  0  0  0
  1  7  1  0  0  0
  1 11  1  0  0  0
  1 14  1  0  0  0
  2  3  1  0  0  0
  2  8  1  0  0  0
  2 15  1  0  0  0
  3  4  1  0  0  0
  3  9  1  0  0  0
  3 16  1  0  0  0
  4  5  1  0  0  0
  4 10  1  0  0  0
  4 17  1  0  0  0
  5  6  1  0  0  0
  5 11  1  0  0  0
  5 18  1  0  0  0
  6 12  1  0  0  0
  6 19  1  0  0  0
  6 20  1  0  0  0
  7 13  1  0  0  0
  8 21  1  0  0  0
  9 22  1  0  0  0
 10 23  1  0  0  0
 12 24  1  0  0  0
 13 25  1  0  0  0
 13 26  1  0  0  0
 13 27  1  0  0  0
M  END
>  <ACTIVITY>
1.9

>  <SET>
1

>  <Min_dist>
999.9

>  <Avg_dist>
999.9

$$$$
30
  Cerius2 12110214173D 1   1.00000                          
Structure written by Cerius2 SD Exporter
 38 39  0  0  0  0  0  0  0  0999 V2000
    1.1410    1.4190    0.8670 C   0  0  0  0  0  0
    1.3060    1.6930   -0.6430 C   0  0  0  0  0  0
    0.2480    0.9400   -1.4860 C   0  0  0  0  0  0
    0.1550   -0.5310   -1.0480 C   0  0  0  0  0  0
   -0.0350   -0.5820    0.4690 C   0  0  0  0  0  0
   -0.3640   -1.9950    0.9660 C   0  0  0  0  0  0
   -0.0830    2.0780    1.4630 C   0  0  0  0  0  0
    1.3120    3.0980   -0.9020 O   0  0  0  0  0  0
    0.5320    1.0460   -2.8830 O   0  0  0  0  0  0
   -0.9170   -1.2070   -1.6890 O   0  0  0  0  0  0
    1.0960    0.0030    1.1250 O   0  0  0  0  0  0
    0.4730   -2.9570    0.3360 O   0  0  0  0  0  0
   -0.7390    3.2310    0.9430 N   0  0  0  0  0  0
   -0.5110    1.6390    2.5210 O   0  0  0  0  0  0
   -2.1439    3.4060    0.9674 C   0  0  0  0  0  0
   -2.6889    4.6090    1.4314 C   0  0  0  0  0  0
   -4.0579    4.8330    1.3324 C   0  0  0  0  0  0
   -4.8639    3.8550    0.7434 C   0  0  0  0  0  0
   -4.3229    2.6640    0.2474 C   0  0  0  0  0  0
   -2.9529    2.4410    0.3554 C   0  0  0  0  0  0
   -6.2325    4.0758    0.6411 O   0  0  0  0  0  0
    2.0243    1.8329    1.3755 H   0  0  0  0  0  0
    2.2904    1.3029   -0.9410 H   0  0  0  0  0  0
   -0.7293    1.4107   -1.3037 H   0  0  0  0  0  0
    1.0951   -1.0379   -1.3111 H   0  0  0  0  0  0
   -0.9060    0.0454    0.7093 H   0  0  0  0  0  0
   -1.4147   -2.2237    0.7344 H   0  0  0  0  0  0
   -0.2101   -2.0400    2.0542 H   0  0  0  0  0  0
    1.9742    3.5163   -0.3644 H   0  0  0  0  0  0
    0.5840    1.9627   -3.1269 H   0  0  0  0  0  0
   -0.7950   -1.1729   -2.6305 H   0  0  0  0  0  0
    0.2548   -3.8245    0.6559 H   0  0  0  0  0  0
   -0.1781    3.9541    0.5399 H   0  0  0  0  0  0
   -2.0451    5.3645    1.8671 H   0  0  0  0  0  0
   -4.4933    5.7525    1.7066 H   0  0  0  0  0  0
   -4.9637    1.9226   -0.2161 H   0  0  0  0  0  0
   -2.5160    1.5274   -0.0313 H   0  0  0  0  0  0
   -6.6433    3.3287    0.2223 H   0  0  0  0  0  0
  1  2  1  0  0  0
  1  7  1  0  0  0
  1 11  1  0  0  0
  1 22  1  0  0  0
  2  3  1  0  0  0
  2  8  1  0  0  0
  2 23  1  0  0  0
  3  4  1  0  0  0
  3  9  1  0  0  0
  3 24  1  0  0  0
  4  5  1  0  0  0
  4 10  1  0  0  0
  4 25  1  0  0  0
  5  6  1  0  0  0
  5 11  1  0  0  0
  5 26  1  0  0  0
  6 12  1  0  0  0
  6 27  1  0  0  0
  6 28  1  0  0  0
  7 13  1  0  0  0
  7 14  2  0  0  0
  8 29  1  0  0  0
  9 30  1  0  0  0
 10 31  1  0  0  0
 12 32  1  0  0  0
 13 15  1  0  0  0
 13 33  1  0  0  0
 15 16  1  0  0  0
 15 20  2  0  0  0
 16 17  2  0  0  0
 16 34  1  0  0  0
 17 18  1  0  0  0
 17 35  1  0  0  0
 18 19  2  0  0  0
 18 21  1  0  0  0
 19 20  1  0  0  0
 19 36  1  0  0  0
 20 37  1  0  0  0
 21 38  1  0  0  0
M  END
>  <ACTIVITY>
2.3

>  <SET>
1

>  <Min_dist>
999.9

>  <Avg_dist>
999.9

$$$$
31
  Cerius2 12110214173D 1   1.00000                          
Structure written by Cerius2 SD Exporter
 29 29  0  0  0  0  0  0  0  0999 V2000
    1.0850    1.3610    0.9720 C   0  0  0  0  0  0
    1.2560    1.6440   -0.5460 C   0  0  0  0  0  0
    0.1980    0.9120   -1.4050 C   0  0  0  0  0  0
    0.0650   -0.5510   -0.9540 C   0  0  0  0  0  0
   -0.1780   -0.5960    0.5600 C   0  0  0  0  0  0
   -0.4870   -2.0240    1.0280 C   0  0  0  0  0  0
   -0.0340    2.1540    1.6110 C   0  0  0  0  0  0
    1.2790    3.0500   -0.8180 O   0  0  0  0  0  0
    0.5090    1.0090   -2.8000 O   0  0  0  0  0  0
   -0.9830   -1.2260   -1.6400 O   0  0  0  0  0  0
    0.9460   -0.0410    1.2470 O   0  0  0  0  0  0
    0.3970   -2.9520    0.4080 O   0  0  0  0  0  0
   -0.7961    2.9023    0.8184 O   0  0  0  0  0  0
   -0.2520    2.1360    2.8190 O   0  0  0  0  0  0
   -1.8320    3.7049    1.3907 C   0  0  0  0  0  0
    2.0171    1.6894    1.4550 H   0  0  0  0  0  0
    2.2377    1.2427   -0.8380 H   0  0  0  0  0  0
   -0.7718    1.4051   -1.2429 H   0  0  0  0  0  0
    1.0098   -1.0691   -1.1752 H   0  0  0  0  0  0
   -1.0557    0.0276    0.7850 H   0  0  0  0  0  0
   -1.5236   -2.2768    0.7604 H   0  0  0  0  0  0
   -0.3656   -2.0818    2.1197 H   0  0  0  0  0  0
    1.9377    3.4668   -0.2750 H   0  0  0  0  0  0
    0.5839    1.9238   -3.0448 H   0  0  0  0  0  0
   -0.8224   -1.1919   -2.5757 H   0  0  0  0  0  0
    0.1941   -3.8307    0.7068 H   0  0  0  0  0  0
   -2.3553    4.2518    0.5926 H   0  0  0  0  0  0
   -1.3913    4.4223    2.0986 H   0  0  0  0  0  0
   -2.5464    3.0581    1.9211 H   0  0  0  0  0  0
  1  2  1  0  0  0
  1  7  1  0  0  0
  1 11  1  0  0  0
  1 16  1  0  0  0
  2  3  1  0  0  0
  2  8  1  0  0  0
  2 17  1  0  0  0
  3  4  1  0  0  0
  3  9  1  0  0  0
  3 18  1  0  0  0
  4  5  1  0  0  0
  4 10  1  0  0  0
  4 19  1  0  0  0
  5  6  1  0  0  0
  5 11  1  0  0  0
  5 20  1  0  0  0
  6 12  1  0  0  0
  6 21  1  0  0  0
  6 22  1  0  0  0
  7 13  1  0  0  0
  7 14  2  0  0  0
  8 23  1  0  0  0
  9 24  1  0  0  0
 10 25  1  0  0  0
 12 26  1  0  0  0
 13 15  1  0  0  0
 15 27  1  0  0  0
 15 28  1  0  0  0
 15 29  1  0  0  0
M  END
>  <ACTIVITY>
1.6

>  <SET>
1

>  <Min_dist>
999.9

>  <Avg_dist>
999.9

$$$$
32
  Cerius2 12110214173D 1   1.00000                          
Structure written by Cerius2 SD Exporter
 22 22  0  0  0  0  0  0  0  0999 V2000
    1.4500    1.2300    0.7930 C   0  0  0  0  0  0
    1.5640    1.4330   -0.7340 C   0  0  0  0  0  0
    0.3360    0.8660   -1.4650 C   0  0  0  0  0  0
    0.1090   -0.5840   -1.0120 C   0  0  0  0  0  0
   -0.0360   -0.6040    0.5160 C   0  0  0  0  0  0
   -0.4290   -2.0000    1.0130 C   0  0  0  0  0  0
    0.5030    2.0880    1.3480 F   0  0  0  0  0  0
    0.4890    0.9760   -2.8810 O   0  0  0  0  0  0
   -1.0350   -1.1700   -1.6200 O   0  0  0  0  0  0
    1.1680   -0.1360    1.1360 O   0  0  0  0  0  0
    0.3950   -2.9900    0.4080 O   0  0  0  0  0  0
    1.7560    2.7780   -1.0400 F   0  0  0  0  0  0
    2.4261    1.4848    1.2314 H   0  0  0  0  0  0
    2.4476    0.8783   -1.0828 H   0  0  0  0  0  0
   -0.5451    1.4574   -1.1754 H   0  0  0  0  0  0
    0.9900   -1.1790   -1.2944 H   0  0  0  0  0  0
   -0.8462    0.0880    0.7893 H   0  0  0  0  0  0
   -1.4801   -2.1949    0.7537 H   0  0  0  0  0  0
   -0.3065   -2.0441    2.1053 H   0  0  0  0  0  0
    0.6266    1.8864   -3.1148 H   0  0  0  0  0  0
   -0.9354   -1.1527   -2.5646 H   0  0  0  0  0  0
    0.1415   -3.8493    0.7240 H   0  0  0  0  0  0
  1  2  1  0  0  0
  1  7  1  0  0  0
  1 10  1  0  0  0
  1 13  1  0  0  0
  2  3  1  0  0  0
  2 12  1  0  0  0
  2 14  1  0  0  0
  3  4  1  0  0  0
  3  8  1  0  0  0
  3 15  1  0  0  0
  4  5  1  0  0  0
  4  9  1  0  0  0
  4 16  1  0  0  0
  5  6  1  0  0  0
  5 10  1  0  0  0
  5 17  1  0  0  0
  6 11  1  0  0  0
  6 18  1  0  0  0
  6 19  1  0  0  0
  8 20  1  0  0  0
  9 21  1  0  0  0
 11 22  1  0  0  0
M  END
>  <ACTIVITY>
3.7

>  <SET>
1

>  <Min_dist>
999.9

>  <Avg_dist>
999.9

$$$$
33
  Cerius2 12110214173D 1   1.00000                          
Structure written by Cerius2 SD Exporter
 29 29  0  0  0  0  0  0  0  0999 V2000
    0.7470    1.3340    1.1130 C   0  0  0  0  0  0
    1.1780    1.6210   -0.3560 C   0  0  0  0  0  0
    0.2240    0.8940   -1.3340 C   0  0  0  0  0  0
    0.0600   -0.5790   -0.9230 C   0  0  0  0  0  0
   -0.3690   -0.6570    0.5460 C   0  0  0  0  0  0
   -0.6390   -2.1070    0.9660 C   0  0  0  0  0  0
    1.2010    3.0270   -0.6460 O   0  0  0  0  0  0
    0.6450    1.0300   -2.6990 O   0  0  0  0  0  0
   -0.8880   -1.2570   -1.7310 O   0  0  0  0  0  0
    0.6330   -0.0690    1.3610 O   0  0  0  0  0  0
    0.3620   -2.9710    0.4370 O   0  0  0  0  0  0
    2.9695    1.5642    2.0516 O   0  0  0  0  0  0
    3.8406    1.8710    3.1433 C   0  0  0  0  0  0
    1.6840    1.8910    2.1500 C   0  0  0  0  0  0
    1.2970    2.5580    3.1050 O   0  0  0  0  0  0
   -0.2395    1.7981    1.2597 H   0  0  0  0  0  0
    2.1944    1.2254   -0.4988 H   0  0  0  0  0  0
   -0.7630    1.3724   -1.2501 H   0  0  0  0  0  0
    1.0326   -1.0802   -1.0363 H   0  0  0  0  0  0
   -1.3002   -0.0846    0.6690 H   0  0  0  0  0  0
   -1.6235   -2.4173    0.5859 H   0  0  0  0  0  0
   -0.6322   -2.1737    2.0639 H   0  0  0  0  0  0
    1.7885    3.4654   -0.0417 H   0  0  0  0  0  0
    0.7343    1.9514   -2.9125 H   0  0  0  0  0  0
   -0.6209   -1.2079   -2.6414 H   0  0  0  0  0  0
    0.1825   -3.8647    0.7046 H   0  0  0  0  0  0
    4.8610    1.5376    2.9030 H   0  0  0  0  0  0
    3.4898    1.3542    4.0488 H   0  0  0  0  0  0
    3.8413    2.9570    3.3179 H   0  0  0  0  0  0
  1  2  1  0  0  0
  1 10  1  0  0  0
  1 14  1  0  0  0
  1 16  1  0  0  0
  2  3  1  0  0  0
  2  7  1  0  0  0
  2 17  1  0  0  0
  3  4  1  0  0  0
  3  8  1  0  0  0
  3 18  1  0  0  0
  4  5  1  0  0  0
  4  9  1  0  0  0
  4 19  1  0  0  0
  5  6  1  0  0  0
  5 10  1  0  0  0
  5 20  1  0  0  0
  6 11  1  0  0  0
  6 21  1  0  0  0
  6 22  1  0  0  0
  7 23  1  0  0  0
  8 24  1  0  0  0
  9 25  1  0  0  0
 11 26  1  0  0  0
 12 13  1  0  0  0
 12 14  1  0  0  0
 13 27  1  0  0  0
 13 28  1  0  0  0
 13 29  1  0  0  0
 14 15  2  0  0  0
M  END
>  <ACTIVITY>
2.6

>  <SET>
2

>  <Min_dist>
0

>  <Avg_dist>
0.4

$$$$
34
  Cerius2 12110214173D 1   1.00000                          
Structure written by Cerius2 SD Exporter
 30 30  0  0  0  0  0  0  0  0999 V2000
    0.5780    1.3490    1.1300 C   0  0  0  0  0  0
    1.0670    1.6170   -0.3230 C   0  0  0  0  0  0
    0.1520    0.8780   -1.3260 C   0  0  0  0  0  0
    0.0000   -0.5950   -0.9090 C   0  0  0  0  0  0
   -0.4790   -0.6750    0.5460 C   0  0  0  0  0  0
   -0.7080   -2.1310    0.9670 C   0  0  0  0  0  0
    1.1140    3.0200   -0.6270 O   0  0  0  0  0  0
    0.6160    1.0120   -2.6780 O   0  0  0  0  0  0
   -0.9070   -1.2960   -1.7400 O   0  0  0  0  0  0
    0.4730   -0.0510    1.3920 O   0  0  0  0  0  0
    0.3330   -2.9630    0.4620 O   0  0  0  0  0  0
    1.4900    1.9060    2.1820 C   0  0  0  0  0  0
    1.0830    2.6260    3.0940 O   0  0  0  0  0  0
    2.8180    1.5020    2.1400 N   0  0  0  0  0  0
    3.7700    1.8580    3.2110 C   0  0  0  0  0  0
   -0.4133    1.8127    1.2409 H   0  0  0  0  0  0
    2.0861    1.2145   -0.4203 H   0  0  0  0  0  0
   -0.8434    1.3434   -1.2754 H   0  0  0  0  0  0
    0.9850   -1.0786   -0.9859 H   0  0  0  0  0  0
   -1.4335   -0.1351    0.6319 H   0  0  0  0  0  0
   -1.6734   -2.4761    0.5685 H   0  0  0  0  0  0
   -0.7212   -2.1931    2.0652 H   0  0  0  0  0  0
    1.6792    3.4604   -0.0032 H   0  0  0  0  0  0
    0.6962    1.9333   -2.8954 H   0  0  0  0  0  0
   -0.6123   -1.2478   -2.6418 H   0  0  0  0  0  0
    0.1786   -3.8612    0.7301 H   0  0  0  0  0  0
    3.1374    0.9564    1.3652 H   0  0  0  0  0  0
    4.7593    1.4380    2.9767 H   0  0  0  0  0  0
    3.4151    1.4483    4.1682 H   0  0  0  0  0  0
    3.8449    2.9529    3.2860 H   0  0  0  0  0  0
  1  2  1  0  0  0
  1 10  1  0  0  0
  1 12  1  0  0  0
  1 16  1  0  0  0
  2  3  1  0  0  0
  2  7  1  0  0  0
  2 17  1  0  0  0
  3  4  1  0  0  0
  3  8  1  0  0  0
  3 18  1  0  0  0
  4  5  1  0  0  0
  4  9  1  0  0  0
  4 19  1  0  0  0
  5  6  1  0  0  0
  5 10  1  0  0  0
  5 20  1  0  0  0
  6 11  1  0  0  0
  6 21  1  0  0  0
  6 22  1  0  0  0
  7 23  1  0  0  0
  8 24  1  0  0  0
  9 25  1  0  0  0
 11 26  1  0  0  0
 12 13  2  0  0  0
 12 14  1  0  0  0
 14 15  1  0  0  0
 14 27  1  0  0  0
 15 28  1  0  0  0
 15 29  1  0  0  0
 15 30  1  0  0  0
M  END
>  <ACTIVITY>
3.7

>  <SET>
1

>  <Min_dist>
999.9

>  <Avg_dist>
999.9

$$$$
35
  Cerius2 12110214173D 1   1.00000                          
Structure written by Cerius2 SD Exporter
 29 29  0  0  0  0  0  0  0  0999 V2000
    0.7680    1.3700    1.1740 C   0  0  0  0  0  0
    1.2330    1.6690   -0.2870 C   0  0  0  0  0  0
    0.3060    0.9410   -1.2930 C   0  0  0  0  0  0
    0.1300   -0.5340   -0.9000 C   0  0  0  0  0  0
   -0.3460   -0.6160    0.5540 C   0  0  0  0  0  0
   -0.6420   -2.0660    0.9570 C   0  0  0  0  0  0
    1.2110    2.6800    3.1370 O   0  0  0  0  0  0
    1.2360    3.0740   -0.5800 O   0  0  0  0  0  0
    0.7490    1.0840   -2.6500 O   0  0  0  0  0  0
   -0.7930   -1.2020   -1.7470 O   0  0  0  0  0  0
    0.6340   -0.0370    1.4040 O   0  0  0  0  0  0
    0.3570   -2.9410    0.4400 O   0  0  0  0  0  0
    1.6490    1.9180    2.2730 C   0  0  0  0  0  0
    2.9750    1.4320    2.3820 N   0  0  0  0  0  0
    3.8661    1.7010    3.5583 N   0  0  0  0  0  0
   -0.2233    1.8332    1.2872 H   0  0  0  0  0  0
    2.2577    1.2875   -0.4073 H   0  0  0  0  0  0
   -0.6833    1.4174   -1.2268 H   0  0  0  0  0  0
    1.1049   -1.0364   -0.9848 H   0  0  0  0  0  0
   -1.2765   -0.0372    0.6498 H   0  0  0  0  0  0
   -1.6233   -2.3601    0.5564 H   0  0  0  0  0  0
   -0.6564   -2.1411    2.0543 H   0  0  0  0  0  0
    1.8033    3.5244    0.0346 H   0  0  0  0  0  0
    0.8462    2.0063   -2.8558 H   0  0  0  0  0  0
   -0.4932   -1.1482   -2.6469 H   0  0  0  0  0  0
    0.1600   -3.8339    0.6977 H   0  0  0  0  0  0
    3.3376    0.8782    1.6324 H   0  0  0  0  0  0
    4.8222    1.2238    3.4021 H   0  0  0  0  0  0
    3.4090    1.3068    4.4538 H   0  0  0  0  0  0
  1  2  1  0  0  0
  1 11  1  0  0  0
  1 13  1  0  0  0
  1 16  1  0  0  0
  2  3  1  0  0  0
  2  8  1  0  0  0
  2 17  1  0  0  0
  3  4  1  0  0  0
  3  9  1  0  0  0
  3 18  1  0  0  0
  4  5  1  0  0  0
  4 10  1  0  0  0
  4 19  1  0  0  0
  5  6  1  0  0  0
  5 11  1  0  0  0
  5 20  1  0  0  0
  6 12  1  0  0  0
  6 21  1  0  0  0
  6 22  1  0  0  0
  7 13  2  0  0  0
  8 23  1  0  0  0
  9 24  1  0  0  0
 10 25  1  0  0  0
 12 26  1  0  0  0
 13 14  1  0  0  0
 14 15  1  0  0  0
 14 27  1  0  0  0
 15 28  1  0  0  0
 15 29  1  0  0  0
M  END
>  <ACTIVITY>
3.4

>  <SET>
1

>  <Min_dist>
999.9

>  <Avg_dist>
999.9

$$$$
36
  Cerius2 12110214173D 1   1.00000                          
Structure written by Cerius2 SD Exporter
 30 30  0  0  0  0  0  0  0  0999 V2000
    1.3630    1.1480    0.8590 C   0  0  0  0  0  0
    1.3390    1.5340   -0.6450 C   0  0  0  0  0  0
    0.1870    0.8580   -1.4270 C   0  0  0  0  0  0
    0.0220   -0.6100   -1.0050 C   0  0  0  0  0  0
   -0.1140   -0.6690    0.5160 C   0  0  0  0  0  0
   -0.4760   -2.0840    0.9800 C   0  0  0  0  0  0
    1.2730    2.9600   -0.7900 O   0  0  0  0  0  0
    0.3990    0.9760   -2.8380 O   0  0  0  0  0  0
   -1.1040   -1.2240   -1.6170 O   0  0  0  0  0  0
    1.1120   -0.2430    1.0890 O   0  0  0  0  0  0
    0.4050   -3.0340    0.3910 O   0  0  0  0  0  0
    2.6860    1.4430    1.4320 N   0  0  0  0  0  0
    2.8280    1.9890    2.7020 C   0  0  0  0  0  0
    4.2260    2.1370    3.2310 C   0  0  0  0  0  0
    1.8340    2.3160    3.3510 O   0  0  0  0  0  0
    4.2640    3.3040    4.5830 Cl  0  0  0  0  0  0
    0.5957    1.7396    1.3798 H   0  0  0  0  0  0
    2.2848    1.1905   -1.0893 H   0  0  0  0  0  0
   -0.7461    1.3857   -1.1803 H   0  0  0  0  0  0
    0.9234   -1.1640   -1.3060 H   0  0  0  0  0  0
   -0.9143    0.0166    0.8313 H   0  0  0  0  0  0
   -1.5094   -2.3118    0.6798 H   0  0  0  0  0  0
   -0.3915   -2.1402    2.0753 H   0  0  0  0  0  0
    1.9851    3.3608   -0.3055 H   0  0  0  0  0  0
    0.4972    1.8925   -3.0679 H   0  0  0  0  0  0
   -1.0123   -1.1834   -2.5617 H   0  0  0  0  0  0
    0.1720   -3.9068    0.6850 H   0  0  0  0  0  0
    3.5048    1.2453    0.8930 H   0  0  0  0  0  0
    4.8820    2.4963    2.4244 H   0  0  0  0  0  0
    4.5837    1.1595    3.5866 H   0  0  0  0  0  0
  1  2  1  0  0  0
  1 10  1  0  0  0
  1 12  1  0  0  0
  1 17  1  0  0  0
  2  3  1  0  0  0
  2  7  1  0  0  0
  2 18  1  0  0  0
  3  4  1  0  0  0
  3  8  1  0  0  0
  3 19  1  0  0  0
  4  5  1  0  0  0
  4  9  1  0  0  0
  4 20  1  0  0  0
  5  6  1  0  0  0
  5 10  1  0  0  0
  5 21  1  0  0  0
  6 11  1  0  0  0
  6 22  1  0  0  0
  6 23  1  0  0  0
  7 24  1  0  0  0
  8 25  1  0  0  0
  9 26  1  0  0  0
 11 27  1  0  0  0
 12 13  1  0  0  0
 12 28  1  0  0  0
 13 14  1  0  0  0
 13 15  2  0  0  0
 14 16  1  0  0  0
 14 29  1  0  0  0
 14 30  1  0  0  0
M  END
>  <ACTIVITY>
4.4

>  <SET>
1

>  <Min_dist>
999.9

>  <Avg_dist>
999.9

$$$$
37
  Cerius2 12110214173D 1   1.00000                          
Structure written by Cerius2 SD Exporter
 30 30  0  0  0  0  0  0  0  0999 V2000
    1.3670    1.1580    0.8620 C   0  0  0  0  0  0
    1.3510    1.5440   -0.6420 C   0  0  0  0  0  0
    0.2070    0.8640   -1.4300 C   0  0  0  0  0  0
    0.0420   -0.6040   -1.0080 C   0  0  0  0  0  0
   -0.1030   -0.6610    0.5120 C   0  0  0  0  0  0
   -0.4710   -2.0750    0.9770 C   0  0  0  0  0  0
    1.2790    2.9690   -0.7880 O   0  0  0  0  0  0
    0.4240    0.9830   -2.8410 O   0  0  0  0  0  0
   -1.0790   -1.2190   -1.6260 O   0  0  0  0  0  0
    1.1200   -0.2340    1.0900 O   0  0  0  0  0  0
    0.4070   -3.0290    0.3900 O   0  0  0  0  0  0
    2.6810    1.4640    1.4510 N   0  0  0  0  0  0
    2.8000    1.9750    2.7390 C   0  0  0  0  0  0
    4.1870    2.1380    3.2900 C   0  0  0  0  0  0
    1.7930    2.2660    3.3850 O   0  0  0  0  0  0
    0.5907    1.7445    1.3752 H   0  0  0  0  0  0
    2.3010    1.2045   -1.0805 H   0  0  0  0  0  0
   -0.7287    1.3893   -1.1881 H   0  0  0  0  0  0
    0.9458   -1.1572   -1.3031 H   0  0  0  0  0  0
   -0.9042    0.0262    0.8215 H   0  0  0  0  0  0
   -1.5049   -2.2991    0.6758 H   0  0  0  0  0  0
   -0.3880   -2.1305    2.0724 H   0  0  0  0  0  0
    1.9864    3.3735   -0.2997 H   0  0  0  0  0  0
    0.5219    1.8997   -3.0701 H   0  0  0  0  0  0
   -0.9813   -1.1795   -2.5701 H   0  0  0  0  0  0
    0.1702   -3.9006    0.6846 H   0  0  0  0  0  0
    3.5075    1.3006    0.9123 H   0  0  0  0  0  0
    4.1308    2.5485    4.3090 H   0  0  0  0  0  0
    4.7579    2.8256    2.6487 H   0  0  0  0  0  0
    4.6885    1.1594    3.3162 H   0  0  0  0  0  0
  1  2  1  0  0  0
  1 10  1  0  0  0
  1 12  1  0  0  0
  1 16  1  0  0  0
  2  3  1  0  0  0
  2  7  1  0  0  0
  2 17  1  0  0  0
  3  4  1  0  0  0
  3  8  1  0  0  0
  3 18  1  0  0  0
  4  5  1  0  0  0
  4  9  1  0  0  0
  4 19  1  0  0  0
  5  6  1  0  0  0
  5 10  1  0  0  0
  5 20  1  0  0  0
  6 11  1  0  0  0
  6 21  1  0  0  0
  6 22  1  0  0  0
  7 23  1  0  0  0
  8 24  1  0  0  0
  9 25  1  0  0  0
 11 26  1  0  0  0
 12 13  1  0  0  0
 12 27  1  0  0  0
 13 14  1  0  0  0
 13 15  2  0  0  0
 14 28  1  0  0  0
 14 29  1  0  0  0
 14 30  1  0  0  0
M  END
>  <ACTIVITY>
4.5

>  <SET>
1

>  <Min_dist>
999.9

>  <Avg_dist>
999.9

$$$$
38
  Cerius2 12110214173D 1   1.00000                          
Structure written by Cerius2 SD Exporter
 33 33  0  0  0  0  0  0  0  0999 V2000
    1.3750    1.1580    0.8570 C   0  0  0  0  0  0
    1.3520    1.5450   -0.6460 C   0  0  0  0  0  0
    0.2050    0.8660   -1.4320 C   0  0  0  0  0  0
    0.0420   -0.6020   -1.0100 C   0  0  0  0  0  0
   -0.1000   -0.6590    0.5090 C   0  0  0  0  0  0
   -0.4690   -2.0720    0.9750 C   0  0  0  0  0  0
    1.2790    2.9710   -0.7900 O   0  0  0  0  0  0
    0.4200    0.9840   -2.8420 O   0  0  0  0  0  0
   -1.0810   -1.2170   -1.6260 O   0  0  0  0  0  0
    1.1250   -0.2330    1.0860 O   0  0  0  0  0  0
    0.4080   -3.0280    0.3890 O   0  0  0  0  0  0
    2.6940    1.4590    1.4360 N   0  0  0  0  0  0
    2.8290    1.9880    2.7150 C   0  0  0  0  0  0
    4.2290    2.1380    3.2420 C   0  0  0  0  0  0
    1.8290    2.2940    3.3650 O   0  0  0  0  0  0
    4.2690    3.1050    4.4310 C   0  0  0  0  0  0
    0.6042    1.7470    1.3756 H   0  0  0  0  0  0
    2.3004    1.2063   -1.0886 H   0  0  0  0  0  0
   -0.7301    1.3914   -1.1883 H   0  0  0  0  0  0
    0.9454   -1.1548   -1.3071 H   0  0  0  0  0  0
   -0.8999    0.0291    0.8197 H   0  0  0  0  0  0
   -1.5032   -2.2953    0.6740 H   0  0  0  0  0  0
   -0.3860   -2.1265    2.0705 H   0  0  0  0  0  0
    1.9878    3.3751   -0.3033 H   0  0  0  0  0  0
    0.5169    1.9007   -3.0719 H   0  0  0  0  0  0
   -0.9852   -1.1775   -2.5703 H   0  0  0  0  0  0
    0.1701   -3.8989    0.6846 H   0  0  0  0  0  0
    3.5154    1.2783    0.8951 H   0  0  0  0  0  0
    4.8750    2.5264    2.4409 H   0  0  0  0  0  0
    4.5984    1.1540    3.5664 H   0  0  0  0  0  0
    5.3029    3.1954    4.7954 H   0  0  0  0  0  0
    3.6281    2.7205    5.2381 H   0  0  0  0  0  0
    3.9047    4.0929    4.1126 H   0  0  0  0  0  0
  1  2  1  0  0  0
  1 10  1  0  0  0
  1 12  1  0  0  0
  1 17  1  0  0  0
  2  3  1  0  0  0
  2  7  1  0  0  0
  2 18  1  0  0  0
  3  4  1  0  0  0
  3  8  1  0  0  0
  3 19  1  0  0  0
  4  5  1  0  0  0
  4  9  1  0  0  0
  4 20  1  0  0  0
  5  6  1  0  0  0
  5 10  1  0  0  0
  5 21  1  0  0  0
  6 11  1  0  0  0
  6 22  1  0  0  0
  6 23  1  0  0  0
  7 24  1  0  0  0
  8 25  1  0  0  0
  9 26  1  0  0  0
 11 27  1  0  0  0
 12 13  1  0  0  0
 12 28  1  0  0  0
 13 14  1  0  0  0
 13 15  2  0  0  0
 14 16  1  0  0  0
 14 29  1  0  0  0
 14 30  1  0  0  0
 16 31  1  0  0  0
 16 32  1  0  0  0
 16 33  1  0  0  0
M  END
>  <ACTIVITY>
4.4

>  <SET>
1

>  <Min_dist>
999.9

>  <Avg_dist>
999.9

$$$$
39
  Cerius2 12110214173D 1   1.00000                          
Structure written by Cerius2 SD Exporter
 30 30  0  0  0  0  0  0  0  0999 V2000
    1.3740    1.1550    0.8550 C   0  0  0  0  0  0
    1.3470    1.5420   -0.6480 C   0  0  0  0  0  0
    0.1990    0.8630   -1.4310 C   0  0  0  0  0  0
    0.0360   -0.6040   -1.0080 C   0  0  0  0  0  0
   -0.1050   -0.6600    0.5110 C   0  0  0  0  0  0
   -0.4740   -2.0730    0.9790 C   0  0  0  0  0  0
    1.2760    2.9680   -0.7910 O   0  0  0  0  0  0
    0.4110    0.9810   -2.8420 O   0  0  0  0  0  0
   -1.0870   -1.2210   -1.6230 O   0  0  0  0  0  0
    1.1200   -0.2350    1.0860 O   0  0  0  0  0  0
    0.4020   -3.0290    0.3920 O   0  0  0  0  0  0
    2.6990    1.4470    1.4260 N   0  0  0  0  0  0
    2.8480    1.9830    2.7000 C   0  0  0  0  0  0
    4.2490    2.1240    3.2210 C   0  0  0  0  0  0
    1.8570    2.3080    3.3560 O   0  0  0  0  0  0
    4.2880    3.2890    4.7660 Br  0  0  0  0  0  0
    0.6092    1.7482    1.3776 H   0  0  0  0  0  0
    2.2941    1.2027   -1.0929 H   0  0  0  0  0  0
   -0.7355    1.3888   -1.1856 H   0  0  0  0  0  0
    0.9395   -1.1567   -1.3050 H   0  0  0  0  0  0
   -0.9043    0.0288    0.8220 H   0  0  0  0  0  0
   -1.5087   -2.2964    0.6799 H   0  0  0  0  0  0
   -0.3892   -2.1268    2.0744 H   0  0  0  0  0  0
    1.9863    3.3707   -0.3054 H   0  0  0  0  0  0
    0.5079    1.8976   -3.0721 H   0  0  0  0  0  0
   -0.9919   -1.1821   -2.5674 H   0  0  0  0  0  0
    0.1647   -3.8998    0.6884 H   0  0  0  0  0  0
    3.5155    1.2542    0.8818 H   0  0  0  0  0  0
    4.8870    2.5487    2.4320 H   0  0  0  0  0  0
    4.6300    1.1324    3.5065 H   0  0  0  0  0  0
  1  2  1  0  0  0
  1 10  1  0  0  0
  1 12  1  0  0  0
  1 17  1  0  0  0
  2  3  1  0  0  0
  2  7  1  0  0  0
  2 18  1  0  0  0
  3  4  1  0  0  0
  3  8  1  0  0  0
  3 19  1  0  0  0
  4  5  1  0  0  0
  4  9  1  0  0  0
  4 20  1  0  0  0
  5  6  1  0  0  0
  5 10  1  0  0  0
  5 21  1  0  0  0
  6 11  1  0  0  0
  6 22  1  0  0  0
  6 23  1  0  0  0
  7 24  1  0  0  0
  8 25  1  0  0  0
  9 26  1  0  0  0
 11 27  1  0  0  0
 12 13  1  0  0  0
 12 28  1  0  0  0
 13 14  1  0  0  0
 13 15  2  0  0  0
 14 16  1  0  0  0
 14 29  1  0  0  0
 14 30  1  0  0  0
M  END
>  <ACTIVITY>
4.4

>  <SET>
1

>  <Min_dist>
999.9

>  <Avg_dist>
999.9

$$$$
4
  Cerius2 12110214173D 1   1.00000                          
Structure written by Cerius2 SD Exporter
 27 27  0  0  0  0  0  0  0  0999 V2000
    1.4290    1.3310    0.7890 C   0  0  0  0  0  0
    1.4840    1.6210   -0.7290 C   0  0  0  0  0  0
    0.3250    0.9380   -1.4880 C   0  0  0  0  0  0
    0.1550   -0.5170   -1.0310 C   0  0  0  0  0  0
    0.0280   -0.5320    0.4940 C   0  0  0  0  0  0
   -0.3680   -1.9220    1.0080 C   0  0  0  0  0  0
    2.6070    1.8270    1.4270 O   0  0  0  0  0  0
    1.4760    3.0340   -0.9580 O   0  0  0  0  0  0
    0.5150    1.0270   -2.9010 O   0  0  0  0  0  0
   -0.9790   -1.1360   -1.6280 O   0  0  0  0  0  0
    1.2500   -0.0680    1.0650 O   0  0  0  0  0  0
    0.4180   -2.9300    0.3800 O   0  0  0  0  0  0
    2.4440    1.8600    2.8460 C   0  0  0  0  0  0
    0.5633    1.8679    1.2040 H   0  0  0  0  0  0
    2.4287    1.2143   -1.1189 H   0  0  0  0  0  0
   -0.6021    1.4762   -1.2414 H   0  0  0  0  0  0
    1.0512   -1.0846   -1.3218 H   0  0  0  0  0  0
   -0.7702    0.1684    0.7808 H   0  0  0  0  0  0
   -1.4303   -2.1008    0.7856 H   0  0  0  0  0  0
   -0.2088   -1.9644    2.0956 H   0  0  0  0  0  0
    2.1946    3.4357   -0.4839 H   0  0  0  0  0  0
    0.6166    1.9381   -3.1501 H   0  0  0  0  0  0
   -0.8874   -1.1199   -2.5734 H   0  0  0  0  0  0
    0.1604   -3.7832    0.7090 H   0  0  0  0  0  0
    3.3632    2.2449    3.3118 H   0  0  0  0  0  0
    2.2434    0.8436    3.2158 H   0  0  0  0  0  0
    1.6000    2.5169    3.1030 H   0  0  0  0  0  0
  1  2  1  0  0  0
  1  7  1  0  0  0
  1 11  1  0  0  0
  1 14  1  0  0  0
  2  3  1  0  0  0
  2  8  1  0  0  0
  2 15  1  0  0  0
  3  4  1  0  0  0
  3  9  1  0  0  0
  3 16  1  0  0  0
  4  5  1  0  0  0
  4 10  1  0  0  0
  4 17  1  0  0  0
  5  6  1  0  0  0
  5 11  1  0  0  0
  5 18  1  0  0  0
  6 12  1  0  0  0
  6 19  1  0  0  0
  6 20  1  0  0  0
  7 13  1  0  0  0
  8 21  1  0  0  0
  9 22  1  0  0  0
 10 23  1  0  0  0
 12 24  1  0  0  0
 13 25  1  0  0  0
 13 26  1  0  0  0
 13 27  1  0  0  0
M  END
>  <ACTIVITY>
1.6

>  <SET>
1

>  <Min_dist>
999.9

>  <Avg_dist>
999.9

$$$$
40
  Cerius2 12110214173D 1   1.00000                          
Structure written by Cerius2 SD Exporter
 37 38  0  0  0  0  0  0  0  0999 V2000
    1.2410    1.1700    0.9480 C   0  0  0  0  0  0
    1.3380    1.5530   -0.5560 C   0  0  0  0  0  0
    0.2430    0.8570   -1.4010 C   0  0  0  0  0  0
    0.0830   -0.6170   -0.9950 C   0  0  0  0  0  0
   -0.1050   -0.6960    0.5220 C   0  0  0  0  0  0
   -0.4640   -2.1170    0.9670 C   0  0  0  0  0  0
    1.2500    2.9760   -0.7230 O   0  0  0  0  0  0
    0.5060    0.9960   -2.8030 O   0  0  0  0  0  0
   -1.0160   -1.2350   -1.6510 O   0  0  0  0  0  0
    1.0830   -0.2370    1.1490 O   0  0  0  0  0  0
    0.4270   -3.0570    0.3790 O   0  0  0  0  0  0
    2.4160    1.6310    1.7120 N   0  0  0  0  0  0
    2.2470    2.1430    3.0010 C   0  0  0  0  0  0
    3.4190    2.6000    3.7560 C   0  0  0  0  0  0
    1.0980    2.2190    3.4560 O   0  0  0  0  0  0
    4.7170    2.3880    3.2770 C   0  0  0  0  0  0
    5.8160    2.8650    3.9860 C   0  0  0  0  0  0
    5.6330    3.5450    5.1900 C   0  0  0  0  0  0
    4.3450    3.7460    5.6830 C   0  0  0  0  0  0
    3.2450    3.2790    4.9690 C   0  0  0  0  0  0
    0.3513    1.6718    1.3562 H   0  0  0  0  0  0
    2.3187    1.2209   -0.9274 H   0  0  0  0  0  0
   -0.7110    1.3630   -1.1917 H   0  0  0  0  0  0
    1.0003   -1.1578   -1.2708 H   0  0  0  0  0  0
   -0.9324   -0.0303    0.8086 H   0  0  0  0  0  0
   -1.4930   -2.3467    0.6533 H   0  0  0  0  0  0
   -0.3911   -2.1838    2.0625 H   0  0  0  0  0  0
    1.9236    3.3981   -0.2028 H   0  0  0  0  0  0
    0.5989    1.9167   -3.0180 H   0  0  0  0  0  0
   -0.8934   -1.1827   -2.5916 H   0  0  0  0  0  0
    0.1946   -3.9335    0.6621 H   0  0  0  0  0  0
    3.3296    1.5772    1.3089 H   0  0  0  0  0  0
    4.8674    1.8492    2.3485 H   0  0  0  0  0  0
    6.8171    2.7075    3.6012 H   0  0  0  0  0  0
    6.4899    3.9160    5.7406 H   0  0  0  0  0  0
    4.1997    4.2662    6.6229 H   0  0  0  0  0  0
    2.2452    3.4421    5.3549 H   0  0  0  0  0  0
  1  2  1  0  0  0
  1 10  1  0  0  0
  1 12  1  0  0  0
  1 21  1  0  0  0
  2  3  1  0  0  0
  2  7  1  0  0  0
  2 22  1  0  0  0
  3  4  1  0  0  0
  3  8  1  0  0  0
  3 23  1  0  0  0
  4  5  1  0  0  0
  4  9  1  0  0  0
  4 24  1  0  0  0
  5  6  1  0  0  0
  5 10  1  0  0  0
  5 25  1  0  0  0
  6 11  1  0  0  0
  6 26  1  0  0  0
  6 27  1  0  0  0
  7 28  1  0  0  0
  8 29  1  0  0  0
  9 30  1  0  0  0
 11 31  1  0  0  0
 12 13  1  0  0  0
 12 32  1  0  0  0
 13 14  1  0  0  0
 13 15  2  0  0  0
 14 16  1  0  0  0
 14 20  2  0  0  0
 16 17  2  0  0  0
 16 33  1  0  0  0
 17 18  1  0  0  0
 17 34  1  0  0  0
 18 19  2  0  0  0
 18 35  1  0  0  0
 19 20  1  0  0  0
 19 36  1  0  0  0
 20 37  1  0  0  0
M  END
>  <ACTIVITY>
4.1

>  <SET>
2

>  <Min_dist>
0.15

>  <Avg_dist>
0.47

$$$$
41
  Cerius2 12110214173D 1   1.00000                          
Structure written by Cerius2 SD Exporter
 36 36  0  0  0  0  0  0  0  0999 V2000
    1.3680    1.1500    0.8640 C   0  0  0  0  0  0
    1.3460    1.5390   -0.6390 C   0  0  0  0  0  0
    0.2000    0.8610   -1.4260 C   0  0  0  0  0  0
    0.0350   -0.6080   -1.0050 C   0  0  0  0  0  0
   -0.1040   -0.6670    0.5150 C   0  0  0  0  0  0
   -0.4710   -2.0810    0.9800 C   0  0  0  0  0  0
    1.2750    2.9650   -0.7840 O   0  0  0  0  0  0
    0.4150    0.9800   -2.8370 O   0  0  0  0  0  0
   -1.0890   -1.2210   -1.6210 O   0  0  0  0  0  0
    1.1220   -0.2420    1.0900 O   0  0  0  0  0  0
    0.4060   -3.0340    0.3910 O   0  0  0  0  0  0
    2.6850    1.4570    1.4450 N   0  0  0  0  0  0
    2.8170    1.9820    2.7260 C   0  0  0  0  0  0
    4.2150    2.1620    3.2470 C   0  0  0  0  0  0
    1.8150    2.2660    3.3840 O   0  0  0  0  0  0
    4.2510    3.2210    4.3540 C   0  0  0  0  0  0
    5.6880    3.4510    4.8310 C   0  0  0  0  0  0
    0.5941    1.7353    1.3821 H   0  0  0  0  0  0
    2.2945    1.1996   -1.0809 H   0  0  0  0  0  0
   -0.7349    1.3869   -1.1823 H   0  0  0  0  0  0
    0.9372   -1.1616   -1.3041 H   0  0  0  0  0  0
   -0.9035    0.0204    0.8284 H   0  0  0  0  0  0
   -1.5054   -2.3052    0.6805 H   0  0  0  0  0  0
   -0.3860   -2.1371    2.0753 H   0  0  0  0  0  0
    1.9835    3.3685   -0.2964 H   0  0  0  0  0  0
    0.5131    1.8967   -3.0661 H   0  0  0  0  0  0
   -0.9942   -1.1798   -2.5654 H   0  0  0  0  0  0
    0.1701   -3.9058    0.6855 H   0  0  0  0  0  0
    3.5076    1.2833    0.9036 H   0  0  0  0  0  0
    4.8692    2.4804    2.4220 H   0  0  0  0  0  0
    4.5750    1.2047    3.6519 H   0  0  0  0  0  0
    3.6388    2.8794    5.2016 H   0  0  0  0  0  0
    3.8435    4.1656    3.9645 H   0  0  0  0  0  0
    5.6935    4.2131    5.6242 H   0  0  0  0  0  0
    6.3037    3.7957    3.9872 H   0  0  0  0  0  0
    6.0989    2.5095    5.2243 H   0  0  0  0  0  0
  1  2  1  0  0  0
  1 10  1  0  0  0
  1 12  1  0  0  0
  1 18  1  0  0  0
  2  3  1  0  0  0
  2  7  1  0  0  0
  2 19  1  0  0  0
  3  4  1  0  0  0
  3  8  1  0  0  0
  3 20  1  0  0  0
  4  5  1  0  0  0
  4  9  1  0  0  0
  4 21  1  0  0  0
  5  6  1  0  0  0
  5 10  1  0  0  0
  5 22  1  0  0  0
  6 11  1  0  0  0
  6 23  1  0  0  0
  6 24  1  0  0  0
  7 25  1  0  0  0
  8 26  1  0  0  0
  9 27  1  0  0  0
 11 28  1  0  0  0
 12 13  1  0  0  0
 12 29  1  0  0  0
 13 14  1  0  0  0
 13 15  2  0  0  0
 14 16  1  0  0  0
 14 30  1  0  0  0
 14 31  1  0  0  0
 16 17  1  0  0  0
 16 32  1  0  0  0
 16 33  1  0  0  0
 17 34  1  0  0  0
 17 35  1  0  0  0
 17 36  1  0  0  0
M  END
>  <ACTIVITY>
4

>  <SET>
1

>  <Min_dist>
999.9

>  <Avg_dist>
999.9

$$$$
42
  Cerius2 12110214173D 1   1.00000                          
Structure written by Cerius2 SD Exporter
 29 29  0  0  0  0  0  0  0  0999 V2000
    1.4340    1.2150    0.9030 C   0  0  0  0  0  0
    1.4290    1.5940   -0.6080 C   0  0  0  0  0  0
    0.2950    0.9090   -1.4100 C   0  0  0  0  0  0
    0.1180   -0.5530   -0.9880 C   0  0  0  0  0  0
   -0.0660   -0.5960    0.5280 C   0  0  0  0  0  0
   -0.4610   -2.0030    0.9930 C   0  0  0  0  0  0
    1.3390    3.0150   -0.7680 O   0  0  0  0  0  0
    0.5240    1.0220   -2.8190 O   0  0  0  0  0  0
   -0.9910   -1.1650   -1.6350 O   0  0  0  0  0  0
    1.1460   -0.1720    1.1370 O   0  0  0  0  0  0
    0.3920   -2.9780    0.4010 O   0  0  0  0  0  0
    2.7590    1.4790    1.5080 N   0  0  0  0  0  0
    2.9000    1.8640    2.8460 C   0  0  0  0  0  0
    4.1770    1.7490    3.4180 N   0  0  0  0  0  0
    1.9210    2.2500    3.4980 O   0  0  0  0  0  0
    0.6736    1.8269    1.4103 H   0  0  0  0  0  0
    2.3865    1.2604   -1.0345 H   0  0  0  0  0  0
   -0.6424    1.4370   -1.1807 H   0  0  0  0  0  0
    1.0272   -1.1110   -1.2564 H   0  0  0  0  0  0
   -0.8692    0.1005    0.8105 H   0  0  0  0  0  0
   -1.5013   -2.2040    0.6975 H   0  0  0  0  0  0
   -0.3731   -2.0612    2.0879 H   0  0  0  0  0  0
    2.0351    3.4338   -0.2756 H   0  0  0  0  0  0
    0.6297    1.9374   -3.0502 H   0  0  0  0  0  0
   -0.8659   -1.1325   -2.5762 H   0  0  0  0  0  0
    0.1366   -3.8438    0.6971 H   0  0  0  0  0  0
    3.5783    1.3792    0.9434 H   0  0  0  0  0  0
    4.3234    2.0128    4.3714 H   0  0  0  0  0  0
    4.9402    1.4033    2.8720 H   0  0  0  0  0  0
  1  2  1  0  0  0
  1 10  1  0  0  0
  1 12  1  0  0  0
  1 16  1  0  0  0
  2  3  1  0  0  0
  2  7  1  0  0  0
  2 17  1  0  0  0
  3  4  1  0  0  0
  3  8  1  0  0  0
  3 18  1  0  0  0
  4  5  1  0  0  0
  4  9  1  0  0  0
  4 19  1  0  0  0
  5  6  1  0  0  0
  5 10  1  0  0  0
  5 20  1  0  0  0
  6 11  1  0  0  0
  6 21  1  0  0  0
  6 22  1  0  0  0
  7 23  1  0  0  0
  8 24  1  0  0  0
  9 25  1  0  0  0
 11 26  1  0  0  0
 12 13  1  0  0  0
 12 27  1  0  0  0
 13 14  1  0  0  0
 13 15  2  0  0  0
 14 28  1  0  0  0
 14 29  1  0  0  0
M  END
>  <ACTIVITY>
3.9

>  <SET>
2

>  <Min_dist>
0.15

>  <Avg_dist>
0.47

$$$$
43
  Cerius2 12110214173D 1   1.00000                          
Structure written by Cerius2 SD Exporter
 32 32  0  0  0  0  0  0  0  0999 V2000
    1.2820    1.1340    0.8410 C   0  0  0  0  0  0
    1.3680    1.4010   -0.6830 C   0  0  0  0  0  0
    0.1770    0.8140   -1.4500 C   0  0  0  0  0  0
   -0.0390   -0.6500   -1.0140 C   0  0  0  0  0  0
   -0.2170   -0.6950    0.5070 C   0  0  0  0  0  0
   -0.5560   -2.1130    0.9730 C   0  0  0  0  0  0
    1.5210    2.8130   -0.9440 O   0  0  0  0  0  0
    0.3970    0.9290   -2.8560 O   0  0  0  0  0  0
   -1.1680   -1.2440   -1.6370 O   0  0  0  0  0  0
    0.9670   -0.2380    1.1350 O   0  0  0  0  0  0
    0.3730   -3.0390    0.4180 O   0  0  0  0  0  0
    2.6000    1.3440    1.4170 N   0  0  0  0  0  0
    2.8620    1.7730    2.7070 C   0  0  0  0  0  0
    1.9680    2.0380    3.5130 O   0  0  0  0  0  0
    4.3260    1.8500    2.9980 C   0  0  0  0  0  0
    4.5920    2.2520    4.3890 N   0  0  0  0  0  0
    0.5375    1.8048    1.2945 H   0  0  0  0  0  0
    2.2724    0.8961   -1.0532 H   0  0  0  0  0  0
   -0.7260    1.3881   -1.1951 H   0  0  0  0  0  0
    0.8540   -1.2304   -1.2891 H   0  0  0  0  0  0
   -1.0461   -0.0279    0.7854 H   0  0  0  0  0  0
   -1.5723   -2.3729    0.6420 H   0  0  0  0  0  0
   -0.5050   -2.1585    2.0709 H   0  0  0  0  0  0
    2.2648    3.1464   -0.4561 H   0  0  0  0  0  0
    0.5251    1.8426   -3.0828 H   0  0  0  0  0  0
   -1.0597   -1.2172   -2.5804 H   0  0  0  0  0  0
    0.1580   -3.9170    0.7104 H   0  0  0  0  0  0
    3.3881    1.1623    0.8288 H   0  0  0  0  0  0
    4.7841    2.5868    2.3218 H   0  0  0  0  0  0
    4.7754    0.8616    2.8220 H   0  0  0  0  0  0
    5.6585    2.2944    4.5538 H   0  0  0  0  0  0
    4.1521    1.5313    5.0624 H   0  0  0  0  0  0
  1  2  1  0  0  0
  1 10  1  0  0  0
  1 12  1  0  0  0
  1 17  1  0  0  0
  2  3  1  0  0  0
  2  7  1  0  0  0
  2 18  1  0  0  0
  3  4  1  0  0  0
  3  8  1  0  0  0
  3 19  1  0  0  0
  4  5  1  0  0  0
  4  9  1  0  0  0
  4 20  1  0  0  0
  5  6  1  0  0  0
  5 10  1  0  0  0
  5 21  1  0  0  0
  6 11  1  0  0  0
  6 22  1  0  0  0
  6 23  1  0  0  0
  7 24  1  0  0  0
  8 25  1  0  0  0
  9 26  1  0  0  0
 11 27  1  0  0  0
 12 13  1  0  0  0
 12 28  1  0  0  0
 13 14  2  0  0  0
 13 15  1  0  0  0
 15 16  1  0  0  0
 15 29  1  0  0  0
 15 30  1  0  0  0
 16 31  1  0  0  0
 16 32  1  0  0  0
M  END
>  <ACTIVITY>
3.4

>  <SET>
1

>  <Min_dist>
999.9

>  <Avg_dist>
999.9

$$$$
44
  Cerius2 12110214173D 1   1.00000                          
Structure written by Cerius2 SD Exporter
 37 38  0  0  0  0  0  0  0  0999 V2000
    0.5340    1.1690    1.1530 C   0  0  0  0  0  0
    1.0150    1.5150   -0.2720 C   0  0  0  0  0  0
    0.1280    0.7560   -1.2910 C   0  0  0  0  0  0
    0.0040   -0.7330   -0.8980 C   0  0  0  0  0  0
   -0.3840   -0.8650    0.5870 C   0  0  0  0  0  0
   -0.6210   -2.3240    0.9910 C   0  0  0  0  0  0
    0.5340    2.7650    2.8800 O   0  0  0  0  0  0
    0.9640    2.9290   -0.5130 O   0  0  0  0  0  0
    0.5940    0.9340   -2.6360 O   0  0  0  0  0  0
   -0.9610   -1.3940   -1.7030 O   0  0  0  0  0  0
    0.5850   -0.2290    1.4210 O   0  0  0  0  0  0
    0.3910   -3.1620    0.4460 O   0  0  0  0  0  0
    1.2050    1.9620    2.2330 C   0  0  0  0  0  0
    2.6070    1.7760    2.4550 N   0  0  0  0  0  0
    3.3912    2.3486    3.4857 C   0  0  0  0  0  0
    2.8482    2.8466    4.6767 C   0  0  0  0  0  0
    3.6632    3.4416    5.6327 C   0  0  0  0  0  0
    5.0382    3.5076    5.4307 C   0  0  0  0  0  0
    5.5912    2.9696    4.2727 C   0  0  0  0  0  0
    4.7752    2.3936    3.3017 C   0  0  0  0  0  0
   -0.5288    1.4507    1.1868 H   0  0  0  0  0  0
    2.0567    1.1804   -0.3858 H   0  0  0  0  0  0
   -0.8805    1.1922   -1.2392 H   0  0  0  0  0  0
    0.9800   -1.2162   -1.0524 H   0  0  0  0  0  0
   -1.3364   -0.3323    0.7258 H   0  0  0  0  0  0
   -1.6020   -2.6492    0.6144 H   0  0  0  0  0  0
   -0.6047   -2.4032    2.0880 H   0  0  0  0  0  0
    1.5124    3.3780    0.1196 H   0  0  0  0  0  0
    0.6537    1.8620   -2.8302 H   0  0  0  0  0  0
   -0.7200   -1.3115   -2.6182 H   0  0  0  0  0  0
    0.2304   -4.0618    0.7049 H   0  0  0  0  0  0
    3.0844    1.1766    1.8124 H   0  0  0  0  0  0
    1.7818    2.7673    4.8548 H   0  0  0  0  0  0
    3.2275    3.8541    6.5355 H   0  0  0  0  0  0
    5.6756    3.9759    6.1719 H   0  0  0  0  0  0
    6.6647    2.9989    4.1251 H   0  0  0  0  0  0
    5.2150    1.9795    2.4016 H   0  0  0  0  0  0
  1  2  1  0  0  0
  1 11  1  0  0  0
  1 13  1  0  0  0
  1 21  1  0  0  0
  2  3  1  0  0  0
  2  8  1  0  0  0
  2 22  1  0  0  0
  3  4  1  0  0  0
  3  9  1  0  0  0
  3 23  1  0  0  0
  4  5  1  0  0  0
  4 10  1  0  0  0
  4 24  1  0  0  0
  5  6  1  0  0  0
  5 11  1  0  0  0
  5 25  1  0  0  0
  6 12  1  0  0  0
  6 26  1  0  0  0
  6 27  1  0  0  0
  7 13  2  0  0  0
  8 28  1  0  0  0
  9 29  1  0  0  0
 10 30  1  0  0  0
 12 31  1  0  0  0
 13 14  1  0  0  0
 14 15  1  0  0  0
 14 32  1  0  0  0
 15 16  1  0  0  0
 15 20  2  0  0  0
 16 17  2  0  0  0
 16 33  1  0  0  0
 17 18  1  0  0  0
 17 34  1  0  0  0
 18 19  2  0  0  0
 18 35  1  0  0  0
 19 20  1  0  0  0
 19 36  1  0  0  0
 20 37  1  0  0  0
M  END
>  <ACTIVITY>
2.3

>  <SET>
1

>  <Min_dist>
999.9

>  <Avg_dist>
999.9

$$$$
45
  Cerius2 12110214173D 1   1.00000                          
Structure written by Cerius2 SD Exporter
 35 35  0  0  0  0  0  0  0  0999 V2000
    1.2090    1.2100    0.9160 C   0  0  0  0  0  0
    1.2950    1.5160   -0.6180 C   0  0  0  0  0  0
    0.1800    0.8280   -1.4380 C   0  0  0  0  0  0
    0.0320   -0.6400   -1.0100 C   0  0  0  0  0  0
   -0.1520   -0.6980    0.5070 C   0  0  0  0  0  0
   -0.4790   -2.1190    0.9760 C   0  0  0  0  0  0
   -0.2890    1.6850    2.7570 O   0  0  0  0  0  0
    1.3650    2.9250   -0.9030 O   0  0  0  0  0  0
    0.4270    0.9560   -2.8430 O   0  0  0  0  0  0
   -1.0660   -1.2770   -1.6480 O   0  0  0  0  0  0
    1.0190   -0.1940    1.1440 O   0  0  0  0  0  0
    0.4210   -3.0500    0.3860 O   0  0  0  0  0  0
   -0.6390    2.9170    0.9200 N   0  0  0  0  0  0
    2.5780    1.4310    1.4610 N   0  0  0  0  0  0
    3.0670    2.0540    2.6210 C   0  0  0  0  0  0
    0.0640    1.9440    1.6130 C   0  0  0  0  0  0
    2.4120    2.6870    3.4550 O   0  0  0  0  0  0
    4.3855    1.9461    2.7583 O   0  0  0  0  0  0
    5.0105    2.6855    3.8107 C   0  0  0  0  0  0
    2.2452    1.0818   -0.9624 H   0  0  0  0  0  0
   -0.7688    1.3392   -1.2179 H   0  0  0  0  0  0
    0.9520   -1.1784   -1.2815 H   0  0  0  0  0  0
   -0.9984   -0.0497    0.7776 H   0  0  0  0  0  0
   -1.5081   -2.3714    0.6808 H   0  0  0  0  0  0
   -0.3886   -2.1702    2.0711 H   0  0  0  0  0  0
    2.0575    3.3187   -0.3854 H   0  0  0  0  0  0
    0.5122    1.8753   -3.0671 H   0  0  0  0  0  0
   -0.9498   -1.2399   -2.5901 H   0  0  0  0  0  0
    0.2093   -3.9271    0.6834 H   0  0  0  0  0  0
   -0.3766    3.1523   -0.0158 H   0  0  0  0  0  0
   -1.4086    3.3837    1.3558 H   0  0  0  0  0  0
    3.3001    1.0574    0.8788 H   0  0  0  0  0  0
    6.0941    2.4964    3.7982 H   0  0  0  0  0  0
    4.5943    2.3691    4.7785 H   0  0  0  0  0  0
    4.8241    3.7597    3.6650 H   0  0  0  0  0  0
  1  2  1  0  0  0
  1 11  1  0  0  0
  1 14  1  0  0  0
  1 16  1  0  0  0
  2  3  1  0  0  0
  2  8  1  0  0  0
  2 20  1  0  0  0
  3  4  1  0  0  0
  3  9  1  0  0  0
  3 21  1  0  0  0
  4  5  1  0  0  0
  4 10  1  0  0  0
  4 22  1  0  0  0
  5  6  1  0  0  0
  5 11  1  0  0  0
  5 23  1  0  0  0
  6 12  1  0  0  0
  6 24  1  0  0  0
  6 25  1  0  0  0
  7 16  2  0  0  0
  8 26  1  0  0  0
  9 27  1  0  0  0
 10 28  1  0  0  0
 12 29  1  0  0  0
 13 16  1  0  0  0
 13 30  1  0  0  0
 13 31  1  0  0  0
 14 15  1  0  0  0
 14 32  1  0  0  0
 15 17  2  0  0  0
 15 18  1  0  0  0
 18 19  1  0  0  0
 19 33  1  0  0  0
 19 34  1  0  0  0
 19 35  1  0  0  0
M  END
>  <ACTIVITY>
4.8

>  <SET>
1

>  <Min_dist>
999.9

>  <Avg_dist>
999.9

$$$$
46
  Cerius2 12110214173D 1   1.00000                          
Structure written by Cerius2 SD Exporter
 41 42  0  0  0  0  0  0  0  0999 V2000
    1.2084    1.1748    0.9454 C   0  0  0  0  0  0
    1.3304    1.5648   -0.5526 C   0  0  0  0  0  0
    0.2574    0.8548   -1.4086 C   0  0  0  0  0  0
    0.1244   -0.6232   -1.0026 C   0  0  0  0  0  0
   -0.0916   -0.6992    0.5094 C   0  0  0  0  0  0
   -0.4606   -2.1162    0.9564 C   0  0  0  0  0  0
    2.3444    1.6638    1.7374 N   0  0  0  0  0  0
    1.2374    2.9888   -0.7176 O   0  0  0  0  0  0
    0.5354    0.9978   -2.8076 O   0  0  0  0  0  0
   -0.9466   -1.2652   -1.6766 O   0  0  0  0  0  0
    1.0834   -0.2342    1.1474 O   0  0  0  0  0  0
    0.4274   -3.0632    0.3794 O   0  0  0  0  0  0
    2.0884    2.1888    3.0004 C   0  0  0  0  0  0
    3.1592    2.6191    3.6615 O   0  0  0  0  0  0
    0.9484    2.2788    3.4704 O   0  0  0  0  0  0
    2.9560    3.2690    4.9190 C   0  0  0  0  0  0
    4.3015    3.5924    5.5597 C   0  0  0  0  0  0
    4.3645    4.3524    6.7267 C   0  0  0  0  0  0
    5.5945    4.6464    7.3137 C   0  0  0  0  0  0
    6.7705    4.1784    6.7347 C   0  0  0  0  0  0
    6.7135    3.4164    5.5707 C   0  0  0  0  0  0
    5.4855    3.1264    4.9847 C   0  0  0  0  0  0
    0.2953    1.6520    1.3308 H   0  0  0  0  0  0
    2.3198    1.2416   -0.9084 H   0  0  0  0  0  0
   -0.7079    1.3434   -1.2099 H   0  0  0  0  0  0
    1.0587   -1.1441   -1.2590 H   0  0  0  0  0  0
   -0.9239   -0.0324    0.7791 H   0  0  0  0  0  0
   -1.4887   -2.3412    0.6364 H   0  0  0  0  0  0
   -0.3956   -2.1791    2.0526 H   0  0  0  0  0  0
    3.2768    1.6207    1.3786 H   0  0  0  0  0  0
    1.9014    3.4131   -0.1870 H   0  0  0  0  0  0
    0.6109    1.9201   -3.0228 H   0  0  0  0  0  0
   -0.8062   -1.2143   -2.6148 H   0  0  0  0  0  0
    0.1874   -3.9370    0.6646 H   0  0  0  0  0  0
    2.3853    2.6049    5.5848 H   0  0  0  0  0  0
    2.3938    4.2012    4.7611 H   0  0  0  0  0  0
    3.4506    4.7175    7.1811 H   0  0  0  0  0  0
    5.6349    5.2391    8.2205 H   0  0  0  0  0  0
    7.7281    4.4065    7.1887 H   0  0  0  0  0  0
    7.6281    3.0483    5.1201 H   0  0  0  0  0  0
    5.4477    2.5355    4.0768 H   0  0  0  0  0  0
  1  2  1  0  0  0
  1  7  1  0  0  0
  1 11  1  0  0  0
  1 23  1  0  0  0
  2  3  1  0  0  0
  2  8  1  0  0  0
  2 24  1  0  0  0
  3  4  1  0  0  0
  3  9  1  0  0  0
  3 25  1  0  0  0
  4  5  1  0  0  0
  4 10  1  0  0  0
  4 26  1  0  0  0
  5  6  1  0  0  0
  5 11  1  0  0  0
  5 27  1  0  0  0
  6 12  1  0  0  0
  6 28  1  0  0  0
  6 29  1  0  0  0
  7 13  1  0  0  0
  7 30  1  0  0  0
  8 31  1  0  0  0
  9 32  1  0  0  0
 10 33  1  0  0  0
 12 34  1  0  0  0
 13 14  1  0  0  0
 13 15  2  0  0  0
 14 16  1  0  0  0
 16 17  1  0  0  0
 16 35  1  0  0  0
 16 36  1  0  0  0
 17 18  1  0  0  0
 17 22  2  0  0  0
 18 19  2  0  0  0
 18 37  1  0  0  0
 19 20  1  0  0  0
 19 38  1  0  0  0
 20 21  2  0  0  0
 20 39  1  0  0  0
 21 22  1  0  0  0
 21 40  1  0  0  0
 22 41  1  0  0  0
M  END
>  <ACTIVITY>
3.5

>  <SET>
2

>  <Min_dist>
0.16

>  <Avg_dist>
0.52

$$$$
47
  Cerius2 12110214173D 1   1.00000                          
Structure written by Cerius2 SD Exporter
 37 37  0  0  0  0  0  0  0  0999 V2000
    1.3560    1.1550    0.8620 C   0  0  0  0  0  0
    1.3410    1.5400   -0.6420 C   0  0  0  0  0  0
    0.1950    0.8620   -1.4290 C   0  0  0  0  0  0
    0.0300   -0.6060   -1.0070 C   0  0  0  0  0  0
   -0.1170   -0.6630    0.5120 C   0  0  0  0  0  0
   -0.4810   -2.0780    0.9770 C   0  0  0  0  0  0
    2.6740    1.4470    1.4460 N   0  0  0  0  0  0
    1.2730    2.9650   -0.7880 O   0  0  0  0  0  0
    0.4130    0.9800   -2.8400 O   0  0  0  0  0  0
   -1.0900   -1.2220   -1.6260 O   0  0  0  0  0  0
    1.1050   -0.2350    1.0920 O   0  0  0  0  0  0
    0.4030   -3.0290    0.3930 O   0  0  0  0  0  0
    2.8030    1.9870    2.7200 C   0  0  0  0  0  0
    4.1940    2.1050    3.2750 C   0  0  0  0  0  0
    1.8020    2.3280    3.3520 O   0  0  0  0  0  0
    4.2000    2.9320    4.4960 N   0  0  0  0  0  0
    5.3510    3.5850    4.9210 C   0  0  0  0  0  0
    5.2540    4.4290    6.1590 C   0  0  0  0  0  0
    6.4020    3.4580    4.2920 O   0  0  0  0  0  0
    0.5852    1.7471    1.3770 H   0  0  0  0  0  0
    2.2900    1.1978   -1.0805 H   0  0  0  0  0  0
   -0.7401    1.3883   -1.1869 H   0  0  0  0  0  0
    0.9345   -1.1587   -1.3009 H   0  0  0  0  0  0
   -0.9200    0.0225    0.8206 H   0  0  0  0  0  0
   -1.5131   -2.3064    0.6728 H   0  0  0  0  0  0
   -0.4011   -2.1324    2.0727 H   0  0  0  0  0  0
    3.4975    1.2522    0.9132 H   0  0  0  0  0  0
    1.9818    3.3675   -0.3001 H   0  0  0  0  0  0
    0.5110    1.8966   -3.0697 H   0  0  0  0  0  0
   -0.9914   -1.1827   -2.5701 H   0  0  0  0  0  0
    0.1689   -3.9014    0.6874 H   0  0  0  0  0  0
    4.8454    2.5703    2.5206 H   0  0  0  0  0  0
    4.5725    1.1010    3.5172 H   0  0  0  0  0  0
    3.3590    3.0248    5.0289 H   0  0  0  0  0  0
    6.2341    4.8804    6.3727 H   0  0  0  0  0  0
    4.9468    3.8007    7.0080 H   0  0  0  0  0  0
    4.5102    5.2243    6.0033 H   0  0  0  0  0  0
  1  2  1  0  0  0
  1  7  1  0  0  0
  1 11  1  0  0  0
  1 20  1  0  0  0
  2  3  1  0  0  0
  2  8  1  0  0  0
  2 21  1  0  0  0
  3  4  1  0  0  0
  3  9  1  0  0  0
  3 22  1  0  0  0
  4  5  1  0  0  0
  4 10  1  0  0  0
  4 23  1  0  0  0
  5  6  1  0  0  0
  5 11  1  0  0  0
  5 24  1  0  0  0
  6 12  1  0  0  0
  6 25  1  0  0  0
  6 26  1  0  0  0
  7 13  1  0  0  0
  7 27  1  0  0  0
  8 28  1  0  0  0
  9 29  1  0  0  0
 10 30  1  0  0  0
 12 31  1  0  0  0
 13 14  1  0  0  0
 13 15  2  0  0  0
 14 16  1  0  0  0
 14 32  1  0  0  0
 14 33  1  0  0  0
 16 17  1  0  0  0
 16 34  1  0  0  0
 17 18  1  0  0  0
 17 19  2  0  0  0
 18 35  1  0  0  0
 18 36  1  0  0  0
 18 37  1  0  0  0
M  END
>  <ACTIVITY>
3

>  <SET>
2

>  <Min_dist>
0.12

>  <Avg_dist>
0.49

$$$$
48
  Cerius2 12110214173D 1   1.00000                          
Structure written by Cerius2 SD Exporter
 32 32  0  0  0  0  0  0  0  0999 V2000
    0.4830    1.2590    1.1140 C   0  0  0  0  0  0
    0.9300    1.5570   -0.3380 C   0  0  0  0  0  0
    0.0130    0.8070   -1.3280 C   0  0  0  0  0  0
   -0.1060   -0.6730   -0.9080 C   0  0  0  0  0  0
   -0.5020   -0.7780    0.5730 C   0  0  0  0  0  0
   -0.6780   -2.2390    0.9950 C   0  0  0  0  0  0
    0.9150    2.6940    2.9760 O   0  0  0  0  0  0
    0.9450    2.9670   -0.6060 O   0  0  0  0  0  0
    0.4670    0.9500   -2.6830 O   0  0  0  0  0  0
   -1.0540   -1.3750   -1.6920 O   0  0  0  0  0  0
    0.4770   -0.1400    1.3780 O   0  0  0  0  0  0
    0.3630   -3.0380    0.4440 O   0  0  0  0  0  0
    1.3600    1.9310    2.1160 C   0  0  0  0  0  0
    2.7460    1.6710    2.0380 N   0  0  0  0  0  0
    3.6370    2.3700    2.9680 N   0  0  0  0  0  0
    4.9840    1.7940    2.9430 C   0  0  0  0  0  0
   -0.5409    1.6418    1.2371 H   0  0  0  0  0  0
    1.9551    1.1790   -0.4655 H   0  0  0  0  0  0
   -0.9894    1.2557   -1.2671 H   0  0  0  0  0  0
    0.8768   -1.1477   -1.0451 H   0  0  0  0  0  0
   -1.4623   -0.2603    0.7139 H   0  0  0  0  0  0
   -1.6492   -2.6074    0.6330 H   0  0  0  0  0  0
   -0.6460   -2.3067    2.0924 H   0  0  0  0  0  0
    1.5158    3.4016    0.0168 H   0  0  0  0  0  0
    0.5265    1.8727   -2.9013 H   0  0  0  0  0  0
   -0.8141   -1.3135   -2.6092 H   0  0  0  0  0  0
    0.2441   -3.9417    0.7119 H   0  0  0  0  0  0
    3.1099    1.0266    1.3655 H   0  0  0  0  0  0
    3.3535    3.1626    3.5616 H   0  0  0  0  0  0
    5.6285    2.3379    3.6493 H   0  0  0  0  0  0
    5.3998    1.8777    1.9281 H   0  0  0  0  0  0
    4.9350    0.7341    3.2330 H   0  0  0  0  0  0
  1  2  1  0  0  0
  1 11  1  0  0  0
  1 13  1  0  0  0
  1 17  1  0  0  0
  2  3  1  0  0  0
  2  8  1  0  0  0
  2 18  1  0  0  0
  3  4  1  0  0  0
  3  9  1  0  0  0
  3 19  1  0  0  0
  4  5  1  0  0  0
  4 10  1  0  0  0
  4 20  1  0  0  0
  5  6  1  0  0  0
  5 11  1  0  0  0
  5 21  1  0  0  0
  6 12  1  0  0  0
  6 22  1  0  0  0
  6 23  1  0  0  0
  7 13  2  0  0  0
  8 24  1  0  0  0
  9 25  1  0  0  0
 10 26  1  0  0  0
 12 27  1  0  0  0
 13 14  1  0  0  0
 14 15  1  0  0  0
 14 28  1  0  0  0
 15 16  1  0  0  0
 15 29  1  0  0  0
 16 30  1  0  0  0
 16 31  1  0  0  0
 16 32  1  0  0  0
M  END
>  <ACTIVITY>
2.7

>  <SET>
2

>  <Min_dist>
0.14

>  <Avg_dist>
0.46

$$$$
49
  Cerius2 12110214173D 1   1.00000                          
Structure written by Cerius2 SD Exporter
 34 34  0  0  0  0  0  0  0  0999 V2000
    0.3570    1.3180    1.1630 C   0  0  0  0  0  0
    0.8900    1.5980   -0.2670 C   0  0  0  0  0  0
    0.0270    0.8370   -1.2980 C   0  0  0  0  0  0
   -0.0960   -0.6410   -0.8790 C   0  0  0  0  0  0
   -0.5830   -0.7440    0.5740 C   0  0  0  0  0  0
   -0.7460   -2.2090    0.9910 C   0  0  0  0  0  0
    0.7490    2.8590    2.9540 O   0  0  0  0  0  0
    0.9180    3.0030   -0.5600 O   0  0  0  0  0  0
    0.5360    0.9790   -2.6340 O   0  0  0  0  0  0
   -0.9790   -1.3610   -1.7190 O   0  0  0  0  0  0
    0.3260   -0.0810    1.4350 O   0  0  0  0  0  0
    0.3260   -2.9910    0.4730 O   0  0  0  0  0  0
    1.1840    1.9660    2.2260 C   0  0  0  0  0  0
    2.4770    1.4870    2.3800 N   0  0  0  0  0  0
    3.3710    2.0040    3.4290 C   0  0  0  0  0  0
    4.8220    1.9530    2.9530 C   0  0  0  0  0  0
    5.7050    2.3630    3.9910 O   0  0  0  0  0  0
   -0.6667    1.7156    1.2252 H   0  0  0  0  0  0
    1.9205    1.2185   -0.3299 H   0  0  0  0  0  0
   -0.9815    1.2760   -1.2828 H   0  0  0  0  0  0
    0.9008   -1.1008   -0.9500 H   0  0  0  0  0  0
   -1.5628   -0.2499    0.6504 H   0  0  0  0  0  0
   -1.6989   -2.5943    0.5992 H   0  0  0  0  0  0
   -0.7470   -2.2762    2.0889 H   0  0  0  0  0  0
    1.4531    3.4504    0.0850 H   0  0  0  0  0  0
    0.5966    1.9013   -2.8534 H   0  0  0  0  0  0
   -0.6807   -1.2995   -2.6189 H   0  0  0  0  0  0
    0.2142   -3.8965    0.7378 H   0  0  0  0  0  0
    2.8096    0.7733    1.7635 H   0  0  0  0  0  0
    3.2633    1.3891    4.3347 H   0  0  0  0  0  0
    3.0995    3.0450    3.6581 H   0  0  0  0  0  0
    4.9430    2.6239    2.0897 H   0  0  0  0  0  0
    5.0685    0.9234    2.6546 H   0  0  0  0  0  0
    6.6011    2.3251    3.6778 H   0  0  0  0  0  0
  1  2  1  0  0  0
  1 11  1  0  0  0
  1 13  1  0  0  0
  1 18  1  0  0  0
  2  3  1  0  0  0
  2  8  1  0  0  0
  2 19  1  0  0  0
  3  4  1  0  0  0
  3  9  1  0  0  0
  3 20  1  0  0  0
  4  5  1  0  0  0
  4 10  1  0  0  0
  4 21  1  0  0  0
  5  6  1  0  0  0
  5 11  1  0  0  0
  5 22  1  0  0  0
  6 12  1  0  0  0
  6 23  1  0  0  0
  6 24  1  0  0  0
  7 13  2  0  0  0
  8 25  1  0  0  0
  9 26  1  0  0  0
 10 27  1  0  0  0
 12 28  1  0  0  0
 13 14  1  0  0  0
 14 15  1  0  0  0
 14 29  1  0  0  0
 15 16  1  0  0  0
 15 30  1  0  0  0
 15 31  1  0  0  0
 16 17  1  0  0  0
 16 32  1  0  0  0
 16 33  1  0  0  0
 17 34  1  0  0  0
M  END
>  <ACTIVITY>
2.6

>  <SET>
1

>  <Min_dist>
999.9

>  <Avg_dist>
999.9

$$$$
5
  Cerius2 12110214173D 1   1.00000                          
Structure written by Cerius2 SD Exporter
 31 31  0  0  0  0  0  0  0  0999 V2000
    1.2890    1.4030    0.9320 C   0  0  0  0  0  0
    1.4560    1.6700   -0.5870 C   0  0  0  0  0  0
    0.3540    0.9660   -1.4130 C   0  0  0  0  0  0
    0.1810   -0.4880   -0.9620 C   0  0  0  0  0  0
   -0.0470   -0.5060    0.5540 C   0  0  0  0  0  0
   -0.4250   -1.9110    1.0430 C   0  0  0  0  0  0
    1.4480    3.0760   -0.8530 O   0  0  0  0  0  0
    0.6120    1.0560   -2.8170 O   0  0  0  0  0  0
   -0.8990   -1.1270   -1.6370 O   0  0  0  0  0  0
    1.1130    0.0050    1.2150 O   0  0  0  0  0  0
    0.3880   -2.8970    0.4130 O   0  0  0  0  0  0
    2.3950    1.9280    1.6760 O   0  0  0  0  0  0
    2.0030    2.2920    3.0080 C   0  0  0  0  0  0
    3.2080    2.8140    3.8100 C   0  0  0  0  0  0
    2.7950    3.5490    4.9650 O   0  0  0  0  0  0
    0.3809    1.9281    1.2629 H   0  0  0  0  0  0
    2.4296    1.2643   -0.8993 H   0  0  0  0  0  0
   -0.5936    1.4894   -1.2178 H   0  0  0  0  0  0
    1.1050   -1.0395   -1.1902 H   0  0  0  0  0  0
   -0.8896    0.1633    0.7821 H   0  0  0  0  0  0
   -1.4806   -2.1056    0.8027 H   0  0  0  0  0  0
   -0.2808   -1.9657    2.1321 H   0  0  0  0  0  0
    2.1277    3.4989   -0.3415 H   0  0  0  0  0  0
    0.7138    1.9681   -3.0624 H   0  0  0  0  0  0
   -0.7428   -1.1075   -2.5739 H   0  0  0  0  0  0
    0.1408   -3.7589    0.7268 H   0  0  0  0  0  0
    1.5876    1.4089    3.5155 H   0  0  0  0  0  0
    1.2366    3.0793    2.9557 H   0  0  0  0  0  0
    3.8082    3.4720    3.1644 H   0  0  0  0  0  0
    3.8200    1.9585    4.1317 H   0  0  0  0  0  0
    3.5610    3.8558    5.4357 H   0  0  0  0  0  0
  1  2  1  0  0  0
  1 10  1  0  0  0
  1 12  1  0  0  0
  1 16  1  0  0  0
  2  3  1  0  0  0
  2  7  1  0  0  0
  2 17  1  0  0  0
  3  4  1  0  0  0
  3  8  1  0  0  0
  3 18  1  0  0  0
  4  5  1  0  0  0
  4  9  1  0  0  0
  4 19  1  0  0  0
  5  6  1  0  0  0
  5 10  1  0  0  0
  5 20  1  0  0  0
  6 11  1  0  0  0
  6 21  1  0  0  0
  6 22  1  0  0  0
  7 23  1  0  0  0
  8 24  1  0  0  0
  9 25  1  0  0  0
 11 26  1  0  0  0
 12 13  1  0  0  0
 13 14  1  0  0  0
 13 27  1  0  0  0
 13 28  1  0  0  0
 14 15  1  0  0  0
 14 29  1  0  0  0
 14 30  1  0  0  0
 15 31  1  0  0  0
M  END
>  <ACTIVITY>
1.6

>  <SET>
1

>  <Min_dist>
999.9

>  <Avg_dist>
999.9

$$$$
50
  Cerius2 12110214173D 1   1.00000                          
Structure written by Cerius2 SD Exporter
 41 42  0  0  0  0  0  0  0  0999 V2000
    1.0310    1.2680    0.9960 C   0  0  0  0  0  0
    1.1790    1.5760   -0.5160 C   0  0  0  0  0  0
    0.1070    0.8640   -1.3710 C   0  0  0  0  0  0
   -0.0320   -0.6030   -0.9350 C   0  0  0  0  0  0
   -0.2700   -0.6630    0.5780 C   0  0  0  0  0  0
   -0.5550   -2.1000    1.0260 C   0  0  0  0  0  0
    2.5160    1.8350    1.8650 S   0  0  0  0  0  0
    1.1550    2.9910   -0.7410 O   0  0  0  0  0  0
    0.4130    0.9710   -2.7680 O   0  0  0  0  0  0
   -1.0840   -1.2690   -1.6210 O   0  0  0  0  0  0
    0.8660   -0.1320    1.2520 O   0  0  0  0  0  0
    0.3770   -2.9960    0.4270 O   0  0  0  0  0  0
    1.8250    2.2890    3.4820 C   0  0  0  0  0  0
    2.9020    2.9150    4.3290 C   0  0  0  0  0  0
    2.5110    3.3660    5.6300 N   0  0  0  0  0  0
    4.0610    3.0030    3.9240 O   0  0  0  0  0  0
    3.3301    3.9234    6.6417 C   0  0  0  0  0  0
    2.8171    3.9114    7.9427 C   0  0  0  0  0  0
    3.5651    4.4304    8.9957 C   0  0  0  0  0  0
    4.8281    4.9724    8.7567 C   0  0  0  0  0  0
    5.3431    4.9914    7.4607 C   0  0  0  0  0  0
    4.5991    4.4684    6.4067 C   0  0  0  0  0  0
    0.1522    1.8059    1.3812 H   0  0  0  0  0  0
    2.1613    1.1994   -0.8372 H   0  0  0  0  0  0
   -0.8574    1.3636   -1.1970 H   0  0  0  0  0  0
    0.9100   -1.1224   -1.1649 H   0  0  0  0  0  0
   -1.1457   -0.0439    0.8227 H   0  0  0  0  0  0
   -1.5746   -2.3798    0.7225 H   0  0  0  0  0  0
   -0.4679   -2.1634    2.1207 H   0  0  0  0  0  0
    1.8206    3.4079   -0.2065 H   0  0  0  0  0  0
    0.4923    1.8874   -3.0055 H   0  0  0  0  0  0
   -0.9282   -1.2267   -2.5572 H   0  0  0  0  0  0
    0.1911   -3.8831    0.7115 H   0  0  0  0  0  0
    1.4414    1.3881    3.9832 H   0  0  0  0  0  0
    1.0044    3.0080    3.3416 H   0  0  0  0  0  0
    1.5400    3.2764    5.8517 H   0  0  0  0  0  0
    1.8336    3.4965    8.1317 H   0  0  0  0  0  0
    3.1654    4.4134   10.0032 H   0  0  0  0  0  0
    5.4085    5.3783    9.5773 H   0  0  0  0  0  0
    6.3237    5.4139    7.2739 H   0  0  0  0  0  0
    5.0030    4.4829    5.4008 H   0  0  0  0  0  0
  1  2  1  0  0  0
  1  7  1  0  0  0
  1 11  1  0  0  0
  1 23  1  0  0  0
  2  3  1  0  0  0
  2  8  1  0  0  0
  2 24  1  0  0  0
  3  4  1  0  0  0
  3  9  1  0  0  0
  3 25  1  0  0  0
  4  5  1  0  0  0
  4 10  1  0  0  0
  4 26  1  0  0  0
  5  6  1  0  0  0
  5 11  1  0  0  0
  5 27  1  0  0  0
  6 12  1  0  0  0
  6 28  1  0  0  0
  6 29  1  0  0  0
  7 13  1  0  0  0
  8 30  1  0  0  0
  9 31  1  0  0  0
 10 32  1  0  0  0
 12 33  1  0  0  0
 13 14  1  0  0  0
 13 34  1  0  0  0
 13 35  1  0  0  0
 14 15  1  0  0  0
 14 16  2  0  0  0
 15 17  1  0  0  0
 15 36  1  0  0  0
 17 18  1  0  0  0
 17 22  2  0  0  0
 18 19  2  0  0  0
 18 37  1  0  0  0
 19 20  1  0  0  0
 19 38  1  0  0  0
 20 21  2  0  0  0
 20 39  1  0  0  0
 21 22  1  0  0  0
 21 40  1  0  0  0
 22 41  1  0  0  0
M  END
>  <ACTIVITY>
2.4

>  <SET>
1

>  <Min_dist>
999.9

>  <Avg_dist>
999.9

$$$$
51
  Cerius2 12110214173D 1   1.00000                          
Structure written by Cerius2 SD Exporter
 38 39  0  0  0  0  0  0  0  0999 V2000
    0.5470    1.2600    1.1830 C   0  0  0  0  0  0
    1.0110    1.5960   -0.2630 C   0  0  0  0  0  0
    0.1260    0.8350   -1.2770 C   0  0  0  0  0  0
    0.0030   -0.6490   -0.8790 C   0  0  0  0  0  0
   -0.4080   -0.7680    0.5980 C   0  0  0  0  0  0
   -0.6200   -2.2310    1.0000 C   0  0  0  0  0  0
    0.7180    2.8200    2.9540 O   0  0  0  0  0  0
    0.9620    3.0050   -0.5300 O   0  0  0  0  0  0
    0.5890    0.9950   -2.6280 O   0  0  0  0  0  0
   -0.9380   -1.3340   -1.6910 O   0  0  0  0  0  0
    0.5640   -0.1440    1.4250 O   0  0  0  0  0  0
    0.3910   -3.0510    0.4250 O   0  0  0  0  0  0
    1.3000    1.9840    2.2640 C   0  0  0  0  0  0
    2.6890    1.6800    2.4370 N   0  0  0  0  0  0
    3.6055    2.2845    3.3312 C   0  0  0  0  0  0
    4.9615    2.1225    3.0332 C   0  0  0  0  0  0
    5.9375    2.7665    3.7902 C   0  0  0  0  0  0
    5.5625    3.5655    4.8692 C   0  0  0  0  0  0
    4.2135    3.6865    5.2182 C   0  0  0  0  0  0
    3.2405    3.0535    4.4462 C   0  0  0  0  0  0
    6.5384    4.2578    5.5767 O   0  0  0  0  0  0
   -0.5000    1.5892    1.2559 H   0  0  0  0  0  0
    2.0517    1.2595   -0.3797 H   0  0  0  0  0  0
   -0.8817    1.2733   -1.2271 H   0  0  0  0  0  0
    0.9862   -1.1243   -1.0109 H   0  0  0  0  0  0
   -1.3629   -0.2386    0.7317 H   0  0  0  0  0  0
   -1.6054   -2.5663    0.6443 H   0  0  0  0  0  0
   -0.5772   -2.3164    2.0958 H   0  0  0  0  0  0
    1.5078    3.4652    0.0967 H   0  0  0  0  0  0
    0.6512    1.9203   -2.8339 H   0  0  0  0  0  0
   -0.6827   -1.2596   -2.6030 H   0  0  0  0  0  0
    0.2492   -3.9548    0.6810 H   0  0  0  0  0  0
    3.0557    0.9532    1.8562 H   0  0  0  0  0  0
    5.2566    1.4892    2.2045 H   0  0  0  0  0  0
    6.9856    2.6467    3.5410 H   0  0  0  0  0  0
    3.9258    4.2700    6.0853 H   0  0  0  0  0  0
    2.1940    3.1563    4.7095 H   0  0  0  0  0  0
    6.1302    4.7535    6.2768 H   0  0  0  0  0  0
  1  2  1  0  0  0
  1 11  1  0  0  0
  1 13  1  0  0  0
  1 22  1  0  0  0
  2  3  1  0  0  0
  2  8  1  0  0  0
  2 23  1  0  0  0
  3  4  1  0  0  0
  3  9  1  0  0  0
  3 24  1  0  0  0
  4  5  1  0  0  0
  4 10  1  0  0  0
  4 25  1  0  0  0
  5  6  1  0  0  0
  5 11  1  0  0  0
  5 26  1  0  0  0
  6 12  1  0  0  0
  6 27  1  0  0  0
  6 28  1  0  0  0
  7 13  2  0  0  0
  8 29  1  0  0  0
  9 30  1  0  0  0
 10 31  1  0  0  0
 12 32  1  0  0  0
 13 14  1  0  0  0
 14 15  1  0  0  0
 14 33  1  0  0  0
 15 16  1  0  0  0
 15 20  2  0  0  0
 16 17  2  0  0  0
 16 34  1  0  0  0
 17 18  1  0  0  0
 17 35  1  0  0  0
 18 19  2  0  0  0
 18 21  1  0  0  0
 19 20  1  0  0  0
 19 36  1  0  0  0
 20 37  1  0  0  0
 21 38  1  0  0  0
M  END
>  <ACTIVITY>
2.4

>  <SET>
1

>  <Min_dist>
999.9

>  <Avg_dist>
999.9

$$$$
52
  Cerius2 12110214173D 1   1.00000                          
Structure written by Cerius2 SD Exporter
 41 42  0  0  0  0  0  0  0  0999 V2000
    1.0610    1.2630    0.9740 C   0  0  0  0  0  0
    1.1990    1.5740   -0.5370 C   0  0  0  0  0  0
    0.1200    0.8640   -1.3840 C   0  0  0  0  0  0
   -0.0210   -0.6020   -0.9480 C   0  0  0  0  0  0
   -0.2500   -0.6600    0.5660 C   0  0  0  0  0  0
   -0.5430   -2.0950    1.0180 C   0  0  0  0  0  0
    2.5500    1.8260    1.8380 S   0  0  0  0  0  0
    1.1710    2.9910   -0.7570 O   0  0  0  0  0  0
    0.4160    0.9710   -2.7830 O   0  0  0  0  0  0
   -1.0790   -1.2650   -1.6260 O   0  0  0  0  0  0
    0.8940   -0.1360    1.2310 O   0  0  0  0  0  0
    0.3820   -2.9980    0.4200 O   0  0  0  0  0  0
    1.8490    2.2760    3.4490 C   0  0  0  0  0  0
    2.9470    2.7260    4.3730 C   0  0  0  0  0  0
    2.5450    3.4670    5.5260 N   0  0  0  0  0  0
    4.1220    2.4220    4.1740 O   0  0  0  0  0  0
    3.3686    3.9464    6.5733 C   0  0  0  0  0  0
    2.8306    3.8654    7.8623 C   0  0  0  0  0  0
    3.5626    4.3024    8.9643 C   0  0  0  0  0  0
    4.8406    4.8254    8.7653 C   0  0  0  0  0  0
    5.4076    4.9374    7.4963 C   0  0  0  0  0  0
    4.6546    4.4974    6.4103 C   0  0  0  0  0  0
    5.5383    5.2320    9.8221 F   0  0  0  0  0  0
    5.1937    4.6406    5.2029 F   0  0  0  0  0  0
    0.1853    1.8021    1.3646 H   0  0  0  0  0  0
    2.1791    1.1989   -0.8668 H   0  0  0  0  0  0
   -0.8419    1.3660   -1.2031 H   0  0  0  0  0  0
    0.9179   -1.1244   -1.1837 H   0  0  0  0  0  0
   -1.1196   -0.0344    0.8158 H   0  0  0  0  0  0
   -1.5648   -2.3693    0.7168 H   0  0  0  0  0  0
   -0.4544   -2.1563    2.1127 H   0  0  0  0  0  0
    1.8412    3.4069   -0.2275 H   0  0  0  0  0  0
    0.4968    1.8873   -3.0204 H   0  0  0  0  0  0
   -0.9291   -1.2243   -2.5632 H   0  0  0  0  0  0
    0.1909   -3.8832    0.7070 H   0  0  0  0  0  0
    1.3410    1.4024    3.8834 H   0  0  0  0  0  0
    1.1247    3.0933    3.3170 H   0  0  0  0  0  0
    1.5690    3.6708    5.6025 H   0  0  0  0  0  0
    1.8358    3.4592    8.0048 H   0  0  0  0  0  0
    3.1450    4.2369    9.9625 H   0  0  0  0  0  0
    6.3997    5.3524    7.3598 H   0  0  0  0  0  0
  1  2  1  0  0  0
  1  7  1  0  0  0
  1 11  1  0  0  0
  1 25  1  0  0  0
  2  3  1  0  0  0
  2  8  1  0  0  0
  2 26  1  0  0  0
  3  4  1  0  0  0
  3  9  1  0  0  0
  3 27  1  0  0  0
  4  5  1  0  0  0
  4 10  1  0  0  0
  4 28  1  0  0  0
  5  6  1  0  0  0
  5 11  1  0  0  0
  5 29  1  0  0  0
  6 12  1  0  0  0
  6 30  1  0  0  0
  6 31  1  0  0  0
  7 13  1  0  0  0
  8 32  1  0  0  0
  9 33  1  0  0  0
 10 34  1  0  0  0
 12 35  1  0  0  0
 13 14  1  0  0  0
 13 36  1  0  0  0
 13 37  1  0  0  0
 14 15  1  0  0  0
 14 16  2  0  0  0
 15 17  1  0  0  0
 15 38  1  0  0  0
 17 18  1  0  0  0
 17 22  2  0  0  0
 18 19  2  0  0  0
 18 39  1  0  0  0
 19 20  1  0  0  0
 19 40  1  0  0  0
 20 21  2  0  0  0
 20 23  1  0  0  0
 21 22  1  0  0  0
 21 41  1  0  0  0
 22 24  1  0  0  0
M  END
>  <ACTIVITY>
1.7

>  <SET>
2

>  <Min_dist>
0.12

>  <Avg_dist>
0.57

$$$$
53
  Cerius2 12110214173D 1   1.00000                          
Structure written by Cerius2 SD Exporter
 33 33  0  0  0  0  0  0  0  0999 V2000
    0.1620    1.2400    1.0440 C   0  0  0  0  0  0
    0.7610    1.5250   -0.3490 C   0  0  0  0  0  0
   -0.0980    0.7310   -1.3630 C   0  0  0  0  0  0
   -0.1820   -0.7520   -0.9220 C   0  0  0  0  0  0
   -0.5510   -0.8750    0.5680 C   0  0  0  0  0  0
   -0.6020   -2.3350    1.0230 C   0  0  0  0  0  0
    0.0540    2.8960    2.7590 O   0  0  0  0  0  0
    0.8000    2.9360   -0.6320 O   0  0  0  0  0  0
    0.3630    0.8900   -2.7140 O   0  0  0  0  0  0
   -1.1330   -1.4720   -1.6800 O   0  0  0  0  0  0
    0.3490   -0.1280    1.3670 O   0  0  0  0  0  0
    0.4320   -3.0830    0.3910 O   0  0  0  0  0  0
    0.7320    2.0900    2.1320 C   0  0  0  0  0  0
    2.0810    1.8830    2.3750 N   0  0  0  0  0  0
    2.8590    2.6110    3.3950 C   0  0  0  0  0  0
    4.2040    1.9140    3.5550 C   0  0  0  0  0  0
    4.9370    2.5020    4.5840 F   0  0  0  0  0  0
    4.9240    1.9560    2.3760 F   0  0  0  0  0  0
    3.9020    0.5970    3.8330 F   0  0  0  0  0  0
   -0.9177    1.4434    0.9917 H   0  0  0  0  0  0
    1.7930    1.1456   -0.3825 H   0  0  0  0  0  0
   -1.1175    1.1423   -1.3250 H   0  0  0  0  0  0
    0.8067   -1.2084   -1.0774 H   0  0  0  0  0  0
   -1.5561   -0.4484    0.7009 H   0  0  0  0  0  0
   -1.5780   -2.7655    0.7545 H   0  0  0  0  0  0
   -0.4687   -2.3806    2.1139 H   0  0  0  0  0  0
    1.3378    3.3744    0.0169 H   0  0  0  0  0  0
    0.3952    1.8144   -2.9308 H   0  0  0  0  0  0
   -0.9183   -1.4054   -2.6030 H   0  0  0  0  0  0
    0.3911   -3.9869    0.6804 H   0  0  0  0  0  0
    2.5565    1.1971    1.8242 H   0  0  0  0  0  0
    2.3183    2.6012    4.3529 H   0  0  0  0  0  0
    3.0147    3.6510    3.0724 H   0  0  0  0  0  0
  1  2  1  0  0  0
  1 11  1  0  0  0
  1 13  1  0  0  0
  1 20  1  0  0  0
  2  3  1  0  0  0
  2  8  1  0  0  0
  2 21  1  0  0  0
  3  4  1  0  0  0
  3  9  1  0  0  0
  3 22  1  0  0  0
  4  5  1  0  0  0
  4 10  1  0  0  0
  4 23  1  0  0  0
  5  6  1  0  0  0
  5 11  1  0  0  0
  5 24  1  0  0  0
  6 12  1  0  0  0
  6 25  1  0  0  0
  6 26  1  0  0  0
  7 13  2  0  0  0
  8 27  1  0  0  0
  9 28  1  0  0  0
 10 29  1  0  0  0
 12 30  1  0  0  0
 13 14  1  0  0  0
 14 15  1  0  0  0
 14 31  1  0  0  0
 15 16  1  0  0  0
 15 32  1  0  0  0
 15 33  1  0  0  0
 16 17  1  0  0  0
 16 18  1  0  0  0
 16 19  1  0  0  0
M  END
>  <ACTIVITY>
2.1

>  <SET>
1

>  <Min_dist>
999.9

>  <Avg_dist>
999.9

$$$$
54
  Cerius2 12110214173D 1   1.00000                          
Structure written by Cerius2 SD Exporter
 34 35  0  0  0  0  0  0  0  0999 V2000
    0.5180    1.3170    1.1480 C   0  0  0  0  0  0
    1.0140    1.6180   -0.2920 C   0  0  0  0  0  0
    0.1290    0.8620   -1.3120 C   0  0  0  0  0  0
   -0.0080   -0.6160   -0.9040 C   0  0  0  0  0  0
   -0.4810   -0.7140    0.5520 C   0  0  0  0  0  0
   -0.6960   -2.1740    0.9650 C   0  0  0  0  0  0
    0.8830    2.7180    3.0440 O   0  0  0  0  0  0
    1.0020    3.0240   -0.5730 O   0  0  0  0  0  0
    0.6090    1.0100   -2.6580 O   0  0  0  0  0  0
   -0.9130   -1.3160   -1.7370 O   0  0  0  0  0  0
    0.4650   -0.0870    1.3990 O   0  0  0  0  0  0
    0.3490   -2.9930    0.4500 O   0  0  0  0  0  0
    1.3580    1.9260    2.2300 C   0  0  0  0  0  0
    2.6800    1.4990    2.3180 N   0  0  0  0  0  0
    3.5340    1.7360    3.5050 C   0  0  0  0  0  0
    3.8450    3.1380    3.9470 C   0  0  0  0  0  0
    4.9040    2.3060    3.2850 C   0  0  0  0  0  0
   -0.4987    1.7279    1.2342 H   0  0  0  0  0  0
    2.0485    1.2561   -0.3860 H   0  0  0  0  0  0
   -0.8750    1.3098   -1.2750 H   0  0  0  0  0  0
    0.9807   -1.0906   -0.9891 H   0  0  0  0  0  0
   -1.4406   -0.1842    0.6445 H   0  0  0  0  0  0
   -1.6604   -2.5248    0.5689 H   0  0  0  0  0  0
   -0.7034   -2.2431    2.0628 H   0  0  0  0  0  0
    1.5478    3.4778    0.0584 H   0  0  0  0  0  0
    0.6791    1.9335   -2.8694 H   0  0  0  0  0  0
   -0.6228   -1.2572   -2.6397 H   0  0  0  0  0  0
    0.2038   -3.8943    0.7130 H   0  0  0  0  0  0
    3.0730    1.0075    1.5408 H   0  0  0  0  0  0
    3.3659    0.9469    4.2527 H   0  0  0  0  0  0
    3.9202    3.3730    5.0190 H   0  0  0  0  0  0
    3.4043    3.9934    3.4141 H   0  0  0  0  0  0
    5.7558    1.9318    3.8718 H   0  0  0  0  0  0
    5.2400    2.5522    2.2669 H   0  0  0  0  0  0
  1  2  1  0  0  0
  1 11  1  0  0  0
  1 13  1  0  0  0
  1 18  1  0  0  0
  2  3  1  0  0  0
  2  8  1  0  0  0
  2 19  1  0  0  0
  3  4  1  0  0  0
  3  9  1  0  0  0
  3 20  1  0  0  0
  4  5  1  0  0  0
  4 10  1  0  0  0
  4 21  1  0  0  0
  5  6  1  0  0  0
  5 11  1  0  0  0
  5 22  1  0  0  0
  6 12  1  0  0  0
  6 23  1  0  0  0
  6 24  1  0  0  0
  7 13  2  0  0  0
  8 25  1  0  0  0
  9 26  1  0  0  0
 10 27  1  0  0  0
 12 28  1  0  0  0
 13 14  1  0  0  0
 14 15  1  0  0  0
 14 29  1  0  0  0
 15 16  1  0  0  0
 15 17  1  0  0  0
 15 30  1  0  0  0
 16 17  1  0  0  0
 16 31  1  0  0  0
 16 32  1  0  0  0
 17 33  1  0  0  0
 17 34  1  0  0  0
M  END
>  <ACTIVITY>
2.9

>  <SET>
2

>  <Min_dist>
0.12

>  <Avg_dist>
0.42

$$$$
55
  Cerius2 12110214173D 1   1.00000                          
Structure written by Cerius2 SD Exporter
 38 40  0  0  0  0  0  0  0  0999 V2000
    0.0720    1.3830    1.1800 C   0  0  0  0  0  0
    0.7880    1.7100   -0.1550 C   0  0  0  0  0  0
    0.0870    0.8840   -1.2570 C   0  0  0  0  0  0
    0.0000   -0.5990   -0.8390 C   0  0  0  0  0  0
   -0.5750   -0.7340    0.5860 C   0  0  0  0  0  0
   -0.6990   -2.2030    1.0060 C   0  0  0  0  0  0
    1.4694    2.3233    2.9776 C   0  0  0  0  0  0
    0.7530    3.1050   -0.4670 O   0  0  0  0  0  0
    0.6900    1.0520   -2.5500 O   0  0  0  0  0  0
   -0.8000   -1.3430   -1.7420 O   0  0  0  0  0  0
    0.2080    0.0080    1.5150 O   0  0  0  0  0  0
    0.3600   -2.9730    0.4460 O   0  0  0  0  0  0
    1.6264    2.9823    4.1606 C   0  0  0  0  0  0
    3.0344    2.9983    4.4206 C   0  0  0  0  0  0
    3.7994    3.5933    5.4426 C   0  0  0  0  0  0
    5.1824    3.5383    5.3546 C   0  0  0  0  0  0
    5.8174    2.8923    4.2736 C   0  0  0  0  0  0
    5.0754    2.2713    3.2786 C   0  0  0  0  0  0
    3.6804    2.3293    3.3796 C   0  0  0  0  0  0
    2.7044    1.8233    2.4686 N   0  0  0  0  0  0
    0.3279    2.2331    2.3011 O   0  0  0  0  0  0
   -0.9961    1.5316    0.9630 H   0  0  0  0  0  0
    1.8408    1.3999   -0.0817 H   0  0  0  0  0  0
   -0.9434    1.2605   -1.3375 H   0  0  0  0  0  0
    1.0169   -1.0184   -0.8475 H   0  0  0  0  0  0
   -1.5872   -0.3034    0.5811 H   0  0  0  0  0  0
   -1.6618   -2.6006    0.6524 H   0  0  0  0  0  0
   -0.6549   -2.2708    2.1030 H   0  0  0  0  0  0
    1.1881    3.5944    0.2212 H   0  0  0  0  0  0
    0.7231    1.9765   -2.7662 H   0  0  0  0  0  0
   -0.4467   -1.2605   -2.6200 H   0  0  0  0  0  0
    0.2690   -3.8795    0.7152 H   0  0  0  0  0  0
    0.8406    3.4098    4.7817 H   0  0  0  0  0  0
    3.3173    4.0840    6.2804 H   0  0  0  0  0  0
    5.7849    3.9992    6.1290 H   0  0  0  0  0  0
    6.9000    2.8807    4.2191 H   0  0  0  0  0  0
    5.5584    1.7602    2.4536 H   0  0  0  0  0  0
    2.8567    1.2344    1.6374 H   0  0  0  0  0  0
  1  2  1  0  0  0
  1 11  1  0  0  0
  1 21  1  0  0  0
  1 22  1  0  0  0
  2  3  1  0  0  0
  2  8  1  0  0  0
  2 23  1  0  0  0
  3  4  1  0  0  0
  3  9  1  0  0  0
  3 24  1  0  0  0
  4  5  1  0  0  0
  4 10  1  0  0  0
  4 25  1  0  0  0
  5  6  1  0  0  0
  5 11  1  0  0  0
  5 26  1  0  0  0
  6 12  1  0  0  0
  6 27  1  0  0  0
  6 28  1  0  0  0
  7 13  2  0  0  0
  7 20  1  0  0  0
  7 21  1  0  0  0
  8 29  1  0  0  0
  9 30  1  0  0  0
 10 31  1  0  0  0
 12 32  1  0  0  0
 13 14  1  0  0  0
 13 33  1  0  0  0
 14 15  1  0  0  0
 14 19  2  0  0  0
 15 16  2  0  0  0
 15 34  1  0  0  0
 16 17  1  0  0  0
 16 35  1  0  0  0
 17 18  2  0  0  0
 17 36  1  0  0  0
 18 19  1  0  0  0
 18 37  1  0  0  0
 19 20  1  0  0  0
 20 38  1  0  0  0
M  END
>  <ACTIVITY>
2.6

>  <SET>
2

>  <Min_dist>
0

>  <Avg_dist>
0.56

$$$$
56
  Cerius2 12110214173D 1   1.00000                          
Structure written by Cerius2 SD Exporter
 29 30  0  0  0  0  0  0  0  0999 V2000
    1.3330    1.0760    0.8870 C   0  0  0  0  0  0
    1.2410    1.5380   -0.5980 C   0  0  0  0  0  0
    0.1190    0.8350   -1.4030 C   0  0  0  0  0  0
   -0.0040   -0.6480   -1.0100 C   0  0  0  0  0  0
   -0.1040   -0.7560    0.5100 C   0  0  0  0  0  0
   -0.4510   -2.1800    0.9530 C   0  0  0  0  0  0
    1.1520    2.9670   -0.7100 O   0  0  0  0  0  0
    0.3500    0.9740   -2.8100 O   0  0  0  0  0  0
   -1.1310   -1.2690   -1.6130 O   0  0  0  0  0  0
    1.1290   -0.3280    1.0680 O   0  0  0  0  0  0
    0.4470   -3.1090    0.3590 O   0  0  0  0  0  0
    2.6770    1.3390    1.4190 N   0  0  0  0  0  0
    2.6210    1.8930    2.6970 C   0  0  0  0  0  0
    1.2500    2.1800    2.9940 N   0  0  0  0  0  0
    0.4620    1.8360    1.8570 C   0  0  0  0  0  0
    3.5790    2.1190    3.4450 O   0  0  0  0  0  0
   -0.7240    2.1310    1.7440 O   0  0  0  0  0  0
    2.1898    1.2435   -1.0701 H   0  0  0  0  0  0
   -0.8337    1.3294   -1.1626 H   0  0  0  0  0  0
    0.9018   -1.1739   -1.3461 H   0  0  0  0  0  0
   -0.9025   -0.0851    0.8596 H   0  0  0  0  0  0
   -1.4789   -2.4176    0.6416 H   0  0  0  0  0  0
   -0.3743   -2.2492    2.0481 H   0  0  0  0  0  0
    1.8511    3.3682   -0.2072 H   0  0  0  0  0  0
    0.4225    1.8955   -3.0295 H   0  0  0  0  0  0
   -1.0634   -1.1987   -2.5580 H   0  0  0  0  0  0
    0.2239   -3.9888    0.6396 H   0  0  0  0  0  0
    3.5253    1.1450    0.9263 H   0  0  0  0  0  0
    0.9041    2.5576    3.8530 H   0  0  0  0  0  0
  1  2  1  0  0  0
  1 10  1  0  0  0
  1 12  1  0  0  0
  1 15  1  0  0  0
  2  3  1  0  0  0
  2  7  1  0  0  0
  2 18  1  0  0  0
  3  4  1  0  0  0
  3  8  1  0  0  0
  3 19  1  0  0  0
  4  5  1  0  0  0
  4  9  1  0  0  0
  4 20  1  0  0  0
  5  6  1  0  0  0
  5 10  1  0  0  0
  5 21  1  0  0  0
  6 11  1  0  0  0
  6 22  1  0  0  0
  6 23  1  0  0  0
  7 24  1  0  0  0
  8 25  1  0  0  0
  9 26  1  0  0  0
 11 27  1  0  0  0
 12 13  1  0  0  0
 12 28  1  0  0  0
 13 14  1  0  0  0
 13 16  2  0  0  0
 14 15  1  0  0  0
 14 29  1  0  0  0
 15 17  2  0  0  0
M  END
>  <ACTIVITY>
5.5

>  <SET>
1

>  <Min_dist>
999.9

>  <Avg_dist>
999.9

$$$$
57
  Cerius2 12110214173D 1   1.00000                          
Structure written by Cerius2 SD Exporter
 31 32  0  0  0  0  0  0  0  0999 V2000
    1.2530    1.1060    0.9080 C   0  0  0  0  0  0
    1.2550    1.5240   -0.5900 C   0  0  0  0  0  0
    0.1410    0.8280   -1.4090 C   0  0  0  0  0  0
    0.0060   -0.6530   -1.0080 C   0  0  0  0  0  0
   -0.1450   -0.7520    0.5090 C   0  0  0  0  0  0
   -0.4780   -2.1800    0.9500 C   0  0  0  0  0  0
    1.1930    2.9510   -0.7400 O   0  0  0  0  0  0
    0.3850    0.9680   -2.8140 O   0  0  0  0  0  0
   -1.1010   -1.2800   -1.6380 O   0  0  0  0  0  0
    1.0560   -0.2950    1.1140 O   0  0  0  0  0  0
    0.4390   -3.0990    0.3690 O   0  0  0  0  0  0
    2.5440    1.4050    1.5470 N   0  0  0  0  0  0
    2.3530    1.9860    2.8030 C   0  0  0  0  0  0
    0.9530    2.2420    2.9660 N   0  0  0  0  0  0
    0.2880    1.8930    1.7590 C   0  0  0  0  0  0
    3.2320    2.2690    3.6250 O   0  0  0  0  0  0
   -0.8700    2.2140    1.5050 O   0  0  0  0  0  0
    0.3450    3.0340    4.0410 N   0  0  0  0  0  0
    2.2160    1.1944   -1.0117 H   0  0  0  0  0  0
   -0.8118    1.3275   -1.1797 H   0  0  0  0  0  0
    0.9223   -1.1806   -1.3112 H   0  0  0  0  0  0
   -0.9701   -0.0959    0.8234 H   0  0  0  0  0  0
   -1.4988   -2.4316    0.6266 H   0  0  0  0  0  0
   -0.4137   -2.2463    2.0461 H   0  0  0  0  0  0
    1.8853    3.3535   -0.2289 H   0  0  0  0  0  0
    0.4636    1.8894   -3.0315 H   0  0  0  0  0  0
   -1.0057   -1.2176   -2.5811 H   0  0  0  0  0  0
    0.2236   -3.9809    0.6488 H   0  0  0  0  0  0
    3.4370    1.2178    1.1378 H   0  0  0  0  0  0
    0.8859    3.2504    4.8904 H   0  0  0  0  0  0
   -0.6228    3.3737    3.9463 H   0  0  0  0  0  0
  1  2  1  0  0  0
  1 10  1  0  0  0
  1 12  1  0  0  0
  1 15  1  0  0  0
  2  3  1  0  0  0
  2  7  1  0  0  0
  2 19  1  0  0  0
  3  4  1  0  0  0
  3  8  1  0  0  0
  3 20  1  0  0  0
  4  5  1  0  0  0
  4  9  1  0  0  0
  4 21  1  0  0  0
  5  6  1  0  0  0
  5 10  1  0  0  0
  5 22  1  0  0  0
  6 11  1  0  0  0
  6 23  1  0  0  0
  6 24  1  0  0  0
  7 25  1  0  0  0
  8 26  1  0  0  0
  9 27  1  0  0  0
 11 28  1  0  0  0
 12 13  1  0  0  0
 12 29  1  0  0  0
 13 14  1  0  0  0
 13 16  2  0  0  0
 14 15  1  0  0  0
 14 18  1  0  0  0
 15 17  2  0  0  0
 18 30  1  0  0  0
 18 31  1  0  0  0
M  END
>  <ACTIVITY>
6.8

>  <SET>
2

>  <Min_dist>
0.14

>  <Avg_dist>
0.59

$$$$
58
  Cerius2 12110214173D 1   1.00000                          
Structure written by Cerius2 SD Exporter
 32 33  0  0  0  0  0  0  0  0999 V2000
    1.3130    1.2020    0.9230 C   0  0  0  0  0  0
    1.3450    1.5670   -0.5930 C   0  0  0  0  0  0
    0.2340    0.8830   -1.4220 C   0  0  0  0  0  0
    0.0660   -0.5860   -1.0050 C   0  0  0  0  0  0
   -0.1150   -0.6630    0.5090 C   0  0  0  0  0  0
   -0.4610   -2.0890    0.9510 C   0  0  0  0  0  0
    1.3280    2.9870   -0.7900 O   0  0  0  0  0  0
    0.5120    1.0010   -2.8220 O   0  0  0  0  0  0
   -1.0480   -1.1960   -1.6450 O   0  0  0  0  0  0
    1.0670   -0.1900    1.1540 O   0  0  0  0  0  0
    0.4430   -3.0160    0.3610 O   0  0  0  0  0  0
    2.6730    1.4300    1.4430 N   0  0  0  0  0  0
    2.9530    1.8990    2.7220 C   0  0  0  0  0  0
    0.5650    2.4580    2.9720 N   0  0  0  0  0  0
    0.2930    2.0310    1.6740 C   0  0  0  0  0  0
    4.1280    2.0470    3.0590 O   0  0  0  0  0  0
   -0.7810    2.3520    1.1710 O   0  0  0  0  0  0
    1.8270    2.1750    3.6770 C   0  0  0  0  0  0
    2.3040    1.1969   -0.9845 H   0  0  0  0  0  0
   -0.7138    1.4028   -1.2186 H   0  0  0  0  0  0
    0.9759   -1.1363   -1.2867 H   0  0  0  0  0  0
   -0.9506   -0.0064    0.7929 H   0  0  0  0  0  0
   -1.4867   -2.3293    0.6346 H   0  0  0  0  0  0
   -0.3895   -2.1579    2.0465 H   0  0  0  0  0  0
    2.0172    3.3867   -0.2726 H   0  0  0  0  0  0
    0.6104    1.9182   -3.0491 H   0  0  0  0  0  0
   -0.9367   -1.1488   -2.5873 H   0  0  0  0  0  0
    0.2210   -3.8964    0.6404 H   0  0  0  0  0  0
    3.4442    1.2349    0.8371 H   0  0  0  0  0  0
   -0.1356    2.9861    3.4518 H   0  0  0  0  0  0
    2.0911    3.0450    4.2962 H   0  0  0  0  0  0
    1.6843    1.2955    4.3221 H   0  0  0  0  0  0
  1  2  1  0  0  0
  1 10  1  0  0  0
  1 12  1  0  0  0
  1 15  1  0  0  0
  2  3  1  0  0  0
  2  7  1  0  0  0
  2 19  1  0  0  0
  3  4  1  0  0  0
  3  8  1  0  0  0
  3 20  1  0  0  0
  4  5  1  0  0  0
  4  9  1  0  0  0
  4 21  1  0  0  0
  5  6  1  0  0  0
  5 10  1  0  0  0
  5 22  1  0  0  0
  6 11  1  0  0  0
  6 23  1  0  0  0
  6 24  1  0  0  0
  7 25  1  0  0  0
  8 26  1  0  0  0
  9 27  1  0  0  0
 11 28  1  0  0  0
 12 13  1  0  0  0
 12 29  1  0  0  0
 13 16  2  0  0  0
 13 18  1  0  0  0
 14 15  1  0  0  0
 14 18  1  0  0  0
 14 30  1  0  0  0
 15 17  2  0  0  0
 18 31  1  0  0  0
 18 32  1  0  0  0
M  END
>  <ACTIVITY>
4.2

>  <SET>
1

>  <Min_dist>
999.9

>  <Avg_dist>
999.9

$$$$
59
  Cerius2 12110214173D 1   1.00000                          
Structure written by Cerius2 SD Exporter
 24 24  0  0  0  0  0  0  0  0999 V2000
    1.2530    1.4850    0.8030 C   0  0  0  0  0  0
    1.4320    1.6820   -0.7120 C   0  0  0  0  0  0
    0.3100    0.9690   -1.4930 C   0  0  0  0  0  0
    0.1570   -0.4770   -1.0030 C   0  0  0  0  0  0
   -0.0370   -0.4600    0.5190 C   0  0  0  0  0  0
   -0.3870   -1.8570    1.0510 C   0  0  0  0  0  0
    2.3310    2.0950    1.5050 O   0  0  0  0  0  0
    1.4660    3.0790   -1.0100 O   0  0  0  0  0  0
    0.5380    1.0330   -2.9010 O   0  0  0  0  0  0
   -0.9310   -1.1420   -1.6370 O   0  0  0  0  0  0
    1.1210    0.0970    1.1490 O   0  0  0  0  0  0
    0.3980   -2.8550    0.4050 O   0  0  0  0  0  0
    0.3237    1.9921    1.1017 H   0  0  0  0  0  0
    2.3933    1.2389   -1.0113 H   0  0  0  0  0  0
   -0.6333    1.4952   -1.2852 H   0  0  0  0  0  0
    1.0803   -1.0267   -1.2382 H   0  0  0  0  0  0
   -0.8882    0.1993    0.7443 H   0  0  0  0  0  0
   -1.4520   -2.0582    0.8631 H   0  0  0  0  0  0
   -0.1929   -1.8900    2.1332 H   0  0  0  0  0  0
    2.3934    3.0098    1.2564 H   0  0  0  0  0  0
    2.1650    3.4912   -0.5160 H   0  0  0  0  0  0
    0.6273    1.9408   -3.1664 H   0  0  0  0  0  0
   -0.7962   -1.1441   -2.5774 H   0  0  0  0  0  0
    0.1669   -3.7105    0.7474 H   0  0  0  0  0  0
  1  2  1  0  0  0
  1  7  1  0  0  0
  1 11  1  0  0  0
  1 13  1  0  0  0
  2  3  1  0  0  0
  2  8  1  0  0  0
  2 14  1  0  0  0
  3  4  1  0  0  0
  3  9  1  0  0  0
  3 15  1  0  0  0
  4  5  1  0  0  0
  4 10  1  0  0  0
  4 16  1  0  0  0
  5  6  1  0  0  0
  5 11  1  0  0  0
  5 17  1  0  0  0
  6 12  1  0  0  0
  6 18  1  0  0  0
  6 19  1  0  0  0
  7 20  1  0  0  0
  8 21  1  0  0  0
  9 22  1  0  0  0
 10 23  1  0  0  0
 12 24  1  0  0  0
M  END
>  <ACTIVITY>
2.1

>  <SET>
1

>  <Min_dist>
999.9

>  <Avg_dist>
999.9

$$$$
6
  Cerius2 12110214173D 1   1.00000                          
Structure written by Cerius2 SD Exporter
 28 28  0  0  0  0  0  0  0  0999 V2000
    1.2230    1.4160    0.8860 C   0  0  0  0  0  0
    1.3800    1.6390   -0.6380 C   0  0  0  0  0  0
    0.2640    0.9400   -1.4410 C   0  0  0  0  0  0
    0.1100   -0.5130   -0.9700 C   0  0  0  0  0  0
   -0.1060   -0.5250    0.5500 C   0  0  0  0  0  0
   -0.4430   -1.9370    1.0490 C   0  0  0  0  0  0
    0.1050    2.2870    1.4880 C   0  0  0  0  0  0
    1.4520    3.0370   -0.9430 O   0  0  0  0  0  0
    0.5180    1.0160   -2.8480 O   0  0  0  0  0  0
   -0.9630   -1.1760   -1.6290 O   0  0  0  0  0  0
    1.0380    0.0270    1.2140 O   0  0  0  0  0  0
    0.3890   -2.9030    0.4150 O   0  0  0  0  0  0
    0.3730    2.5590    2.8780 N   0  0  0  0  0  0
    1.6042    2.1925    3.2801 N   0  0  0  0  0  0
    2.6965    1.8668    3.6219 N   0  0  0  0  0  0
    2.1663    1.7344    1.3538 H   0  0  0  0  0  0
    2.3347    1.1845   -0.9412 H   0  0  0  0  0  0
   -0.6819    1.4646   -1.2411 H   0  0  0  0  0  0
    1.0400   -1.0538   -1.1996 H   0  0  0  0  0  0
   -0.9678    0.1205    0.7753 H   0  0  0  0  0  0
   -1.4955   -2.1600    0.8200 H   0  0  0  0  0  0
   -0.2867   -1.9832    2.1368 H   0  0  0  0  0  0
   -0.8545    1.7562    1.4011 H   0  0  0  0  0  0
    0.0495    3.2374    0.9369 H   0  0  0  0  0  0
    2.1470    3.4368   -0.4335 H   0  0  0  0  0  0
    0.6077    1.9262   -3.1049 H   0  0  0  0  0  0
   -0.8160   -1.1608   -2.5674 H   0  0  0  0  0  0
    0.1678   -3.7699    0.7345 H   0  0  0  0  0  0
  1  2  1  0  0  0
  1  7  1  0  0  0
  1 11  1  0  0  0
  1 16  1  0  0  0
  2  3  1  0  0  0
  2  8  1  0  0  0
  2 17  1  0  0  0
  3  4  1  0  0  0
  3  9  1  0  0  0
  3 18  1  0  0  0
  4  5  1  0  0  0
  4 10  1  0  0  0
  4 19  1  0  0  0
  5  6  1  0  0  0
  5 11  1  0  0  0
  5 20  1  0  0  0
  6 12  1  0  0  0
  6 21  1  0  0  0
  6 22  1  0  0  0
  7 13  1  0  0  0
  7 23  1  0  0  0
  7 24  1  0  0  0
  8 25  1  0  0  0
  9 26  1  0  0  0
 10 27  1  0  0  0
 12 28  1  0  0  0
 13 14  2  0  0  0
 14 15  3  0  0  0
M  END
>  <ACTIVITY>
1.6

>  <SET>
1

>  <Min_dist>
999.9

>  <Avg_dist>
999.9

$$$$
60
  Cerius2 12110214173D 1   1.00000                          
Structure written by Cerius2 SD Exporter
 36 36  0  0  0  0  0  0  0  0999 V2000
    0.4330    1.2830    1.1540 C   0  0  0  0  0  0
    0.9410    1.5900   -0.2790 C   0  0  0  0  0  0
    0.0700    0.8270   -1.3010 C   0  0  0  0  0  0
   -0.0500   -0.6540   -0.8910 C   0  0  0  0  0  0
   -0.4950   -0.7670    0.5760 C   0  0  0  0  0  0
   -0.6760   -2.2300    0.9890 C   0  0  0  0  0  0
    0.9320    2.9980   -0.5570 O   0  0  0  0  0  0
    0.5570    0.9800   -2.6440 O   0  0  0  0  0  0
   -0.9650   -1.3570   -1.7120 O   0  0  0  0  0  0
    0.4440   -0.1170    1.4180 O   0  0  0  0  0  0
    0.3670   -3.0300    0.4410 O   0  0  0  0  0  0
    1.2020    1.9890    2.2260 C   0  0  0  0  0  0
    2.5300    1.6300    2.4270 N   0  0  0  0  0  0
    0.6840    2.8610    2.9240 O   0  0  0  0  0  0
    3.3340    2.3140    3.4560 C   0  0  0  0  0  0
    4.8290    2.1000    3.2040 C   0  0  0  0  0  0
    5.6840    2.9400    4.1680 C   0  0  0  0  0  0
    7.0220    2.5910    4.0180 F   0  0  0  0  0  0
    5.2940    2.7130    5.4850 F   0  0  0  0  0  0
    5.5340    4.2870    3.8720 F   0  0  0  0  0  0
   -0.6089    1.6312    1.2095 H   0  0  0  0  0  0
    1.9774    1.2315   -0.3641 H   0  0  0  0  0  0
   -0.9393    1.2633   -1.2694 H   0  0  0  0  0  0
    0.9405   -1.1207   -0.9964 H   0  0  0  0  0  0
   -1.4651   -0.2594    0.6823 H   0  0  0  0  0  0
   -1.6456   -2.5944    0.6189 H   0  0  0  0  0  0
   -0.6513   -2.3032    2.0863 H   0  0  0  0  0  0
    1.4720    3.4501    0.0806 H   0  0  0  0  0  0
   -0.0032    0.4979   -3.2408 H   0  0  0  0  0  0
   -1.0120   -2.2630   -1.4300 H   0  0  0  0  0  0
    0.2438   -3.9345    0.7040 H   0  0  0  0  0  0
    2.9407    0.9063    1.8724 H   0  0  0  0  0  0
    3.0731    1.9106    4.4456 H   0  0  0  0  0  0
    3.1138    3.3914    3.4295 H   0  0  0  0  0  0
    5.0635    2.3921    2.1698 H   0  0  0  0  0  0
    5.0679    1.0359    3.3476 H   0  0  0  0  0  0
  1  2  1  0  0  0
  1 10  1  0  0  0
  1 12  1  0  0  0
  1 21  1  0  0  0
  2  3  1  0  0  0
  2  7  1  0  0  0
  2 22  1  0  0  0
  3  4  1  0  0  0
  3  8  1  0  0  0
  3 23  1  0  0  0
  4  5  1  0  0  0
  4  9  1  0  0  0
  4 24  1  0  0  0
  5  6  1  0  0  0
  5 10  1  0  0  0
  5 25  1  0  0  0
  6 11  1  0  0  0
  6 26  1  0  0  0
  6 27  1  0  0  0
  7 28  1  0  0  0
  8 29  1  0  0  0
  9 30  1  0  0  0
 11 31  1  0  0  0
 12 13  1  0  0  0
 12 14  2  0  0  0
 13 15  1  0  0  0
 13 32  1  0  0  0
 15 16  1  0  0  0
 15 33  1  0  0  0
 15 34  1  0  0  0
 16 17  1  0  0  0
 16 35  1  0  0  0
 16 36  1  0  0  0
 17 18  1  0  0  0
 17 19  1  0  0  0
 17 20  1  0  0  0
M  END
>  <ACTIVITY>
2.1

>  <SET>
1

>  <Min_dist>
999.9

>  <Avg_dist>
999.9

$$$$
61
  Cerius2 12110214173D 1   1.00000                          
Structure written by Cerius2 SD Exporter
 25 25  0  0  0  0  0  0  0  0999 V2000
    0.9210    1.4630    0.9800 C   0  0  0  0  0  0
    1.1990    1.6870   -0.5350 C   0  0  0  0  0  0
    0.1840    0.9410   -1.4340 C   0  0  0  0  0  0
    0.0780   -0.5200   -0.9720 C   0  0  0  0  0  0
   -0.2570   -0.5420    0.5220 C   0  0  0  0  0  0
   -0.5520   -1.9790    0.9920 C   0  0  0  0  0  0
    1.2610    3.0810   -0.8350 O   0  0  0  0  0  0
    0.5430    1.0310   -2.8170 O   0  0  0  0  0  0
   -0.9160   -1.2420   -1.6910 O   0  0  0  0  0  0
    0.7810    0.0680    1.2920 O   0  0  0  0  0  0
    0.3540   -2.9140    0.3970 O   0  0  0  0  0  0
   -0.2080    2.3110    1.5680 C   0  0  0  0  0  0
   -0.9040    3.1410    0.8850 O   0  0  0  0  0  0
   -0.3700    2.1680    2.8170 O   0  5  0  0  0  0
    1.8326    1.7978    1.4967 H   0  0  0  0  0  0
    2.1906    1.2624   -0.7506 H   0  0  0  0  0  0
   -0.8010    1.4147   -1.3099 H   0  0  0  0  0  0
    1.0496   -1.0104   -1.1319 H   0  0  0  0  0  0
   -1.1715    0.0511    0.6699 H   0  0  0  0  0  0
   -1.5807   -2.2455    0.7078 H   0  0  0  0  0  0
   -0.4498   -2.0269    2.0862 H   0  0  0  0  0  0
    1.8932    3.5002   -0.2631 H   0  0  0  0  0  0
    0.6001    1.9448   -3.0705 H   0  0  0  0  0  0
   -0.7086   -1.2287   -2.6180 H   0  0  0  0  0  0
    0.1508   -3.7902    0.7027 H   0  0  0  0  0  0
  1  2  1  0  0  0
  1 10  1  0  0  0
  1 12  1  0  0  0
  1 15  1  0  0  0
  2  3  1  0  0  0
  2  7  1  0  0  0
  2 16  1  0  0  0
  3  4  1  0  0  0
  3  8  1  0  0  0
  3 17  1  0  0  0
  4  5  1  0  0  0
  4  9  1  0  0  0
  4 18  1  0  0  0
  5  6  1  0  0  0
  5 10  1  0  0  0
  5 19  1  0  0  0
  6 11  1  0  0  0
  6 20  1  0  0  0
  6 21  1  0  0  0
  7 22  1  0  0  0
  8 23  1  0  0  0
  9 24  1  0  0  0
 11 25  1  0  0  0
 12 13  2  0  0  0
 12 14  1  0  0  0
M  CHG  1  14  -1
M  END
>  <ACTIVITY>
1.8

>  <SET>
1

>  <Min_dist>
999.9

>  <Avg_dist>
999.9

$$$$
62
  Cerius2 12110214173D 1   1.00000                          
Structure written by Cerius2 SD Exporter
 34 34  0  0  0  0  0  0  0  0999 V2000
    1.1860    1.2850    0.9360 C   0  0  0  0  0  0
    1.3190    1.5820   -0.5930 C   0  0  0  0  0  0
    0.2330    0.8680   -1.4320 C   0  0  0  0  0  0
    0.0980   -0.5990   -0.9940 C   0  0  0  0  0  0
   -0.0900   -0.6520    0.5280 C   0  0  0  0  0  0
   -0.4300   -2.0700    1.0010 C   0  0  0  0  0  0
    1.3720    2.9860   -0.8870 O   0  0  0  0  0  0
    0.5000    0.9870   -2.8330 O   0  0  0  0  0  0
   -0.9900   -1.2470   -1.6420 O   0  0  0  0  0  0
    1.0690   -0.1250    1.1800 O   0  0  0  0  0  0
    0.4320   -3.0180    0.3820 O   0  0  0  0  0  0
    0.0520    2.0240    1.6200 C   0  0  0  0  0  0
   -0.6610    2.9270    0.8510 N   0  0  0  0  0  0
   -0.2340    1.8520    2.8030 O   0  0  0  0  0  0
   -1.8700    3.6370    1.2850 C   0  0  0  0  0  0
   -3.0610    3.1720    0.4440 C   0  0  0  0  0  0
   -3.8980    4.2800    0.1360 O   0  0  0  0  0  0
    2.1198    1.6266    1.4063 H   0  0  0  0  0  0
    2.2854    1.1604   -0.9065 H   0  0  0  0  0  0
   -0.7278    1.3658   -1.2343 H   0  0  0  0  0  0
    1.0246   -1.1299   -1.2577 H   0  0  0  0  0  0
   -0.9420   -0.0059    0.7860 H   0  0  0  0  0  0
   -1.4724   -2.3005    0.7361 H   0  0  0  0  0  0
   -0.3078   -2.1273    2.0927 H   0  0  0  0  0  0
    2.0464    3.3951   -0.3576 H   0  0  0  0  0  0
    0.5764    1.9053   -3.0639 H   0  0  0  0  0  0
   -0.8657   -1.2096   -2.5831 H   0  0  0  0  0  0
    0.2108   -3.8913    0.6835 H   0  0  0  0  0  0
   -0.3261    3.1102   -0.0733 H   0  0  0  0  0  0
   -1.7275    4.7196    1.1526 H   0  0  0  0  0  0
   -2.0626    3.4196    2.3459 H   0  0  0  0  0  0
   -3.6377    2.4254    1.0097 H   0  0  0  0  0  0
   -2.6942    2.7213   -0.4900 H   0  0  0  0  0  0
   -4.6349    3.9848   -0.3858 H   0  0  0  0  0  0
  1  2  1  0  0  0
  1 10  1  0  0  0
  1 12  1  0  0  0
  1 18  1  0  0  0
  2  3  1  0  0  0
  2  7  1  0  0  0
  2 19  1  0  0  0
  3  4  1  0  0  0
  3  8  1  0  0  0
  3 20  1  0  0  0
  4  5  1  0  0  0
  4  9  1  0  0  0
  4 21  1  0  0  0
  5  6  1  0  0  0
  5 10  1  0  0  0
  5 22  1  0  0  0
  6 11  1  0  0  0
  6 23  1  0  0  0
  6 24  1  0  0  0
  7 25  1  0  0  0
  8 26  1  0  0  0
  9 27  1  0  0  0
 11 28  1  0  0  0
 12 13  1  0  0  0
 12 14  2  0  0  0
 13 15  1  0  0  0
 13 29  1  0  0  0
 15 16  1  0  0  0
 15 30  1  0  0  0
 15 31  1  0  0  0
 16 17  1  0  0  0
 16 32  1  0  0  0
 16 33  1  0  0  0
 17 34  1  0  0  0
M  END
>  <ACTIVITY>
1.8

>  <SET>
2

>  <Min_dist>
0

>  <Avg_dist>
0.43

$$$$
63
  Cerius2 12110214173D 1   1.00000                          
Structure written by Cerius2 SD Exporter
 40 41  0  0  0  0  0  0  0  0999 V2000
    1.0510    1.3780    0.9800 C   0  0  0  0  0  0
    1.2400    1.6520   -0.5390 C   0  0  0  0  0  0
    0.1950    0.9140   -1.4090 C   0  0  0  0  0  0
    0.0610   -0.5480   -0.9540 C   0  0  0  0  0  0
   -0.1910   -0.5900    0.5600 C   0  0  0  0  0  0
   -0.4950   -2.0180    1.0300 C   0  0  0  0  0  0
    1.2880    3.0540   -0.8260 O   0  0  0  0  0  0
    0.5170    1.0090   -2.8010 O   0  0  0  0  0  0
   -0.9820   -1.2250   -1.6430 O   0  0  0  0  0  0
    0.9250   -0.0250    1.2540 O   0  0  0  0  0  0
    0.3920   -2.9450    0.4130 O   0  0  0  0  0  0
   -0.0820    2.1570    1.6170 C   0  0  0  0  0  0
   -0.9040    2.9380    0.8130 N   0  0  0  0  0  0
   -0.2870    2.1110    2.8300 O   0  0  0  0  0  0
   -2.0370    3.7060    1.3520 C   0  0  0  0  0  0
   -3.2961    3.4227    0.5396 C   0  0  0  0  0  0
   -3.3471    2.3477   -0.3504 C   0  0  0  0  0  0
   -4.4951    2.1077   -1.1034 C   0  0  0  0  0  0
   -5.5921    2.9597   -0.9554 C   0  0  0  0  0  0
   -5.5831    4.0397   -0.0724 C   0  0  0  0  0  0
   -4.4191    4.2457    0.6646 C   0  0  0  0  0  0
   -4.3727    5.2698    1.5120 F   0  0  0  0  0  0
   -6.6830    2.7352   -1.6823 F   0  0  0  0  0  0
    1.9750    1.7176    1.4708 H   0  0  0  0  0  0
    2.2225    1.2400   -0.8128 H   0  0  0  0  0  0
   -0.7781    1.4042   -1.2580 H   0  0  0  0  0  0
    1.0075   -1.0658   -1.1687 H   0  0  0  0  0  0
   -1.0741    0.0288    0.7772 H   0  0  0  0  0  0
   -1.5306   -2.2746    0.7622 H   0  0  0  0  0  0
   -0.3742   -2.0732    2.1219 H   0  0  0  0  0  0
    1.9396    3.4684   -0.2726 H   0  0  0  0  0  0
    0.5919    1.9235   -3.0470 H   0  0  0  0  0  0
   -0.8166   -1.1932   -2.5779 H   0  0  0  0  0  0
    0.1913   -3.8235    0.7138 H   0  0  0  0  0  0
   -0.7182    2.9794   -0.1687 H   0  0  0  0  0  0
   -1.8054    4.7801    1.3013 H   0  0  0  0  0  0
   -2.2072    3.4166    2.3995 H   0  0  0  0  0  0
   -2.4879    1.6954   -0.4563 H   0  0  0  0  0  0
   -4.5361    1.2726   -1.7933 H   0  0  0  0  0  0
   -6.4438    4.6898    0.0355 H   0  0  0  0  0  0
  1  2  1  0  0  0
  1 10  1  0  0  0
  1 12  1  0  0  0
  1 24  1  0  0  0
  2  3  1  0  0  0
  2  7  1  0  0  0
  2 25  1  0  0  0
  3  4  1  0  0  0
  3  8  1  0  0  0
  3 26  1  0  0  0
  4  5  1  0  0  0
  4  9  1  0  0  0
  4 27  1  0  0  0
  5  6  1  0  0  0
  5 10  1  0  0  0
  5 28  1  0  0  0
  6 11  1  0  0  0
  6 29  1  0  0  0
  6 30  1  0  0  0
  7 31  1  0  0  0
  8 32  1  0  0  0
  9 33  1  0  0  0
 11 34  1  0  0  0
 12 13  1  0  0  0
 12 14  2  0  0  0
 13 15  1  0  0  0
 13 35  1  0  0  0
 15 16  1  0  0  0
 15 36  1  0  0  0
 15 37  1  0  0  0
 16 17  1  0  0  0
 16 21  2  0  0  0
 17 18  2  0  0  0
 17 38  1  0  0  0
 18 19  1  0  0  0
 18 39  1  0  0  0
 19 20  2  0  0  0
 19 23  1  0  0  0
 20 21  1  0  0  0
 20 40  1  0  0  0
 21 22  1  0  0  0
M  END
>  <ACTIVITY>
1.6

>  <SET>
2

>  <Min_dist>
0.27

>  <Avg_dist>
0.5

$$$$
64
  Cerius2 12110214173D 1   1.00000                          
Structure written by Cerius2 SD Exporter
 31 31  0  0  0  0  0  0  0  0999 V2000
    1.3690    1.1420    0.8540 C   0  0  0  0  0  0
    1.3400    1.5320   -0.6480 C   0  0  0  0  0  0
    0.1880    0.8560   -1.4280 C   0  0  0  0  0  0
    0.0240   -0.6120   -1.0060 C   0  0  0  0  0  0
   -0.1070   -0.6720    0.5150 C   0  0  0  0  0  0
   -0.4720   -2.0860    0.9800 C   0  0  0  0  0  0
    1.2720    2.9580   -0.7900 O   0  0  0  0  0  0
    0.3970    0.9750   -2.8400 O   0  0  0  0  0  0
   -1.1050   -1.2240   -1.6150 O   0  0  0  0  0  0
    1.1230   -0.2500    1.0810 O   0  0  0  0  0  0
    0.4060   -3.0380    0.3890 O   0  0  0  0  0  0
    2.6880    1.4490    1.4270 N   0  0  0  0  0  0
    2.8180    2.0250    2.6910 C   0  0  0  0  0  0
    1.8490    2.3780    3.3730 O   0  0  0  0  0  0
    4.0696    2.1799    3.1134 O   0  0  0  0  0  0
    4.2946    2.8437    4.3598 C   0  0  0  0  0  0
    0.5979    1.7274    1.3762 H   0  0  0  0  0  0
    2.2851    1.1910   -1.0956 H   0  0  0  0  0  0
   -0.7449    1.3832   -1.1794 H   0  0  0  0  0  0
    0.9239   -1.1666   -1.3104 H   0  0  0  0  0  0
   -0.9036    0.0162    0.8342 H   0  0  0  0  0  0
   -1.5065   -2.3112    0.6817 H   0  0  0  0  0  0
   -0.3855   -2.1424    2.0751 H   0  0  0  0  0  0
    1.9847    3.3587   -0.3063 H   0  0  0  0  0  0
    0.4946    1.8917   -3.0695 H   0  0  0  0  0  0
   -1.0163   -1.1828   -2.5599 H   0  0  0  0  0  0
    0.1716   -3.9103    0.6833 H   0  0  0  0  0  0
    3.5108    1.2401    0.8984 H   0  0  0  0  0  0
    5.3750    2.8888    4.5614 H   0  0  0  0  0  0
    3.7939    2.2885    5.1667 H   0  0  0  0  0  0
    3.8880    3.8646    4.3102 H   0  0  0  0  0  0
  1  2  1  0  0  0
  1 10  1  0  0  0
  1 12  1  0  0  0
  1 17  1  0  0  0
  2  3  1  0  0  0
  2  7  1  0  0  0
  2 18  1  0  0  0
  3  4  1  0  0  0
  3  8  1  0  0  0
  3 19  1  0  0  0
  4  5  1  0  0  0
  4  9  1  0  0  0
  4 20  1  0  0  0
  5  6  1  0  0  0
  5 10  1  0  0  0
  5 21  1  0  0  0
  6 11  1  0  0  0
  6 22  1  0  0  0
  6 23  1  0  0  0
  7 24  1  0  0  0
  8 25  1  0  0  0
  9 26  1  0  0  0
 11 27  1  0  0  0
 12 13  1  0  0  0
 12 28  1  0  0  0
 13 14  2  0  0  0
 13 15  1  0  0  0
 15 16  1  0  0  0
 16 29  1  0  0  0
 16 30  1  0  0  0
 16 31  1  0  0  0
M  END
>  <ACTIVITY>
4.1

>  <SET>
1

>  <Min_dist>
999.9

>  <Avg_dist>
999.9

$$$$
65
  Cerius2 12110214173D 1   1.00000                          
Structure written by Cerius2 SD Exporter
 36 37  0  0  0  0  0  0  0  0999 V2000
    1.3310    1.1280    0.9150 C   0  0  0  0  0  0
    1.2440    1.5810   -0.5740 C   0  0  0  0  0  0
    0.1340    0.8700   -1.3880 C   0  0  0  0  0  0
    0.0090   -0.6080   -0.9850 C   0  0  0  0  0  0
   -0.1250   -0.7020    0.5330 C   0  0  0  0  0  0
   -0.4730   -2.1280    0.9740 C   0  0  0  0  0  0
    1.1500    3.0070   -0.6980 O   0  0  0  0  0  0
    0.3840    0.9930   -2.7940 O   0  0  0  0  0  0
   -1.0980   -1.2430   -1.6120 O   0  0  0  0  0  0
    1.0970   -0.2700    1.1140 O   0  0  0  0  0  0
    0.4220   -3.0580    0.3750 O   0  0  0  0  0  0
    2.6880    1.3450    1.4320 N   0  0  0  0  0  0
    2.6800    1.8720    2.7240 C   0  0  0  0  0  0
    1.3230    2.2350    3.0330 N   0  0  0  0  0  0
    0.5080    1.9220    1.9010 C   0  0  0  0  0  0
    3.6740    1.9810    3.4510 O   0  0  0  0  0  0
   -0.6720    2.2520    1.8110 O   0  0  0  0  0  0
    0.7090    2.6940    4.2920 N   0  0  0  0  0  0
    1.2800    3.5400    5.2840 C   0  0  0  0  0  0
    0.4430    3.7310    6.5140 C   0  0  0  0  0  0
    2.3740    4.0890    5.1530 O   0  0  0  0  0  0
    2.1980    1.2881   -1.0367 H   0  0  0  0  0  0
   -0.8225    1.3654   -1.1654 H   0  0  0  0  0  0
    0.9260   -1.1312   -1.2937 H   0  0  0  0  0  0
   -0.9329   -0.0317    0.8615 H   0  0  0  0  0  0
   -1.5022   -2.3632    0.6652 H   0  0  0  0  0  0
   -0.3931   -2.1999    2.0687 H   0  0  0  0  0  0
    1.8411    3.4153   -0.1899 H   0  0  0  0  0  0
    0.4580    1.9120   -3.0232 H   0  0  0  0  0  0
   -1.0066   -1.1798   -2.5555 H   0  0  0  0  0  0
    0.1981   -3.9379    0.6544 H   0  0  0  0  0  0
    3.5208    1.1391    0.9181 H   0  0  0  0  0  0
   -0.2208    2.3722    4.4707 H   0  0  0  0  0  0
    0.9681    4.3964    7.2151 H   0  0  0  0  0  0
    0.2688    2.7567    6.9939 H   0  0  0  0  0  0
   -0.5216    4.1801    6.2350 H   0  0  0  0  0  0
  1  2  1  0  0  0
  1 10  1  0  0  0
  1 12  1  0  0  0
  1 15  1  0  0  0
  2  3  1  0  0  0
  2  7  1  0  0  0
  2 22  1  0  0  0
  3  4  1  0  0  0
  3  8  1  0  0  0
  3 23  1  0  0  0
  4  5  1  0  0  0
  4  9  1  0  0  0
  4 24  1  0  0  0
  5  6  1  0  0  0
  5 10  1  0  0  0
  5 25  1  0  0  0
  6 11  1  0  0  0
  6 26  1  0  0  0
  6 27  1  0  0  0
  7 28  1  0  0  0
  8 29  1  0  0  0
  9 30  1  0  0  0
 11 31  1  0  0  0
 12 13  1  0  0  0
 12 32  1  0  0  0
 13 14  1  0  0  0
 13 16  2  0  0  0
 14 15  1  0  0  0
 14 18  1  0  0  0
 15 17  2  0  0  0
 18 19  1  0  0  0
 18 33  1  0  0  0
 19 20  1  0  0  0
 19 21  2  0  0  0
 20 34  1  0  0  0
 20 35  1  0  0  0
 20 36  1  0  0  0
M  END
>  <ACTIVITY>
3.3

>  <SET>
2

>  <Min_dist>
0.22

>  <Avg_dist>
0.59

$$$$
66
  Cerius2 12110214173D 1   1.00000                          
Structure written by Cerius2 SD Exporter
 30 31  0  0  0  0  0  0  0  0999 V2000
    1.2570    1.0890    0.9220 C   0  0  0  0  0  0
    1.2250    1.5050   -0.5750 C   0  0  0  0  0  0
    0.1010    0.8050   -1.3720 C   0  0  0  0  0  0
   -0.0070   -0.6720   -0.9620 C   0  0  0  0  0  0
   -0.1770   -0.7580    0.5530 C   0  0  0  0  0  0
   -0.4950   -2.1890    0.9910 C   0  0  0  0  0  0
    1.1720    2.9320   -0.7320 O   0  0  0  0  0  0
    0.3240    0.9480   -2.7810 O   0  0  0  0  0  0
   -1.0870   -1.3350   -1.6050 O   0  0  0  0  0  0
    1.0190   -0.2980    1.1640 O   0  0  0  0  0  0
    0.4190   -3.1010    0.3890 O   0  0  0  0  0  0
    2.5890    1.3340    1.4880 N   0  0  0  0  0  0
    2.5130    1.9750    2.7230 C   0  0  0  0  0  0
    1.1390    2.3030    2.9570 N   0  0  0  0  0  0
    0.3710    1.9180    1.8190 C   0  0  0  0  0  0
    3.4560    2.2490    3.4700 O   0  0  0  0  0  0
   -0.8060    2.2350    1.6520 O   0  0  0  0  0  0
    0.6884    3.3033    3.9637 O   0  0  0  0  0  0
    2.1768    1.1710   -1.0137 H   0  0  0  0  0  0
   -0.8522    1.2962   -1.1271 H   0  0  0  0  0  0
    0.9267   -1.1799   -1.2454 H   0  0  0  0  0  0
   -1.0093   -0.1064    0.8574 H   0  0  0  0  0  0
   -1.5196   -2.4444    0.6827 H   0  0  0  0  0  0
   -0.4126   -2.2611    2.0855 H   0  0  0  0  0  0
    1.8735    3.3319   -0.2315 H   0  0  0  0  0  0
    0.3857    1.8704   -2.9998 H   0  0  0  0  0  0
   -0.9772   -1.2790   -2.5470 H   0  0  0  0  0  0
    0.2130   -3.9857    0.6672 H   0  0  0  0  0  0
    3.4453    1.0731    1.0423 H   0  0  0  0  0  0
    1.3562    3.4029    4.6320 H   0  0  0  0  0  0
  1  2  1  0  0  0
  1 10  1  0  0  0
  1 12  1  0  0  0
  1 15  1  0  0  0
  2  3  1  0  0  0
  2  7  1  0  0  0
  2 19  1  0  0  0
  3  4  1  0  0  0
  3  8  1  0  0  0
  3 20  1  0  0  0
  4  5  1  0  0  0
  4  9  1  0  0  0
  4 21  1  0  0  0
  5  6  1  0  0  0
  5 10  1  0  0  0
  5 22  1  0  0  0
  6 11  1  0  0  0
  6 23  1  0  0  0
  6 24  1  0  0  0
  7 25  1  0  0  0
  8 26  1  0  0  0
  9 27  1  0  0  0
 11 28  1  0  0  0
 12 13  1  0  0  0
 12 29  1  0  0  0
 13 14  1  0  0  0
 13 16  2  0  0  0
 14 15  1  0  0  0
 14 18  1  0  0  0
 15 17  2  0  0  0
 18 30  1  0  0  0
M  END
>  <ACTIVITY>
4.4

>  <SET>
2

>  <Min_dist>
0.12

>  <Avg_dist>
0.59

$$$$
7
  Cerius2 12110214173D 1   1.00000                          
Structure written by Cerius2 SD Exporter
 28 28  0  0  0  0  0  0  0  0999 V2000
    1.1090    1.1490    0.9340 C   0  0  0  0  0  0
    1.2510    1.3900   -0.5760 C   0  0  0  0  0  0
    0.1180    0.7220   -1.3520 C   0  0  0  0  0  0
   -0.0380   -0.7220   -0.8960 C   0  0  0  0  0  0
   -0.2240   -0.7490    0.6110 C   0  0  0  0  0  0
   -0.5090   -2.1620    1.0890 C   0  0  0  0  0  0
    2.3270    1.6460    1.6830 C   0  0  0  0  0  0
    1.2910    2.7840   -0.8610 O   0  0  0  0  0  0
    0.3230    0.8180   -2.7530 O   0  0  0  0  0  0
   -1.1190   -1.3620   -1.5260 O   0  0  0  0  0  0
    0.9210   -0.2240    1.2420 O   0  0  0  0  0  0
    0.3700   -3.0800    0.4720 O   0  0  0  0  0  0
    1.9720    2.1410    2.9760 N   0  0  0  0  0  0
    0.8797    2.4110    3.0808 N   0  0  0  0  0  0
   -0.1839    2.6751    3.1756 N   0  0  0  0  0  0
    0.2287    1.7078    1.2844 H   0  0  0  0  0  0
    2.2010    0.9437   -0.9050 H   0  0  0  0  0  0
   -0.8156    1.2536   -1.1158 H   0  0  0  0  0  0
    0.8820   -1.2687   -1.1506 H   0  0  0  0  0  0
   -1.0858   -0.1161    0.8691 H   0  0  0  0  0  0
   -1.5459   -2.4276    0.8356 H   0  0  0  0  0  0
   -0.3744   -2.2092    2.1797 H   0  0  0  0  0  0
    2.7977    2.4554    1.1057 H   0  0  0  0  0  0
    3.0398    0.8164    1.7997 H   0  0  0  0  0  0
    1.9993    3.1869   -0.3726 H   0  0  0  0  0  0
    0.4155    1.7313   -2.9976 H   0  0  0  0  0  0
   -0.9946   -1.3405   -2.4676 H   0  0  0  0  0  0
    0.1791   -3.9578    0.7810 H   0  0  0  0  0  0
  1  2  1  0  0  0
  1  7  1  0  0  0
  1 11  1  0  0  0
  1 16  1  0  0  0
  2  3  1  0  0  0
  2  8  1  0  0  0
  2 17  1  0  0  0
  3  4  1  0  0  0
  3  9  1  0  0  0
  3 18  1  0  0  0
  4  5  1  0  0  0
  4 10  1  0  0  0
  4 19  1  0  0  0
  5  6  1  0  0  0
  5 11  1  0  0  0
  5 20  1  0  0  0
  6 12  1  0  0  0
  6 21  1  0  0  0
  6 22  1  0  0  0
  7 13  1  0  0  0
  7 23  1  0  0  0
  7 24  1  0  0  0
  8 25  1  0  0  0
  9 26  1  0  0  0
 10 27  1  0  0  0
 12 28  1  0  0  0
 13 14  2  0  0  0
 14 15  3  0  0  0
M  END
>  <ACTIVITY>
1.8

>  <SET>
1

>  <Min_dist>
999.9

>  <Avg_dist>
999.9

$$$$
8
  Cerius2 12110214173D 1   1.00000                          
Structure written by Cerius2 SD Exporter
 29 29  0  0  0  0  0  0  0  0999 V2000
    1.1590    1.4840    0.9380 C   0  0  0  0  0  0
    1.4130    1.6290   -0.5870 C   0  0  0  0  0  0
    0.2970    0.9670   -1.4160 C   0  0  0  0  0  0
    0.0890   -0.4670   -0.9280 C   0  0  0  0  0  0
   -0.3030   -0.4310    0.5530 C   0  0  0  0  0  0
   -0.6300   -1.8460    1.0510 C   0  0  0  0  0  0
    2.4770    1.6850    1.6970 C   0  0  0  0  0  0
    1.5610    3.0090   -0.9510 O   0  0  0  0  0  0
    0.5850    1.0250   -2.8170 O   0  0  0  0  0  0
   -0.9030   -1.1550   -1.6800 O   0  0  0  0  0  0
    0.7420    0.1600    1.3320 O   0  0  0  0  0  0
    0.2860   -2.7960    0.5080 O   0  0  0  0  0  0
    0.2220    2.4870    1.3470 O   0  0  0  0  0  0
    2.2450    2.1800    3.0340 N   0  0  0  0  0  0
    0.9746    2.5604    3.2642 N   0  0  0  0  0  0
   -0.1527    2.8937    3.4490 N   0  0  0  0  0  0
    2.3562    1.1133   -0.8204 H   0  0  0  0  0  0
   -0.6358    1.5241   -1.2440 H   0  0  0  0  0  0
    1.0388   -1.0120   -1.0323 H   0  0  0  0  0  0
   -1.2051    0.1894    0.6590 H   0  0  0  0  0  0
   -1.6514   -2.1111    0.7405 H   0  0  0  0  0  0
   -0.5634   -1.8669    2.1488 H   0  0  0  0  0  0
    3.0982    2.4095    1.1500 H   0  0  0  0  0  0
    3.0050    0.7220    1.7586 H   0  0  0  0  0  0
    2.2524    3.4013   -0.4308 H   0  0  0  0  0  0
    0.7068    1.9303   -3.0780 H   0  0  0  0  0  0
   -0.6510   -1.1719   -2.5958 H   0  0  0  0  0  0
    0.0681   -3.6640    0.8268 H   0  0  0  0  0  0
    0.5316    3.3413    1.0699 H   0  0  0  0  0  0
  1  2  1  0  0  0
  1  7  1  0  0  0
  1 11  1  0  0  0
  1 13  1  0  0  0
  2  3  1  0  0  0
  2  8  1  0  0  0
  2 17  1  0  0  0
  3  4  1  0  0  0
  3  9  1  0  0  0
  3 18  1  0  0  0
  4  5  1  0  0  0
  4 10  1  0  0  0
  4 19  1  0  0  0
  5  6  1  0  0  0
  5 11  1  0  0  0
  5 20  1  0  0  0
  6 12  1  0  0  0
  6 21  1  0  0  0
  6 22  1  0  0  0
  7 14  1  0  0  0
  7 23  1  0  0  0
  7 24  1  0  0  0
  8 25  1  0  0  0
  9 26  1  0  0  0
 10 27  1  0  0  0
 12 28  1  0  0  0
 13 29  1  0  0  0
 14 15  2  0  0  0
 15 16  3  0  0  0
M  END
>  <ACTIVITY>
2.1

>  <SET>
2

>  <Min_dist>
0.14

>  <Avg_dist>
0.49

$$$$
9
  Cerius2 12110214173D 1   1.00000                          
Structure written by Cerius2 SD Exporter
 27 27  0  0  0  0  0  0  0  0999 V2000
    1.0930    1.0840    1.0000 C   0  0  0  0  0  0
    1.1770    1.4950   -0.5010 C   0  0  0  0  0  0
    0.1140    0.7820   -1.3720 C   0  0  0  0  0  0
    0.0130   -0.7100   -0.9990 C   0  0  0  0  0  0
   -0.1040   -0.8470    0.5230 C   0  0  0  0  0  0
   -0.4160   -2.2810    0.9530 C   0  0  0  0  0  0
   -0.0970    3.0800    1.7320 O   0  0  0  0  0  0
    1.1270    2.9200   -0.6730 O   0  0  0  0  0  0
    0.3960    0.9530   -2.7690 O   0  0  0  0  0  0
   -1.1010   -1.3330   -1.6230 O   0  0  0  0  0  0
    1.0780   -0.3400    1.1390 O   0  0  0  0  0  0
    0.4940   -3.1850    0.3410 O   0  0  0  0  0  0
   -0.1350    1.6670    1.7250 C   0  0  0  0  0  0
    1.9939    1.4709    1.4987 H   0  0  0  0  0  0
    2.1606    1.1632   -0.8648 H   0  0  0  0  0  0
   -0.8608    1.2480   -1.1658 H   0  0  0  0  0  0
    0.9296   -1.2175   -1.3340 H   0  0  0  0  0  0
   -0.9463   -0.2202    0.8511 H   0  0  0  0  0  0
   -1.4419   -2.5366    0.6492 H   0  0  0  0  0  0
   -0.3269   -2.3602    2.0465 H   0  0  0  0  0  0
   -0.8627    3.4151    2.1835 H   0  0  0  0  0  0
    1.7890    3.3282   -0.1274 H   0  0  0  0  0  0
    0.4525    1.8799   -2.9695 H   0  0  0  0  0  0
   -1.0252   -1.2462   -2.5660 H   0  0  0  0  0  0
    0.2915   -4.0719    0.6146 H   0  0  0  0  0  0
   -1.0481    1.3345    1.2096 H   0  0  0  0  0  0
   -0.1463    1.3025    2.7628 H   0  0  0  0  0  0
  1  2  1  0  0  0
  1 11  1  0  0  0
  1 13  1  0  0  0
  1 14  1  0  0  0
  2  3  1  0  0  0
  2  8  1  0  0  0
  2 15  1  0  0  0
  3  4  1  0  0  0
  3  9  1  0  0  0
  3 16  1  0  0  0
  4  5  1  0  0  0
  4 10  1  0  0  0
  4 17  1  0  0  0
  5  6  1  0  0  0
  5 11  1  0  0  0
  5 18  1  0  0  0
  6 12  1  0  0  0
  6 19  1  0  0  0
  6 20  1  0  0  0
  7 13  1  0  0  0
  7 21  1  0  0  0
  8 22  1  0  0  0
  9 23  1  0  0  0
 10 24  1  0  0  0
 12 25  1  0  0  0
 13 26  1  0  0  0
 13 27  1  0  0  0
M  END
>  <ACTIVITY>
2.8

>  <SET>
1

>  <Min_dist>
999.9

>  <Avg_dist>
999.9

$$$$
