ace_ohleu_agnh2
  Cerius2 12110214373D 1   1.00000                          
Structure written by Cerius2 SD Exporter
 46 45  0  0  0  0  0  0  0  0999 V2000
   -0.9170   -0.2210   -3.7800 H   0  0  0  0  0  0
   -0.9290   -0.0770   -2.6990 C   0  0  0  0  0  0
   -0.7290   -1.4070   -2.0520 N   0  0  0  0  0  0
    0.2200   -4.6190   -2.6940 H   0  0  0  0  0  0
    0.6950   -3.6870   -1.2540 H   0  0  0  0  0  0
   -1.0090   -4.1410   -1.4980 H   0  0  0  0  0  0
   -0.0880   -3.8400   -1.9970 C   0  0  0  0  0  0
    0.1840    0.8510   -2.3130 C   0  0  0  0  0  0
    0.7590    1.6350   -3.0770 O   0  0  0  0  0  0
   -3.0770   -0.1350   -2.6920 H   0  0  0  0  0  0
   -2.3540    0.6140   -1.2470 H   0  0  0  0  0  0
   -2.2900    0.5290   -2.3320 C   0  0  0  0  0  0
   -0.1730   -2.4570   -3.9550 O   0  0  0  0  0  0
   -1.6580    2.5480   -2.6550 H   0  0  0  0  0  0
   -2.5010    1.9220   -2.9480 C   0  0  0  0  0  0
   -2.6730    2.8690   -4.8800 H   0  0  0  0  0  0
   -1.5740    1.4700   -4.8450 H   0  0  0  0  0  0
   -3.3360    1.2180   -4.8110 H   0  0  0  0  0  0
   -2.5220    1.8660   -4.4820 C   0  0  0  0  0  0
   -3.9340    3.5280   -2.8600 H   0  0  0  0  0  0
   -4.6390    1.9040   -2.6800 H   0  0  0  0  0  0
   -3.7350    2.6360   -1.3330 H   0  0  0  0  0  0
   -3.7950    2.5420   -2.4170 C   0  0  0  0  0  0
    5.4450   -0.8010    1.5180 H   0  0  0  0  0  0
    4.0170   -0.5500    2.5510 H   0  0  0  0  0  0
    4.3590   -0.8750    1.5680 C   0  0  0  0  0  0
    2.5500    1.3020   -1.3460 H   0  0  0  0  0  0
    1.8620    1.2740   -0.5020 C   0  0  0  0  0  0
   -0.1430    0.3450   -0.2530 H   0  0  0  0  0  0
    0.5520    0.7780   -0.9730 N   0  0  0  0  0  0
    2.7010    3.0440    0.3990 H   0  0  0  0  0  0
    1.3570    3.3580   -0.7250 H   0  0  0  0  0  0
    1.0280    2.6910    0.8930 H   0  0  0  0  0  0
    1.7270    2.6940    0.0570 C   0  0  0  0  0  0
    2.4180    0.3470    0.5470 C   0  0  0  0  0  0
    1.7020   -0.1190    1.4250 O   0  0  0  0  0  0
    4.3910   -4.1180    0.2710 H   0  0  0  0  0  0
    5.4750   -2.6250   -0.1280 H   0  0  0  0  0  0
    4.6580   -3.0740    0.4370 N   0  0  0  0  0  0
    4.4110    0.4160   -0.2450 H   0  0  0  0  0  0
    3.7700    0.0130    0.5380 N   0  0  0  0  0  0
    3.0450   -2.8460    1.9990 O   0  0  0  0  0  0
    3.9590   -2.3170    1.3660 C   0  0  0  0  0  0
   -0.6480   -2.6510   -0.2840 H   0  0  0  0  0  0
   -0.8090   -1.6460   -0.6730 O   0  0  0  0  0  0
   -0.3210   -2.5600   -2.7490 C   0  0  0  0  0  0
  1  2  1  0  0  0
  2  3  1  0  0  0
  2  8  1  0  0  0
  2 12  1  0  0  0
  3 45  1  0  0  0
  3 46  1  0  0  0
  4  7  1  0  0  0
  5  7  1  0  0  0
  6  7  1  0  0  0
  7 46  1  0  0  0
  8  9  2  0  0  0
  8 30  1  0  0  0
 10 12  1  0  0  0
 11 12  1  0  0  0
 12 15  1  0  0  0
 13 46  2  0  0  0
 14 15  1  0  0  0
 15 19  1  0  0  0
 15 23  1  0  0  0
 16 19  1  0  0  0
 17 19  1  0  0  0
 18 19  1  0  0  0
 20 23  1  0  0  0
 21 23  1  0  0  0
 22 23  1  0  0  0
 24 26  1  0  0  0
 25 26  1  0  0  0
 26 41  1  0  0  0
 26 43  1  0  0  0
 27 28  1  0  0  0
 28 30  1  0  0  0
 28 34  1  0  0  0
 28 35  1  0  0  0
 29 30  1  0  0  0
 31 34  1  0  0  0
 32 34  1  0  0  0
 33 34  1  0  0  0
 35 36  2  0  0  0
 35 41  1  0  0  0
 37 39  1  0  0  0
 38 39  1  0  0  0
 39 43  1  0  0  0
 40 41  1  0  0  0
 42 43  2  0  0  0
 44 45  1  0  0  0
M  END
>  <ACTIVITY>
2.47

>  <SET>
1

>  <Min_dist>
999.9

>  <Avg_dist>
999.9

$$$$
bzsag
  Cerius2 12110214373D 1   1.00000                          
Structure written by Cerius2 SD Exporter
 43 43  0  0  0  0  0  0  0  0999 V2000
    2.0430    1.7360   -1.4790 H   0  0  0  0  0  0
    1.4440    1.6120   -0.5770 C   0  0  0  0  0  0
   -0.6500    0.7440   -0.3010 H   0  0  0  0  0  0
    0.0270    1.2140   -1.0150 N   0  0  0  0  0  0
    0.9560    3.7460   -0.4010 H   0  0  0  0  0  0
    0.8410    2.8510    1.1330 H   0  0  0  0  0  0
    2.4360    3.2710    0.4650 H   0  0  0  0  0  0
    1.4170    2.9760    0.2160 C   0  0  0  0  0  0
    2.1020    0.5040    0.2980 C   0  0  0  0  0  0
    1.4010   -0.3590    0.9070 O   0  0  0  0  0  0
    0.4500   -1.3320   -3.4160 H   0  0  0  0  0  0
   -0.5600   -1.7170   -3.5580 S   0  0  0  0  0  0
    5.2890   -0.4240    1.3210 H   0  0  0  0  0  0
    3.8700   -0.4200    2.3960 H   0  0  0  0  0  0
    4.2100   -0.5700    1.3720 C   0  0  0  0  0  0
    4.1440    1.1950   -0.0570 H   0  0  0  0  0  0
    3.5290    0.4660    0.4700 N   0  0  0  0  0  0
    3.8830   -2.0300    0.9460 C   0  0  0  0  0  0
    2.8120   -2.6250    1.3020 O   0  0  0  0  0  0
   -2.7580   -1.1480   -2.6210 H   0  0  0  0  0  0
   -1.4620   -0.8820   -1.4310 H   0  0  0  0  0  0
   -1.7510   -0.7590   -2.4740 C   0  0  0  0  0  0
   -3.8270    3.8250   -0.9170 H   0  0  0  0  0  0
   -3.5880    4.0020   -1.9650 C   0  0  0  0  0  0
   -4.0500    6.1470   -1.8950 H   0  0  0  0  0  0
   -3.7130    5.3230   -2.5230 C   0  0  0  0  0  0
   -3.4710    6.5670   -4.3230 H   0  0  0  0  0  0
   -3.3920    5.5600   -3.9120 C   0  0  0  0  0  0
   -2.7410    4.6530   -5.8020 H   0  0  0  0  0  0
   -2.9700    4.4780   -4.7510 C   0  0  0  0  0  0
   -2.5390    2.3290   -4.8280 H   0  0  0  0  0  0
   -2.8530    3.1580   -4.1940 C   0  0  0  0  0  0
   -3.1480    2.9220   -2.7980 C   0  0  0  0  0  0
   -2.8420    1.5850   -1.1190 H   0  0  0  0  0  0
   -3.8820    0.9210   -2.4010 H   0  0  0  0  0  0
   -2.9850    1.5050   -2.1960 C   0  0  0  0  0  0
   -1.7860    0.8790   -3.9220 H   0  0  0  0  0  0
   -1.7330    0.7840   -2.8380 C   0  0  0  0  0  0
   -0.4130    1.4610   -2.3690 C   0  0  0  0  0  0
    0.2740    2.2480   -3.1070 O   0  0  0  0  0  0
    4.6300   -3.7560   -0.1810 H   0  0  0  0  0  0
    5.7570   -2.2420   -0.1720 H   0  0  0  0  0  0
    4.8330   -2.7320    0.1330 N   0  0  0  0  0  0
  1  2  1  0  0  0
  2  4  1  0  0  0
  2  8  1  0  0  0
  2  9  1  0  0  0
  3  4  1  0  0  0
  4 39  1  0  0  0
  5  8  1  0  0  0
  6  8  1  0  0  0
  7  8  1  0  0  0
  9 10  2  0  0  0
  9 17  1  0  0  0
 11 12  1  0  0  0
 12 22  1  0  0  0
 13 15  1  0  0  0
 14 15  1  0  0  0
 15 17  1  0  0  0
 15 18  1  0  0  0
 16 17  1  0  0  0
 18 19  2  0  0  0
 18 43  1  0  0  0
 20 22  1  0  0  0
 21 22  1  0  0  0
 22 38  1  0  0  0
 23 24  1  0  0  0
 24 26  1  0  0  0
 24 33  2  0  0  0
 25 26  1  0  0  0
 26 28  2  0  0  0
 27 28  1  0  0  0
 28 30  1  0  0  0
 29 30  1  0  0  0
 30 32  2  0  0  0
 31 32  1  0  0  0
 32 33  1  0  0  0
 33 36  1  0  0  0
 34 36  1  0  0  0
 35 36  1  0  0  0
 36 38  1  0  0  0
 37 38  1  0  0  0
 38 39  1  0  0  0
 39 40  2  0  0  0
 41 43  1  0  0  0
 42 43  1  0  0  0
M  END
>  <ACTIVITY>
6.12

>  <SET>
1

>  <Min_dist>
999.9

>  <Avg_dist>
999.9

$$$$
c6pcltnme
  Cerius2 12110214373D 1   1.00000                          
Structure written by Cerius2 SD Exporter
 72 73  0  0  0  0  0  0  0  0999 V2000
    0.7590   -1.7060   -1.5250 H   0  0  0  0  0  0
    0.9880   -3.1180   -2.5850 H   0  0  0  0  0  0
    0.2500   -2.4640   -2.1200 C   0  0  0  0  0  0
   -0.0740   -3.5560   -0.2920 H   0  0  0  0  0  0
   -1.5170   -2.7220   -0.9170 H   0  0  0  0  0  0
   -0.6390   -3.3070   -1.1900 C   0  0  0  0  0  0
   -1.7920   -5.1270   -1.2000 H   0  0  0  0  0  0
   -1.6050   -4.3660   -2.7990 H   0  0  0  0  0  0
   -1.1000   -4.6090   -1.8640 C   0  0  0  0  0  0
    0.7980   -5.0010   -2.8010 H   0  0  0  0  0  0
    0.5770   -5.7990   -1.2260 H   0  0  0  0  0  0
    0.0910   -5.5310   -2.1640 C   0  0  0  0  0  0
    0.4870   -7.4950   -2.9530 H   0  0  0  0  0  0
   -1.1530   -7.2830   -2.2930 H   0  0  0  0  0  0
   -0.3610   -6.8130   -2.8760 C   0  0  0  0  0  0
   -1.2010   -7.4410   -4.7620 H   0  0  0  0  0  0
   -1.7400   -5.8350   -4.2150 H   0  0  0  0  0  0
   -0.1010   -6.0460   -4.8750 H   0  0  0  0  0  0
   -0.8890   -6.5120   -4.2840 C   0  0  0  0  0  0
   -0.7010   -1.6360   -3.4290 P   0  0  0  0  0  0
    0.1640   -0.8400   -4.3180 O   0  5  0  0  0  0
   -1.3790   -2.6280   -4.2710 O   0  0  0  0  0  0
   -2.8880   -0.8790   -2.8050 H   0  0  0  0  0  0
   -1.7110   -0.6590   -1.4870 H   0  0  0  0  0  0
   -1.8740   -0.5620   -2.5610 C   0  0  0  0  0  0
   -1.7360    0.9720   -4.0410 H   0  0  0  0  0  0
   -1.7100    0.9100   -2.9530 C   0  0  0  0  0  0
   -0.3920    1.4360   -2.4710 C   0  0  0  0  0  0
    0.3830    2.0560   -3.1990 O   0  0  0  0  0  0
   -3.8100    1.3190   -2.7010 H   0  0  0  0  0  0
   -2.7970    1.7920   -1.3160 H   0  0  0  0  0  0
   -2.8600    1.7640   -2.4030 C   0  0  0  0  0  0
   -1.7710    3.5700   -2.7630 H   0  0  0  0  0  0
   -2.7780    3.1970   -2.9520 C   0  0  0  0  0  0
   -2.9530    4.2470   -4.8300 H   0  0  0  0  0  0
   -2.2610    2.6130   -4.9660 H   0  0  0  0  0  0
   -4.0070    2.8200   -4.6870 H   0  0  0  0  0  0
   -3.0170    3.2210   -4.4680 C   0  0  0  0  0  0
   -3.6950    5.1200   -2.6410 H   0  0  0  0  0  0
   -4.7840    3.7360   -2.3840 H   0  0  0  0  0  0
   -3.5450    4.1300   -1.1690 H   0  0  0  0  0  0
   -3.7720    4.1120   -2.2350 C   0  0  0  0  0  0
   -0.6580    0.7440   -0.4200 H   0  0  0  0  0  0
   -0.0030    1.2120   -1.1550 N   0  0  0  0  0  0
    1.9200    1.6250   -1.7720 H   0  0  0  0  0  0
    1.3730    1.6580   -0.8300 C   0  0  0  0  0  0
    2.0950    0.7220    0.1000 C   0  0  0  0  0  0
    1.5240   -0.0540    0.8670 O   0  0  0  0  0  0
    5.3630    0.1920    0.8140 H   0  0  0  0  0  0
    4.0570    0.1940    2.0230 H   0  0  0  0  0  0
    4.1200   -1.0820    0.7840 H   0  0  0  0  0  0
    4.3100   -0.0280    0.9860 C   0  0  0  0  0  0
    2.4530    3.4720   -0.3910 H   0  0  0  0  0  0
    0.7980    3.7300   -0.9930 H   0  0  0  0  0  0
    1.4240    3.1180   -0.3440 C   0  0  0  0  0  0
    3.9710    1.4920   -0.5970 H   0  0  0  0  0  0
    3.4820    0.8010    0.0900 N   0  0  0  0  0  0
    0.9300    3.2380    1.0660 C   0  0  0  0  0  0
   -1.2240    3.0150    0.8160 H   0  0  0  0  0  0
   -0.3620    3.1440    1.4700 C   0  0  0  0  0  0
    1.7500    3.4340    2.2290 C   0  0  0  0  0  0
    3.8110    3.5820    1.5420 H   0  0  0  0  0  0
    3.1380    3.5950    2.3990 C   0  0  0  0  0  0
    0.9200    3.4510    3.3480 C   0  0  0  0  0  0
   -1.3000    3.1690    3.5070 H   0  0  0  0  0  0
   -0.4070    3.2420    2.8860 N   0  0  0  0  0  0
    4.7010    3.8950    3.8340 H   0  0  0  0  0  0
    3.6280    3.7690    3.6840 C   0  0  0  0  0  0
    0.7230    3.6380    5.5120 H   0  0  0  0  0  0
    1.3960    3.6270    4.6550 C   0  0  0  0  0  0
    3.1830    3.9270    5.8010 H   0  0  0  0  0  0
    2.7660    3.7860    4.8040 C   0  0  0  0  0  0
  1  3  1  0  0  0
  2  3  1  0  0  0
  3  6  1  0  0  0
  3 20  1  0  0  0
  4  6  1  0  0  0
  5  6  1  0  0  0
  6  9  1  0  0  0
  7  9  1  0  0  0
  8  9  1  0  0  0
  9 12  1  0  0  0
 10 12  1  0  0  0
 11 12  1  0  0  0
 12 15  1  0  0  0
 13 15  1  0  0  0
 14 15  1  0  0  0
 15 19  1  0  0  0
 16 19  1  0  0  0
 17 19  1  0  0  0
 18 19  1  0  0  0
 20 21  1  0  0  0
 20 22  2  0  0  0
 20 25  1  0  0  0
 23 25  1  0  0  0
 24 25  1  0  0  0
 25 27  1  0  0  0
 26 27  1  0  0  0
 27 28  1  0  0  0
 27 32  1  0  0  0
 28 29  2  0  0  0
 28 44  1  0  0  0
 30 32  1  0  0  0
 31 32  1  0  0  0
 32 34  1  0  0  0
 33 34  1  0  0  0
 34 38  1  0  0  0
 34 42  1  0  0  0
 35 38  1  0  0  0
 36 38  1  0  0  0
 37 38  1  0  0  0
 39 42  1  0  0  0
 40 42  1  0  0  0
 41 42  1  0  0  0
 43 44  1  0  0  0
 44 46  1  0  0  0
 45 46  1  0  0  0
 46 47  1  0  0  0
 46 55  1  0  0  0
 47 48  2  0  0  0
 47 57  1  0  0  0
 49 52  1  0  0  0
 50 52  1  0  0  0
 51 52  1  0  0  0
 52 57  1  0  0  0
 53 55  1  0  0  0
 54 55  1  0  0  0
 55 58  1  0  0  0
 56 57  1  0  0  0
 58 60  2  0  0  0
 58 61  1  0  0  0
 59 60  1  0  0  0
 60 66  1  0  0  0
 61 63  2  0  0  0
 61 64  1  0  0  0
 62 63  1  0  0  0
 63 68  1  0  0  0
 64 66  1  0  0  0
 64 70  2  0  0  0
 65 66  1  0  0  0
 67 68  1  0  0  0
 68 72  2  0  0  0
 69 70  1  0  0  0
 70 72  1  0  0  0
 71 72  1  0  0  0
M  CHG  1  21  -1
M  END
>  <ACTIVITY>
7.28

>  <SET>
2

>  <Min_dist>
0

>  <Avg_dist>
0.42

$$$$
c6pltnme
  Cerius2 12110214373D 1   1.00000                          
Structure written by Cerius2 SD Exporter
 71 72  0  0  0  0  0  0  0  0999 V2000
    0.4900   -1.3080   -1.4290 H   0  0  0  0  0  0
    0.9250   -2.7830   -2.3260 H   0  0  0  0  0  0
    0.0990   -2.1560   -1.9910 C   0  0  0  0  0  0
   -0.2870   -3.1320   -0.1100 H   0  0  0  0  0  0
   -1.7310   -2.4430   -0.8920 H   0  0  0  0  0  0
   -0.8010   -2.9860   -1.0610 C   0  0  0  0  0  0
   -1.7900   -4.8970   -0.9830 H   0  0  0  0  0  0
   -1.6340   -4.2160   -2.6200 H   0  0  0  0  0  0
   -1.1300   -4.3600   -1.6640 C   0  0  0  0  0  0
    0.8380   -4.6200   -2.5000 H   0  0  0  0  0  0
    0.5970   -5.4140   -0.9250 H   0  0  0  0  0  0
    0.1400   -5.1940   -1.8900 C   0  0  0  0  0  0
    0.7160   -7.1310   -2.6330 H   0  0  0  0  0  0
   -0.9630   -7.0350   -2.0520 H   0  0  0  0  0  0
   -0.1820   -6.5140   -2.6040 C   0  0  0  0  0  0
   -0.8840   -7.2200   -4.5190 H   0  0  0  0  0  0
   -1.5660   -5.6530   -4.0200 H   0  0  0  0  0  0
    0.1140   -5.7490   -4.6010 H   0  0  0  0  0  0
   -0.6640   -6.2660   -4.0400 C   0  0  0  0  0  0
   -0.7820   -1.5280   -3.4520 P   0  0  0  0  0  0
    0.1700   -0.8200   -4.3380 O   0  5  0  0  0  0
   -1.3140   -2.6590   -4.2410 O   0  0  0  0  0  0
   -2.9260   -0.7370   -3.3210 H   0  0  0  0  0  0
   -1.9850   -0.4640   -2.8430 N   0  0  0  0  0  0
   -1.8230    1.1600   -4.1070 H   0  0  0  0  0  0
   -1.8080    0.9930   -3.0300 C   0  0  0  0  0  0
   -0.4790    1.4680   -2.5110 C   0  0  0  0  0  0
    0.3240    2.0740   -3.2210 O   0  0  0  0  0  0
   -3.9100    1.4110   -2.7950 H   0  0  0  0  0  0
   -2.9260    1.7580   -1.3530 H   0  0  0  0  0  0
   -2.9610    1.8140   -2.4410 C   0  0  0  0  0  0
   -1.8340    3.6210   -2.6080 H   0  0  0  0  0  0
   -2.8330    3.2810   -2.8810 C   0  0  0  0  0  0
   -2.8900    4.4660   -4.6850 H   0  0  0  0  0  0
   -2.2080    2.8350   -4.8990 H   0  0  0  0  0  0
   -3.9650    3.0470   -4.7050 H   0  0  0  0  0  0
   -2.9850    3.4170   -4.4030 C   0  0  0  0  0  0
   -3.7350    5.1970   -2.4900 H   0  0  0  0  0  0
   -4.8580    3.8200   -2.3860 H   0  0  0  0  0  0
   -3.6800    4.1080   -1.0830 H   0  0  0  0  0  0
   -3.8490    4.1650   -2.1580 C   0  0  0  0  0  0
   -0.7600    0.7550   -0.4620 H   0  0  0  0  0  0
   -0.1010    1.2230   -1.1940 N   0  0  0  0  0  0
    1.8140    1.6240   -1.8300 H   0  0  0  0  0  0
    1.2830    1.6560   -0.8780 C   0  0  0  0  0  0
    2.0150    0.7100    0.0330 C   0  0  0  0  0  0
    1.4550   -0.0850    0.7880 O   0  0  0  0  0  0
    5.2880    0.2150    0.7500 H   0  0  0  0  0  0
    3.9780    0.1900    1.9550 H   0  0  0  0  0  0
    4.0610   -1.0740    0.7050 H   0  0  0  0  0  0
    4.2370   -0.0190    0.9170 C   0  0  0  0  0  0
    2.3850    3.4600   -0.4480 H   0  0  0  0  0  0
    0.7190    3.7340   -1.0130 H   0  0  0  0  0  0
    1.3540    3.1120   -0.3820 C   0  0  0  0  0  0
    3.8820    1.5110   -0.6530 H   0  0  0  0  0  0
    3.4010    0.8080    0.0260 N   0  0  0  0  0  0
    0.8900    3.2220    1.0380 C   0  0  0  0  0  0
   -1.2710    3.0400    0.8210 H   0  0  0  0  0  0
   -0.3960    3.1440    1.4620 C   0  0  0  0  0  0
    1.7330    3.3860    2.1890 C   0  0  0  0  0  0
    3.7850    3.5090    1.4700 H   0  0  0  0  0  0
    3.1270    3.5190    2.3390 C   0  0  0  0  0  0
    0.9240    3.4000    3.3230 C   0  0  0  0  0  0
   -1.2970    3.1560    3.5140 H   0  0  0  0  0  0
   -0.4140    3.2220    2.8790 N   0  0  0  0  0  0
    4.7190    3.7660    3.7510 H   0  0  0  0  0  0
    3.6420    3.6620    3.6180 C   0  0  0  0  0  0
    0.7660    3.5540    5.4930 H   0  0  0  0  0  0
    1.4250    3.5450    4.6250 C   0  0  0  0  0  0
    3.2370    3.7930    5.7440 H   0  0  0  0  0  0
    2.7990    3.6770    4.7530 C   0  0  0  0  0  0
  1  3  1  0  0  0
  2  3  1  0  0  0
  3  6  1  0  0  0
  3 20  1  0  0  0
  4  6  1  0  0  0
  5  6  1  0  0  0
  6  9  1  0  0  0
  7  9  1  0  0  0
  8  9  1  0  0  0
  9 12  1  0  0  0
 10 12  1  0  0  0
 11 12  1  0  0  0
 12 15  1  0  0  0
 13 15  1  0  0  0
 14 15  1  0  0  0
 15 19  1  0  0  0
 16 19  1  0  0  0
 17 19  1  0  0  0
 18 19  1  0  0  0
 20 21  1  0  0  0
 20 22  2  0  0  0
 20 24  1  0  0  0
 23 24  1  0  0  0
 24 26  1  0  0  0
 25 26  1  0  0  0
 26 27  1  0  0  0
 26 31  1  0  0  0
 27 28  2  0  0  0
 27 43  1  0  0  0
 29 31  1  0  0  0
 30 31  1  0  0  0
 31 33  1  0  0  0
 32 33  1  0  0  0
 33 37  1  0  0  0
 33 41  1  0  0  0
 34 37  1  0  0  0
 35 37  1  0  0  0
 36 37  1  0  0  0
 38 41  1  0  0  0
 39 41  1  0  0  0
 40 41  1  0  0  0
 42 43  1  0  0  0
 43 45  1  0  0  0
 44 45  1  0  0  0
 45 46  1  0  0  0
 45 54  1  0  0  0
 46 47  2  0  0  0
 46 56  1  0  0  0
 48 51  1  0  0  0
 49 51  1  0  0  0
 50 51  1  0  0  0
 51 56  1  0  0  0
 52 54  1  0  0  0
 53 54  1  0  0  0
 54 57  1  0  0  0
 55 56  1  0  0  0
 57 59  2  0  0  0
 57 60  1  0  0  0
 58 59  1  0  0  0
 59 65  1  0  0  0
 60 62  2  0  0  0
 60 63  1  0  0  0
 61 62  1  0  0  0
 62 67  1  0  0  0
 63 65  1  0  0  0
 63 69  2  0  0  0
 64 65  1  0  0  0
 66 67  1  0  0  0
 67 71  2  0  0  0
 68 69  1  0  0  0
 69 71  1  0  0  0
 70 71  1  0  0  0
M  CHG  1  21  -1
M  END
>  <ACTIVITY>
8.82

>  <SET>
1

>  <Min_dist>
999.9

>  <Avg_dist>
999.9

$$$$
c6poltnme
  Cerius2 12110214373D 1   1.00000                          
Structure written by Cerius2 SD Exporter
 70 71  0  0  0  0  0  0  0  0999 V2000
    0.6410   -1.5590   -1.4910 H   0  0  0  0  0  0
    0.9240   -2.9900   -2.5100 H   0  0  0  0  0  0
    0.1620   -2.3380   -2.0840 C   0  0  0  0  0  0
   -0.2050   -3.3830   -0.2370 H   0  0  0  0  0  0
   -1.6430   -2.6020   -0.9400 H   0  0  0  0  0  0
   -0.7420   -3.1730   -1.1630 C   0  0  0  0  0  0
   -1.8350   -5.0290   -1.1560 H   0  0  0  0  0  0
   -1.6360   -4.2980   -2.7670 H   0  0  0  0  0  0
   -1.1440   -4.5040   -1.8160 C   0  0  0  0  0  0
    0.7930   -4.8520   -2.6890 H   0  0  0  0  0  0
    0.5440   -5.6410   -1.1130 H   0  0  0  0  0  0
    0.0810   -5.3960   -2.0680 C   0  0  0  0  0  0
    0.5540   -7.3540   -2.8280 H   0  0  0  0  0  0
   -1.1100   -7.1840   -2.2180 H   0  0  0  0  0  0
   -0.3140   -6.6960   -2.7820 C   0  0  0  0  0  0
   -1.0800   -7.3620   -4.6860 H   0  0  0  0  0  0
   -1.6800   -5.7680   -4.1710 H   0  0  0  0  0  0
   -0.0160   -5.9380   -4.7800 H   0  0  0  0  0  0
   -0.8080   -6.4210   -4.2080 C   0  0  0  0  0  0
   -0.7610   -1.5560   -3.4400 P   0  0  0  0  0  0
    0.1750   -0.8390   -4.3340 O   0  5  0  0  0  0
   -1.3800   -2.6040   -4.2760 O   0  0  0  0  0  0
   -1.8290   -0.5260   -2.7030 O   0  0  0  0  0  0
   -1.7610    0.9900   -4.0510 H   0  0  0  0  0  0
   -1.7240    0.8740   -2.9670 C   0  0  0  0  0  0
   -0.4150    1.4210   -2.4740 C   0  0  0  0  0  0
    0.3600    2.0460   -3.1980 O   0  0  0  0  0  0
   -3.8380    1.2040   -2.7010 H   0  0  0  0  0  0
   -2.8380    1.6870   -1.3100 H   0  0  0  0  0  0
   -2.9020    1.6730   -2.3980 C   0  0  0  0  0  0
   -1.8590    3.5070   -2.7390 H   0  0  0  0  0  0
   -2.8570    3.1140   -2.9310 C   0  0  0  0  0  0
   -3.0650    4.1810   -4.7960 H   0  0  0  0  0  0
   -2.3330    2.5660   -4.9520 H   0  0  0  0  0  0
   -4.0820    2.7260   -4.6650 H   0  0  0  0  0  0
   -3.1020    3.1500   -4.4460 C   0  0  0  0  0  0
   -3.8120    5.0150   -2.5990 H   0  0  0  0  0  0
   -4.8700    3.6070   -2.3480 H   0  0  0  0  0  0
   -3.6330    4.0160   -1.1360 H   0  0  0  0  0  0
   -3.8650    4.0020   -2.2010 C   0  0  0  0  0  0
   -0.6870    0.7370   -0.4180 H   0  0  0  0  0  0
   -0.0310    1.2020   -1.1550 N   0  0  0  0  0  0
    1.8850    1.6220   -1.7810 H   0  0  0  0  0  0
    1.3450    1.6540   -0.8350 C   0  0  0  0  0  0
    2.0780    0.7210    0.0900 C   0  0  0  0  0  0
    1.5160   -0.0600    0.8580 O   0  0  0  0  0  0
    5.3530    0.2150    0.7880 H   0  0  0  0  0  0
    4.0520    0.2070    2.0030 H   0  0  0  0  0  0
    4.1200   -1.0680    0.7630 H   0  0  0  0  0  0
    4.3020   -0.0130    0.9650 C   0  0  0  0  0  0
    2.4230    3.4720   -0.4080 H   0  0  0  0  0  0
    0.7620    3.7250   -0.9960 H   0  0  0  0  0  0
    1.3950    3.1140   -0.3520 C   0  0  0  0  0  0
    3.9440    1.5060   -0.6160 H   0  0  0  0  0  0
    3.4640    0.8110    0.0730 N   0  0  0  0  0  0
    0.9130    3.2340    1.0620 C   0  0  0  0  0  0
   -1.2430    3.0220    0.8240 H   0  0  0  0  0  0
   -0.3760    3.1450    1.4740 C   0  0  0  0  0  0
    1.7420    3.4230    2.2200 C   0  0  0  0  0  0
    3.7990    3.5640    1.5190 H   0  0  0  0  0  0
    3.1320    3.5770    2.3810 C   0  0  0  0  0  0
    0.9200    3.4390    3.3450 C   0  0  0  0  0  0
   -1.2990    3.1670    3.5160 H   0  0  0  0  0  0
   -0.4100    3.2380    2.8890 N   0  0  0  0  0  0
    4.7060    3.8650    3.8060 H   0  0  0  0  0  0
    3.6320    3.7440    3.6630 C   0  0  0  0  0  0
    0.7390    3.6190    5.5110 H   0  0  0  0  0  0
    1.4060    3.6090    4.6490 C   0  0  0  0  0  0
    3.2030    3.8970    5.7840 H   0  0  0  0  0  0
    2.7770    3.7620    4.7890 C   0  0  0  0  0  0
  1  3  1  0  0  0
  2  3  1  0  0  0
  3  6  1  0  0  0
  3 20  1  0  0  0
  4  6  1  0  0  0
  5  6  1  0  0  0
  6  9  1  0  0  0
  7  9  1  0  0  0
  8  9  1  0  0  0
  9 12  1  0  0  0
 10 12  1  0  0  0
 11 12  1  0  0  0
 12 15  1  0  0  0
 13 15  1  0  0  0
 14 15  1  0  0  0
 15 19  1  0  0  0
 16 19  1  0  0  0
 17 19  1  0  0  0
 18 19  1  0  0  0
 20 21  1  0  0  0
 20 22  2  0  0  0
 20 23  1  0  0  0
 23 25  1  0  0  0
 24 25  1  0  0  0
 25 26  1  0  0  0
 25 30  1  0  0  0
 26 27  2  0  0  0
 26 42  1  0  0  0
 28 30  1  0  0  0
 29 30  1  0  0  0
 30 32  1  0  0  0
 31 32  1  0  0  0
 32 36  1  0  0  0
 32 40  1  0  0  0
 33 36  1  0  0  0
 34 36  1  0  0  0
 35 36  1  0  0  0
 37 40  1  0  0  0
 38 40  1  0  0  0
 39 40  1  0  0  0
 41 42  1  0  0  0
 42 44  1  0  0  0
 43 44  1  0  0  0
 44 45  1  0  0  0
 44 53  1  0  0  0
 45 46  2  0  0  0
 45 55  1  0  0  0
 47 50  1  0  0  0
 48 50  1  0  0  0
 49 50  1  0  0  0
 50 55  1  0  0  0
 51 53  1  0  0  0
 52 53  1  0  0  0
 53 56  1  0  0  0
 54 55  1  0  0  0
 56 58  2  0  0  0
 56 59  1  0  0  0
 57 58  1  0  0  0
 58 64  1  0  0  0
 59 61  2  0  0  0
 59 62  1  0  0  0
 60 61  1  0  0  0
 61 66  1  0  0  0
 62 64  1  0  0  0
 62 68  2  0  0  0
 63 64  1  0  0  0
 65 66  1  0  0  0
 66 70  2  0  0  0
 67 68  1  0  0  0
 68 70  1  0  0  0
 69 70  1  0  0  0
M  CHG  1  21  -1
M  END
>  <ACTIVITY>
5.84

>  <SET>
1

>  <Min_dist>
999.9

>  <Avg_dist>
999.9

$$$$
cbzphe
  Cerius2 12110214373D 1   1.00000                          
Structure written by Cerius2 SD Exporter
 38 39  0  0  0  0  0  0  0  0999 V2000
    0.0720    2.3730   -1.2570 O   0  0  0  0  0  0
    0.1200    1.3210   -2.1140 C   0  0  0  0  0  0
    0.5350    1.6400   -3.2430 O   0  0  0  0  0  0
   -1.0640    1.4860    0.2170 H   0  0  0  0  0  0
   -0.6900    3.2090    0.4660 H   0  0  0  0  0  0
   -0.9470    2.4520   -0.2750 C   0  0  0  0  0  0
   -2.2210    2.8280   -0.9690 C   0  0  0  0  0  0
   -2.7500    0.8250   -1.5620 H   0  0  0  0  0  0
   -3.0090    1.8820   -1.6230 C   0  0  0  0  0  0
   -4.7400    1.5400   -2.8600 H   0  0  0  0  0  0
   -4.1210    2.2800   -2.3510 C   0  0  0  0  0  0
   -5.3020    3.9490   -3.0110 H   0  0  0  0  0  0
   -4.4390    3.6320   -2.4250 C   0  0  0  0  0  0
   -1.9750    4.9060   -0.4940 H   0  0  0  0  0  0
   -2.5720    4.1680   -1.0300 C   0  0  0  0  0  0
   -3.9360    5.6400   -1.8220 H   0  0  0  0  0  0
   -3.6750    4.5830   -1.7650 C   0  0  0  0  0  0
   -1.0430    0.2120   -0.7640 H   0  0  0  0  0  0
   -0.3450    0.0790   -1.5910 N   0  0  0  0  0  0
    0.9600   -1.4680   -1.6780 H   0  0  0  0  0  0
   -0.1010   -1.3730   -1.9080 C   0  0  0  0  0  0
   -0.1410   -1.8010   -3.3550 C   0  0  0  0  0  0
   -0.0080   -1.0000   -4.2850 O   0  5  0  0  0  0
   -0.1790   -2.9080   -3.9600 O   0  0  0  0  0  0
   -0.9370   -1.8910    0.0080 H   0  0  0  0  0  0
   -1.8940   -2.4470   -1.3870 H   0  0  0  0  0  0
   -0.8850   -2.3210   -0.9920 C   0  0  0  0  0  0
   -0.2150   -3.6640   -0.9170 C   0  0  0  0  0  0
    1.6480   -2.8630   -0.1870 H   0  0  0  0  0  0
    1.1060   -3.7620   -0.4810 C   0  0  0  0  0  0
    2.7670   -5.0760   -0.0770 H   0  0  0  0  0  0
    1.7340   -5.0040   -0.4190 C   0  0  0  0  0  0
    1.5320   -7.1250   -0.7460 H   0  0  0  0  0  0
    1.0420   -6.1530   -0.7950 C   0  0  0  0  0  0
   -1.9350   -4.7440   -1.6380 H   0  0  0  0  0  0
   -0.9030   -4.8160   -1.2940 C   0  0  0  0  0  0
   -0.8190   -6.9580   -1.5300 H   0  0  0  0  0  0
   -0.2770   -6.0600   -1.2340 C   0  0  0  0  0  0
  1  2  1  0  0  0
  1  6  1  0  0  0
  2  3  2  0  0  0
  2 19  1  0  0  0
  4  6  1  0  0  0
  5  6  1  0  0  0
  6  7  1  0  0  0
  7  9  1  0  0  0
  7 15  2  0  0  0
  8  9  1  0  0  0
  9 11  2  0  0  0
 10 11  1  0  0  0
 11 13  1  0  0  0
 12 13  1  0  0  0
 13 17  2  0  0  0
 14 15  1  0  0  0
 15 17  1  0  0  0
 16 17  1  0  0  0
 18 19  1  0  0  0
 19 21  1  0  0  0
 20 21  1  0  0  0
 21 22  1  0  0  0
 21 27  1  0  0  0
 22 23  1  0  0  0
 22 24  2  0  0  0
 25 27  1  0  0  0
 26 27  1  0  0  0
 27 28  1  0  0  0
 28 30  1  0  0  0
 28 36  2  0  0  0
 29 30  1  0  0  0
 30 32  2  0  0  0
 31 32  1  0  0  0
 32 34  1  0  0  0
 33 34  1  0  0  0
 34 38  2  0  0  0
 35 36  1  0  0  0
 36 38  1  0  0  0
 37 38  1  0  0  0
M  CHG  1  23  -1
M  END
>  <ACTIVITY>
3.29

>  <SET>
2

>  <Min_dist>
0.11

>  <Avg_dist>
0.33

$$$$
ch3coch2co_fagnh2
  Cerius2 12110214373D 1   1.00000                          
Structure written by Cerius2 SD Exporter
 51 51  0  0  0  0  0  0  0  0999 V2000
   -1.7420    0.2820   -3.9070 H   0  0  0  0  0  0
   -1.5780    0.3650   -2.8320 C   0  0  0  0  0  0
   -1.8240   -1.0300   -1.1480 H   0  0  0  0  0  0
   -1.5260   -0.9540   -2.1940 N   0  0  0  0  0  0
   -3.6720    0.6070   -2.4130 H   0  0  0  0  0  0
   -2.5900    1.2440   -1.1520 H   0  0  0  0  0  0
   -2.7490    1.1550   -2.2270 C   0  0  0  0  0  0
   -0.2600    1.0560   -2.6160 C   0  0  0  0  0  0
    0.2730    1.6730   -3.5390 O   0  0  0  0  0  0
   -2.8850    2.5320   -2.8060 C   0  0  0  0  0  0
   -3.4620    3.3830   -0.9150 H   0  0  0  0  0  0
   -3.2600    3.5790   -1.9680 C   0  0  0  0  0  0
   -2.3880    1.9620   -4.8260 H   0  0  0  0  0  0
   -2.6510    2.7830   -4.1590 C   0  0  0  0  0  0
   -3.6820    5.6870   -1.8060 H   0  0  0  0  0  0
   -3.3790    4.8740   -2.4650 C   0  0  0  0  0  0
   -2.5540    4.2750   -5.7110 H   0  0  0  0  0  0
   -2.7530    4.0790   -4.6580 C   0  0  0  0  0  0
   -3.1770    6.1430   -4.1980 H   0  0  0  0  0  0
   -3.1090    5.1260   -3.8100 C   0  0  0  0  0  0
    5.1630   -0.3320    1.5340 H   0  0  0  0  0  0
    3.6190   -0.0530    2.3750 H   0  0  0  0  0  0
    4.0820   -0.4650    1.4780 C   0  0  0  0  0  0
   -0.7510   -4.1950   -2.5650 H   0  0  0  0  0  0
   -2.2810   -3.6070   -1.8710 H   0  0  0  0  0  0
   -1.2290   -3.3740   -2.0310 C   0  0  0  0  0  0
    2.3220    1.0780   -1.9580 H   0  0  0  0  0  0
    1.7180    1.3110   -1.0810 C   0  0  0  0  0  0
   -0.3020    0.5620   -0.5310 H   0  0  0  0  0  0
    0.3090    0.9400   -1.3510 N   0  0  0  0  0  0
    2.8840    3.0610   -0.6110 H   0  0  0  0  0  0
    1.4910    3.3700   -1.6740 H   0  0  0  0  0  0
    1.2360    3.0730    0.0620 H   0  0  0  0  0  0
    1.8410    2.8120   -0.8060 C   0  0  0  0  0  0
    2.2180    0.5270    0.1010 C   0  0  0  0  0  0
    1.3950    0.1380    0.9180 O   0  0  0  0  0  0
    4.3600   -3.8230    0.5390 H   0  0  0  0  0  0
    5.3920   -2.3250    0.0350 H   0  0  0  0  0  0
    4.5670   -2.7550    0.6020 N   0  0  0  0  0  0
    4.2850    0.6260   -0.4480 H   0  0  0  0  0  0
    3.5720    0.2720    0.2960 N   0  0  0  0  0  0
   -0.6790   -2.1410   -4.0060 O   0  0  0  0  0  0
   -0.5540   -3.1880   -0.7010 C   0  0  0  0  0  0
    2.8560   -2.4450    2.0490 O   0  0  0  0  0  0
    3.7770   -1.9400    1.4070 C   0  0  0  0  0  0
   -1.1180   -2.1200   -2.8480 C   0  0  0  0  0  0
   -1.1990   -3.2330    0.3350 O   0  0  0  0  0  0
    1.2550   -2.8280    0.3610 H   0  0  0  0  0  0
    1.4450   -3.7820   -1.1290 H   0  0  0  0  0  0
    1.1530   -2.0290   -1.2260 H   0  0  0  0  0  0
    0.9260   -2.9400   -0.6720 C   0  0  0  0  0  0
  1  2  1  0  0  0
  2  4  1  0  0  0
  2  7  1  0  0  0
  2  8  1  0  0  0
  3  4  1  0  0  0
  4 46  1  0  0  0
  5  7  1  0  0  0
  6  7  1  0  0  0
  7 10  1  0  0  0
  8  9  2  0  0  0
  8 30  1  0  0  0
 10 12  2  0  0  0
 10 14  1  0  0  0
 11 12  1  0  0  0
 12 16  1  0  0  0
 13 14  1  0  0  0
 14 18  2  0  0  0
 15 16  1  0  0  0
 16 20  2  0  0  0
 17 18  1  0  0  0
 18 20  1  0  0  0
 19 20  1  0  0  0
 21 23  1  0  0  0
 22 23  1  0  0  0
 23 41  1  0  0  0
 23 45  1  0  0  0
 24 26  1  0  0  0
 25 26  1  0  0  0
 26 43  1  0  0  0
 26 46  1  0  0  0
 27 28  1  0  0  0
 28 30  1  0  0  0
 28 34  1  0  0  0
 28 35  1  0  0  0
 29 30  1  0  0  0
 31 34  1  0  0  0
 32 34  1  0  0  0
 33 34  1  0  0  0
 35 36  2  0  0  0
 35 41  1  0  0  0
 37 39  1  0  0  0
 38 39  1  0  0  0
 39 45  1  0  0  0
 40 41  1  0  0  0
 42 46  2  0  0  0
 43 47  2  0  0  0
 43 51  1  0  0  0
 44 45  2  0  0  0
 48 51  1  0  0  0
 49 51  1  0  0  0
 50 51  1  0  0  0
M  END
>  <ACTIVITY>
2.51

>  <SET>
1

>  <Min_dist>
999.9

>  <Avg_dist>
999.9

$$$$
ch3o2s_fagnh2
  Cerius2 12110214373D 1   1.00000                          
Structure written by Cerius2 SD Exporter
 47 47  0  0  0  0  0  0  0  0999 V2000
   -1.8260    1.2000   -3.9960 H   0  0  0  0  0  0
   -1.7840    0.9430   -2.9380 C   0  0  0  0  0  0
   -2.0170   -0.7410   -1.7480 H   0  0  0  0  0  0
   -1.9610   -0.5220   -2.8140 N   0  0  0  0  0  0
   -3.8660    1.1770   -2.4430 H   0  0  0  0  0  0
   -2.7440    1.6830   -1.1580 H   0  0  0  0  0  0
   -2.9260    1.6860   -2.2330 C   0  0  0  0  0  0
   -0.4270    1.3880   -2.4430 C   0  0  0  0  0  0
    0.4120    1.9150   -3.1800 O   0  0  0  0  0  0
   -3.0160    3.1050   -2.7140 C   0  0  0  0  0  0
   -3.8230    3.8430   -0.8590 H   0  0  0  0  0  0
   -3.5080    4.0980   -1.8700 C   0  0  0  0  0  0
   -2.2510    2.6620   -4.6810 H   0  0  0  0  0  0
   -2.6240    3.4360   -4.0110 C   0  0  0  0  0  0
   -3.9900    6.1880   -1.6490 H   0  0  0  0  0  0
   -3.6000    5.4160   -2.3120 C   0  0  0  0  0  0
   -2.3950    5.0100   -5.4650 H   0  0  0  0  0  0
   -2.7080    4.7540   -4.4530 C   0  0  0  0  0  0
   -3.2520    6.7790   -3.9470 H   0  0  0  0  0  0
   -3.1920    5.7460   -3.6030 C   0  0  0  0  0  0
    4.8930   -0.2340    1.5940 H   0  0  0  0  0  0
    3.3680   -0.1440    2.5080 H   0  0  0  0  0  0
    3.8280   -0.4650    1.5730 C   0  0  0  0  0  0
   -0.8170   -1.5800   -3.4680 S   0  0  0  0  0  0
    1.9400    1.4840   -1.5540 H   0  0  0  0  0  0
    1.3020    1.4670   -0.6710 C   0  0  0  0  0  0
   -0.8110    0.7470   -0.4130 H   0  0  0  0  0  0
   -0.0810    1.1530   -1.1130 N   0  0  0  0  0  0
    2.3630    3.0600    0.3230 H   0  0  0  0  0  0
    1.0140    3.6040   -0.7030 H   0  0  0  0  0  0
    0.6840    2.8420    0.8710 H   0  0  0  0  0  0
    1.3440    2.8430    0.0040 C   0  0  0  0  0  0
    1.8310    0.4130    0.2630 C   0  0  0  0  0  0
    1.0690   -0.3130    0.8900 O   0  0  0  0  0  0
    4.4030   -3.7470    0.5030 H   0  0  0  0  0  0
    5.2430   -2.1320    0.0020 H   0  0  0  0  0  0
    4.4990   -2.6650    0.5940 N   0  0  0  0  0  0
    3.8680    0.8270   -0.2350 H   0  0  0  0  0  0
    3.2080    0.3100    0.4620 N   0  0  0  0  0  0
   -1.4110   -2.6170   -4.2350 O   0  0  0  0  0  0
    0.7750   -3.0210   -2.4490 H   0  0  0  0  0  0
    0.5000   -1.5470   -1.4900 H   0  0  0  0  0  0
   -0.7020   -2.8590   -1.4680 H   0  0  0  0  0  0
    0.0200   -2.3240   -2.0850 C   0  0  0  0  0  0
    2.8670   -2.6000    2.1440 O   0  0  0  0  0  0
    3.6750   -1.9660    1.4640 C   0  0  0  0  0  0
    0.1160   -0.8800   -4.2750 O   0  0  0  0  0  0
  1  2  1  0  0  0
  2  4  1  0  0  0
  2  7  1  0  0  0
  2  8  1  0  0  0
  3  4  1  0  0  0
  4 24  1  0  0  0
  5  7  1  0  0  0
  6  7  1  0  0  0
  7 10  1  0  0  0
  8  9  2  0  0  0
  8 28  1  0  0  0
 10 12  2  0  0  0
 10 14  1  0  0  0
 11 12  1  0  0  0
 12 16  1  0  0  0
 13 14  1  0  0  0
 14 18  2  0  0  0
 15 16  1  0  0  0
 16 20  2  0  0  0
 17 18  1  0  0  0
 18 20  1  0  0  0
 19 20  1  0  0  0
 21 23  1  0  0  0
 22 23  1  0  0  0
 23 39  1  0  0  0
 23 46  1  0  0  0
 24 40  2  0  0  0
 24 44  1  0  0  0
 24 47  2  0  0  0
 25 26  1  0  0  0
 26 28  1  0  0  0
 26 32  1  0  0  0
 26 33  1  0  0  0
 27 28  1  0  0  0
 29 32  1  0  0  0
 30 32  1  0  0  0
 31 32  1  0  0  0
 33 34  2  0  0  0
 33 39  1  0  0  0
 35 37  1  0  0  0
 36 37  1  0  0  0
 37 46  1  0  0  0
 38 39  1  0  0  0
 41 44  1  0  0  0
 42 44  1  0  0  0
 43 44  1  0  0  0
 45 46  2  0  0  0
M  END
>  <ACTIVITY>
0.52

>  <SET>
2

>  <Min_dist>
0.24

>  <Avg_dist>
0.48

$$$$
cho_ohleu_agnh2
  Cerius2 12110214373D 1   1.00000                          
Structure written by Cerius2 SD Exporter
 43 42  0  0  0  0  0  0  0  0999 V2000
   -1.2450   -0.2840   -3.8040 H   0  0  0  0  0  0
   -1.0990   -0.0730   -2.7450 C   0  0  0  0  0  0
   -0.8270   -1.3720   -2.0660 N   0  0  0  0  0  0
   -0.0900   -3.4150   -2.2020 H   0  0  0  0  0  0
   -0.3310   -2.5000   -2.7430 C   0  0  0  0  0  0
    0.0740    0.8460   -2.5830 C   0  0  0  0  0  0
    0.4880    1.5330   -3.5180 O   0  0  0  0  0  0
   -3.2360   -0.0500   -2.5240 H   0  0  0  0  0  0
   -2.3470    0.7020   -1.1770 H   0  0  0  0  0  0
   -2.3960    0.5930   -2.2610 C   0  0  0  0  0  0
   -0.1780   -2.4280   -3.9500 O   0  0  0  0  0  0
   -1.7440    2.5870   -2.6720 H   0  0  0  0  0  0
   -2.6260    1.9820   -2.8840 C   0  0  0  0  0  0
   -2.9360    2.9160   -4.8060 H   0  0  0  0  0  0
   -1.8680    1.4920   -4.8450 H   0  0  0  0  0  0
   -3.6260    1.2810   -4.6650 H   0  0  0  0  0  0
   -2.7750    1.9130   -4.4110 C   0  0  0  0  0  0
   -4.0090    3.6250   -2.7060 H   0  0  0  0  0  0
   -4.7330    2.0220   -2.4360 H   0  0  0  0  0  0
   -3.7010    2.7540   -1.1840 H   0  0  0  0  0  0
   -3.8560    2.6430   -2.2570 C   0  0  0  0  0  0
    5.2730   -0.5220    1.6980 H   0  0  0  0  0  0
    3.7170   -0.2230    2.5080 H   0  0  0  0  0  0
    4.1900   -0.6030    1.6030 C   0  0  0  0  0  0
    2.6640    1.1810   -1.7880 H   0  0  0  0  0  0
    1.9700    1.3140   -0.9580 C   0  0  0  0  0  0
    0.0120    0.4240   -0.5040 H   0  0  0  0  0  0
    0.6240    0.8290   -1.3100 N   0  0  0  0  0  0
    2.9390    3.1510   -0.3790 H   0  0  0  0  0  0
    1.5770    3.3620   -1.5060 H   0  0  0  0  0  0
    1.2660    2.9860    0.2060 H   0  0  0  0  0  0
    1.9350    2.8110   -0.6360 C   0  0  0  0  0  0
    2.4070    0.5270    0.2440 C   0  0  0  0  0  0
    1.5450    0.1600    1.0390 O   0  0  0  0  0  0
    4.3260   -3.8870    0.4180 H   0  0  0  0  0  0
    5.4160   -2.3960    0.0240 H   0  0  0  0  0  0
    4.5750   -2.8350    0.5610 N   0  0  0  0  0  0
    4.4920    0.5760   -0.2570 H   0  0  0  0  0  0
    3.7470    0.2120    0.4510 N   0  0  0  0  0  0
    2.8740   -2.5660    2.0270 O   0  0  0  0  0  0
    3.8200   -2.0540    1.4270 C   0  0  0  0  0  0
   -0.5730   -2.6080   -0.3110 H   0  0  0  0  0  0
   -0.7840   -1.6070   -0.6870 O   0  0  0  0  0  0
  1  2  1  0  0  0
  2  3  1  0  0  0
  2  6  1  0  0  0
  2 10  1  0  0  0
  3  5  1  0  0  0
  3 43  1  0  0  0
  4  5  1  0  0  0
  5 11  2  0  0  0
  6  7  2  0  0  0
  6 28  1  0  0  0
  8 10  1  0  0  0
  9 10  1  0  0  0
 10 13  1  0  0  0
 12 13  1  0  0  0
 13 17  1  0  0  0
 13 21  1  0  0  0
 14 17  1  0  0  0
 15 17  1  0  0  0
 16 17  1  0  0  0
 18 21  1  0  0  0
 19 21  1  0  0  0
 20 21  1  0  0  0
 22 24  1  0  0  0
 23 24  1  0  0  0
 24 39  1  0  0  0
 24 41  1  0  0  0
 25 26  1  0  0  0
 26 28  1  0  0  0
 26 32  1  0  0  0
 26 33  1  0  0  0
 27 28  1  0  0  0
 29 32  1  0  0  0
 30 32  1  0  0  0
 31 32  1  0  0  0
 33 34  2  0  0  0
 33 39  1  0  0  0
 35 37  1  0  0  0
 36 37  1  0  0  0
 37 41  1  0  0  0
 38 39  1  0  0  0
 40 41  2  0  0  0
 42 43  1  0  0  0
M  END
>  <ACTIVITY>
2.47

>  <SET>
1

>  <Min_dist>
999.9

>  <Avg_dist>
999.9

$$$$
cltzncrys
  Cerius2 12110214373D 1   1.00000                          
Structure written by Cerius2 SD Exporter
 66 68  0  0  0  0  0  0  0  0999 V2000
   -0.1700   -1.0390   -1.7020 H   0  0  0  0  0  0
   -1.0450   -1.4900   -2.1720 C   0  0  0  0  0  0
   -2.3870   -3.0240   -1.4890 H   0  0  0  0  0  0
   -0.7790   -3.6140   -1.9740 H   0  0  0  0  0  0
   -1.3170   -2.8190   -1.4580 C   0  0  0  0  0  0
    0.2110   -2.5910    0.0390 H   0  0  0  0  0  0
   -1.3890   -1.9790    0.5220 H   0  0  0  0  0  0
   -0.8620   -2.7800    0.0030 C   0  0  0  0  0  0
   -1.1580   -4.0860    0.6790 C   0  0  0  0  0  0
   -0.4260   -5.2870   -0.9550 H   0  0  0  0  0  0
   -0.8700   -5.2930    0.0410 C   0  0  0  0  0  0
   -1.9410   -3.1620    2.4620 H   0  0  0  0  0  0
   -1.7170   -4.1010    1.9560 C   0  0  0  0  0  0
   -0.9230   -7.4450    0.1630 H   0  0  0  0  0  0
   -1.1470   -6.5060    0.6690 C   0  0  0  0  0  0
   -2.4280   -5.3200    3.5850 H   0  0  0  0  0  0
   -1.9920   -5.3130    2.5870 C   0  0  0  0  0  0
   -1.9270   -7.4630    2.4360 H   0  0  0  0  0  0
   -1.7090   -6.5160    1.9430 C   0  0  0  0  0  0
   -0.7630   -1.7570   -3.5980 C   0  0  0  0  0  0
    0.0420   -1.1200   -4.2300 O   0  5  0  0  0  0
   -1.3160   -2.7330   -4.3260 O   0  0  0  0  0  0
   -3.0450   -0.9010   -2.3680 H   0  0  0  0  0  0
   -2.1140   -0.4750   -1.9940 N   0  0  0  0  0  0
   -1.9880    0.6310   -3.7580 H   0  0  0  0  0  0
   -1.8930    0.8230   -2.6890 C   0  0  0  0  0  0
   -0.5070    1.3840   -2.4860 C   0  0  0  0  0  0
    0.1010    1.8930   -3.4350 O   0  0  0  0  0  0
   -3.9440    1.4090   -2.3980 H   0  0  0  0  0  0
   -2.8160    2.0460   -1.1770 H   0  0  0  0  0  0
   -2.9540    1.8370   -2.2380 C   0  0  0  0  0  0
   -1.8090    3.4830   -2.9920 H   0  0  0  0  0  0
   -2.8470    3.1520   -3.0240 C   0  0  0  0  0  0
   -3.1430    3.8950   -5.0290 H   0  0  0  0  0  0
   -2.5580    2.2160   -4.9480 H   0  0  0  0  0  0
   -4.2550    2.5870   -4.5600 H   0  0  0  0  0  0
   -3.2280    2.9480   -4.4970 C   0  0  0  0  0  0
   -3.6300    5.1580   -2.9490 H   0  0  0  0  0  0
   -4.7590    3.9070   -2.3750 H   0  0  0  0  0  0
   -3.3870    4.4040   -1.3550 H   0  0  0  0  0  0
   -3.7190    4.2330   -2.3800 C   0  0  0  0  0  0
   -0.5740    0.9050   -0.3900 H   0  0  0  0  0  0
    0.0300    1.3020   -1.2060 N   0  0  0  0  0  0
    1.9420    1.7610   -1.8980 H   0  0  0  0  0  0
    1.4100    1.7470   -0.9470 C   0  0  0  0  0  0
    2.1260    0.7760   -0.0440 C   0  0  0  0  0  0
    1.5670    0.0590    0.7820 O   0  5  0  0  0  0
    2.4840    3.5440   -0.4290 H   0  0  0  0  0  0
    0.8360    3.8230   -1.0400 H   0  0  0  0  0  0
    1.4540    3.1880   -0.4060 C   0  0  0  0  0  0
    0.9430    3.2640    1.0060 C   0  0  0  0  0  0
   -1.2120    3.0970    0.7380 H   0  0  0  0  0  0
   -0.3530    3.1820    1.4040 C   0  0  0  0  0  0
    1.7540    3.3990    2.1830 C   0  0  0  0  0  0
   -1.3130    3.1480    3.4340 H   0  0  0  0  0  0
   -0.4140    3.2260    2.8220 N   0  0  0  0  0  0
    0.9160    3.3900    3.2960 C   0  0  0  0  0  0
    3.8240    3.5310    1.5190 H   0  0  0  0  0  0
    3.1440    3.5250    2.3710 C   0  0  0  0  0  0
    0.7040    3.4990    5.4640 H   0  0  0  0  0  0
    1.3840    3.5070    4.6130 C   0  0  0  0  0  0
    4.7000    3.7390    3.8290 H   0  0  0  0  0  0
    3.6270    3.6410    3.6660 C   0  0  0  0  0  0
    3.1670    3.7280    5.7840 H   0  0  0  0  0  0
    2.7550    3.6330    4.7790 C   0  0  0  0  0  0
    3.4710    0.7270   -0.1550 O   0  0  0  0  0  0
  1  2  1  0  0  0
  2  5  1  0  0  0
  2 20  1  0  0  0
  2 24  1  0  0  0
  3  5  1  0  0  0
  4  5  1  0  0  0
  5  8  1  0  0  0
  6  8  1  0  0  0
  7  8  1  0  0  0
  8  9  1  0  0  0
  9 11  2  0  0  0
  9 13  1  0  0  0
 10 11  1  0  0  0
 11 15  1  0  0  0
 12 13  1  0  0  0
 13 17  2  0  0  0
 14 15  1  0  0  0
 15 19  2  0  0  0
 16 17  1  0  0  0
 17 19  1  0  0  0
 18 19  1  0  0  0
 20 21  1  0  0  0
 20 22  2  0  0  0
 23 24  1  0  0  0
 24 26  1  0  0  0
 25 26  1  0  0  0
 26 27  1  0  0  0
 26 31  1  0  0  0
 27 28  2  0  0  0
 27 43  1  0  0  0
 29 31  1  0  0  0
 30 31  1  0  0  0
 31 33  1  0  0  0
 32 33  1  0  0  0
 33 37  1  0  0  0
 33 41  1  0  0  0
 34 37  1  0  0  0
 35 37  1  0  0  0
 36 37  1  0  0  0
 38 41  1  0  0  0
 39 41  1  0  0  0
 40 41  1  0  0  0
 42 43  1  0  0  0
 43 45  1  0  0  0
 44 45  1  0  0  0
 45 46  1  0  0  0
 45 50  1  0  0  0
 46 47  1  0  0  0
 46 66  2  0  0  0
 48 50  1  0  0  0
 49 50  1  0  0  0
 50 51  1  0  0  0
 51 53  2  0  0  0
 51 54  1  0  0  0
 52 53  1  0  0  0
 53 56  1  0  0  0
 54 57  2  0  0  0
 54 59  1  0  0  0
 55 56  1  0  0  0
 56 57  1  0  0  0
 57 61  1  0  0  0
 58 59  1  0  0  0
 59 63  2  0  0  0
 60 61  1  0  0  0
 61 65  2  0  0  0
 62 63  1  0  0  0
 63 65  1  0  0  0
 64 65  1  0  0  0
M  CHG  2  21  -1  47  -1
M  END
>  <ACTIVITY>
7.47

>  <SET>
1

>  <Min_dist>
999.9

>  <Avg_dist>
999.9

$$$$
dah50
  Cerius2 12110214373D 1   1.00000                          
Structure written by Cerius2 SD Exporter
 94 97  0  0  0  0  0  0  0  0999 V2000
    2.8800  -12.8340   -6.7660 H   0  0  0  0  0  0
    2.3990  -12.2110   -6.0120 C   0  0  0  0  0  0
    1.4240  -10.9540   -7.4650 H   0  0  0  0  0  0
    1.5810  -11.1510   -6.4050 C   0  0  0  0  0  0
    0.9660  -10.3430   -5.4520 C   0  0  0  0  0  0
    0.7030   -9.9920   -3.3440 H   0  0  0  0  0  0
    1.1790  -10.6170   -4.0990 C   0  0  0  0  0  0
    2.1480  -11.8790   -2.6380 H   0  0  0  0  0  0
    1.9930  -11.6780   -3.6980 C   0  0  0  0  0  0
    3.2400  -13.3080   -4.3550 H   0  0  0  0  0  0
    2.6030  -12.4770   -4.6590 C   0  0  0  0  0  0
    0.2040   -9.0320   -6.9520 H   0  0  0  0  0  0
   -0.9580   -9.4480   -5.6700 H   0  0  0  0  0  0
    0.0810   -9.1960   -5.8820 C   0  0  0  0  0  0
    0.4247   -7.9976   -5.1816 O   0  0  0  0  0  0
   -0.2160   -7.7429   -4.0442 C   0  0  0  0  0  0
   -1.1420   -8.4639   -3.6662 O   0  0  0  0  0  0
   -1.3190   -6.5009   -1.9152 H   0  0  0  0  0  0
   -0.2310   -6.4399   -1.9202 C   0  0  0  0  0  0
    0.9610   -5.9659   -3.7412 H   0  0  0  0  0  0
    0.2440   -6.6589   -3.3002 N   0  0  0  0  0  0
    0.6910   -8.3629   -1.6012 H   0  0  0  0  0  0
    1.1860   -7.1089   -0.4392 H   0  0  0  0  0  0
    0.3460   -7.5229   -0.9972 C   0  0  0  0  0  0
    0.1590   -5.0729   -1.4222 C   0  0  0  0  0  0
    1.2910   -4.6159   -1.5882 O   0  0  0  0  0  0
   -0.7000   -8.0049   -0.0322 C   0  0  0  0  0  0
   -0.8870   -9.9399   -0.9662 H   0  0  0  0  0  0
   -1.2300   -9.2889   -0.1632 C   0  0  0  0  0  0
   -0.7360   -6.1699    1.0908 H   0  0  0  0  0  0
   -1.1460   -7.1739    0.9908 C   0  0  0  0  0  0
   -2.6110  -10.7429    0.6288 H   0  0  0  0  0  0
   -2.1980   -9.7389    0.7318 C   0  0  0  0  0  0
   -2.4620   -6.9659    2.6868 H   0  0  0  0  0  0
   -2.1150   -7.6199    1.8878 C   0  0  0  0  0  0
   -3.3940   -9.2569    2.4618 H   0  0  0  0  0  0
   -2.6390   -8.9039    1.7598 C   0  0  0  0  0  0
   -1.8170   -4.7719   -0.6772 H   0  0  0  0  0  0
   -0.8150   -4.3479   -0.7382 N   0  0  0  0  0  0
   -1.4990   -2.7119    0.3938 H   0  0  0  0  0  0
    0.2050   -3.1539    0.6618 H   0  0  0  0  0  0
   -0.5770   -3.0349   -0.0892 C   0  0  0  0  0  0
   -0.0050   -1.0099   -0.5582 H   0  0  0  0  0  0
    0.8060   -2.2499   -1.5442 H   0  0  0  0  0  0
   -0.1380   -1.9519   -1.0892 C   0  0  0  0  0  0
   -1.9300   -2.5529   -2.0892 H   0  0  0  0  0  0
   -1.1850   -1.7629   -2.1892 C   0  0  0  0  0  0
   -0.6060   -1.9949   -3.5432 C   0  0  0  0  0  0
   -0.0750   -1.1479   -4.2212 O   0  5  0  0  0  0
   -0.5570   -3.1759   -4.1852 O   0  0  0  0  0  0
   -1.8520    0.4781   -3.8162 H   0  0  0  0  0  0
   -1.8080    0.7241   -2.7552 C   0  0  0  0  0  0
   -3.0650   -0.8509   -2.2462 H   0  0  0  0  0  0
   -2.0480   -0.5429   -2.0042 N   0  0  0  0  0  0
   -3.8730    1.2951   -2.5502 H   0  0  0  0  0  0
   -2.7920    1.9871   -1.3172 H   0  0  0  0  0  0
   -2.8950    1.7421   -2.3742 C   0  0  0  0  0  0
   -0.4450    1.3201   -2.5222 C   0  0  0  0  0  0
    0.1610    1.8501   -3.4612 O   0  0  0  0  0  0
   -1.7450    3.3581   -3.1912 H   0  0  0  0  0  0
   -2.7870    3.0371   -3.1942 C   0  0  0  0  0  0
   -3.1110    3.7341   -5.2112 H   0  0  0  0  0  0
   -2.5430    2.0511   -5.0992 H   0  0  0  0  0  0
   -4.2290    2.4501   -4.6902 H   0  0  0  0  0  0
   -3.1970    2.8011   -4.6542 C   0  0  0  0  0  0
   -3.5490    5.0531   -3.1522 H   0  0  0  0  0  0
   -4.6790    3.8281   -2.5282 H   0  0  0  0  0  0
   -3.2840    4.3341   -1.5462 H   0  0  0  0  0  0
   -3.6360    4.1431   -2.5592 C   0  0  0  0  0  0
    1.9770    1.7371   -1.9032 H   0  0  0  0  0  0
    1.4330    1.7451   -0.9592 C   0  0  0  0  0  0
   -0.5420    0.8631   -0.4222 H   0  0  0  0  0  0
    0.0670    1.2641   -1.2322 N   0  0  0  0  0  0
    2.4700    3.5781   -0.5032 H   0  0  0  0  0  0
    0.8200    3.8031   -1.1332 H   0  0  0  0  0  0
    1.4460    3.2051   -0.4702 C   0  0  0  0  0  0
    2.1610    0.8171   -0.0212 C   0  0  0  0  0  0
    1.6150    0.1301    0.8378 O   0  5  0  0  0  0
    0.9270    3.3351    0.9348 C   0  0  0  0  0  0
   -1.1960    2.9091    0.7048 H   0  0  0  0  0  0
   -0.3530    3.1501    1.3518 C   0  0  0  0  0  0
    1.7150    3.6611    2.0908 C   0  0  0  0  0  0
    3.7590    3.9611    1.3998 H   0  0  0  0  0  0
    3.0830    3.9561    2.2548 C   0  0  0  0  0  0
    0.8810    3.6601    3.2068 C   0  0  0  0  0  0
   -1.3110    3.2021    3.3838 H   0  0  0  0  0  0
   -0.4230    3.3161    2.7618 N   0  0  0  0  0  0
    4.6030    4.4731    3.6738 H   0  0  0  0  0  0
    3.5470    4.2421    3.5298 C   0  0  0  0  0  0
    0.6550    3.9421    5.3578 H   0  0  0  0  0  0
    1.3320    3.9481    4.5028 C   0  0  0  0  0  0
    3.0770    4.4701    5.6348 H   0  0  0  0  0  0
    2.6800    4.2391    4.6458 C   0  0  0  0  0  0
    3.5050    0.7691   -0.1442 O   0  0  0  0  0  0
  1  2  1  0  0  0
  2  4  1  0  0  0
  2 11  2  0  0  0
  3  4  1  0  0  0
  4  5  2  0  0  0
  5  7  1  0  0  0
  5 14  1  0  0  0
  6  7  1  0  0  0
  7  9  2  0  0  0
  8  9  1  0  0  0
  9 11  1  0  0  0
 10 11  1  0  0  0
 12 14  1  0  0  0
 13 14  1  0  0  0
 14 15  1  0  0  0
 15 16  1  0  0  0
 16 17  2  0  0  0
 16 21  1  0  0  0
 18 19  1  0  0  0
 19 21  1  0  0  0
 19 24  1  0  0  0
 19 25  1  0  0  0
 20 21  1  0  0  0
 22 24  1  0  0  0
 23 24  1  0  0  0
 24 27  1  0  0  0
 25 26  2  0  0  0
 25 39  1  0  0  0
 27 29  2  0  0  0
 27 31  1  0  0  0
 28 29  1  0  0  0
 29 33  1  0  0  0
 30 31  1  0  0  0
 31 35  2  0  0  0
 32 33  1  0  0  0
 33 37  2  0  0  0
 34 35  1  0  0  0
 35 37  1  0  0  0
 36 37  1  0  0  0
 38 39  1  0  0  0
 39 42  1  0  0  0
 40 42  1  0  0  0
 41 42  1  0  0  0
 42 45  1  0  0  0
 43 45  1  0  0  0
 44 45  1  0  0  0
 45 47  1  0  0  0
 46 47  1  0  0  0
 47 48  1  0  0  0
 47 54  1  0  0  0
 48 49  1  0  0  0
 48 50  2  0  0  0
 51 52  1  0  0  0
 52 54  1  0  0  0
 52 57  1  0  0  0
 52 58  1  0  0  0
 53 54  1  0  0  0
 55 57  1  0  0  0
 56 57  1  0  0  0
 57 61  1  0  0  0
 58 59  2  0  0  0
 58 73  1  0  0  0
 60 61  1  0  0  0
 61 65  1  0  0  0
 61 69  1  0  0  0
 62 65  1  0  0  0
 63 65  1  0  0  0
 64 65  1  0  0  0
 66 69  1  0  0  0
 67 69  1  0  0  0
 68 69  1  0  0  0
 70 71  1  0  0  0
 71 73  1  0  0  0
 71 76  1  0  0  0
 71 77  1  0  0  0
 72 73  1  0  0  0
 74 76  1  0  0  0
 75 76  1  0  0  0
 76 79  1  0  0  0
 77 78  1  0  0  0
 77 94  2  0  0  0
 79 81  2  0  0  0
 79 82  1  0  0  0
 80 81  1  0  0  0
 81 87  1  0  0  0
 82 84  2  0  0  0
 82 85  1  0  0  0
 83 84  1  0  0  0
 84 89  1  0  0  0
 85 87  1  0  0  0
 85 91  2  0  0  0
 86 87  1  0  0  0
 88 89  1  0  0  0
 89 93  2  0  0  0
 90 91  1  0  0  0
 91 93  1  0  0  0
 92 93  1  0  0  0
M  CHG  2  49  -1  78  -1
M  END
>  <ACTIVITY>
7.96

>  <SET>
1

>  <Min_dist>
999.9

>  <Avg_dist>
999.9

$$$$
dah51
  Cerius2 12110214373D 1   1.00000                          
Structure written by Cerius2 SD Exporter
 62 63  0  0  0  0  0  0  0  0999 V2000
    0.1010   -1.2880   -1.5430 H   0  0  0  0  0  0
   -0.7570   -1.7450   -2.0370 C   0  0  0  0  0  0
   -2.1350   -3.3310   -1.5840 H   0  0  0  0  0  0
   -0.4340   -3.8440   -1.7020 H   0  0  0  0  0  0
   -1.1060   -3.0650   -1.3410 C   0  0  0  0  0  0
    0.0480   -2.6470    0.4260 H   0  0  0  0  0  0
   -1.6740   -2.2150    0.5520 H   0  0  0  0  0  0
   -0.9680   -2.9570    0.1800 C   0  0  0  0  0  0
   -1.2520   -4.2800    0.8310 C   0  0  0  0  0  0
   -2.0080   -3.3920    2.6430 H   0  0  0  0  0  0
   -1.7920   -4.3210    2.1150 C   0  0  0  0  0  0
   -0.5390   -5.4500   -0.8330 H   0  0  0  0  0  0
   -0.9710   -5.4750    0.1670 C   0  0  0  0  0  0
   -2.4820   -5.5710    3.7310 H   0  0  0  0  0  0
   -2.0580   -5.5450    2.7270 C   0  0  0  0  0  0
   -1.0210   -7.6290    0.2490 H   0  0  0  0  0  0
   -1.2380   -6.7000    0.7760 C   0  0  0  0  0  0
   -1.9960   -7.6920    2.5340 H   0  0  0  0  0  0
   -1.7840   -6.7350    2.0570 C   0  0  0  0  0  0
   -0.3810   -2.0250   -3.4530 C   0  0  0  0  0  0
   -0.0570   -1.1500   -4.2180 O   0  5  0  0  0  0
   -0.3010   -3.2150   -4.0820 O   0  0  0  0  0  0
   -2.7660   -1.2120   -2.3110 H   0  0  0  0  0  0
   -1.8670   -0.7430   -1.9120 N   0  0  0  0  0  0
   -1.8250    0.3850   -3.6570 H   0  0  0  0  0  0
   -1.7290    0.5890   -2.5900 C   0  0  0  0  0  0
   -0.3730    1.2370   -2.4290 C   0  0  0  0  0  0
    0.1780    1.7980   -3.3890 O   0  0  0  0  0  0
   -3.8090    1.0380   -2.2590 H   0  0  0  0  0  0
   -2.6970    1.8080   -1.1020 H   0  0  0  0  0  0
   -2.8490    1.5420   -2.1480 C   0  0  0  0  0  0
   -1.8430    3.2220   -3.0150 H   0  0  0  0  0  0
   -2.8580    2.8250   -2.9930 C   0  0  0  0  0  0
   -3.2780    3.4590   -5.0140 H   0  0  0  0  0  0
   -2.5820    1.8260   -4.8870 H   0  0  0  0  0  0
   -4.2830    2.1040   -4.4460 H   0  0  0  0  0  0
   -3.2810    2.5320   -4.4400 C   0  0  0  0  0  0
   -3.7680    4.7780   -2.9770 H   0  0  0  0  0  0
   -4.7910    3.4850   -2.3050 H   0  0  0  0  0  0
   -3.4190    4.1160   -1.3620 H   0  0  0  0  0  0
   -3.7750    3.8770   -2.3640 C   0  0  0  0  0  0
   -0.3860    0.7850   -0.3270 H   0  0  0  0  0  0
    0.2090    1.1330   -1.1720 N   0  0  0  0  0  0
    2.1370    1.3230   -1.9190 H   0  0  0  0  0  0
    1.6240    1.4920   -0.9720 C   0  0  0  0  0  0
    2.2690    0.5970    0.0540 C   0  0  0  0  0  0
    1.6490   -0.0230    0.9140 O   0  5  0  0  0  0
    2.8770    3.2330   -0.7750 H   0  0  0  0  0  0
    1.2340    3.5720   -1.3700 H   0  0  0  0  0  0
    1.8210    2.9870   -0.6620 C   0  0  0  0  0  0
    1.3880    3.3410    0.7340 C   0  0  0  0  0  0
   -0.7180    3.3780    0.2720 H   0  0  0  0  0  0
    0.0390    3.4970    1.0470 C   0  0  0  0  0  0
    3.4060    3.3840    1.4890 H   0  0  0  0  0  0
    2.3500    3.5020    1.7310 C   0  0  0  0  0  0
   -1.3970    3.9240    2.5920 H   0  0  0  0  0  0
   -0.3410    3.8060    2.3490 C   0  0  0  0  0  0
    2.7250    3.9390    3.8090 H   0  0  0  0  0  0
    1.9690    3.8130    3.0340 C   0  0  0  0  0  0
    0.3170    4.2050    4.3640 H   0  0  0  0  0  0
    0.6200    3.9640    3.3450 C   0  0  0  0  0  0
    3.6150    0.5020    0.0160 O   0  0  0  0  0  0
  1  2  1  0  0  0
  2  5  1  0  0  0
  2 20  1  0  0  0
  2 24  1  0  0  0
  3  5  1  0  0  0
  4  5  1  0  0  0
  5  8  1  0  0  0
  6  8  1  0  0  0
  7  8  1  0  0  0
  8  9  1  0  0  0
  9 11  2  0  0  0
  9 13  1  0  0  0
 10 11  1  0  0  0
 11 15  1  0  0  0
 12 13  1  0  0  0
 13 17  2  0  0  0
 14 15  1  0  0  0
 15 19  2  0  0  0
 16 17  1  0  0  0
 17 19  1  0  0  0
 18 19  1  0  0  0
 20 21  1  0  0  0
 20 22  2  0  0  0
 23 24  1  0  0  0
 24 26  1  0  0  0
 25 26  1  0  0  0
 26 27  1  0  0  0
 26 31  1  0  0  0
 27 28  2  0  0  0
 27 43  1  0  0  0
 29 31  1  0  0  0
 30 31  1  0  0  0
 31 33  1  0  0  0
 32 33  1  0  0  0
 33 37  1  0  0  0
 33 41  1  0  0  0
 34 37  1  0  0  0
 35 37  1  0  0  0
 36 37  1  0  0  0
 38 41  1  0  0  0
 39 41  1  0  0  0
 40 41  1  0  0  0
 42 43  1  0  0  0
 43 45  1  0  0  0
 44 45  1  0  0  0
 45 46  1  0  0  0
 45 50  1  0  0  0
 46 47  1  0  0  0
 46 62  2  0  0  0
 48 50  1  0  0  0
 49 50  1  0  0  0
 50 51  1  0  0  0
 51 53  2  0  0  0
 51 55  1  0  0  0
 52 53  1  0  0  0
 53 57  1  0  0  0
 54 55  1  0  0  0
 55 59  2  0  0  0
 56 57  1  0  0  0
 57 61  2  0  0  0
 58 59  1  0  0  0
 59 61  1  0  0  0
 60 61  1  0  0  0
M  CHG  2  21  -1  47  -1
M  END
>  <ACTIVITY>
6.22

>  <SET>
1

>  <Min_dist>
999.9

>  <Avg_dist>
999.9

$$$$
dah52
  Cerius2 12110214373D 1   1.00000                          
Structure written by Cerius2 SD Exporter
 49 49  0  0  0  0  0  0  0  0999 V2000
    0.1470   -0.9580   -1.6040 H   0  0  0  0  0  0
   -0.7200   -1.4850   -2.0020 C   0  0  0  0  0  0
   -1.1690   -2.4420   -0.1230 H   0  0  0  0  0  0
   -1.7930   -3.3000   -1.5520 H   0  0  0  0  0  0
   -0.0560   -3.3590   -1.1680 H   0  0  0  0  0  0
   -0.9510   -2.7370   -1.1500 C   0  0  0  0  0  0
   -0.4200   -1.8550   -3.4160 C   0  0  0  0  0  0
   -0.0090   -1.0440   -4.2640 O   0  5  0  0  0  0
   -0.5050   -2.9350   -4.0420 O   0  0  0  0  0  0
   -2.7440   -1.0700   -2.3630 H   0  0  0  0  0  0
   -1.8880   -0.5590   -1.9210 N   0  0  0  0  0  0
   -1.8730    0.5650   -3.6670 H   0  0  0  0  0  0
   -1.7500    0.7640   -2.6020 C   0  0  0  0  0  0
   -0.3830    1.3920   -2.4650 C   0  0  0  0  0  0
    0.1630    1.9020   -3.4470 O   0  0  0  0  0  0
   -3.8180    1.2410   -2.2330 H   0  0  0  0  0  0
   -2.6750    1.9850   -1.0890 H   0  0  0  0  0  0
   -2.8480    1.7300   -2.1340 C   0  0  0  0  0  0
   -1.8310    3.4060   -2.9950 H   0  0  0  0  0  0
   -2.8490    3.0190   -2.9710 C   0  0  0  0  0  0
   -3.2720    3.6680   -4.9860 H   0  0  0  0  0  0
   -2.5900    2.0280   -4.8710 H   0  0  0  0  0  0
   -4.2870    2.3190   -4.4210 H   0  0  0  0  0  0
   -3.2810    2.7380   -4.4170 C   0  0  0  0  0  0
   -3.7410    4.9800   -2.9370 H   0  0  0  0  0  0
   -4.7720    3.6920   -2.2700 H   0  0  0  0  0  0
   -3.3910    4.3040   -1.3280 H   0  0  0  0  0  0
   -3.7540    4.0750   -2.3300 C   0  0  0  0  0  0
   -0.3570    1.0630   -0.3490 H   0  0  0  0  0  0
    0.2310    1.3470   -1.2220 N   0  0  0  0  0  0
    2.1710    1.5470   -2.0070 H   0  0  0  0  0  0
    1.6590    1.6750   -1.0530 C   0  0  0  0  0  0
    2.2580    0.7300   -0.0470 C   0  0  0  0  0  0
    1.4320    0.2360    0.7810 O   0  5  0  0  0  0
    2.9340    3.3870   -0.7630 H   0  0  0  0  0  0
    1.3000    3.7790   -1.3500 H   0  0  0  0  0  0
    1.8750    3.1520   -0.6680 C   0  0  0  0  0  0
    1.4390    3.4470    0.7430 C   0  0  0  0  0  0
   -0.6620    3.5710    0.2720 H   0  0  0  0  0  0
    0.0920    3.6220    1.0570 C   0  0  0  0  0  0
    3.4500    3.3950    1.5130 H   0  0  0  0  0  0
    2.3950    3.5260    1.7550 C   0  0  0  0  0  0
   -1.3470    3.9950    2.6150 H   0  0  0  0  0  0
   -0.2920    3.8630    2.3730 C   0  0  0  0  0  0
    2.7650    3.8300    3.8570 H   0  0  0  0  0  0
    2.0120    3.7700    3.0720 C   0  0  0  0  0  0
    0.3600    4.1250    4.4120 H   0  0  0  0  0  0
    0.6650    3.9370    3.3820 C   0  0  0  0  0  0
    3.5080    0.5090   -0.0360 O   0  0  0  0  0  0
  1  2  1  0  0  0
  2  6  1  0  0  0
  2  7  1  0  0  0
  2 11  1  0  0  0
  3  6  1  0  0  0
  4  6  1  0  0  0
  5  6  1  0  0  0
  7  8  1  0  0  0
  7  9  2  0  0  0
 10 11  1  0  0  0
 11 13  1  0  0  0
 12 13  1  0  0  0
 13 14  1  0  0  0
 13 18  1  0  0  0
 14 15  2  0  0  0
 14 30  1  0  0  0
 16 18  1  0  0  0
 17 18  1  0  0  0
 18 20  1  0  0  0
 19 20  1  0  0  0
 20 24  1  0  0  0
 20 28  1  0  0  0
 21 24  1  0  0  0
 22 24  1  0  0  0
 23 24  1  0  0  0
 25 28  1  0  0  0
 26 28  1  0  0  0
 27 28  1  0  0  0
 29 30  1  0  0  0
 30 32  1  0  0  0
 31 32  1  0  0  0
 32 33  1  0  0  0
 32 37  1  0  0  0
 33 34  1  0  0  0
 33 49  2  0  0  0
 35 37  1  0  0  0
 36 37  1  0  0  0
 37 38  1  0  0  0
 38 40  2  0  0  0
 38 42  1  0  0  0
 39 40  1  0  0  0
 40 44  1  0  0  0
 41 42  1  0  0  0
 42 46  2  0  0  0
 43 44  1  0  0  0
 44 48  2  0  0  0
 45 46  1  0  0  0
 46 48  1  0  0  0
 47 48  1  0  0  0
M  CHG  2   8  -1  34  -1
M  END
>  <ACTIVITY>
5.55

>  <SET>
1

>  <Min_dist>
999.9

>  <Avg_dist>
999.9

$$$$
dah53
  Cerius2 12110214373D 1   1.00000                          
Structure written by Cerius2 SD Exporter
 90 92  0  0  0  0  0  0  0  0999 V2000
    1.8420  -11.9230   -3.6540 H   0  0  0  0  0  0
    1.6880  -11.5090   -4.6510 C   0  0  0  0  0  0
    0.5140   -9.8510   -3.9400 H   0  0  0  0  0  0
    0.9410  -10.3440   -4.8130 C   0  0  0  0  0  0
    0.7340   -9.8020   -6.0830 C   0  0  0  0  0  0
    1.1360  -10.0300   -8.1860 H   0  0  0  0  0  0
    1.2890  -10.4430   -7.1890 C   0  0  0  0  0  0
    2.4720  -12.0980   -7.9040 H   0  0  0  0  0  0
    2.0400  -11.6070   -7.0320 C   0  0  0  0  0  0
    2.8220  -13.0560   -5.6380 H   0  0  0  0  0  0
    2.2390  -12.1440   -5.7620 C   0  0  0  0  0  0
    0.0280   -8.2040   -7.2970 H   0  0  0  0  0  0
   -1.1440   -8.8020   -6.0980 H   0  0  0  0  0  0
   -0.0960   -8.5590   -6.2740 C   0  0  0  0  0  0
    0.2972   -7.5219   -5.3713 O   0  0  0  0  0  0
   -0.3276   -7.4152   -4.2021 C   0  0  0  0  0  0
   -1.2356   -8.1932   -3.8991 O   0  0  0  0  0  0
   -1.4606   -6.2232   -1.9751 H   0  0  0  0  0  0
   -0.3706   -6.2412   -1.9731 C   0  0  0  0  0  0
    0.8664   -5.6982   -3.7311 H   0  0  0  0  0  0
    0.1224   -6.4002   -3.3561 N   0  0  0  0  0  0
    0.2294   -8.2922   -1.7571 H   0  0  0  0  0  0
    1.0794   -7.1582   -0.6801 H   0  0  0  0  0  0
    0.1144   -7.4192   -1.1161 C   0  0  0  0  0  0
    0.1504   -4.9472   -1.3991 C   0  0  0  0  0  0
    1.3234   -4.5962   -1.5421 O   0  0  0  0  0  0
   -0.8396   -7.7622   -0.0031 C   0  0  0  0  0  0
   -1.1956   -9.7312   -0.7941 H   0  0  0  0  0  0
   -1.4246   -9.0262    0.0049 C   0  0  0  0  0  0
   -0.6836   -5.8772    1.0259 H   0  0  0  0  0  0
   -1.1396   -6.8672    1.0219 C   0  0  0  0  0  0
   -2.7516  -10.3892    1.0169 H   0  0  0  0  0  0
   -2.2986   -9.3982    1.0209 C   0  0  0  0  0  0
   -2.2526   -6.5222    2.8359 H   0  0  0  0  0  0
   -2.0166   -7.2302    2.0409 C   0  0  0  0  0  0
   -3.2756   -8.7872    2.8429 H   0  0  0  0  0  0
   -2.5936   -8.4982    2.0429 C   0  0  0  0  0  0
   -1.7716   -4.5222   -0.5701 H   0  0  0  0  0  0
   -0.7466   -4.1662   -0.6751 N   0  0  0  0  0  0
   -1.2416   -2.5052    0.5239 H   0  0  0  0  0  0
    0.4534   -3.0372    0.6379 H   0  0  0  0  0  0
   -0.3856   -2.8782   -0.0391 C   0  0  0  0  0  0
    0.1514   -0.8732   -0.6161 H   0  0  0  0  0  0
    0.9424   -2.1502   -1.5721 H   0  0  0  0  0  0
    0.0114   -1.8422   -1.0961 C   0  0  0  0  0  0
   -1.7856   -2.5462   -2.0031 H   0  0  0  0  0  0
   -1.0836   -1.7272   -2.1561 C   0  0  0  0  0  0
   -0.5476   -1.9702   -3.5291 C   0  0  0  0  0  0
   -0.0566   -1.1192   -4.2341 O   0  5  0  0  0  0
   -0.4906   -3.1592   -4.1621 O   0  0  0  0  0  0
   -1.8376    0.4968   -3.7651 H   0  0  0  0  0  0
   -1.7736    0.7358   -2.7031 C   0  0  0  0  0  0
   -2.9906   -0.8862   -2.2401 H   0  0  0  0  0  0
   -1.9906   -0.5472   -1.9721 N   0  0  0  0  0  0
   -3.8386    1.2738   -2.4161 H   0  0  0  0  0  0
   -2.7176    2.0028   -1.2411 H   0  0  0  0  0  0
   -2.8616    1.7408   -2.2891 C   0  0  0  0  0  0
   -0.4076    1.3478   -2.5171 C   0  0  0  0  0  0
    0.1604    1.8688   -3.4821 O   0  0  0  0  0  0
   -1.7806    3.3768   -3.1491 H   0  0  0  0  0  0
   -2.8116    3.0248   -3.1321 C   0  0  0  0  0  0
   -3.1936    3.6818   -5.1521 H   0  0  0  0  0  0
   -2.5686    2.0198   -5.0271 H   0  0  0  0  0  0
   -4.2586    2.3698   -4.5941 H   0  0  0  0  0  0
   -3.2396    2.7548   -4.5811 C   0  0  0  0  0  0
   -3.6406    5.0138   -3.1161 H   0  0  0  0  0  0
   -4.7196    3.7628   -2.4531 H   0  0  0  0  0  0
   -3.3286    4.3338   -1.5011 H   0  0  0  0  0  0
   -3.6876    4.1118   -2.5051 C   0  0  0  0  0  0
    2.0574    1.6388   -2.0541 H   0  0  0  0  0  0
    1.5644    1.7678   -1.0901 C   0  0  0  0  0  0
   -0.4006    0.9618   -0.3981 H   0  0  0  0  0  0
    0.1694    1.3158   -1.2561 N   0  0  0  0  0  0
    2.3064    0.9118   -0.1001 C   0  0  0  0  0  0
    3.5204    0.7428   -0.1241 O   0  5  0  0  0  0
    2.6884    3.6008   -0.9761 H   0  0  0  0  0  0
    0.9774    3.8128   -1.4211 H   0  0  0  0  0  0
    1.6684    3.2718   -0.7751 C   0  0  0  0  0  0
    1.3344    3.5848    0.6569 C   0  0  0  0  0  0
    3.3914    3.9458    1.1879 H   0  0  0  0  0  0
    2.3614    3.9088    1.5429 C   0  0  0  0  0  0
   -0.7896    3.2978    0.4249 H   0  0  0  0  0  0
    0.0194    3.5438    1.1129 C   0  0  0  0  0  0
    2.8864    4.4398    3.5659 H   0  0  0  0  0  0
    2.0794    4.1868    2.8779 C   0  0  0  0  0  0
   -1.2926    3.7818    2.8039 H   0  0  0  0  0  0
   -0.2626    3.8178    2.4489 C   0  0  0  0  0  0
    0.5384    4.3528    4.3779 H   0  0  0  0  0  0
    0.7634    4.1398    3.3329 C   0  0  0  0  0  0
    1.5754    0.3188    0.8689 O   0  0  0  0  0  0
  1  2  1  0  0  0
  2  4  1  0  0  0
  2 11  2  0  0  0
  3  4  1  0  0  0
  4  5  2  0  0  0
  5  7  1  0  0  0
  5 14  1  0  0  0
  6  7  1  0  0  0
  7  9  2  0  0  0
  8  9  1  0  0  0
  9 11  1  0  0  0
 10 11  1  0  0  0
 12 14  1  0  0  0
 13 14  1  0  0  0
 14 15  1  0  0  0
 15 16  1  0  0  0
 16 17  2  0  0  0
 16 21  1  0  0  0
 18 19  1  0  0  0
 19 21  1  0  0  0
 19 24  1  0  0  0
 19 25  1  0  0  0
 20 21  1  0  0  0
 22 24  1  0  0  0
 23 24  1  0  0  0
 24 27  1  0  0  0
 25 26  2  0  0  0
 25 39  1  0  0  0
 27 29  2  0  0  0
 27 31  1  0  0  0
 28 29  1  0  0  0
 29 33  1  0  0  0
 30 31  1  0  0  0
 31 35  2  0  0  0
 32 33  1  0  0  0
 33 37  2  0  0  0
 34 35  1  0  0  0
 35 37  1  0  0  0
 36 37  1  0  0  0
 38 39  1  0  0  0
 39 42  1  0  0  0
 40 42  1  0  0  0
 41 42  1  0  0  0
 42 45  1  0  0  0
 43 45  1  0  0  0
 44 45  1  0  0  0
 45 47  1  0  0  0
 46 47  1  0  0  0
 47 48  1  0  0  0
 47 54  1  0  0  0
 48 49  1  0  0  0
 48 50  2  0  0  0
 51 52  1  0  0  0
 52 54  1  0  0  0
 52 57  1  0  0  0
 52 58  1  0  0  0
 53 54  1  0  0  0
 55 57  1  0  0  0
 56 57  1  0  0  0
 57 61  1  0  0  0
 58 59  2  0  0  0
 58 73  1  0  0  0
 60 61  1  0  0  0
 61 65  1  0  0  0
 61 69  1  0  0  0
 62 65  1  0  0  0
 63 65  1  0  0  0
 64 65  1  0  0  0
 66 69  1  0  0  0
 67 69  1  0  0  0
 68 69  1  0  0  0
 70 71  1  0  0  0
 71 73  1  0  0  0
 71 74  1  0  0  0
 71 78  1  0  0  0
 72 73  1  0  0  0
 74 75  1  0  0  0
 74 90  2  0  0  0
 76 78  1  0  0  0
 77 78  1  0  0  0
 78 79  1  0  0  0
 79 81  2  0  0  0
 79 83  1  0  0  0
 80 81  1  0  0  0
 81 85  1  0  0  0
 82 83  1  0  0  0
 83 87  2  0  0  0
 84 85  1  0  0  0
 85 89  2  0  0  0
 86 87  1  0  0  0
 87 89  1  0  0  0
 88 89  1  0  0  0
M  CHG  2  49  -1  75  -1
M  END
>  <ACTIVITY>
6.66

>  <SET>
1

>  <Min_dist>
999.9

>  <Avg_dist>
999.9

$$$$
dah54
  Cerius2 12110214373D 1   1.00000                          
Structure written by Cerius2 SD Exporter
 67 68  0  0  0  0  0  0  0  0999 V2000
   -0.3670   -0.7490   -1.8990 H   0  0  0  0  0  0
   -1.2470   -1.2900   -2.2470 C   0  0  0  0  0  0
   -1.9220   -2.1990   -0.4250 H   0  0  0  0  0  0
   -1.8460   -3.3050   -1.8170 H   0  0  0  0  0  0
   -1.3390   -2.4910   -1.2980 C   0  0  0  0  0  0
    0.5180   -3.5360   -1.6340 H   0  0  0  0  0  0
    0.6470   -2.1450   -0.5310 H   0  0  0  0  0  0
    0.0270   -2.9910   -0.8270 C   0  0  0  0  0  0
   -0.1790   -3.9060    0.3510 C   0  0  0  0  0  0
   -0.8880   -5.5510   -0.8500 H   0  0  0  0  0  0
   -0.6740   -5.1950    0.1580 C   0  0  0  0  0  0
    0.4800   -2.4530    1.7960 H   0  0  0  0  0  0
    0.0900   -3.4590    1.6450 C   0  0  0  0  0  0
   -1.2830   -7.0370    1.1000 H   0  0  0  0  0  0
   -0.8970   -6.0290    1.2520 C   0  0  0  0  0  0
   -0.1320   -4.2830    2.7500 C   0  0  0  0  0  0
   -0.8020   -6.2280    3.3950 H   0  0  0  0  0  0
   -0.6260   -5.5720    2.5420 C   0  0  0  0  0  0
   -0.9870   -1.6880   -3.6480 C   0  0  0  0  0  0
    0.0410   -1.3120   -4.1450 O   0  5  0  0  0  0
   -1.6900   -2.4070   -4.5330 O   0  0  0  0  0  0
   -3.2220   -0.6890   -2.6240 H   0  0  0  0  0  0
   -2.3380   -0.2930   -2.1250 N   0  0  0  0  0  0
   -2.1350    0.9250   -3.8000 H   0  0  0  0  0  0
   -2.0170    1.0300   -2.7210 C   0  0  0  0  0  0
   -0.5830    1.4580   -2.5130 C   0  0  0  0  0  0
    0.0460    1.9300   -3.4670 O   0  0  0  0  0  0
   -4.0170    1.7530   -2.3820 H   0  0  0  0  0  0
   -2.8420    2.2220   -1.1290 H   0  0  0  0  0  0
   -2.9970    2.0920   -2.2000 C   0  0  0  0  0  0
   -1.7390    3.7210   -2.7930 H   0  0  0  0  0  0
   -2.7870    3.4420   -2.9020 C   0  0  0  0  0  0
   -2.9370    4.3080   -4.8740 H   0  0  0  0  0  0
   -2.4320    2.6020   -4.8590 H   0  0  0  0  0  0
   -4.1300    3.0300   -4.5420 H   0  0  0  0  0  0
   -3.0940    3.3380   -4.4030 C   0  0  0  0  0  0
   -3.4900    5.4750   -2.7580 H   0  0  0  0  0  0
   -4.7020    4.2450   -2.3240 H   0  0  0  0  0  0
   -3.3760    4.6240   -1.1990 H   0  0  0  0  0  0
   -3.6510    4.5250   -2.2490 C   0  0  0  0  0  0
   -0.6120    0.9730   -0.4070 H   0  0  0  0  0  0
   -0.0110    1.3120   -1.2520 N   0  0  0  0  0  0
    1.8950    1.4680   -2.0450 H   0  0  0  0  0  0
    1.4170    1.6220   -1.0780 C   0  0  0  0  0  0
    2.0790    0.6730   -0.1130 C   0  0  0  0  0  0
    1.4850   -0.0030    0.7200 O   0  5  0  0  0  0
    2.7150    3.3280   -0.8900 H   0  0  0  0  0  0
    1.0480    3.7220   -1.3740 H   0  0  0  0  0  0
    1.6630    3.0980   -0.7240 C   0  0  0  0  0  0
    1.3200    3.4040    0.7060 C   0  0  0  0  0  0
   -0.8080    3.5160    0.3680 H   0  0  0  0  0  0
   -0.0050    3.5800    1.1020 C   0  0  0  0  0  0
    3.3790    3.3670    1.3380 H   0  0  0  0  0  0
    2.3420    3.4980    1.6480 C   0  0  0  0  0  0
   -1.3350    3.9710    2.7480 H   0  0  0  0  0  0
   -0.2990    3.8370    2.4370 C   0  0  0  0  0  0
    2.8500    3.8280    3.7190 H   0  0  0  0  0  0
    2.0470    3.7570    2.9850 C   0  0  0  0  0  0
    0.4860    4.1270    4.4250 H   0  0  0  0  0  0
    0.7230    3.9260    3.3800 C   0  0  0  0  0  0
    3.4260    0.6050   -0.1770 O   0  0  0  0  0  0
   -0.1760   -4.5440    4.8600 H   0  0  0  0  0  0
    1.2450   -3.6640    4.2480 H   0  0  0  0  0  0
    0.1680   -3.7970    4.1450 C   0  0  0  0  0  0
   -0.2630   -2.1930    5.4520 H   0  0  0  0  0  0
   -0.1630   -1.7510    3.7310 H   0  0  0  0  0  0
   -0.5050   -2.5080    4.4370 N   0  0  0  0  0  0
  1  2  1  0  0  0
  2  5  1  0  0  0
  2 19  1  0  0  0
  2 23  1  0  0  0
  3  5  1  0  0  0
  4  5  1  0  0  0
  5  8  1  0  0  0
  6  8  1  0  0  0
  7  8  1  0  0  0
  8  9  1  0  0  0
  9 11  2  0  0  0
  9 13  1  0  0  0
 10 11  1  0  0  0
 11 15  1  0  0  0
 12 13  1  0  0  0
 13 16  2  0  0  0
 14 15  1  0  0  0
 15 18  2  0  0  0
 16 18  1  0  0  0
 16 64  1  0  0  0
 17 18  1  0  0  0
 19 20  1  0  0  0
 19 21  2  0  0  0
 22 23  1  0  0  0
 23 25  1  0  0  0
 24 25  1  0  0  0
 25 26  1  0  0  0
 25 30  1  0  0  0
 26 27  2  0  0  0
 26 42  1  0  0  0
 28 30  1  0  0  0
 29 30  1  0  0  0
 30 32  1  0  0  0
 31 32  1  0  0  0
 32 36  1  0  0  0
 32 40  1  0  0  0
 33 36  1  0  0  0
 34 36  1  0  0  0
 35 36  1  0  0  0
 37 40  1  0  0  0
 38 40  1  0  0  0
 39 40  1  0  0  0
 41 42  1  0  0  0
 42 44  1  0  0  0
 43 44  1  0  0  0
 44 45  1  0  0  0
 44 49  1  0  0  0
 45 46  1  0  0  0
 45 61  2  0  0  0
 47 49  1  0  0  0
 48 49  1  0  0  0
 49 50  1  0  0  0
 50 52  2  0  0  0
 50 54  1  0  0  0
 51 52  1  0  0  0
 52 56  1  0  0  0
 53 54  1  0  0  0
 54 58  2  0  0  0
 55 56  1  0  0  0
 56 60  2  0  0  0
 57 58  1  0  0  0
 58 60  1  0  0  0
 59 60  1  0  0  0
 62 64  1  0  0  0
 63 64  1  0  0  0
 64 67  1  0  0  0
 65 67  1  0  0  0
 66 67  1  0  0  0
M  CHG  2  20  -1  46  -1
M  END
>  <ACTIVITY>
5.77

>  <SET>
2

>  <Min_dist>
0.14

>  <Avg_dist>
0.38

$$$$
dah55
  Cerius2 12110214373D 1   1.00000                          
Structure written by Cerius2 SD Exporter
 58 58  0  0  0  0  0  0  0  0999 V2000
    0.0730   -1.1160   -1.6060 H   0  0  0  0  0  0
   -0.7900   -1.6280   -2.0340 C   0  0  0  0  0  0
   -1.4560   -2.5750   -0.2180 H   0  0  0  0  0  0
   -1.7850   -3.5080   -1.6980 H   0  0  0  0  0  0
   -1.0570   -2.8780   -1.1860 C   0  0  0  0  0  0
    0.6700   -3.9250   -1.9380 H   0  0  0  0  0  0
    0.9390   -3.0730   -0.3980 H   0  0  0  0  0  0
    0.2350   -3.6780   -0.9690 C   0  0  0  0  0  0
   -0.4540   -4.7250    0.7800 H   0  0  0  0  0  0
   -0.7870   -5.5600   -0.7560 H   0  0  0  0  0  0
   -0.0550   -4.9710   -0.2030 C   0  0  0  0  0  0
    1.0080   -6.7060    0.5100 H   0  0  0  0  0  0
    1.6310   -6.0400   -1.0180 H   0  0  0  0  0  0
    1.9640   -5.2040    0.5180 H   0  0  0  0  0  0
    1.2300   -5.7890   -0.0360 C   0  0  0  0  0  0
   -0.4140   -1.9810   -3.4420 C   0  0  0  0  0  0
   -0.0520   -1.1300   -4.2180 O   0  5  0  0  0  0
   -0.3750   -3.1730   -4.0750 O   0  0  0  0  0  0
   -2.7940   -1.1510   -2.4230 H   0  0  0  0  0  0
   -1.9330   -0.6650   -1.9640 N   0  0  0  0  0  0
   -1.8640    0.4820   -3.6940 H   0  0  0  0  0  0
   -1.7710    0.6690   -2.6240 C   0  0  0  0  0  0
   -0.4070    1.2940   -2.4460 C   0  0  0  0  0  0
    0.1590    1.8360   -3.4070 O   0  0  0  0  0  0
   -3.8460    1.1460   -2.2970 H   0  0  0  0  0  0
   -2.7280    1.8790   -1.1210 H   0  0  0  0  0  0
   -2.8790    1.6330   -2.1730 C   0  0  0  0  0  0
   -1.8400    3.3100   -3.0060 H   0  0  0  0  0  0
   -2.8610    2.9290   -2.9980 C   0  0  0  0  0  0
   -3.2560    3.5980   -5.0120 H   0  0  0  0  0  0
   -2.5850    1.9530   -4.9030 H   0  0  0  0  0  0
   -4.2860    2.2510   -4.4710 H   0  0  0  0  0  0
   -3.2770    2.6630   -4.4510 C   0  0  0  0  0  0
   -3.7400    4.8950   -2.9580 H   0  0  0  0  0  0
   -4.7880    3.6090   -2.3140 H   0  0  0  0  0  0
   -3.4140    4.2030   -1.3510 H   0  0  0  0  0  0
   -3.7660    3.9850   -2.3590 C   0  0  0  0  0  0
   -0.4280    0.8700   -0.3370 H   0  0  0  0  0  0
    0.1690    1.2050   -1.1850 N   0  0  0  0  0  0
    2.0910    1.4100   -1.9430 H   0  0  0  0  0  0
    1.5860    1.5620   -0.9890 C   0  0  0  0  0  0
    2.2400    0.6500    0.0150 C   0  0  0  0  0  0
    1.6280    0.0130    0.8700 O   0  5  0  0  0  0
    2.8370    3.3030   -0.7870 H   0  0  0  0  0  0
    1.1810    3.6470   -1.3420 H   0  0  0  0  0  0
    1.7840    3.0520   -0.6570 C   0  0  0  0  0  0
    1.3790    3.3790    0.7530 C   0  0  0  0  0  0
   -0.7350    3.4290    0.3340 H   0  0  0  0  0  0
    0.0370    3.5310    1.0950 C   0  0  0  0  0  0
    3.4120    3.4020    1.4680 H   0  0  0  0  0  0
    2.3610    3.5180    1.7330 C   0  0  0  0  0  0
   -1.3660    3.9310    2.6770 H   0  0  0  0  0  0
   -0.3150    3.8150    2.4110 C   0  0  0  0  0  0
    2.7800    3.9110    3.8120 H   0  0  0  0  0  0
    2.0080    3.8040    3.0500 C   0  0  0  0  0  0
    0.3830    4.1730    4.4200 H   0  0  0  0  0  0
    0.6650    3.9510    3.3900 C   0  0  0  0  0  0
    3.5860    0.5590   -0.0350 O   0  0  0  0  0  0
  1  2  1  0  0  0
  2  5  1  0  0  0
  2 16  1  0  0  0
  2 20  1  0  0  0
  3  5  1  0  0  0
  4  5  1  0  0  0
  5  8  1  0  0  0
  6  8  1  0  0  0
  7  8  1  0  0  0
  8 11  1  0  0  0
  9 11  1  0  0  0
 10 11  1  0  0  0
 11 15  1  0  0  0
 12 15  1  0  0  0
 13 15  1  0  0  0
 14 15  1  0  0  0
 16 17  1  0  0  0
 16 18  2  0  0  0
 19 20  1  0  0  0
 20 22  1  0  0  0
 21 22  1  0  0  0
 22 23  1  0  0  0
 22 27  1  0  0  0
 23 24  2  0  0  0
 23 39  1  0  0  0
 25 27  1  0  0  0
 26 27  1  0  0  0
 27 29  1  0  0  0
 28 29  1  0  0  0
 29 33  1  0  0  0
 29 37  1  0  0  0
 30 33  1  0  0  0
 31 33  1  0  0  0
 32 33  1  0  0  0
 34 37  1  0  0  0
 35 37  1  0  0  0
 36 37  1  0  0  0
 38 39  1  0  0  0
 39 41  1  0  0  0
 40 41  1  0  0  0
 41 42  1  0  0  0
 41 46  1  0  0  0
 42 43  1  0  0  0
 42 58  2  0  0  0
 44 46  1  0  0  0
 45 46  1  0  0  0
 46 47  1  0  0  0
 47 49  2  0  0  0
 47 51  1  0  0  0
 48 49  1  0  0  0
 49 53  1  0  0  0
 50 51  1  0  0  0
 51 55  2  0  0  0
 52 53  1  0  0  0
 53 57  2  0  0  0
 54 55  1  0  0  0
 55 57  1  0  0  0
 56 57  1  0  0  0
M  CHG  2  17  -1  43  -1
M  END
>  <ACTIVITY>
2.42

>  <SET>
2

>  <Min_dist>
0.02

>  <Avg_dist>
0.33

$$$$
hoch2co_fagnh2
  Cerius2 12110214373D 1   1.00000                          
Structure written by Cerius2 SD Exporter
 47 47  0  0  0  0  0  0  0  0999 V2000
   -1.3100    0.2000   -3.9450 H   0  0  0  0  0  0
   -1.3230    0.3420   -2.8640 C   0  0  0  0  0  0
   -1.7200   -0.9870   -1.1420 H   0  0  0  0  0  0
   -1.3980   -0.9510   -2.1820 N   0  0  0  0  0  0
   -3.4310    0.5360   -2.4710 H   0  0  0  0  0  0
   -2.4000    1.6310   -1.5180 H   0  0  0  0  0  0
   -2.5510    1.1790   -2.4980 C   0  0  0  0  0  0
   -0.0620    1.0410   -2.4520 C   0  0  0  0  0  0
    0.5950    1.7700   -3.1970 O   0  0  0  0  0  0
   -2.7550    2.2560   -3.5140 C   0  0  0  0  0  0
   -2.4910    3.8660   -2.1050 H   0  0  0  0  0  0
   -2.6840    3.5950   -3.1440 C   0  0  0  0  0  0
   -3.0620    0.8620   -5.1270 H   0  0  0  0  0  0
   -3.0070    1.9120   -4.8400 C   0  0  0  0  0  0
   -2.7980    5.6390   -3.8180 H   0  0  0  0  0  0
   -2.8590    4.5890   -4.1030 C   0  0  0  0  0  0
   -3.3890    2.6310   -6.8360 H   0  0  0  0  0  0
   -3.1880    2.9020   -5.7990 C   0  0  0  0  0  0
   -3.2500    5.0170   -6.1760 H   0  0  0  0  0  0
   -3.1110    4.2380   -5.4270 C   0  0  0  0  0  0
    5.3200   -0.6520    1.4790 H   0  0  0  0  0  0
    3.8530   -0.4100    2.4580 H   0  0  0  0  0  0
    4.2350   -0.7610    1.5000 C   0  0  0  0  0  0
   -0.3220   -3.9590   -2.0260 H   0  0  0  0  0  0
   -2.0420   -3.9950   -2.4830 H   0  0  0  0  0  0
   -1.2530   -3.3930   -2.0320 C   0  0  0  0  0  0
    2.3820    1.1600   -1.6070 H   0  0  0  0  0  0
    1.7400    1.2460   -0.7300 C   0  0  0  0  0  0
   -0.3060    0.3960   -0.4090 H   0  0  0  0  0  0
    0.3680    0.8450   -1.1380 N   0  0  0  0  0  0
    2.7660    2.9730    0.0520 H   0  0  0  0  0  0
    1.4180    3.3550   -1.0450 H   0  0  0  0  0  0
    1.0860    2.8010    0.6130 H   0  0  0  0  0  0
    1.7530    2.6990   -0.2420 C   0  0  0  0  0  0
    2.2860    0.3340    0.3390 C   0  0  0  0  0  0
    1.5540   -0.1720    1.1780 O   0  0  0  0  0  0
    4.4130   -4.0600    0.3520 H   0  0  0  0  0  0
    5.4580   -2.5510   -0.0910 H   0  0  0  0  0  0
    4.6420   -3.0010    0.4750 N   0  0  0  0  0  0
    4.3150    0.5010   -0.3320 H   0  0  0  0  0  0
    3.6520    0.0750    0.4210 N   0  0  0  0  0  0
   -0.6430   -2.1620   -3.9980 O   0  0  0  0  0  0
   -1.7470   -3.9880   -0.1200 H   0  0  0  0  0  0
   -1.6150   -3.0690   -0.6930 O   0  0  0  0  0  0
    2.9870   -2.7630    1.9870 O   0  0  0  0  0  0
    3.8950   -2.2270    1.3510 C   0  0  0  0  0  0
   -1.0670   -2.1400   -2.8360 C   0  0  0  0  0  0
  1  2  1  0  0  0
  2  4  1  0  0  0
  2  7  1  0  0  0
  2  8  1  0  0  0
  3  4  1  0  0  0
  4 47  1  0  0  0
  5  7  1  0  0  0
  6  7  1  0  0  0
  7 10  1  0  0  0
  8  9  2  0  0  0
  8 30  1  0  0  0
 10 12  2  0  0  0
 10 14  1  0  0  0
 11 12  1  0  0  0
 12 16  1  0  0  0
 13 14  1  0  0  0
 14 18  2  0  0  0
 15 16  1  0  0  0
 16 20  2  0  0  0
 17 18  1  0  0  0
 18 20  1  0  0  0
 19 20  1  0  0  0
 21 23  1  0  0  0
 22 23  1  0  0  0
 23 41  1  0  0  0
 23 46  1  0  0  0
 24 26  1  0  0  0
 25 26  1  0  0  0
 26 44  1  0  0  0
 26 47  1  0  0  0
 27 28  1  0  0  0
 28 30  1  0  0  0
 28 34  1  0  0  0
 28 35  1  0  0  0
 29 30  1  0  0  0
 31 34  1  0  0  0
 32 34  1  0  0  0
 33 34  1  0  0  0
 35 36  2  0  0  0
 35 41  1  0  0  0
 37 39  1  0  0  0
 38 39  1  0  0  0
 39 46  1  0  0  0
 40 41  1  0  0  0
 42 47  2  0  0  0
 43 44  1  0  0  0
 45 46  2  0  0  0
M  END
>  <ACTIVITY>
2.54

>  <SET>
2

>  <Min_dist>
0.08

>  <Avg_dist>
0.36

$$$$
nhohbzmagna
  Cerius2 12110214373D 1   1.00000                          
Structure written by Cerius2 SD Exporter
 56 57  0  0  0  0  0  0  0  0999 V2000
    1.7140    2.4090   -0.7810 H   0  0  0  0  0  0
    1.1310    1.8000   -0.0890 C   0  0  0  0  0  0
   -0.7620    0.6480   -0.3260 H   0  0  0  0  0  0
    0.0110    1.2130   -0.8460 N   0  0  0  0  0  0
    1.4520    3.1300    1.5770 H   0  0  0  0  0  0
    0.0150    3.5110    0.5990 H   0  0  0  0  0  0
   -0.0090    2.1230    1.7120 H   0  0  0  0  0  0
    0.6100    2.7060    1.0310 C   0  0  0  0  0  0
    2.0520    0.7440    0.4550 C   0  0  0  0  0  0
    1.6730   -0.1910    1.1600 O   0  0  0  0  0  0
   -0.6920   -2.8920   -4.9390 H   0  0  0  0  0  0
   -1.6900   -2.5490   -4.6670 O   0  0  0  0  0  0
   -2.8740   -1.0230   -3.8080 H   0  0  0  0  0  0
   -1.8560   -1.3220   -4.0600 N   0  0  0  0  0  0
    3.9920   -0.5000    1.6280 H   0  0  0  0  0  0
    4.6270   -0.8270   -0.0020 H   0  0  0  0  0  0
    4.3980   -0.0470    0.7240 C   0  0  0  0  0  0
    3.7260    1.6680   -0.5220 H   0  0  0  0  0  0
    3.4000    0.8740    0.1500 N   0  0  0  0  0  0
    5.6540    0.6980    1.0630 C   0  0  0  0  0  0
    6.1960    0.5920    2.1620 O   0  0  0  0  0  0
   -0.8520   -0.4500   -3.7500 C   0  0  0  0  0  0
    0.1630   -0.8050   -4.3080 O   0  0  0  0  0  0
   -0.0550    1.3810   -2.2250 C   0  0  0  0  0  0
    0.7480    2.0520   -2.8580 O   0  0  0  0  0  0
   -1.2560    1.4840   -3.8630 H   0  0  0  0  0  0
   -1.1620    0.8050   -3.0160 C   0  0  0  0  0  0
   -3.2680    0.3240   -2.9200 H   0  0  0  0  0  0
   -2.5190    0.6570   -1.3400 H   0  0  0  0  0  0
   -2.5440    0.9440   -2.3910 C   0  0  0  0  0  0
   -2.8910    2.3920   -2.5300 C   0  0  0  0  0  0
   -3.2780    2.7130   -0.4340 H   0  0  0  0  0  0
   -3.2230    3.1660   -1.4240 C   0  0  0  0  0  0
   -2.5580    2.3660   -4.6600 H   0  0  0  0  0  0
   -2.8160    2.9760   -3.7940 C   0  0  0  0  0  0
   -3.7540    5.1320   -0.7240 H   0  0  0  0  0  0
   -3.4870    4.5240   -1.5880 C   0  0  0  0  0  0
   -3.0020    4.7910   -4.9430 H   0  0  0  0  0  0
   -3.0700    4.3340   -3.9550 C   0  0  0  0  0  0
   -3.6180    6.1720   -2.9700 H   0  0  0  0  0  0
   -3.4110    5.1090   -2.8490 C   0  0  0  0  0  0
    5.5640    1.5380   -0.9060 H   0  0  0  0  0  0
    6.1510    1.5350    0.0120 N   0  0  0  0  0  0
    7.3300    2.3800    0.0040 C   0  0  0  0  0  0
    8.2330    1.5900    1.8070 H   0  0  0  0  0  0
    8.3230    2.3110    0.9940 C   0  0  0  0  0  0
   10.1970    3.1210    1.7010 H   0  0  0  0  0  0
    9.4190    3.1620    0.9380 C   0  0  0  0  0  0
    9.5020    4.0720   -0.1180 C   0  0  0  0  0  0
    8.6230    4.8750   -1.9300 H   0  0  0  0  0  0
    8.5290    4.1540   -1.1180 C   0  0  0  0  0  0
    6.6670    3.3330   -1.8220 H   0  0  0  0  0  0
    7.4380    3.2950   -1.0520 C   0  0  0  0  0  0
   10.6620    4.9520   -0.1860 N   0  0  0  0  0  0
   10.7860    5.7560   -1.1460 O   0  0  0  0  0  0
   11.5460    4.8950    0.7080 O   0  0  0  0  0  0
  1  2  1  0  0  0
  2  4  1  0  0  0
  2  8  1  0  0  0
  2  9  1  0  0  0
  3  4  1  0  0  0
  4 24  1  0  0  0
  5  8  1  0  0  0
  6  8  1  0  0  0
  7  8  1  0  0  0
  9 10  2  0  0  0
  9 19  1  0  0  0
 11 12  1  0  0  0
 12 14  1  0  0  0
 13 14  1  0  0  0
 14 22  1  0  0  0
 15 17  1  0  0  0
 16 17  1  0  0  0
 17 19  1  0  0  0
 17 20  1  0  0  0
 18 19  1  0  0  0
 20 21  2  0  0  0
 20 43  1  0  0  0
 22 23  2  0  0  0
 22 27  1  0  0  0
 24 25  2  0  0  0
 24 27  1  0  0  0
 26 27  1  0  0  0
 27 30  1  0  0  0
 28 30  1  0  0  0
 29 30  1  0  0  0
 30 31  1  0  0  0
 31 33  2  0  0  0
 31 35  1  0  0  0
 32 33  1  0  0  0
 33 37  1  0  0  0
 34 35  1  0  0  0
 35 39  2  0  0  0
 36 37  1  0  0  0
 37 41  2  0  0  0
 38 39  1  0  0  0
 39 41  1  0  0  0
 40 41  1  0  0  0
 42 43  1  0  0  0
 43 44  1  0  0  0
 44 46  1  0  0  0
 44 53  2  0  0  0
 45 46  1  0  0  0
 46 48  2  0  0  0
 47 48  1  0  0  0
 48 49  1  0  0  0
 49 51  2  0  0  0
 49 54  1  0  0  0
 50 51  1  0  0  0
 51 53  1  0  0  0
 52 53  1  0  0  0
 54 55  2  0  0  0
 54 56  2  0  0  0
M  END
>  <ACTIVITY>
6.37

>  <SET>
2

>  <Min_dist>
0.17

>  <Avg_dist>
0.48

$$$$
nhohbzmagnh2
  Cerius2 12110214373D 1   1.00000                          
Structure written by Cerius2 SD Exporter
 44 44  0  0  0  0  0  0  0  0999 V2000
    2.5030    1.2370   -1.2100 H   0  0  0  0  0  0
    1.8390    1.2040   -0.3470 C   0  0  0  0  0  0
   -0.2500    0.3810   -0.2120 H   0  0  0  0  0  0
    0.4810    0.8750   -0.8520 N   0  0  0  0  0  0
    2.8370    2.7980    0.7080 H   0  0  0  0  0  0
    1.5250    3.3370   -0.3690 H   0  0  0  0  0  0
    1.1380    2.5530    1.1820 H   0  0  0  0  0  0
    1.8340    2.5720    0.3430 C   0  0  0  0  0  0
    2.3730    0.1490    0.5880 C   0  0  0  0  0  0
    1.6470   -0.4260    1.3880 O   0  0  0  0  0  0
   -0.7110   -2.8610   -4.9780 H   0  0  0  0  0  0
   -1.7050   -2.5180   -4.6910 O   0  0  0  0  0  0
   -2.8660   -1.0000   -3.7670 H   0  0  0  0  0  0
   -1.8570   -1.3110   -4.0380 N   0  0  0  0  0  0
    3.9520   -0.8240    2.5730 H   0  0  0  0  0  0
    5.4060   -0.9850    1.5580 H   0  0  0  0  0  0
    4.3210   -1.0890    1.5820 C   0  0  0  0  0  0
    4.3800    0.3040   -0.1560 H   0  0  0  0  0  0
    3.7320   -0.1550    0.5900 N   0  0  0  0  0  0
    3.9670   -2.5280    1.3010 C   0  0  0  0  0  0
    3.0640   -3.1190    1.8950 O   0  0  0  0  0  0
   -0.8210   -0.4830   -3.7100 C   0  0  0  0  0  0
    0.1630   -0.8540   -4.3090 O   0  0  0  0  0  0
    0.1680    1.2150   -2.1670 C   0  0  0  0  0  0
    0.8890    1.9410   -2.8360 O   0  0  0  0  0  0
   -1.1350    1.5110   -3.6740 H   0  0  0  0  0  0
   -1.0280    0.7450   -2.9050 C   0  0  0  0  0  0
   -3.1230    0.2730   -2.7030 H   0  0  0  0  0  0
   -2.3150    0.7010   -1.1750 H   0  0  0  0  0  0
   -2.3850    0.9280   -2.2390 C   0  0  0  0  0  0
   -2.7690    2.3580   -2.4370 C   0  0  0  0  0  0
   -3.1510    2.7520   -0.3520 H   0  0  0  0  0  0
   -3.1240    3.1650   -1.3610 C   0  0  0  0  0  0
   -2.4540    2.2570   -4.5670 H   0  0  0  0  0  0
   -2.7310    2.8910   -3.7250 C   0  0  0  0  0  0
   -3.7300    5.1350   -0.7370 H   0  0  0  0  0  0
   -3.4460    4.5020   -1.5780 C   0  0  0  0  0  0
   -3.0090    4.6450   -4.9470 H   0  0  0  0  0  0
   -3.0450    4.2300   -3.9400 C   0  0  0  0  0  0
   -3.6600    6.0830   -3.0270 H   0  0  0  0  0  0
   -3.4070    5.0360   -2.8630 C   0  0  0  0  0  0
    4.4660   -4.2520    0.1170 H   0  0  0  0  0  0
    5.5080   -2.7070   -0.1880 H   0  0  0  0  0  0
    4.6990   -3.2110    0.3420 N   0  0  0  0  0  0
  1  2  1  0  0  0
  2  4  1  0  0  0
  2  8  1  0  0  0
  2  9  1  0  0  0
  3  4  1  0  0  0
  4 24  1  0  0  0
  5  8  1  0  0  0
  6  8  1  0  0  0
  7  8  1  0  0  0
  9 10  2  0  0  0
  9 19  1  0  0  0
 11 12  1  0  0  0
 12 14  1  0  0  0
 13 14  1  0  0  0
 14 22  1  0  0  0
 15 17  1  0  0  0
 16 17  1  0  0  0
 17 19  1  0  0  0
 17 20  1  0  0  0
 18 19  1  0  0  0
 20 21  2  0  0  0
 20 44  1  0  0  0
 22 23  2  0  0  0
 22 27  1  0  0  0
 24 25  2  0  0  0
 24 27  1  0  0  0
 26 27  1  0  0  0
 27 30  1  0  0  0
 28 30  1  0  0  0
 29 30  1  0  0  0
 30 31  1  0  0  0
 31 33  2  0  0  0
 31 35  1  0  0  0
 32 33  1  0  0  0
 33 37  1  0  0  0
 34 35  1  0  0  0
 35 39  2  0  0  0
 36 37  1  0  0  0
 37 41  2  0  0  0
 38 39  1  0  0  0
 39 41  1  0  0  0
 40 41  1  0  0  0
 42 44  1  0  0  0
 43 44  1  0  0  0
M  END
>  <ACTIVITY>
6.18

>  <SET>
1

>  <Min_dist>
999.9

>  <Avg_dist>
999.9

$$$$
nhohbzmagoh
  Cerius2 12110214373D 1   1.00000                          
Structure written by Cerius2 SD Exporter
 42 42  0  0  0  0  0  0  0  0999 V2000
    2.4390    1.4070   -1.1850 H   0  0  0  0  0  0
    1.7710    1.3180   -0.3280 C   0  0  0  0  0  0
   -0.2970    0.4440   -0.2100 H   0  0  0  0  0  0
    0.4330    0.9410   -0.8480 N   0  0  0  0  0  0
    2.6910    2.9260    0.7740 H   0  0  0  0  0  0
    1.3610    3.4340   -0.2940 H   0  0  0  0  0  0
    1.0040    2.5920    1.2330 H   0  0  0  0  0  0
    1.7020    2.6640    0.3990 C   0  0  0  0  0  0
    2.3450    0.2610    0.5790 C   0  0  0  0  0  0
    1.6490   -0.3270    1.3970 O   0  0  0  0  0  0
   -0.7090   -2.8670   -4.9730 H   0  0  0  0  0  0
   -1.7030   -2.5240   -4.6880 O   0  0  0  0  0  0
   -2.8670   -1.0050   -3.7710 H   0  0  0  0  0  0
   -1.8570   -1.3150   -4.0400 N   0  0  0  0  0  0
    5.3800   -0.9260    1.4490 H   0  0  0  0  0  0
    3.9290   -0.8260    2.4760 H   0  0  0  0  0  0
    4.2950   -1.0300    1.4700 C   0  0  0  0  0  0
    4.3380    0.4490   -0.2000 H   0  0  0  0  0  0
    3.7010   -0.0440    0.5350 N   0  0  0  0  0  0
    3.9340   -2.4480    1.0980 C   0  0  0  0  0  0
   -0.8250   -0.4820   -3.7130 C   0  0  0  0  0  0
    0.1620   -0.8490   -4.3090 O   0  0  0  0  0  0
    0.1390    1.2420   -2.1760 C   0  0  0  0  0  0
    0.8660    1.9580   -2.8490 O   0  0  0  0  0  0
   -1.1600    1.5020   -3.6940 H   0  0  0  0  0  0
   -1.0470    0.7490   -2.9150 C   0  0  0  0  0  0
   -3.1420    0.2690   -2.7220 H   0  0  0  0  0  0
   -2.3390    0.6820   -1.1880 H   0  0  0  0  0  0
   -2.4060    0.9200   -2.2500 C   0  0  0  0  0  0
   -2.7880    2.3530   -2.4360 C   0  0  0  0  0  0
   -3.1490    2.7370   -0.3460 H   0  0  0  0  0  0
   -3.1280    3.1550   -1.3520 C   0  0  0  0  0  0
   -2.4910    2.2610   -4.5690 H   0  0  0  0  0  0
   -2.7570    2.8920   -3.7210 C   0  0  0  0  0  0
   -3.7160    5.1260   -0.7130 H   0  0  0  0  0  0
   -3.4430    4.4960   -1.5600 C   0  0  0  0  0  0
   -3.0320    4.6550   -4.9310 H   0  0  0  0  0  0
   -3.0640    4.2330   -3.9260 C   0  0  0  0  0  0
   -3.6600    6.0860   -2.9980 H   0  0  0  0  0  0
   -3.4120    5.0360   -2.8420 C   0  0  0  0  0  0
    3.0050   -3.0750    1.5960 O   0  5  0  0  0  0
    4.6860   -3.0600    0.1640 O   0  0  0  0  0  0
  1  2  1  0  0  0
  2  4  1  0  0  0
  2  8  1  0  0  0
  2  9  1  0  0  0
  3  4  1  0  0  0
  4 23  1  0  0  0
  5  8  1  0  0  0
  6  8  1  0  0  0
  7  8  1  0  0  0
  9 10  2  0  0  0
  9 19  1  0  0  0
 11 12  1  0  0  0
 12 14  1  0  0  0
 13 14  1  0  0  0
 14 21  1  0  0  0
 15 17  1  0  0  0
 16 17  1  0  0  0
 17 19  1  0  0  0
 17 20  1  0  0  0
 18 19  1  0  0  0
 20 41  1  0  0  0
 20 42  2  0  0  0
 21 22  2  0  0  0
 21 26  1  0  0  0
 23 24  2  0  0  0
 23 26  1  0  0  0
 25 26  1  0  0  0
 26 29  1  0  0  0
 27 29  1  0  0  0
 28 29  1  0  0  0
 29 30  1  0  0  0
 30 32  2  0  0  0
 30 34  1  0  0  0
 31 32  1  0  0  0
 32 36  1  0  0  0
 33 34  1  0  0  0
 34 38  2  0  0  0
 35 36  1  0  0  0
 36 40  2  0  0  0
 37 38  1  0  0  0
 38 40  1  0  0  0
 39 40  1  0  0  0
M  CHG  1  41  -1
M  END
>  <ACTIVITY>
6.18

>  <SET>
1

>  <Min_dist>
999.9

>  <Avg_dist>
999.9

$$$$
nhohbzmoet
  Cerius2 12110214373D 1   1.00000                          
Structure written by Cerius2 SD Exporter
 32 32  0  0  0  0  0  0  0  0999 V2000
    1.8300    0.8440    0.3460 H   0  0  0  0  0  0
    2.0030    2.0400   -0.9600 H   0  0  0  0  0  0
    1.3140    1.6080   -0.2350 C   0  0  0  0  0  0
    0.2180    1.0160   -0.9210 O   0  0  0  0  0  0
    1.6620    3.1550    1.2270 H   0  0  0  0  0  0
    0.2990    3.4750    0.1280 H   0  0  0  0  0  0
    0.1260    2.2790    1.4350 H   0  0  0  0  0  0
    0.8140    2.7090    0.7070 C   0  0  0  0  0  0
   -0.7000   -2.8900   -4.9460 H   0  0  0  0  0  0
   -1.6960   -2.5440   -4.6730 O   0  0  0  0  0  0
   -2.8700   -1.0120   -3.8000 H   0  0  0  0  0  0
   -1.8560   -1.3200   -4.0570 N   0  0  0  0  0  0
   -0.8370   -0.4660   -3.7440 C   0  0  0  0  0  0
    0.1670   -0.8300   -4.3130 O   0  0  0  0  0  0
    0.0470    1.3120   -2.2280 C   0  0  0  0  0  0
    0.8140    2.0270   -2.8460 O   0  0  0  0  0  0
   -1.2140    1.4980   -3.8120 H   0  0  0  0  0  0
   -1.1020    0.7850   -2.9960 C   0  0  0  0  0  0
   -3.1980    0.2900   -2.8210 H   0  0  0  0  0  0
   -2.3980    0.6500   -1.2720 H   0  0  0  0  0  0
   -2.4620    0.9230   -2.3250 C   0  0  0  0  0  0
   -2.8320    2.3640   -2.4690 C   0  0  0  0  0  0
   -3.1710    2.7010   -0.3670 H   0  0  0  0  0  0
   -3.1520    3.1440   -1.3630 C   0  0  0  0  0  0
   -2.5510    2.3200   -4.6050 H   0  0  0  0  0  0
   -2.8010    2.9350   -3.7410 C   0  0  0  0  0  0
   -3.7040    5.1070   -0.6720 H   0  0  0  0  0  0
   -3.4470    4.4940   -1.5360 C   0  0  0  0  0  0
   -3.0540    4.7310   -4.9050 H   0  0  0  0  0  0
   -3.0870    4.2850   -3.9110 C   0  0  0  0  0  0
   -3.6510    6.1230   -2.9330 H   0  0  0  0  0  0
   -3.4170    5.0660   -2.8050 C   0  0  0  0  0  0
  1  3  1  0  0  0
  2  3  1  0  0  0
  3  4  1  0  0  0
  3  8  1  0  0  0
  4 15  1  0  0  0
  5  8  1  0  0  0
  6  8  1  0  0  0
  7  8  1  0  0  0
  9 10  1  0  0  0
 10 12  1  0  0  0
 11 12  1  0  0  0
 12 13  1  0  0  0
 13 14  2  0  0  0
 13 18  1  0  0  0
 15 16  2  0  0  0
 15 18  1  0  0  0
 17 18  1  0  0  0
 18 21  1  0  0  0
 19 21  1  0  0  0
 20 21  1  0  0  0
 21 22  1  0  0  0
 22 24  2  0  0  0
 22 26  1  0  0  0
 23 24  1  0  0  0
 24 28  1  0  0  0
 25 26  1  0  0  0
 26 30  2  0  0  0
 27 28  1  0  0  0
 28 32  2  0  0  0
 29 30  1  0  0  0
 30 32  1  0  0  0
 31 32  1  0  0  0
M  END
>  <ACTIVITY>
4.7

>  <SET>
2

>  <Min_dist>
0.42

>  <Avg_dist>
0.57

$$$$
nhohibmagnh2
  Cerius2 12110214373D 1   1.00000                          
Structure written by Cerius2 SD Exporter
 43 42  0  0  0  0  0  0  0  0999 V2000
    2.4760    1.2030   -1.2500 H   0  0  0  0  0  0
    1.8190    1.1840   -0.3810 C   0  0  0  0  0  0
   -0.2800    0.3800   -0.2410 H   0  0  0  0  0  0
    0.4530    0.8720   -0.8800 N   0  0  0  0  0  0
    2.8460    2.7650    0.6640 H   0  0  0  0  0  0
    1.5380    3.3210   -0.4080 H   0  0  0  0  0  0
    1.1460    2.5480    1.1470 H   0  0  0  0  0  0
    1.8390    2.5530    0.3050 C   0  0  0  0  0  0
    2.3490    0.1260    0.5530 C   0  0  0  0  0  0
    1.6190   -0.4630    1.3390 O   0  0  0  0  0  0
   -0.7050   -2.8530   -4.9790 H   0  0  0  0  0  0
   -1.6990   -2.5080   -4.6940 O   0  0  0  0  0  0
   -2.8610   -0.9810   -3.7870 H   0  0  0  0  0  0
   -1.8520   -1.2920   -4.0560 N   0  0  0  0  0  0
    5.3820   -0.9790    1.5610 H   0  0  0  0  0  0
    3.9180   -0.8280    2.5620 H   0  0  0  0  0  0
    4.2980   -1.0910    1.5750 C   0  0  0  0  0  0
    4.3650    0.3050   -0.1600 H   0  0  0  0  0  0
    3.7110   -0.1630    0.5760 N   0  0  0  0  0  0
    3.9580   -2.5350    1.2950 C   0  0  0  0  0  0
    3.0590   -3.1330    1.8860 O   0  0  0  0  0  0
   -0.8190   -0.4520   -3.7410 C   0  0  0  0  0  0
    0.1740   -0.8290   -4.3200 O   0  0  0  0  0  0
    0.1400    1.2300   -2.1920 C   0  0  0  0  0  0
    0.8710    1.9530   -2.8530 O   0  0  0  0  0  0
   -1.1720    1.5810   -3.6940 H   0  0  0  0  0  0
   -1.0490    0.7870   -2.9580 C   0  0  0  0  0  0
   -3.0180    0.0220   -2.5850 H   0  0  0  0  0  0
   -2.2240    0.7430   -1.1640 H   0  0  0  0  0  0
   -2.3880    0.8410   -2.2370 C   0  0  0  0  0  0
   -2.4680    2.9800   -2.1280 H   0  0  0  0  0  0
   -3.0830    2.1730   -2.5250 C   0  0  0  0  0  0
   -4.9490    3.1260   -2.0560 H   0  0  0  0  0  0
   -5.0500    1.3590   -2.2470 H   0  0  0  0  0  0
   -4.3250    2.0550   -0.7780 H   0  0  0  0  0  0
   -4.4490    2.1790   -1.8540 C   0  0  0  0  0  0
   -3.7440    3.3510   -4.2100 H   0  0  0  0  0  0
   -2.2660    2.4070   -4.5100 H   0  0  0  0  0  0
   -3.8480    1.5920   -4.4590 H   0  0  0  0  0  0
   -3.2470    2.3970   -4.0360 C   0  0  0  0  0  0
    4.4800   -4.2570    0.1180 H   0  0  0  0  0  0
    5.5090   -2.7040   -0.1850 H   0  0  0  0  0  0
    4.7020   -3.2140    0.3410 N   0  0  0  0  0  0
  1  2  1  0  0  0
  2  4  1  0  0  0
  2  8  1  0  0  0
  2  9  1  0  0  0
  3  4  1  0  0  0
  4 24  1  0  0  0
  5  8  1  0  0  0
  6  8  1  0  0  0
  7  8  1  0  0  0
  9 10  2  0  0  0
  9 19  1  0  0  0
 11 12  1  0  0  0
 12 14  1  0  0  0
 13 14  1  0  0  0
 14 22  1  0  0  0
 15 17  1  0  0  0
 16 17  1  0  0  0
 17 19  1  0  0  0
 17 20  1  0  0  0
 18 19  1  0  0  0
 20 21  2  0  0  0
 20 43  1  0  0  0
 22 23  2  0  0  0
 22 27  1  0  0  0
 24 25  2  0  0  0
 24 27  1  0  0  0
 26 27  1  0  0  0
 27 30  1  0  0  0
 28 30  1  0  0  0
 29 30  1  0  0  0
 30 32  1  0  0  0
 31 32  1  0  0  0
 32 36  1  0  0  0
 32 40  1  0  0  0
 33 36  1  0  0  0
 34 36  1  0  0  0
 35 36  1  0  0  0
 37 40  1  0  0  0
 38 40  1  0  0  0
 39 40  1  0  0  0
 41 43  1  0  0  0
 42 43  1  0  0  0
M  END
>  <ACTIVITY>
6.32

>  <SET>
2

>  <Min_dist>
0.11

>  <Avg_dist>
0.49

$$$$
nhohleu
  Cerius2 12110214373D 1   1.00000                          
Structure written by Cerius2 SD Exporter
 24 23  0  0  0  0  0  0  0  0999 V2000
   -0.1580    2.1620   -4.2130 H   0  0  0  0  0  0
    0.3010    2.6250   -2.5560 H   0  0  0  0  0  0
    0.2330    1.7980   -3.2630 N   0  0  0  0  0  0
   -0.2670    0.4090   -1.7740 H   0  0  0  0  0  0
   -0.6730    0.7600   -2.7220 C   0  0  0  0  0  0
   -0.7320   -0.4140   -3.6510 C   0  0  0  0  0  0
    0.1710   -0.8540   -4.3260 O   0  0  0  0  0  0
   -2.7990    0.5260   -2.4800 H   0  0  0  0  0  0
   -2.0580    1.7070   -1.3740 H   0  0  0  0  0  0
   -2.0700    1.3320   -2.3970 C   0  0  0  0  0  0
   -1.6450    3.1410   -3.4500 H   0  0  0  0  0  0
   -2.5030    2.4790   -3.3320 C   0  0  0  0  0  0
   -3.1810    2.8340   -5.3500 H   0  0  0  0  0  0
   -2.0280    1.4880   -5.1890 H   0  0  0  0  0  0
   -3.7150    1.2830   -4.6580 H   0  0  0  0  0  0
   -2.8840    1.9860   -4.7340 C   0  0  0  0  0  0
   -3.9670    4.0600   -3.3740 H   0  0  0  0  0  0
   -4.5100    2.5770   -2.5530 H   0  0  0  0  0  0
   -3.3560    3.6670   -1.7490 H   0  0  0  0  0  0
   -3.6680    3.2510   -2.7070 C   0  0  0  0  0  0
   -2.8170   -0.8750   -3.6450 H   0  0  0  0  0  0
   -1.8280   -1.1890   -3.9790 N   0  0  0  0  0  0
   -2.5900   -2.9500   -4.9680 H   0  0  0  0  0  0
   -1.7050   -2.3620   -4.7270 O   0  0  0  0  0  0
  1  3  1  0  0  0
  2  3  1  0  0  0
  3  5  1  0  0  0
  4  5  1  0  0  0
  5  6  1  0  0  0
  5 10  1  0  0  0
  6  7  2  0  0  0
  6 22  1  0  0  0
  8 10  1  0  0  0
  9 10  1  0  0  0
 10 12  1  0  0  0
 11 12  1  0  0  0
 12 16  1  0  0  0
 12 20  1  0  0  0
 13 16  1  0  0  0
 14 16  1  0  0  0
 15 16  1  0  0  0
 17 20  1  0  0  0
 18 20  1  0  0  0
 19 20  1  0  0  0
 21 22  1  0  0  0
 22 24  1  0  0  0
 23 24  1  0  0  0
M  END
>  <ACTIVITY>
3.72

>  <SET>
2

>  <Min_dist>
0.4

>  <Avg_dist>
0.64

$$$$
nhohmalagnh2
  Cerius2 12110214373D 1   1.00000                          
Structure written by Cerius2 SD Exporter
 34 33  0  0  0  0  0  0  0  0999 V2000
    2.4900    1.2190   -1.2370 H   0  0  0  0  0  0
    1.8370    1.2030   -0.3640 C   0  0  0  0  0  0
   -0.2510    0.3920   -0.1900 H   0  0  0  0  0  0
    0.4700    0.8780   -0.8470 N   0  0  0  0  0  0
    2.8630    2.8040    0.6530 H   0  0  0  0  0  0
    1.5420    3.3390   -0.4130 H   0  0  0  0  0  0
    1.1690    2.5810    1.1540 H   0  0  0  0  0  0
    1.8540    2.5810    0.3060 C   0  0  0  0  0  0
    2.3730    0.1590    0.5800 C   0  0  0  0  0  0
    1.6480   -0.4120    1.3840 O   0  0  0  0  0  0
   -0.8290   -2.4880   -5.2610 H   0  0  0  0  0  0
   -1.6890   -2.5400   -4.5930 O   0  0  0  0  0  0
   -2.7050   -1.5780   -2.9040 H   0  0  0  0  0  0
   -1.8630   -1.5690   -3.5950 N   0  0  0  0  0  0
    5.4090   -0.9640    1.5550 H   0  0  0  0  0  0
    3.9570   -0.7990    2.5710 H   0  0  0  0  0  0
    4.3240   -1.0690    1.5810 C   0  0  0  0  0  0
    4.3790    0.3130   -0.1650 H   0  0  0  0  0  0
    3.7330   -0.1440    0.5840 N   0  0  0  0  0  0
    3.9710   -2.5110    1.3110 C   0  0  0  0  0  0
    3.0710   -3.0990    1.9120 O   0  0  0  0  0  0
   -0.8740   -0.5970   -3.5620 C   0  0  0  0  0  0
    0.0760   -0.8490   -4.2860 O   0  0  0  0  0  0
    0.1300    1.2070   -2.1580 C   0  0  0  0  0  0
    0.8440    1.9320   -2.8440 O   0  0  0  0  0  0
   -1.2170    1.4170   -3.6530 H   0  0  0  0  0  0
   -1.0820    0.6960   -2.8470 C   0  0  0  0  0  0
   -2.4490    1.8780   -1.6790 H   0  0  0  0  0  0
   -3.2280    0.8440   -2.9000 H   0  0  0  0  0  0
   -2.5760    0.1230   -1.4080 H   0  0  0  0  0  0
   -2.4300    0.9000   -2.1590 C   0  0  0  0  0  0
    4.4680   -4.2430    0.1380 H   0  0  0  0  0  0
    5.5080   -2.7000   -0.1810 H   0  0  0  0  0  0
    4.7010   -3.2010    0.3540 N   0  0  0  0  0  0
  1  2  1  0  0  0
  2  4  1  0  0  0
  2  8  1  0  0  0
  2  9  1  0  0  0
  3  4  1  0  0  0
  4 24  1  0  0  0
  5  8  1  0  0  0
  6  8  1  0  0  0
  7  8  1  0  0  0
  9 10  2  0  0  0
  9 19  1  0  0  0
 11 12  1  0  0  0
 12 14  1  0  0  0
 13 14  1  0  0  0
 14 22  1  0  0  0
 15 17  1  0  0  0
 16 17  1  0  0  0
 17 19  1  0  0  0
 17 20  1  0  0  0
 18 19  1  0  0  0
 20 21  2  0  0  0
 20 34  1  0  0  0
 22 23  2  0  0  0
 22 27  1  0  0  0
 24 25  2  0  0  0
 24 27  1  0  0  0
 26 27  1  0  0  0
 27 31  1  0  0  0
 28 31  1  0  0  0
 29 31  1  0  0  0
 30 31  1  0  0  0
 32 34  1  0  0  0
 33 34  1  0  0  0
M  END
>  <ACTIVITY>
2.96

>  <SET>
1

>  <Min_dist>
999.9

>  <Avg_dist>
999.9

$$$$
ohbzmagnh2
  Cerius2 12110214373D 1   1.00000                          
Structure written by Cerius2 SD Exporter
 41 41  0  0  0  0  0  0  0  0999 V2000
    2.3540    1.2070   -1.5680 H   0  0  0  0  0  0
    1.7000    1.2500   -0.6970 C   0  0  0  0  0  0
   -0.3450    0.3610   -0.4390 H   0  0  0  0  0  0
    0.3440    0.8300   -1.1420 N   0  0  0  0  0  0
    2.6660    2.9770    0.1600 H   0  0  0  0  0  0
    1.3260    3.3590   -0.9470 H   0  0  0  0  0  0
    0.9820    2.7410    0.6860 H   0  0  0  0  0  0
    1.6660    2.6850   -0.1610 C   0  0  0  0  0  0
    2.2650    0.3190    0.3460 C   0  0  0  0  0  0
    1.5450   -0.2080    1.1820 O   0  0  0  0  0  0
   -1.1990   -1.8530   -1.9590 O   0  5  0  0  0  0
    5.3170   -0.6580    1.4460 H   0  0  0  0  0  0
    3.8640   -0.4250    2.4470 H   0  0  0  0  0  0
    4.2340   -0.7720    1.4820 C   0  0  0  0  0  0
    4.2860    0.5030   -0.3430 H   0  0  0  0  0  0
    3.6330    0.0680    0.4140 N   0  0  0  0  0  0
    3.8980   -2.2400    1.3360 C   0  0  0  0  0  0
    2.9950   -2.7800    1.9760 O   0  0  0  0  0  0
   -1.0590   -1.1360   -2.9430 C   0  0  0  0  0  0
   -0.6350   -1.6500   -4.1120 O   0  0  0  0  0  0
   -0.0380    1.0410   -2.4690 C   0  0  0  0  0  0
    0.6380    1.7870   -3.1750 O   0  0  0  0  0  0
   -1.3980    0.6300   -4.0370 H   0  0  0  0  0  0
   -1.2570    0.3480   -2.9940 C   0  0  0  0  0  0
   -3.3680    0.1940   -2.6080 H   0  0  0  0  0  0
   -2.3940    0.6740   -1.1970 H   0  0  0  0  0  0
   -2.5260    0.8000   -2.2720 C   0  0  0  0  0  0
   -2.8040    2.2420   -2.5700 C   0  0  0  0  0  0
   -3.2880    2.7310   -0.5280 H   0  0  0  0  0  0
   -3.1860    3.1050   -1.5460 C   0  0  0  0  0  0
   -2.3820    2.0440   -4.6760 H   0  0  0  0  0  0
   -2.6740    2.7210   -3.8740 C   0  0  0  0  0  0
   -3.7400    5.1210   -1.0240 H   0  0  0  0  0  0
   -3.4370    4.4460   -1.8240 C   0  0  0  0  0  0
   -2.8100    4.4390   -5.1690 H   0  0  0  0  0  0
   -2.9180    4.0630   -4.1520 C   0  0  0  0  0  0
   -3.4940    5.9750   -3.3410 H   0  0  0  0  0  0
   -3.3010    4.9240   -3.1250 C   0  0  0  0  0  0
    4.4220   -4.0750    0.3440 H   0  0  0  0  0  0
    5.4620   -2.5640   -0.1040 H   0  0  0  0  0  0
    4.6480   -3.0150    0.4630 N   0  0  0  0  0  0
  1  2  1  0  0  0
  2  4  1  0  0  0
  2  8  1  0  0  0
  2  9  1  0  0  0
  3  4  1  0  0  0
  4 21  1  0  0  0
  5  8  1  0  0  0
  6  8  1  0  0  0
  7  8  1  0  0  0
  9 10  2  0  0  0
  9 16  1  0  0  0
 11 19  1  0  0  0
 12 14  1  0  0  0
 13 14  1  0  0  0
 14 16  1  0  0  0
 14 17  1  0  0  0
 15 16  1  0  0  0
 17 18  2  0  0  0
 17 41  1  0  0  0
 19 20  2  0  0  0
 19 24  1  0  0  0
 21 22  2  0  0  0
 21 24  1  0  0  0
 23 24  1  0  0  0
 24 27  1  0  0  0
 25 27  1  0  0  0
 26 27  1  0  0  0
 27 28  1  0  0  0
 28 30  2  0  0  0
 28 32  1  0  0  0
 29 30  1  0  0  0
 30 34  1  0  0  0
 31 32  1  0  0  0
 32 36  2  0  0  0
 33 34  1  0  0  0
 34 38  2  0  0  0
 35 36  1  0  0  0
 36 38  1  0  0  0
 37 38  1  0  0  0
 39 41  1  0  0  0
 40 41  1  0  0  0
M  CHG  1  11  -1
M  END
>  <ACTIVITY>
3.38

>  <SET>
1

>  <Min_dist>
999.9

>  <Avg_dist>
999.9

$$$$
p_ile_aoh
  Cerius2 12110214373D 1   1.00000                          
Structure written by Cerius2 SD Exporter
 34 33  0  0  0  0  0  0  0  0999 V2000
   -3.7610    1.6590   -3.7520 H   0  0  0  0  0  0
   -3.0290    1.8910   -2.9780 C   0  0  0  0  0  0
   -0.0266   -1.9571   -2.0217 O   0  5  0  0  0  0
   -0.7030   -1.5130   -3.4020 P   0  0  0  0  0  0
    0.1970   -0.8100   -4.3710 O   0  5  0  0  0  0
   -1.2390   -2.6370   -4.2490 O   0  0  0  0  0  0
   -2.8350   -0.7210   -3.6250 H   0  0  0  0  0  0
   -1.9740   -0.4220   -3.0280 N   0  0  0  0  0  0
   -1.5960    1.1460   -4.3230 H   0  0  0  0  0  0
   -1.7730    1.0300   -3.2540 C   0  0  0  0  0  0
   -0.5500    1.5330   -2.5370 C   0  0  0  0  0  0
    0.3390    2.1290   -3.1470 O   0  0  0  0  0  0
   -4.5670    2.1820   -1.4930 H   0  0  0  0  0  0
   -3.9960    0.5020   -1.6400 H   0  0  0  0  0  0
   -2.9820    1.7200   -0.8280 H   0  0  0  0  0  0
   -3.6920    1.5490   -1.6380 C   0  0  0  0  0  0
    1.2360    2.5790   -1.1070 H   0  0  0  0  0  0
    0.7370    1.8760   -0.4410 C   0  0  0  0  0  0
   -1.1830    0.7560   -0.6280 H   0  0  0  0  0  0
   -0.4240    1.3250   -1.1650 N   0  0  0  0  0  0
    1.1670    3.0430    1.3210 H   0  0  0  0  0  0
   -0.3580    3.4710    0.5090 H   0  0  0  0  0  0
   -0.2520    1.9780    1.4730 H   0  0  0  0  0  0
    0.2910    2.6480    0.8050 C   0  0  0  0  0  0
    1.7420    0.8090   -0.1000 C   0  0  0  0  0  0
    1.4290   -0.1210    0.7070 O   0  5  0  0  0  0
    2.8920    0.9020   -0.6270 O   0  0  0  0  0  0
   -1.7830    3.5720   -2.4660 H   0  0  0  0  0  0
   -2.4810    3.6460   -4.1020 H   0  0  0  0  0  0
   -2.6780    3.3900   -3.0610 C   0  0  0  0  0  0
   -3.5060    5.3310   -2.6200 H   0  0  0  0  0  0
   -4.7060    4.1200   -3.1310 H   0  0  0  0  0  0
   -4.0080    4.0460   -1.4950 H   0  0  0  0  0  0
   -3.8060    4.2870   -2.5390 C   0  0  0  0  0  0
  1  2  1  0  0  0
  2 10  1  0  0  0
  2 16  1  0  0  0
  2 30  1  0  0  0
  3  4  1  0  0  0
  4  5  1  0  0  0
  4  6  2  0  0  0
  4  8  1  0  0  0
  7  8  1  0  0  0
  8 10  1  0  0  0
  9 10  1  0  0  0
 10 11  1  0  0  0
 11 12  2  0  0  0
 11 20  1  0  0  0
 13 16  1  0  0  0
 14 16  1  0  0  0
 15 16  1  0  0  0
 17 18  1  0  0  0
 18 20  1  0  0  0
 18 24  1  0  0  0
 18 25  1  0  0  0
 19 20  1  0  0  0
 21 24  1  0  0  0
 22 24  1  0  0  0
 23 24  1  0  0  0
 25 26  1  0  0  0
 25 27  2  0  0  0
 28 30  1  0  0  0
 29 30  1  0  0  0
 30 34  1  0  0  0
 31 34  1  0  0  0
 32 34  1  0  0  0
 33 34  1  0  0  0
M  CHG  3   3  -1   5  -1  26  -1
M  END
>  <ACTIVITY>
6.44

>  <SET>
2

>  <Min_dist>
0.2

>  <Avg_dist>
0.45

$$$$
p_ophe_ome_leunh2
  Cerius2 12110214373D 1   1.00000                          
Structure written by Cerius2 SD Exporter
 41 41  0  0  0  0  0  0  0  0999 V2000
   -2.0330   -3.5170   -2.8310 O   0  0  0  0  0  0
   -1.0050   -2.2070   -2.7480 P   0  0  0  0  0  0
   -0.2430   -2.2440   -1.2680 O   0  0  0  0  0  0
    0.0070   -2.2300   -3.8850 O   0  0  0  0  0  0
   -2.8700   -1.0410   -3.3610 H   0  0  0  0  0  0
   -1.9810   -0.7760   -2.7880 N   0  0  0  0  0  0
   -1.2810    0.3860   -4.3870 H   0  0  0  0  0  0
   -1.5250    0.5290   -3.3340 C   0  0  0  0  0  0
   -0.2920    1.0370   -2.6450 C   0  0  0  0  0  0
    0.5230    1.7600   -3.2230 O   0  0  0  0  0  0
   -3.5740    1.1450   -3.5670 H   0  0  0  0  0  0
   -2.7890    1.7430   -2.0850 H   0  0  0  0  0  0
   -2.6550    1.5580   -3.1510 C   0  0  0  0  0  0
   -1.3100    3.1450   -3.6700 H   0  0  0  0  0  0
   -2.3550    2.8920   -3.8470 C   0  0  0  0  0  0
   -2.3460    3.7380   -5.8310 H   0  0  0  0  0  0
   -1.8990    2.0160   -5.7640 H   0  0  0  0  0  0
   -3.6000    2.5020   -5.5650 H   0  0  0  0  0  0
   -2.5650    2.7790   -5.3610 C   0  0  0  0  0  0
   -3.0170    4.9400   -3.7690 H   0  0  0  0  0  0
   -4.2870    3.7430   -3.4200 H   0  0  0  0  0  0
   -3.0400    4.1000   -2.2010 H   0  0  0  0  0  0
   -3.2380    3.9980   -3.2680 C   0  0  0  0  0  0
    0.7320    1.1020   -0.7480 H   0  0  0  0  0  0
   -0.9160    0.1800   -0.7670 H   0  0  0  0  0  0
   -0.1480    0.7520   -1.2880 N   0  0  0  0  0  0
   -1.5200   -4.7630   -3.1050 C   0  0  0  0  0  0
    0.2700   -4.5080   -1.9180 H   0  0  0  0  0  0
   -0.2940   -5.1700   -2.5750 C   0  0  0  0  0  0
    1.1490   -6.7640   -2.4800 H   0  0  0  0  0  0
    0.1980   -6.4310   -2.8970 C   0  0  0  0  0  0
   -0.1190   -8.2530   -4.0070 H   0  0  0  0  0  0
   -0.5170   -7.2720   -3.7490 C   0  0  0  0  0  0
   -2.2980   -7.5130   -4.9390 H   0  0  0  0  0  0
   -1.7410   -6.8570   -4.2700 C   0  0  0  0  0  0
   -3.2210   -5.2880   -4.3280 H   0  0  0  0  0  0
   -2.2540   -5.6060   -3.9390 C   0  0  0  0  0  0
   -0.2160   -2.7570    0.7320 H   0  0  0  0  0  0
   -1.8100   -2.3120    0.0750 H   0  0  0  0  0  0
   -1.0840   -3.8840   -0.3380 H   0  0  0  0  0  0
   -0.8760   -2.8340   -0.1330 C   0  0  0  0  0  0
  1  2  1  0  0  0
  1 27  1  0  0  0
  2  3  1  0  0  0
  2  4  2  0  0  0
  2  6  1  0  0  0
  3 41  1  0  0  0
  5  6  1  0  0  0
  6  8  1  0  0  0
  7  8  1  0  0  0
  8  9  1  0  0  0
  8 13  1  0  0  0
  9 10  2  0  0  0
  9 26  1  0  0  0
 11 13  1  0  0  0
 12 13  1  0  0  0
 13 15  1  0  0  0
 14 15  1  0  0  0
 15 19  1  0  0  0
 15 23  1  0  0  0
 16 19  1  0  0  0
 17 19  1  0  0  0
 18 19  1  0  0  0
 20 23  1  0  0  0
 21 23  1  0  0  0
 22 23  1  0  0  0
 24 26  1  0  0  0
 25 26  1  0  0  0
 27 29  1  0  0  0
 27 37  2  0  0  0
 28 29  1  0  0  0
 29 31  2  0  0  0
 30 31  1  0  0  0
 31 33  1  0  0  0
 32 33  1  0  0  0
 33 35  2  0  0  0
 34 35  1  0  0  0
 35 37  1  0  0  0
 36 37  1  0  0  0
 38 41  1  0  0  0
 39 41  1  0  0  0
 40 41  1  0  0  0
M  END
>  <ACTIVITY>
0.52

>  <SET>
1

>  <Min_dist>
999.9

>  <Avg_dist>
999.9

$$$$
paaoh
  Cerius2 12110214373D 1   1.00000                          
Structure written by Cerius2 SD Exporter
 25 24  0  0  0  0  0  0  0  0999 V2000
   -0.1074   -1.8944   -2.0128 O   0  5  0  0  0  0
   -0.8284   -1.4184   -3.3168 P   0  0  0  0  0  0
    0.0176   -0.6664   -4.3018 O   0  0  0  0  0  0
   -1.4162   -2.5930   -4.2305 O   0  5  0  0  0  0
   -2.8177   -0.8358   -3.4449 H   0  0  0  0  0  0
   -1.9390   -0.5119   -2.9070 N   0  0  0  0  0  0
   -1.7900    1.1180   -4.1860 H   0  0  0  0  0  0
   -1.8330    0.9400   -3.1110 C   0  0  0  0  0  0
   -0.5750    1.4960   -2.5010 C   0  0  0  0  0  0
    0.2880    2.0960   -3.1500 O   0  0  0  0  0  0
   -2.9640    2.7280   -2.6930 H   0  0  0  0  0  0
   -3.9590    1.2920   -3.0300 H   0  0  0  0  0  0
   -3.1280    1.4510   -1.4640 H   0  0  0  0  0  0
   -3.0600    1.6540   -2.5330 C   0  0  0  0  0  0
    1.2650    2.5540   -1.1250 H   0  0  0  0  0  0
    0.7710    1.8680   -0.4370 C   0  0  0  0  0  0
   -1.1530    0.7530   -0.5650 H   0  0  0  0  0  0
   -0.4080    1.3120   -1.1310 N   0  0  0  0  0  0
    1.2360    3.0610    1.2970 H   0  0  0  0  0  0
   -0.3020    3.4830    0.5060 H   0  0  0  0  0  0
   -0.1840    2.0050    1.4910 H   0  0  0  0  0  0
    0.3500    2.6620    0.8040 C   0  0  0  0  0  0
    1.7670    0.7960   -0.0890 C   0  0  0  0  0  0
    1.4430   -0.1290    0.7190 O   0  5  0  0  0  0
    2.9220    0.8820   -0.6060 O   0  0  0  0  0  0
  1  2  1  0  0  0
  2  3  2  0  0  0
  2  4  1  0  0  0
  2  6  1  0  0  0
  5  6  1  0  0  0
  6  8  1  0  0  0
  7  8  1  0  0  0
  8  9  1  0  0  0
  8 14  1  0  0  0
  9 10  2  0  0  0
  9 18  1  0  0  0
 11 14  1  0  0  0
 12 14  1  0  0  0
 13 14  1  0  0  0
 15 16  1  0  0  0
 16 18  1  0  0  0
 16 22  1  0  0  0
 16 23  1  0  0  0
 17 18  1  0  0  0
 19 22  1  0  0  0
 20 22  1  0  0  0
 21 22  1  0  0  0
 23 24  1  0  0  0
 23 25  2  0  0  0
M  CHG  3   1  -1   4  -1  24  -1
M  END
>  <ACTIVITY>
4.06

>  <SET>
1

>  <Min_dist>
999.9

>  <Avg_dist>
999.9

$$$$
phosphoramidon
  Cerius2 12110214373D 1   1.00000                          
Structure written by Cerius2 SD Exporter
 69 71  0  0  0  0  0  0  0  0999 V2000
    1.0330   -2.0210   -1.7140 H   0  0  0  0  0  0
    0.3430   -2.8270   -1.4620 C   0  0  0  0  0  0
   -0.6020   -2.9780   -2.5170 O   0  0  0  0  0  0
   -0.9350   -1.5370   -0.2960 H   0  0  0  0  0  0
   -0.3770   -2.4630   -0.1590 C   0  0  0  0  0  0
    0.0420   -2.0080    1.8100 H   0  0  0  0  0  0
    0.5680   -2.2650    0.8900 O   0  0  0  0  0  0
   -2.0660   -3.7280   -0.5930 H   0  0  0  0  0  0
   -1.3380   -3.5970    0.2070 C   0  0  0  0  0  0
   -2.7640   -4.1090    1.6100 H   0  0  0  0  0  0
   -2.0910   -3.2830    1.3790 O   0  0  0  0  0  0
    0.1460   -4.7980    1.1960 H   0  0  0  0  0  0
   -0.5430   -4.9020    0.3570 C   0  0  0  0  0  0
   -0.8280   -6.9100    0.7460 H   0  0  0  0  0  0
   -1.4130   -5.9960    0.6440 O   0  0  0  0  0  0
   -0.4290   -5.3410   -1.7290 H   0  0  0  0  0  0
    0.2840   -5.1710   -0.9220 C   0  0  0  0  0  0
    1.0970   -4.0400   -1.3000 O   0  0  0  0  0  0
    1.7290   -6.5900   -1.6630 H   0  0  0  0  0  0
    1.8400   -6.2730    0.0850 H   0  0  0  0  0  0
    0.5210   -7.2830   -0.5540 H   0  0  0  0  0  0
    1.1570   -6.4190   -0.7510 C   0  0  0  0  0  0
   -1.0400   -1.7460   -3.5440 P   0  0  0  0  0  0
    0.1000   -1.0880   -4.2180 O   0  5  0  0  0  0
   -1.8450   -2.4060   -4.7880 O   0  0  0  0  0  0
   -3.0600   -0.8330   -2.9440 H   0  0  0  0  0  0
   -2.0220   -0.5920   -2.7170 N   0  0  0  0  0  0
   -1.8660    0.9390   -4.1000 H   0  0  0  0  0  0
   -1.8350    0.8510   -3.0140 C   0  0  0  0  0  0
   -0.4930    1.3650   -2.5540 C   0  0  0  0  0  0
    0.2920    1.9720   -3.2860 O   0  0  0  0  0  0
   -3.9270    1.2920   -2.7390 H   0  0  0  0  0  0
   -2.8990    1.7030   -1.3450 H   0  0  0  0  0  0
   -2.9670    1.7070   -2.4330 C   0  0  0  0  0  0
   -1.8390    3.4980   -2.7390 H   0  0  0  0  0  0
   -2.8520    3.1530   -2.9440 C   0  0  0  0  0  0
   -2.9950    4.2560   -4.7940 H   0  0  0  0  0  0
   -2.3360    2.6120   -4.9690 H   0  0  0  0  0  0
   -4.0780    2.8470   -4.6940 H   0  0  0  0  0  0
   -3.0820    3.2220   -4.4600 C   0  0  0  0  0  0
   -3.7250    5.0890   -2.5890 H   0  0  0  0  0  0
   -4.8470    3.7250   -2.3690 H   0  0  0  0  0  0
   -3.6030    4.0600   -1.1410 H   0  0  0  0  0  0
   -3.8270    4.0730   -2.2080 C   0  0  0  0  0  0
   -0.7370    0.7270   -0.4760 H   0  0  0  0  0  0
   -0.1030    1.1970   -1.2280 N   0  0  0  0  0  0
    1.7770    1.6570   -1.8860 H   0  0  0  0  0  0
    1.2570    1.7180   -0.9300 C   0  0  0  0  0  0
    2.0540    0.8570    0.0060 C   0  0  0  0  0  0
    1.5800    0.1590    0.8940 O   0  5  0  0  0  0
    2.3090    3.5670   -0.5990 H   0  0  0  0  0  0
    0.6620    3.7630   -1.2450 H   0  0  0  0  0  0
    1.2810    3.2090   -0.5390 C   0  0  0  0  0  0
    0.7660    3.4630    0.8500 C   0  0  0  0  0  0
   -1.1870    2.5020    0.8260 H   0  0  0  0  0  0
   -0.4260    3.0670    1.3650 C   0  0  0  0  0  0
    1.4590    4.1890    1.8780 C   0  0  0  0  0  0
   -1.3700    3.3240    3.3850 H   0  0  0  0  0  0
   -0.5310    3.5020    2.7120 N   0  0  0  0  0  0
    0.6590    4.2130    3.0190 C   0  0  0  0  0  0
    3.3590    4.8300    1.0290 H   0  0  0  0  0  0
    2.7110    4.8330    1.9050 C   0  0  0  0  0  0
    0.3850    4.8570    5.0850 H   0  0  0  0  0  0
    1.0340    4.8540    4.2090 C   0  0  0  0  0  0
    4.0660    5.9750    3.1100 H   0  0  0  0  0  0
    3.1000    5.4720    3.0730 C   0  0  0  0  0  0
    2.6040    5.9950    5.1180 H   0  0  0  0  0  0
    2.2680    5.4830    4.2170 C   0  0  0  0  0  0
    3.3920    0.8880   -0.1660 O   0  0  0  0  0  0
  1  2  1  0  0  0
  2  3  1  0  0  0
  2  5  1  0  0  0
  2 18  1  0  0  0
  3 23  1  0  0  0
  4  5  1  0  0  0
  5  7  1  0  0  0
  5  9  1  0  0  0
  6  7  1  0  0  0
  8  9  1  0  0  0
  9 11  1  0  0  0
  9 13  1  0  0  0
 10 11  1  0  0  0
 12 13  1  0  0  0
 13 15  1  0  0  0
 13 17  1  0  0  0
 14 15  1  0  0  0
 16 17  1  0  0  0
 17 18  1  0  0  0
 17 22  1  0  0  0
 19 22  1  0  0  0
 20 22  1  0  0  0
 21 22  1  0  0  0
 23 24  1  0  0  0
 23 25  2  0  0  0
 23 27  1  0  0  0
 26 27  1  0  0  0
 27 29  1  0  0  0
 28 29  1  0  0  0
 29 30  1  0  0  0
 29 34  1  0  0  0
 30 31  2  0  0  0
 30 46  1  0  0  0
 32 34  1  0  0  0
 33 34  1  0  0  0
 34 36  1  0  0  0
 35 36  1  0  0  0
 36 40  1  0  0  0
 36 44  1  0  0  0
 37 40  1  0  0  0
 38 40  1  0  0  0
 39 40  1  0  0  0
 41 44  1  0  0  0
 42 44  1  0  0  0
 43 44  1  0  0  0
 45 46  1  0  0  0
 46 48  1  0  0  0
 47 48  1  0  0  0
 48 49  1  0  0  0
 48 53  1  0  0  0
 49 50  1  0  0  0
 49 69  2  0  0  0
 51 53  1  0  0  0
 52 53  1  0  0  0
 53 54  1  0  0  0
 54 56  2  0  0  0
 54 57  1  0  0  0
 55 56  1  0  0  0
 56 59  1  0  0  0
 57 60  2  0  0  0
 57 62  1  0  0  0
 58 59  1  0  0  0
 59 60  1  0  0  0
 60 64  1  0  0  0
 61 62  1  0  0  0
 62 66  2  0  0  0
 63 64  1  0  0  0
 64 68  2  0  0  0
 65 66  1  0  0  0
 66 68  1  0  0  0
 67 68  1  0  0  0
M  CHG  2  24  -1  50  -1
M  END
>  <ACTIVITY>
7.55

>  <SET>
2

>  <Min_dist>
0.34

>  <Avg_dist>
0.56

$$$$
pleunh2
  Cerius2 12110214373D 1   1.00000                          
Structure written by Cerius2 SD Exporter
 26 25  0  0  0  0  0  0  0  0999 V2000
   -0.0040   -1.9700   -2.0440 O   0  5  0  0  0  0
   -0.6981   -1.5366   -3.4189 P   0  0  0  0  0  0
    0.1779   -0.8176   -4.3979 O   0  5  0  0  0  0
   -1.2261   -2.6656   -4.2599 O   0  0  0  0  0  0
   -2.8381   -0.7646   -3.6249 H   0  0  0  0  0  0
   -1.9781   -0.4666   -3.0249 N   0  0  0  0  0  0
   -1.7071    1.1604   -4.3009 H   0  0  0  0  0  0
   -1.7941    0.9894   -3.2279 C   0  0  0  0  0  0
   -0.5351    1.4674   -2.5639 C   0  0  0  0  0  0
    0.3279    2.0934   -3.1779 O   0  0  0  0  0  0
   -3.9101    1.3994   -3.1909 H   0  0  0  0  0  0
   -3.0781    1.6844   -1.6429 H   0  0  0  0  0  0
   -3.0041    1.7884   -2.7249 C   0  0  0  0  0  0
   -1.8561    3.5924   -2.7649 H   0  0  0  0  0  0
   -2.8491    3.2744   -3.0819 C   0  0  0  0  0  0
   -2.8401    4.5534   -4.8209 H   0  0  0  0  0  0
   -2.1671    2.9294   -5.0999 H   0  0  0  0  0  0
   -3.9261    3.1484   -4.9479 H   0  0  0  0  0  0
   -2.9531    3.4924   -4.5979 C   0  0  0  0  0  0
   -3.7511    5.1724   -2.6079 H   0  0  0  0  0  0
   -4.8851    3.8004   -2.6129 H   0  0  0  0  0  0
   -3.7431    4.0054   -1.2629 H   0  0  0  0  0  0
   -3.8811    4.1244   -2.3379 C   0  0  0  0  0  0
    0.5319    1.4754   -0.6909 H   0  0  0  0  0  0
   -1.1301    0.5804   -0.6919 H   0  0  0  0  0  0
   -0.3661    1.1514   -1.2179 N   0  0  0  0  0  0
  1  2  1  0  0  0
  2  3  1  0  0  0
  2  4  2  0  0  0
  2  6  1  0  0  0
  5  6  1  0  0  0
  6  8  1  0  0  0
  7  8  1  0  0  0
  8  9  1  0  0  0
  8 13  1  0  0  0
  9 10  2  0  0  0
  9 26  1  0  0  0
 11 13  1  0  0  0
 12 13  1  0  0  0
 13 15  1  0  0  0
 14 15  1  0  0  0
 15 19  1  0  0  0
 15 23  1  0  0  0
 16 19  1  0  0  0
 17 19  1  0  0  0
 18 19  1  0  0  0
 20 23  1  0  0  0
 21 23  1  0  0  0
 22 23  1  0  0  0
 24 26  1  0  0  0
 25 26  1  0  0  0
M  CHG  2   1  -1   3  -1
M  END
>  <ACTIVITY>
4.1

>  <SET>
2

>  <Min_dist>
0.26

>  <Avg_dist>
0.6

$$$$
plfoh
  Cerius2 12110214373D 1   1.00000                          
Structure written by Cerius2 SD Exporter
 44 44  0  0  0  0  0  0  0  0999 V2000
   -3.9060    1.2860   -2.7040 H   0  0  0  0  0  0
   -2.8760    1.6580   -1.3010 H   0  0  0  0  0  0
   -2.9470    1.6960   -2.3880 C   0  0  0  0  0  0
   -0.1397   -2.5463   -2.3091 O   0  5  0  0  0  0
   -0.8760   -1.7150   -3.4610 P   0  0  0  0  0  0
    0.2100   -0.8860   -4.4060 O   0  5  0  0  0  0
   -1.6670   -2.7060   -4.5150 O   0  0  0  0  0  0
   -2.9830   -0.8280   -3.2590 H   0  0  0  0  0  0
   -2.0190   -0.5870   -2.8130 N   0  0  0  0  0  0
   -1.8320    1.0480   -4.0720 H   0  0  0  0  0  0
   -1.8140    0.8630   -2.9980 C   0  0  0  0  0  0
   -0.4730    1.2980   -2.4820 C   0  0  0  0  0  0
    0.3460    1.8370   -3.2250 O   0  0  0  0  0  0
    1.8340    1.1240   -1.7840 H   0  0  0  0  0  0
    1.3260    1.3230   -0.8400 C   0  0  0  0  0  0
   -0.8240    0.7550   -0.3960 H   0  0  0  0  0  0
   -0.1090    1.0800   -1.1510 N   0  0  0  0  0  0
    2.7290    2.9300   -0.5350 H   0  0  0  0  0  0
    1.1630    3.4380   -1.2120 H   0  0  0  0  0  0
    1.6490    2.7860   -0.4860 C   0  0  0  0  0  0
    1.9120    0.3540    0.1520 C   0  0  0  0  0  0
    1.2660   -0.2950    0.9660 O   0  5  0  0  0  0
    3.2580    0.2470    0.1550 O   0  0  0  0  0  0
   -1.8370    3.5080   -2.6130 H   0  0  0  0  0  0
   -2.8400    3.1570   -2.8530 C   0  0  0  0  0  0
   -3.7530    5.0690   -2.4650 H   0  0  0  0  0  0
   -4.8580    3.6830   -2.3160 H   0  0  0  0  0  0
   -3.6540    4.0000   -1.0460 H   0  0  0  0  0  0
   -3.8490    4.0410   -2.1170 C   0  0  0  0  0  0
   -2.9580    4.3130   -4.6730 H   0  0  0  0  0  0
   -2.2740    2.6820   -4.8820 H   0  0  0  0  0  0
   -4.0250    2.8880   -4.6380 H   0  0  0  0  0  0
   -3.0390    3.2680   -4.3710 C   0  0  0  0  0  0
    1.1760    3.1580    0.8880 C   0  0  0  0  0  0
    3.0720    2.7250    1.8150 H   0  0  0  0  0  0
    2.0480    3.0640    1.9720 C   0  0  0  0  0  0
    2.3030    3.3230    4.0980 H   0  0  0  0  0  0
    1.6180    3.4010    3.2540 C   0  0  0  0  0  0
   -0.0330    4.1000    4.4500 H   0  0  0  0  0  0
    0.3100    3.8350    3.4500 C   0  0  0  0  0  0
   -1.5810    4.2730    2.5220 H   0  0  0  0  0  0
   -0.5580    3.9310    2.3660 C   0  0  0  0  0  0
   -0.8180    3.6690    0.2430 H   0  0  0  0  0  0
   -0.1320    3.5930    1.0860 C   0  0  0  0  0  0
  1  3  1  0  0  0
  2  3  1  0  0  0
  3 11  1  0  0  0
  3 25  1  0  0  0
  4  5  1  0  0  0
  5  6  1  0  0  0
  5  7  2  0  0  0
  5  9  1  0  0  0
  8  9  1  0  0  0
  9 11  1  0  0  0
 10 11  1  0  0  0
 11 12  1  0  0  0
 12 13  2  0  0  0
 12 17  1  0  0  0
 14 15  1  0  0  0
 15 17  1  0  0  0
 15 20  1  0  0  0
 15 21  1  0  0  0
 16 17  1  0  0  0
 18 20  1  0  0  0
 19 20  1  0  0  0
 20 34  1  0  0  0
 21 22  1  0  0  0
 21 23  2  0  0  0
 24 25  1  0  0  0
 25 29  1  0  0  0
 25 33  1  0  0  0
 26 29  1  0  0  0
 27 29  1  0  0  0
 28 29  1  0  0  0
 30 33  1  0  0  0
 31 33  1  0  0  0
 32 33  1  0  0  0
 34 36  1  0  0  0
 34 44  2  0  0  0
 35 36  1  0  0  0
 36 38  2  0  0  0
 37 38  1  0  0  0
 38 40  1  0  0  0
 39 40  1  0  0  0
 40 42  2  0  0  0
 41 42  1  0  0  0
 42 44  1  0  0  0
 43 44  1  0  0  0
M  CHG  3   4  -1   6  -1  22  -1
M  END
>  <ACTIVITY>
7.72

>  <SET>
2

>  <Min_dist>
0

>  <Avg_dist>
0.32

$$$$
pnhet
  Cerius2 12110214373D 1   1.00000                          
Structure written by Cerius2 SD Exporter
 13 12  0  0  0  0  0  0  0  0999 V2000
   -0.1070   -2.2030   -2.3130 O   0  5  0  0  0  0
   -0.7504   -1.5450   -3.4849 P   0  0  0  0  0  0
    0.2452   -0.8532   -4.3510 O   0  0  0  0  0  0
   -1.5014   -2.6440   -4.4709 O   0  5  0  0  0  0
   -2.5124   -0.1530   -3.8849 H   0  0  0  0  0  0
   -1.9224   -0.3850   -2.9979 N   0  0  0  0  0  0
   -0.9824    0.7350   -1.4849 H   0  0  0  0  0  0
   -0.8984    1.4500   -3.1129 H   0  0  0  0  0  0
   -1.5324    0.9110   -2.4089 C   0  0  0  0  0  0
   -2.4754    2.7040   -1.6699 H   0  0  0  0  0  0
   -3.3304    1.9300   -3.0269 H   0  0  0  0  0  0
   -3.4134    1.2160   -1.3979 H   0  0  0  0  0  0
   -2.7774    1.7510   -2.1039 C   0  0  0  0  0  0
  1  2  1  0  0  0
  2  3  2  0  0  0
  2  4  1  0  0  0
  2  6  1  0  0  0
  5  6  1  0  0  0
  6  9  1  0  0  0
  7  9  1  0  0  0
  8  9  1  0  0  0
  9 13  1  0  0  0
 10 13  1  0  0  0
 11 13  1  0  0  0
 12 13  1  0  0  0
M  CHG  2   1  -1   4  -1
M  END
>  <ACTIVITY>
0.52

>  <SET>
2

>  <Min_dist>
0.89

>  <Avg_dist>
0.93

$$$$
po3_fagnh2
  Cerius2 12110214373D 1   1.00000                          
Structure written by Cerius2 SD Exporter
 44 44  0  0  0  0  0  0  0  0999 V2000
   -1.9360    1.0280   -3.9570 H   0  0  0  0  0  0
   -1.7870    0.8180   -2.8980 C   0  0  0  0  0  0
   -1.8750   -0.8400   -1.6640 H   0  0  0  0  0  0
   -1.9010   -0.6450   -2.7370 N   0  0  0  0  0  0
   -3.8450    1.0560   -2.3070 H   0  0  0  0  0  0
   -2.6640    1.5850   -1.0850 H   0  0  0  0  0  0
   -2.8970    1.5690   -2.1500 C   0  0  0  0  0  0
   -0.4100    1.3320   -2.5710 C   0  0  0  0  0  0
    0.1940    1.8750   -3.4940 O   0  0  0  0  0  0
   -3.0110    2.9820   -2.6530 C   0  0  0  0  0  0
   -3.7340    3.7520   -0.7760 H   0  0  0  0  0  0
   -3.4600    3.9910   -1.8040 C   0  0  0  0  0  0
   -2.3420    2.5080   -4.6460 H   0  0  0  0  0  0
   -2.6750    3.2960   -3.9700 C   0  0  0  0  0  0
   -3.9230    6.0860   -1.5930 H   0  0  0  0  0  0
   -3.5620    5.3030   -2.2600 C   0  0  0  0  0  0
   -2.4890    4.8480   -5.4540 H   0  0  0  0  0  0
   -2.7640    4.6080   -4.4270 C   0  0  0  0  0  0
   -3.2670    6.6440   -3.9240 H   0  0  0  0  0  0
   -3.2040    5.6150   -3.5700 C   0  0  0  0  0  0
    5.0890   -0.2840    1.4010 H   0  0  0  0  0  0
    3.5680    0.0050    2.2790 H   0  0  0  0  0  0
    4.0060   -0.4030    1.3680 C   0  0  0  0  0  0
   -0.7530   -1.7270   -3.4590 P   0  0  0  0  0  0
    2.1550    1.2060   -1.9990 H   0  0  0  0  0  0
    1.5980    1.4500   -1.0940 C   0  0  0  0  0  0
   -0.4430    0.7520   -0.4970 H   0  0  0  0  0  0
    0.1630    1.1370   -1.3180 N   0  0  0  0  0  0
    2.8410    3.1520   -0.6390 H   0  0  0  0  0  0
    1.4220    3.5280   -1.6450 H   0  0  0  0  0  0
    1.2210    3.2090    0.0950 H   0  0  0  0  0  0
    1.7840    2.9430   -0.8000 C   0  0  0  0  0  0
    2.1250    0.6300    0.0480 C   0  0  0  0  0  0
    1.3200    0.2220    0.8710 O   0  0  0  0  0  0
    4.3010   -3.7830    0.5040 H   0  0  0  0  0  0
    5.3900   -2.3080    0.0550 H   0  0  0  0  0  0
    4.5180   -2.7170    0.5660 N   0  0  0  0  0  0
    4.1810    0.7120   -0.5480 H   0  0  0  0  0  0
    3.4800    0.3560    0.2080 N   0  0  0  0  0  0
    0.0233   -2.5931   -2.3602 O   0  5  0  0  0  0
    0.3000   -0.8600   -4.4050 O   0  5  0  0  0  0
    2.7150   -2.3670    1.8780 O   0  0  0  0  0  0
    3.6840   -1.8780    1.2970 C   0  0  0  0  0  0
   -1.5570   -2.6900   -4.5270 O   0  0  0  0  0  0
  1  2  1  0  0  0
  2  4  1  0  0  0
  2  7  1  0  0  0
  2  8  1  0  0  0
  3  4  1  0  0  0
  4 24  1  0  0  0
  5  7  1  0  0  0
  6  7  1  0  0  0
  7 10  1  0  0  0
  8  9  2  0  0  0
  8 28  1  0  0  0
 10 12  2  0  0  0
 10 14  1  0  0  0
 11 12  1  0  0  0
 12 16  1  0  0  0
 13 14  1  0  0  0
 14 18  2  0  0  0
 15 16  1  0  0  0
 16 20  2  0  0  0
 17 18  1  0  0  0
 18 20  1  0  0  0
 19 20  1  0  0  0
 21 23  1  0  0  0
 22 23  1  0  0  0
 23 39  1  0  0  0
 23 43  1  0  0  0
 24 40  1  0  0  0
 24 41  1  0  0  0
 24 44  2  0  0  0
 25 26  1  0  0  0
 26 28  1  0  0  0
 26 32  1  0  0  0
 26 33  1  0  0  0
 27 28  1  0  0  0
 29 32  1  0  0  0
 30 32  1  0  0  0
 31 32  1  0  0  0
 33 34  2  0  0  0
 33 39  1  0  0  0
 35 37  1  0  0  0
 36 37  1  0  0  0
 37 43  1  0  0  0
 38 39  1  0  0  0
 42 43  2  0  0  0
M  CHG  2  40  -1  41  -1
M  END
>  <ACTIVITY>
5.59

>  <SET>
1

>  <Min_dist>
999.9

>  <Avg_dist>
999.9

$$$$
ppheoh
  Cerius2 12110214373D 1   1.00000                          
Structure written by Cerius2 SD Exporter
 25 25  0  0  0  0  0  0  0  0999 V2000
   -1.4480    1.7120   -4.7970 H   0  0  0  0  0  0
   -3.1100    1.1430   -4.5140 H   0  0  0  0  0  0
   -2.2650    1.6750   -4.0770 C   0  0  0  0  0  0
    0.0030   -2.3702   -2.3297 O   0  5  0  0  0  0
   -0.7600   -1.6010   -3.5070 P   0  0  0  0  0  0
    0.2950   -0.7560   -4.4720 O   0  5  0  0  0  0
   -1.5250   -2.6600   -4.5190 O   0  0  0  0  0  0
   -2.8490   -0.6900   -3.4920 H   0  0  0  0  0  0
   -1.9590   -0.5210   -2.8860 N   0  0  0  0  0  0
   -2.4830    1.2680   -2.0250 H   0  0  0  0  0  0
   -1.8000    0.9470   -2.8110 C   0  0  0  0  0  0
   -0.4330    1.3720   -2.3560 C   0  0  0  0  0  0
    0.3920    1.9790   -3.0430 O   0  5  0  0  0  0
   -0.1630    1.0450   -1.0700 O   0  0  0  0  0  0
   -2.6830    3.0740   -3.7180 C   0  0  0  0  0  0
   -2.0000    3.9460   -5.5650 H   0  0  0  0  0  0
   -2.4660    4.1310   -4.5970 C   0  0  0  0  0  0
   -3.4780    2.4960   -1.7990 H   0  0  0  0  0  0
   -3.2930    3.3210   -2.4870 C   0  0  0  0  0  0
   -2.6690    6.2500   -4.9350 H   0  0  0  0  0  0
   -2.8420    5.4260   -4.2430 C   0  0  0  0  0  0
   -4.1420    4.7980   -1.1650 H   0  0  0  0  0  0
   -3.6690    4.6140   -2.1290 C   0  0  0  0  0  0
   -3.7270    6.6850   -2.7290 H   0  0  0  0  0  0
   -3.4400    5.6710   -3.0070 C   0  0  0  0  0  0
  1  3  1  0  0  0
  2  3  1  0  0  0
  3 11  1  0  0  0
  3 15  1  0  0  0
  4  5  1  0  0  0
  5  6  1  0  0  0
  5  7  2  0  0  0
  5  9  1  0  0  0
  8  9  1  0  0  0
  9 11  1  0  0  0
 10 11  1  0  0  0
 11 12  1  0  0  0
 12 13  1  0  0  0
 12 14  2  0  0  0
 15 17  2  0  0  0
 15 19  1  0  0  0
 16 17  1  0  0  0
 17 21  1  0  0  0
 18 19  1  0  0  0
 19 23  2  0  0  0
 20 21  1  0  0  0
 21 25  2  0  0  0
 22 23  1  0  0  0
 23 25  1  0  0  0
 24 25  1  0  0  0
M  CHG  3   4  -1   6  -1  13  -1
M  END
>  <ACTIVITY>
4.14

>  <SET>
1

>  <Min_dist>
999.9

>  <Avg_dist>
999.9

$$$$
ppphe
  Cerius2 12110214373D 1   1.00000                          
Structure written by Cerius2 SD Exporter
 40 41  0  0  0  0  0  0  0  0999 V2000
   -1.5950   -3.6030   -1.9970 C   0  0  0  0  0  0
   -1.3970   -2.3770   -2.8360 C   0  0  0  0  0  0
   -0.9570   -2.4200   -3.9920 O   0  0  0  0  0  0
   -0.9760   -3.3950   -0.6100 C   0  0  0  0  0  0
   -1.3310   -4.5260    0.3090 C   0  0  0  0  0  0
   -1.8620   -4.2520    1.5680 C   0  0  0  0  0  0
   -2.1960   -5.2970    2.4290 C   0  0  0  0  0  0
   -2.0030   -6.6180    2.0310 C   0  0  0  0  0  0
   -1.1340   -5.8500   -0.0840 C   0  0  0  0  0  0
   -1.4710   -6.8950    0.7740 C   0  0  0  0  0  0
   -1.7410   -1.1770   -2.2140 N   0  0  0  0  0  0
   -1.6750    0.1110   -2.9170 C   0  0  0  0  0  0
   -0.4800    0.8630   -2.4220 C   0  0  0  0  0  0
   -0.2110    0.7470   -1.1860 O   0  5  0  0  0  0
    0.2310    1.5960   -3.1750 O   0  0  0  0  0  0
   -2.9430    0.9080   -2.6020 C   0  0  0  0  0  0
   -3.1300    1.9930   -3.6110 C   0  0  0  0  0  0
   -3.4650    1.6610   -4.9210 C   0  0  0  0  0  0
   -3.6280    2.6560   -5.8770 C   0  0  0  0  0  0
   -3.4500    3.9860   -5.5160 C   0  0  0  0  0  0
   -2.9550    3.3260   -3.2530 C   0  0  0  0  0  0
   -3.1120    4.3250   -4.2080 C   0  0  0  0  0  0
   -1.1117   -4.4613   -2.4865 H   0  0  0  0  0  0
   -2.6717   -3.8007   -1.8894 H   0  0  0  0  0  0
   -1.3532   -2.4533   -0.1847 H   0  0  0  0  0  0
    0.1182   -3.3406   -0.7083 H   0  0  0  0  0  0
   -2.0157   -3.2249    1.8786 H   0  0  0  0  0  0
   -2.6062   -5.0811    3.4089 H   0  0  0  0  0  0
   -2.2667   -7.4298    2.6992 H   0  0  0  0  0  0
   -0.7170   -6.0667   -1.0609 H   0  0  0  0  0  0
   -1.3193   -7.9224    0.4634 H   0  0  0  0  0  0
   -2.0417   -1.1940   -1.2604 H   0  0  0  0  0  0
   -1.5939   -0.0530   -4.0017 H   0  0  0  0  0  0
   -2.8533    1.3539   -1.6005 H   0  0  0  0  0  0
   -3.8121    0.2342   -2.6269 H   0  0  0  0  0  0
   -3.5993    0.6212   -5.1964 H   0  0  0  0  0  0
   -3.8918    2.3969   -6.8960 H   0  0  0  0  0  0
   -3.5752    4.7660   -6.2583 H   0  0  0  0  0  0
   -2.6970    3.5853   -2.2326 H   0  0  0  0  0  0
   -2.9717    5.3646   -3.9350 H   0  0  0  0  0  0
  1  2  1  0  0  0
  1  4  1  0  0  0
  1 23  1  0  0  0
  1 24  1  0  0  0
  2  3  2  0  0  0
  2 11  1  0  0  0
  4  5  1  0  0  0
  4 25  1  0  0  0
  4 26  1  0  0  0
  5  6  1  0  0  0
  5  9  2  0  0  0
  6  7  2  0  0  0
  6 27  1  0  0  0
  7  8  1  0  0  0
  7 28  1  0  0  0
  8 10  2  0  0  0
  8 29  1  0  0  0
  9 10  1  0  0  0
  9 30  1  0  0  0
 10 31  1  0  0  0
 11 12  1  0  0  0
 11 32  1  0  0  0
 12 13  1  0  0  0
 12 16  1  0  0  0
 12 33  1  0  0  0
 13 14  1  0  0  0
 13 15  2  0  0  0
 16 17  1  0  0  0
 16 34  1  0  0  0
 16 35  1  0  0  0
 17 18  1  0  0  0
 17 21  2  0  0  0
 18 19  2  0  0  0
 18 36  1  0  0  0
 19 20  1  0  0  0
 19 37  1  0  0  0
 20 22  2  0  0  0
 20 38  1  0  0  0
 21 22  1  0  0  0
 21 39  1  0  0  0
 22 40  1  0  0  0
M  CHG  1  14  -1
M  END
>  <ACTIVITY>
2.79

>  <SET>
1

>  <Min_dist>
999.9

>  <Avg_dist>
999.9

$$$$
r_thiorphan
  Cerius2 12110214373D 1   1.00000                          
Structure written by Cerius2 SD Exporter
 31 31  0  0  0  0  0  0  0  0999 V2000
   -0.2420   -3.0990   -3.6240 H   0  0  0  0  0  0
   -0.1760   -2.0110   -3.6280 S   0  0  0  0  0  0
   -2.5070   -1.6310   -3.1550 H   0  0  0  0  0  0
   -1.5340   -1.6840   -1.6660 H   0  0  0  0  0  0
   -1.5730   -1.3140   -2.6900 C   0  0  0  0  0  0
   -1.2460    0.5180   -3.6830 H   0  0  0  0  0  0
   -1.5190    0.2200   -2.6710 C   0  0  0  0  0  0
   -3.6710    0.2580   -2.7420 H   0  0  0  0  0  0
   -2.9740    0.8770   -1.2250 H   0  0  0  0  0  0
   -2.8650    0.8520   -2.3100 C   0  0  0  0  0  0
   -2.9320    2.2470   -2.8480 C   0  0  0  0  0  0
   -2.2560    1.6630   -4.8100 H   0  0  0  0  0  0
   -2.5690    2.4900   -4.1730 C   0  0  0  0  0  0
   -3.6420    3.1090   -1.0040 H   0  0  0  0  0  0
   -3.3500    3.3000   -2.0360 C   0  0  0  0  0  0
   -2.3150    3.9740   -5.7160 H   0  0  0  0  0  0
   -2.6050    3.7840   -4.6830 C   0  0  0  0  0  0
   -3.7230    5.4190   -1.9140 H   0  0  0  0  0  0
   -3.3930    4.5950   -2.5460 C   0  0  0  0  0  0
   -3.0370    5.8520   -4.2610 H   0  0  0  0  0  0
   -3.0140    4.8360   -3.8670 C   0  0  0  0  0  0
   -0.6100    0.4290   -0.6510 H   0  0  0  0  0  0
   -0.5300    0.6970   -1.7040 N   0  0  0  0  0  0
    0.5100    1.4950   -2.1530 C   0  0  0  0  0  0
    0.5400    1.8230   -3.3380 O   0  0  0  0  0  0
    2.4220    2.3260   -1.7430 H   0  0  0  0  0  0
    1.1370    2.8190   -0.6150 H   0  0  0  0  0  0
    1.5500    1.9870   -1.1840 C   0  0  0  0  0  0
    1.9730    0.9070   -0.2300 C   0  0  0  0  0  0
    1.2010    0.3830    0.5640 O   0  5  0  0  0  0
    3.2720    0.5410   -0.2350 O   0  0  0  0  0  0
  1  2  1  0  0  0
  2  5  1  0  0  0
  3  5  1  0  0  0
  4  5  1  0  0  0
  5  7  1  0  0  0
  6  7  1  0  0  0
  7 10  1  0  0  0
  7 23  1  0  0  0
  8 10  1  0  0  0
  9 10  1  0  0  0
 10 11  1  0  0  0
 11 13  2  0  0  0
 11 15  1  0  0  0
 12 13  1  0  0  0
 13 17  1  0  0  0
 14 15  1  0  0  0
 15 19  2  0  0  0
 16 17  1  0  0  0
 17 21  2  0  0  0
 18 19  1  0  0  0
 19 21  1  0  0  0
 20 21  1  0  0  0
 22 23  1  0  0  0
 23 24  1  0  0  0
 24 25  2  0  0  0
 24 28  1  0  0  0
 26 28  1  0  0  0
 27 28  1  0  0  0
 28 29  1  0  0  0
 29 30  1  0  0  0
 29 31  2  0  0  0
M  CHG  1  30  -1
M  END
>  <ACTIVITY>
5.64

>  <SET>
2

>  <Min_dist>
0.18

>  <Avg_dist>
0.46

$$$$
s02p_fagnh2
  Cerius2 12110214373D 1   1.00000                          
Structure written by Cerius2 SD Exporter
 45 45  0  0  0  0  0  0  0  0999 V2000
   -1.7820    1.4230   -4.0900 H   0  0  0  0  0  0
   -1.7510    1.0760   -3.0570 C   0  0  0  0  0  0
   -2.2530   -0.6820   -2.0990 H   0  0  0  0  0  0
   -1.9050   -0.3860   -3.0890 N   0  0  0  0  0  0
   -3.8450    1.2290   -2.5760 H   0  0  0  0  0  0
   -2.7500    1.6980   -1.2530 H   0  0  0  0  0  0
   -2.9190    1.7490   -2.3290 C   0  0  0  0  0  0
   -0.4100    1.5040   -2.5250 C   0  0  0  0  0  0
    0.3820    2.0930   -3.2510 O   0  0  0  0  0  0
   -3.0310    3.1870   -2.7460 C   0  0  0  0  0  0
   -3.8540    3.8340   -0.8640 H   0  0  0  0  0  0
   -3.5390    4.1360   -1.8630 C   0  0  0  0  0  0
   -2.2540    2.8360   -4.7270 H   0  0  0  0  0  0
   -2.6390    3.5780   -4.0270 C   0  0  0  0  0  0
   -4.0480    6.2080   -1.5570 H   0  0  0  0  0  0
   -3.6460    5.4700   -2.2510 C   0  0  0  0  0  0
   -2.4260    5.2130   -5.4130 H   0  0  0  0  0  0
   -2.7390    4.9110   -4.4130 C   0  0  0  0  0  0
   -3.3100    6.9060   -3.8240 H   0  0  0  0  0  0
   -3.2380    5.8600   -3.5240 C   0  0  0  0  0  0
    5.1030   -0.2850    1.1920 H   0  0  0  0  0  0
    3.6660    0.0220    2.1970 H   0  0  0  0  0  0
    4.0190   -0.3870    1.2500 C   0  0  0  0  0  0
   -0.5780   -1.4130   -3.4670 P   0  0  0  0  0  0
    2.0130    1.5510   -1.8480 H   0  0  0  0  0  0
    1.4450    1.6310   -0.9210 C   0  0  0  0  0  0
   -0.6180    0.7980   -0.4770 H   0  0  0  0  0  0
    0.0310    1.2490   -1.2270 N   0  0  0  0  0  0
    2.5470    3.3350   -0.1890 H   0  0  0  0  0  0
    1.1180    3.7500   -1.1660 H   0  0  0  0  0  0
    0.9160    3.1640    0.5020 H   0  0  0  0  0  0
    1.5110    3.0740   -0.4060 C   0  0  0  0  0  0
    2.0570    0.7050    0.0910 C   0  0  0  0  0  0
    1.3090    0.2330    0.9270 O   0  0  0  0  0  0
    4.2820   -3.8000    0.4940 H   0  0  0  0  0  0
    5.4050   -2.3560    0.0270 H   0  0  0  0  0  0
    4.5150   -2.7350    0.5290 N   0  0  0  0  0  0
    4.0630    0.7640   -0.6560 H   0  0  0  0  0  0
    3.4160    0.4050    0.1440 N   0  0  0  0  0  0
   -1.0090   -2.6870   -4.1330 O   0  5  0  0  0  0
    0.3950   -1.7810   -1.6890 S   0  0  0  0  0  0
    2.6980   -2.3320    1.7940 O   0  0  0  0  0  0
    3.6770   -1.8630    1.2140 C   0  0  0  0  0  0
    0.4240   -0.6390   -4.5330 O   0  0  0  0  0  0
    1.1861   -2.3826   -1.8572 H   0  0  0  0  0  0
  1  2  1  0  0  0
  2  4  1  0  0  0
  2  7  1  0  0  0
  2  8  1  0  0  0
  3  4  1  0  0  0
  4 24  1  0  0  0
  5  7  1  0  0  0
  6  7  1  0  0  0
  7 10  1  0  0  0
  8  9  2  0  0  0
  8 28  1  0  0  0
 10 12  2  0  0  0
 10 14  1  0  0  0
 11 12  1  0  0  0
 12 16  1  0  0  0
 13 14  1  0  0  0
 14 18  2  0  0  0
 15 16  1  0  0  0
 16 20  2  0  0  0
 17 18  1  0  0  0
 18 20  1  0  0  0
 19 20  1  0  0  0
 21 23  1  0  0  0
 22 23  1  0  0  0
 23 39  1  0  0  0
 23 43  1  0  0  0
 24 40  1  0  0  0
 24 41  1  0  0  0
 24 44  2  0  0  0
 25 26  1  0  0  0
 26 28  1  0  0  0
 26 32  1  0  0  0
 26 33  1  0  0  0
 27 28  1  0  0  0
 29 32  1  0  0  0
 30 32  1  0  0  0
 31 32  1  0  0  0
 33 34  2  0  0  0
 33 39  1  0  0  0
 35 37  1  0  0  0
 36 37  1  0  0  0
 37 43  1  0  0  0
 38 39  1  0  0  0
 41 45  1  0  0  0
 42 43  2  0  0  0
M  CHG  1  40  -1
M  END
>  <ACTIVITY>
5.16

>  <SET>
2

>  <Min_dist>
0.06

>  <Avg_dist>
0.39

$$$$
s_thiorphan
  Cerius2 12110214373D 1   1.00000                          
Structure written by Cerius2 SD Exporter
 31 31  0  0  0  0  0  0  0  0999 V2000
   -0.1270   -2.9150   -3.4100 H   0  0  0  0  0  0
   -0.1290   -1.8560   -3.6660 S   0  0  0  0  0  0
   -2.4120   -1.4660   -3.0250 H   0  0  0  0  0  0
   -1.2860   -1.1400   -1.6850 H   0  0  0  0  0  0
   -1.4570   -1.0140   -2.7540 C   0  0  0  0  0  0
   -1.5100    0.6060   -4.1580 H   0  0  0  0  0  0
   -1.5100    0.4890   -3.0740 C   0  0  0  0  0  0
   -3.6510    0.5500   -2.8420 H   0  0  0  0  0  0
   -2.7390    1.0360   -1.3920 H   0  0  0  0  0  0
   -2.7850    1.1050   -2.4790 C   0  0  0  0  0  0
   -2.9270    2.5460   -2.8720 C   0  0  0  0  0  0
   -2.2560    2.2370   -4.8990 H   0  0  0  0  0  0
   -2.6000    2.9630   -4.1620 C   0  0  0  0  0  0
   -3.6480    3.1450   -0.9320 H   0  0  0  0  0  0
   -3.3840    3.4720   -1.9380 C   0  0  0  0  0  0
   -2.4500    4.6330   -5.5170 H   0  0  0  0  0  0
   -2.7130    4.3060   -4.5100 C   0  0  0  0  0  0
   -3.8670    5.5390   -1.5550 H   0  0  0  0  0  0
   -3.5050    4.8160   -2.2860 C   0  0  0  0  0  0
   -3.2440    6.2850   -3.8410 H   0  0  0  0  0  0
   -3.1610    5.2320   -3.5710 C   0  0  0  0  0  0
   -0.3180    1.1950   -2.5010 C   0  0  0  0  0  0
    0.4730    1.8720   -3.1650 O   0  0  0  0  0  0
   -0.9450    0.5700   -0.5430 H   0  0  0  0  0  0
   -0.1850    1.1000   -1.1170 N   0  0  0  0  0  0
    1.4990    2.3570   -1.0990 H   0  0  0  0  0  0
    0.5980    2.2810    0.4340 H   0  0  0  0  0  0
    0.9630    1.7010   -0.4130 C   0  0  0  0  0  0
    1.9010    0.6390    0.0850 C   0  0  0  0  0  0
    1.5850   -0.2450    0.8750 O   0  5  0  0  0  0
    3.1710    0.6950   -0.3690 O   0  0  0  0  0  0
  1  2  1  0  0  0
  2  5  1  0  0  0
  3  5  1  0  0  0
  4  5  1  0  0  0
  5  7  1  0  0  0
  6  7  1  0  0  0
  7 10  1  0  0  0
  7 22  1  0  0  0
  8 10  1  0  0  0
  9 10  1  0  0  0
 10 11  1  0  0  0
 11 13  2  0  0  0
 11 15  1  0  0  0
 12 13  1  0  0  0
 13 17  1  0  0  0
 14 15  1  0  0  0
 15 19  2  0  0  0
 16 17  1  0  0  0
 17 21  2  0  0  0
 18 19  1  0  0  0
 19 21  1  0  0  0
 20 21  1  0  0  0
 22 23  2  0  0  0
 22 25  1  0  0  0
 24 25  1  0  0  0
 25 28  1  0  0  0
 26 28  1  0  0  0
 27 28  1  0  0  0
 28 29  1  0  0  0
 29 30  1  0  0  0
 29 31  2  0  0  0
M  CHG  1  30  -1
M  END
>  <ACTIVITY>
5.74

>  <SET>
2

>  <Min_dist>
0.12

>  <Avg_dist>
0.41

$$$$
so3_fagnh2
  Cerius2 12110214373D 1   1.00000                          
Structure written by Cerius2 SD Exporter
 45 45  0  0  0  0  0  0  0  0999 V2000
   -1.7560    1.0760   -3.9520 H   0  0  0  0  0  0
   -1.7330    0.8500   -2.8860 C   0  0  0  0  0  0
   -1.8630   -0.8460   -1.6840 H   0  0  0  0  0  0
   -1.8510   -0.6240   -2.7510 N   0  0  0  0  0  0
   -3.8430    1.0320   -2.4970 H   0  0  0  0  0  0
   -2.8000    1.5510   -1.1510 H   0  0  0  0  0  0
   -2.9260    1.5580   -2.2340 C   0  0  0  0  0  0
   -0.4090    1.3820   -2.3860 C   0  0  0  0  0  0
    0.3780    2.0170   -3.1000 O   0  0  0  0  0  0
   -3.0150    2.9780   -2.7120 C   0  0  0  0  0  0
   -3.8020    3.7160   -0.8480 H   0  0  0  0  0  0
   -3.4930    3.9730   -1.8610 C   0  0  0  0  0  0
   -2.2690    2.5370   -4.6850 H   0  0  0  0  0  0
   -2.6310    3.3120   -4.0100 C   0  0  0  0  0  0
   -3.9590    6.0650   -1.6290 H   0  0  0  0  0  0
   -3.5790    5.2920   -2.2980 C   0  0  0  0  0  0
   -2.3980    4.8900   -5.4620 H   0  0  0  0  0  0
   -2.7070    4.6330   -4.4480 C   0  0  0  0  0  0
   -3.2330    6.6590   -3.9300 H   0  0  0  0  0  0
   -3.1780    5.6250   -3.5900 C   0  0  0  0  0  0
    5.1710   -0.4550    1.0170 H   0  0  0  0  0  0
    3.8990   -0.2040    2.2370 H   0  0  0  0  0  0
    4.1100   -0.5790    1.2360 C   0  0  0  0  0  0
   -0.6640   -1.6150   -3.4510 S   0  0  0  0  0  0
    1.9320    1.6860   -1.4800 H   0  0  0  0  0  0
    1.3180    1.4810   -0.6030 C   0  0  0  0  0  0
   -0.7500    0.6460   -0.3880 H   0  0  0  0  0  0
   -0.0430    1.1170   -1.0710 N   0  0  0  0  0  0
    2.2490    2.9880    0.6250 H   0  0  0  0  0  0
    0.8290    3.5550   -0.2850 H   0  0  0  0  0  0
    0.6120    2.5220    1.1470 H   0  0  0  0  0  0
    1.2470    2.7260    0.2850 C   0  0  0  0  0  0
    1.9550    0.3530    0.1630 C   0  0  0  0  0  0
    1.2530   -0.4540    0.7510 O   0  0  0  0  0  0
    2.9470   -2.5760    1.9470 O   0  0  0  0  0  0
    3.9300    0.8770   -0.4250 H   0  0  0  0  0  0
    3.3460    0.2690    0.2660 N   0  0  0  0  0  0
    0.1310   -0.8260   -4.3210 O   0  0  0  0  0  0
   -1.2660   -2.6810   -4.1770 O   0  0  0  0  0  0
    4.3840   -3.9870    0.4410 H   0  0  0  0  0  0
    5.4040   -2.5120   -0.1490 H   0  0  0  0  0  0
    4.5900   -2.9170    0.4510 N   0  0  0  0  0  0
    3.8120   -2.0660    1.2310 C   0  0  0  0  0  0
    1.0480   -2.8570   -2.7230 H   0  0  0  0  0  0
    0.2830   -2.2190   -2.2790 O   0  0  0  0  0  0
  1  2  1  0  0  0
  2  4  1  0  0  0
  2  7  1  0  0  0
  2  8  1  0  0  0
  3  4  1  0  0  0
  4 24  1  0  0  0
  5  7  1  0  0  0
  6  7  1  0  0  0
  7 10  1  0  0  0
  8  9  2  0  0  0
  8 28  1  0  0  0
 10 12  2  0  0  0
 10 14  1  0  0  0
 11 12  1  0  0  0
 12 16  1  0  0  0
 13 14  1  0  0  0
 14 18  2  0  0  0
 15 16  1  0  0  0
 16 20  2  0  0  0
 17 18  1  0  0  0
 18 20  1  0  0  0
 19 20  1  0  0  0
 21 23  1  0  0  0
 22 23  1  0  0  0
 23 37  1  0  0  0
 23 43  1  0  0  0
 24 38  2  0  0  0
 24 39  2  0  0  0
 24 45  1  0  0  0
 25 26  1  0  0  0
 26 28  1  0  0  0
 26 32  1  0  0  0
 26 33  1  0  0  0
 27 28  1  0  0  0
 29 32  1  0  0  0
 30 32  1  0  0  0
 31 32  1  0  0  0
 33 34  2  0  0  0
 33 37  1  0  0  0
 35 43  2  0  0  0
 36 37  1  0  0  0
 40 42  1  0  0  0
 41 42  1  0  0  0
 42 43  1  0  0  0
 44 45  1  0  0  0
M  END
>  <ACTIVITY>
2.37

>  <SET>
2

>  <Min_dist>
0.2

>  <Avg_dist>
0.45

$$$$
z_d_apola
  Cerius2 12110214373D 1   1.00000                          
Structure written by Cerius2 SD Exporter
 57 57  0  0  0  0  0  0  0  0999 V2000
    0.2950   -4.7670   -0.9900 C   0  0  0  0  0  0
    1.5170   -4.6620   -0.8360 O   0  0  0  0  0  0
   -0.4340   -5.7510   -0.4120 O   0  0  0  0  0  0
    1.2520   -6.7660    0.2020 H   0  0  0  0  0  0
    0.2170   -6.1380    1.5060 H   0  0  0  0  0  0
    0.2220   -6.6020    0.5200 C   0  0  0  0  0  0
   -0.4980   -7.9090    0.5780 C   0  0  0  0  0  0
   -1.8030   -7.3160    2.1890 H   0  0  0  0  0  0
   -1.5240   -8.1120    1.4990 C   0  0  0  0  0  0
    0.6490   -8.7560   -1.0370 H   0  0  0  0  0  0
   -0.1480   -8.9200   -0.3120 C   0  0  0  0  0  0
   -2.9900   -9.4950    2.2580 H   0  0  0  0  0  0
   -2.1910   -9.3330    1.5350 C   0  0  0  0  0  0
   -0.5390  -10.9350   -0.9680 H   0  0  0  0  0  0
   -0.8160  -10.1410   -0.2740 C   0  0  0  0  0  0
   -2.3600  -11.3040    0.6780 H   0  0  0  0  0  0
   -1.8370  -10.3480    0.6490 C   0  0  0  0  0  0
   -1.5090   -4.1390   -2.0190 H   0  0  0  0  0  0
   -0.4860   -3.8870   -1.7410 N   0  0  0  0  0  0
    1.0740   -2.8480   -2.6080 H   0  0  0  0  0  0
    0.1170   -2.6080   -2.1430 C   0  0  0  0  0  0
   -0.8180   -1.6990   -3.4150 P   0  0  0  0  0  0
    0.1130   -0.9620   -4.2970 O   0  5  0  0  0  0
   -1.6020   -2.7950   -4.3660 O   0  0  0  0  0  0
    0.7600   -0.7880   -1.1950 H   0  0  0  0  0  0
   -0.6530   -1.5570   -0.4320 H   0  0  0  0  0  0
    0.9700   -2.2500   -0.2020 H   0  0  0  0  0  0
    0.3130   -1.7390   -0.9050 C   0  0  0  0  0  0
   -1.8470   -0.6410   -2.6440 O   0  0  0  0  0  0
   -1.7040    0.8010   -4.0480 H   0  0  0  0  0  0
   -1.7570    0.7640   -2.9600 C   0  0  0  0  0  0
   -0.5060    1.4190   -2.4170 C   0  0  0  0  0  0
    0.3300    2.0100   -3.1120 O   0  0  0  0  0  0
   -3.8900    1.0730   -2.9040 H   0  0  0  0  0  0
   -3.0390    1.5550   -1.4170 H   0  0  0  0  0  0
   -2.9940    1.5490   -2.5060 C   0  0  0  0  0  0
   -1.9130    3.3680   -2.7990 H   0  0  0  0  0  0
   -2.9120    2.9930   -3.0210 C   0  0  0  0  0  0
   -3.0500    4.0870   -4.8790 H   0  0  0  0  0  0
   -2.3390    2.4630   -5.0360 H   0  0  0  0  0  0
   -4.0930    2.6480   -4.7970 H   0  0  0  0  0  0
   -3.1130    3.0520   -4.5440 C   0  0  0  0  0  0
   -3.8450    4.9030   -2.6920 H   0  0  0  0  0  0
   -4.9310    3.5080   -2.4860 H   0  0  0  0  0  0
   -3.7190    3.8850   -1.2380 H   0  0  0  0  0  0
   -3.9240    3.8860   -2.3080 C   0  0  0  0  0  0
   -1.1020    0.8370   -0.4380 H   0  0  0  0  0  0
   -0.3610    1.3790   -1.0250 N   0  0  0  0  0  0
    1.2360    2.7100   -1.0310 H   0  0  0  0  0  0
    0.7520    2.0380   -0.3220 C   0  0  0  0  0  0
    1.7940    1.0470    0.1380 C   0  0  0  0  0  0
    1.6610    0.2850    1.0920 O   0  5  0  0  0  0
    1.0650    3.3430    1.3690 H   0  0  0  0  0  0
   -0.4600    3.6250    0.4960 H   0  0  0  0  0  0
   -0.2920    2.2080    1.5590 H   0  0  0  0  0  0
    0.2280    2.8630    0.8610 C   0  0  0  0  0  0
    2.9400    1.0130   -0.5710 O   0  0  0  0  0  0
  1  2  2  0  0  0
  1  3  1  0  0  0
  1 19  1  0  0  0
  3  6  1  0  0  0
  4  6  1  0  0  0
  5  6  1  0  0  0
  6  7  1  0  0  0
  7  9  2  0  0  0
  7 11  1  0  0  0
  8  9  1  0  0  0
  9 13  1  0  0  0
 10 11  1  0  0  0
 11 15  2  0  0  0
 12 13  1  0  0  0
 13 17  2  0  0  0
 14 15  1  0  0  0
 15 17  1  0  0  0
 16 17  1  0  0  0
 18 19  1  0  0  0
 19 21  1  0  0  0
 20 21  1  0  0  0
 21 22  1  0  0  0
 21 28  1  0  0  0
 22 23  1  0  0  0
 22 24  2  0  0  0
 22 29  1  0  0  0
 25 28  1  0  0  0
 26 28  1  0  0  0
 27 28  1  0  0  0
 29 31  1  0  0  0
 30 31  1  0  0  0
 31 32  1  0  0  0
 31 36  1  0  0  0
 32 33  2  0  0  0
 32 48  1  0  0  0
 34 36  1  0  0  0
 35 36  1  0  0  0
 36 38  1  0  0  0
 37 38  1  0  0  0
 38 42  1  0  0  0
 38 46  1  0  0  0
 39 42  1  0  0  0
 40 42  1  0  0  0
 41 42  1  0  0  0
 43 46  1  0  0  0
 44 46  1  0  0  0
 45 46  1  0  0  0
 47 48  1  0  0  0
 48 50  1  0  0  0
 49 50  1  0  0  0
 50 51  1  0  0  0
 50 56  1  0  0  0
 51 52  1  0  0  0
 51 57  2  0  0  0
 53 56  1  0  0  0
 54 56  1  0  0  0
 55 56  1  0  0  0
M  CHG  2  23  -1  52  -1
M  END
>  <ACTIVITY>
4.62

>  <SET>
1

>  <Min_dist>
999.9

>  <Avg_dist>
999.9

$$$$
z_d_fpla
  Cerius2 12110214373D 1   1.00000                          
Structure written by Cerius2 SD Exporter
 68 69  0  0  0  0  0  0  0  0999 V2000
   -1.1280   -5.2070   -3.5730 C   0  0  0  0  0  0
   -2.3620   -5.2020   -3.4210 O   0  0  0  0  0  0
   -0.5200   -6.2280   -4.2240 O   0  0  0  0  0  0
   -1.9870   -7.6510   -3.9840 H   0  0  0  0  0  0
   -1.9220   -6.8750   -5.5840 H   0  0  0  0  0  0
   -1.3250   -7.2680   -4.7610 C   0  0  0  0  0  0
   -0.4550   -8.3780   -5.2640 C   0  0  0  0  0  0
   -0.7450   -7.8840   -7.3420 H   0  0  0  0  0  0
   -0.2580   -8.5530   -6.6320 C   0  0  0  0  0  0
    0.0250   -9.0960   -3.2890 H   0  0  0  0  0  0
    0.1730   -9.2340   -4.3600 C   0  0  0  0  0  0
    0.7110   -9.7170   -8.1650 H   0  0  0  0  0  0
    0.5590   -9.5820   -7.0940 C   0  0  0  0  0  0
    1.4770  -10.9330   -4.1120 H   0  0  0  0  0  0
    0.9900  -10.2640   -4.8210 C   0  0  0  0  0  0
    1.8220  -11.2440   -6.5530 H   0  0  0  0  0  0
    1.1830  -10.4390   -6.1900 C   0  0  0  0  0  0
    0.8390   -4.4250   -3.4100 H   0  0  0  0  0  0
   -0.2040   -4.2310   -3.1600 N   0  0  0  0  0  0
    0.4640   -2.6310   -1.9850 H   0  0  0  0  0  0
   -0.4730   -2.9690   -2.4260 C   0  0  0  0  0  0
   -1.0400   -1.6810   -3.5770 P   0  0  0  0  0  0
    0.1050   -1.0330   -4.2430 O   0  5  0  0  0  0
   -1.8410   -2.4160   -4.7790 O   0  0  0  0  0  0
   -1.7230   -2.1920   -0.8620 H   0  0  0  0  0  0
   -2.3010   -3.7150   -1.5800 H   0  0  0  0  0  0
   -1.4210   -3.1680   -1.2430 C   0  0  0  0  0  0
   -0.7590   -3.9390   -0.1400 C   0  0  0  0  0  0
    0.2290   -2.2010    0.6630 H   0  0  0  0  0  0
    0.0680   -3.2750    0.7630 C   0  0  0  0  0  0
   -1.6020   -5.8380   -0.7160 H   0  0  0  0  0  0
   -0.9580   -5.3140   -0.0100 C   0  0  0  0  0  0
    1.3360   -3.4520    2.4980 H   0  0  0  0  0  0
    0.6910   -3.9760    1.7930 C   0  0  0  0  0  0
   -0.4960   -7.0920    1.1170 H   0  0  0  0  0  0
   -0.3370   -6.0190    1.0190 C   0  0  0  0  0  0
    0.9730   -5.9000    2.7270 H   0  0  0  0  0  0
    0.4880   -5.3490    1.9210 C   0  0  0  0  0  0
   -3.0680   -0.7890   -2.9740 H   0  0  0  0  0  0
   -2.0300   -0.5360   -2.7560 N   0  0  0  0  0  0
   -1.8100    0.9800   -4.1670 H   0  0  0  0  0  0
   -1.8490    0.9000   -3.0800 C   0  0  0  0  0  0
   -0.5600    1.4300   -2.5120 C   0  0  0  0  0  0
    0.2970    2.0300   -3.1710 O   0  0  0  0  0  0
   -3.9580    1.3320   -2.9650 H   0  0  0  0  0  0
   -3.0490    1.7050   -1.4810 H   0  0  0  0  0  0
   -3.0270    1.7400   -2.5700 C   0  0  0  0  0  0
   -1.8710    3.5280   -2.7740 H   0  0  0  0  0  0
   -2.8790    3.1990   -3.0280 C   0  0  0  0  0  0
   -2.9360    4.3640   -4.8440 H   0  0  0  0  0  0
   -2.2850    2.7200   -5.0470 H   0  0  0  0  0  0
   -4.0360    2.9640   -4.8350 H   0  0  0  0  0  0
   -3.0460    3.3200   -4.5490 C   0  0  0  0  0  0
   -3.7460    5.1320   -2.6380 H   0  0  0  0  0  0
   -4.8880    3.7730   -2.5060 H   0  0  0  0  0  0
   -3.6870    4.0530   -1.2230 H   0  0  0  0  0  0
   -3.8710    4.1040   -2.2960 C   0  0  0  0  0  0
   -1.1350    0.7040   -0.5690 H   0  0  0  0  0  0
   -0.3880    1.2540   -1.1430 N   0  0  0  0  0  0
    1.3260    2.4400   -1.1730 H   0  0  0  0  0  0
    0.7980    1.8050   -0.4620 C   0  0  0  0  0  0
    1.7460    0.7170   -0.0430 C   0  0  0  0  0  0
    1.4620   -0.2020    0.7180 O   0  5  0  0  0  0
    1.2720    3.0630    1.2230 H   0  0  0  0  0  0
   -0.2410    3.4910    0.3890 H   0  0  0  0  0  0
   -0.1800    2.0580    1.4430 H   0  0  0  0  0  0
    0.3820    2.6660    0.7340 C   0  0  0  0  0  0
    2.9980    0.7950   -0.5410 O   0  0  0  0  0  0
  1  2  2  0  0  0
  1  3  1  0  0  0
  1 19  1  0  0  0
  3  6  1  0  0  0
  4  6  1  0  0  0
  5  6  1  0  0  0
  6  7  1  0  0  0
  7  9  2  0  0  0
  7 11  1  0  0  0
  8  9  1  0  0  0
  9 13  1  0  0  0
 10 11  1  0  0  0
 11 15  2  0  0  0
 12 13  1  0  0  0
 13 17  2  0  0  0
 14 15  1  0  0  0
 15 17  1  0  0  0
 16 17  1  0  0  0
 18 19  1  0  0  0
 19 21  1  0  0  0
 20 21  1  0  0  0
 21 22  1  0  0  0
 21 27  1  0  0  0
 22 23  1  0  0  0
 22 24  2  0  0  0
 22 40  1  0  0  0
 25 27  1  0  0  0
 26 27  1  0  0  0
 27 28  1  0  0  0
 28 30  2  0  0  0
 28 32  1  0  0  0
 29 30  1  0  0  0
 30 34  1  0  0  0
 31 32  1  0  0  0
 32 36  2  0  0  0
 33 34  1  0  0  0
 34 38  2  0  0  0
 35 36  1  0  0  0
 36 38  1  0  0  0
 37 38  1  0  0  0
 39 40  1  0  0  0
 40 42  1  0  0  0
 41 42  1  0  0  0
 42 43  1  0  0  0
 42 47  1  0  0  0
 43 44  2  0  0  0
 43 59  1  0  0  0
 45 47  1  0  0  0
 46 47  1  0  0  0
 47 49  1  0  0  0
 48 49  1  0  0  0
 49 53  1  0  0  0
 49 57  1  0  0  0
 50 53  1  0  0  0
 51 53  1  0  0  0
 52 53  1  0  0  0
 54 57  1  0  0  0
 55 57  1  0  0  0
 56 57  1  0  0  0
 58 59  1  0  0  0
 59 61  1  0  0  0
 60 61  1  0  0  0
 61 62  1  0  0  0
 61 67  1  0  0  0
 62 63  1  0  0  0
 62 68  2  0  0  0
 64 67  1  0  0  0
 65 67  1  0  0  0
 66 67  1  0  0  0
M  CHG  2  23  -1  63  -1
M  END
>  <ACTIVITY>
6.32

>  <SET>
1

>  <Min_dist>
999.9

>  <Avg_dist>
999.9

$$$$
z_d_fpola
  Cerius2 12110214373D 1   1.00000                          
Structure written by Cerius2 SD Exporter
 67 68  0  0  0  0  0  0  0  0999 V2000
   -1.1250   -5.2160   -3.5910 C   0  0  0  0  0  0
   -2.3570   -5.2020   -3.4270 O   0  0  0  0  0  0
   -0.5270   -6.2380   -4.2470 O   0  0  0  0  0  0
   -1.9780   -7.6710   -3.9720 H   0  0  0  0  0  0
   -1.9510   -6.9010   -5.5760 H   0  0  0  0  0  0
   -1.3350   -7.2860   -4.7640 C   0  0  0  0  0  0
   -0.4660   -8.3910   -5.2800 C   0  0  0  0  0  0
   -0.7760   -7.8860   -7.3520 H   0  0  0  0  0  0
   -0.2800   -8.5570   -6.6510 C   0  0  0  0  0  0
    0.0350   -9.1200   -3.3150 H   0  0  0  0  0  0
    0.1740   -9.2500   -4.3880 C   0  0  0  0  0  0
    0.6810   -9.7060   -8.2000 H   0  0  0  0  0  0
    0.5380   -9.5790   -7.1270 C   0  0  0  0  0  0
    1.4870  -10.9450   -4.1620 H   0  0  0  0  0  0
    0.9910  -10.2730   -4.8630 C   0  0  0  0  0  0
    1.8140  -11.2380   -6.6080 H   0  0  0  0  0  0
    1.1740  -10.4380   -6.2340 C   0  0  0  0  0  0
    0.8480   -4.4480   -3.4650 H   0  0  0  0  0  0
   -0.1870   -4.2490   -3.1890 N   0  0  0  0  0  0
    0.5310   -2.6830   -2.0150 H   0  0  0  0  0  0
   -0.4250   -2.9930   -2.4370 C   0  0  0  0  0  0
   -1.0030   -1.6790   -3.5480 P   0  0  0  0  0  0
    0.1200   -1.0390   -4.2490 O   0  5  0  0  0  0
   -1.8440   -2.3860   -4.7490 O   0  0  0  0  0  0
   -1.6850   -2.2130   -0.8800 H   0  0  0  0  0  0
   -2.2410   -3.7540   -1.5750 H   0  0  0  0  0  0
   -1.3680   -3.1890   -1.2480 C   0  0  0  0  0  0
   -0.6890   -3.9340   -0.1400 C   0  0  0  0  0  0
   -1.6580   -5.8120   -0.5660 H   0  0  0  0  0  0
   -0.9500   -5.2860    0.0760 C   0  0  0  0  0  0
    0.4280   -2.2100    0.5100 H   0  0  0  0  0  0
    0.2190   -3.2670    0.6790 C   0  0  0  0  0  0
   -0.5180   -7.0240    1.2760 H   0  0  0  0  0  0
   -0.3110   -5.9670    1.1090 C   0  0  0  0  0  0
    1.5700   -3.4200    2.3520 H   0  0  0  0  0  0
    0.8610   -3.9450    1.7130 C   0  0  0  0  0  0
    1.0970   -5.8280    2.7370 H   0  0  0  0  0  0
    0.5960   -5.2960    1.9280 C   0  0  0  0  0  0
   -1.8900   -0.5790   -2.6770 O   0  0  0  0  0  0
   -1.7500    0.8490   -4.1310 H   0  0  0  0  0  0
   -1.7810    0.8020   -3.0430 C   0  0  0  0  0  0
   -0.5170    1.4010   -2.4860 C   0  0  0  0  0  0
    0.3220    2.0140   -3.1540 O   0  0  0  0  0  0
   -3.9050    1.1440   -2.9270 H   0  0  0  0  0  0
   -3.0040    1.6130   -1.4650 H   0  0  0  0  0  0
   -2.9910    1.6070   -2.5550 C   0  0  0  0  0  0
   -1.9050    3.4240   -2.8680 H   0  0  0  0  0  0
   -2.9100    3.0520   -3.0690 C   0  0  0  0  0  0
   -3.0760    4.1460   -4.9220 H   0  0  0  0  0  0
   -2.3780    2.5170   -5.0910 H   0  0  0  0  0  0
   -4.1260    2.7120   -4.8200 H   0  0  0  0  0  0
   -3.1390    3.1110   -4.5850 C   0  0  0  0  0  0
   -3.8260    4.9690   -2.7130 H   0  0  0  0  0  0
   -4.9160    3.5790   -2.4880 H   0  0  0  0  0  0
   -3.6760    3.9450   -1.2640 H   0  0  0  0  0  0
   -3.9030    3.9510   -2.3300 C   0  0  0  0  0  0
   -1.0970    0.7090   -0.5340 H   0  0  0  0  0  0
   -0.3510    1.2530   -1.1130 N   0  0  0  0  0  0
    1.3470    2.4670   -1.1440 H   0  0  0  0  0  0
    0.8250    1.8240   -0.4340 C   0  0  0  0  0  0
    1.7810    0.7460   -0.0090 C   0  0  0  0  0  0
    1.5040   -0.1630    0.7680 O   0  5  0  0  0  0
    1.2790    3.0970    1.2460 H   0  0  0  0  0  0
   -0.2400    3.4980    0.4100 H   0  0  0  0  0  0
   -0.1570    2.0700    1.4690 H   0  0  0  0  0  0
    0.3960    2.6850    0.7590 C   0  0  0  0  0  0
    3.0270    0.8160   -0.5220 O   0  0  0  0  0  0
  1  2  2  0  0  0
  1  3  1  0  0  0
  1 19  1  0  0  0
  3  6  1  0  0  0
  4  6  1  0  0  0
  5  6  1  0  0  0
  6  7  1  0  0  0
  7  9  2  0  0  0
  7 11  1  0  0  0
  8  9  1  0  0  0
  9 13  1  0  0  0
 10 11  1  0  0  0
 11 15  2  0  0  0
 12 13  1  0  0  0
 13 17  2  0  0  0
 14 15  1  0  0  0
 15 17  1  0  0  0
 16 17  1  0  0  0
 18 19  1  0  0  0
 19 21  1  0  0  0
 20 21  1  0  0  0
 21 22  1  0  0  0
 21 27  1  0  0  0
 22 23  1  0  0  0
 22 24  2  0  0  0
 22 39  1  0  0  0
 25 27  1  0  0  0
 26 27  1  0  0  0
 27 28  1  0  0  0
 28 30  2  0  0  0
 28 32  1  0  0  0
 29 30  1  0  0  0
 30 34  1  0  0  0
 31 32  1  0  0  0
 32 36  2  0  0  0
 33 34  1  0  0  0
 34 38  2  0  0  0
 35 36  1  0  0  0
 36 38  1  0  0  0
 37 38  1  0  0  0
 39 41  1  0  0  0
 40 41  1  0  0  0
 41 42  1  0  0  0
 41 46  1  0  0  0
 42 43  2  0  0  0
 42 58  1  0  0  0
 44 46  1  0  0  0
 45 46  1  0  0  0
 46 48  1  0  0  0
 47 48  1  0  0  0
 48 52  1  0  0  0
 48 56  1  0  0  0
 49 52  1  0  0  0
 50 52  1  0  0  0
 51 52  1  0  0  0
 53 56  1  0  0  0
 54 56  1  0  0  0
 55 56  1  0  0  0
 57 58  1  0  0  0
 58 60  1  0  0  0
 59 60  1  0  0  0
 60 61  1  0  0  0
 60 66  1  0  0  0
 61 62  1  0  0  0
 61 67  2  0  0  0
 63 66  1  0  0  0
 64 66  1  0  0  0
 65 66  1  0  0  0
M  CHG  2  23  -1  62  -1
M  END
>  <ACTIVITY>
4.52

>  <SET>
1

>  <Min_dist>
999.9

>  <Avg_dist>
999.9

$$$$
z_d_lpola
  Cerius2 12110214373D 1   1.00000                          
Structure written by Cerius2 SD Exporter
 66 66  0  0  0  0  0  0  0  0999 V2000
   -1.1520   -5.2340   -3.6470 C   0  0  0  0  0  0
   -2.3820   -5.2330   -3.4640 O   0  0  0  0  0  0
   -0.5560   -6.2390   -4.3320 O   0  0  0  0  0  0
   -2.0210   -7.6600   -4.0720 H   0  0  0  0  0  0
   -1.9480   -6.9180   -5.6880 H   0  0  0  0  0  0
   -1.3560   -7.2910   -4.8520 C   0  0  0  0  0  0
   -0.4750   -8.4070   -5.3250 C   0  0  0  0  0  0
   -0.7410   -7.9510   -7.4150 H   0  0  0  0  0  0
   -0.2600   -8.6040   -6.6870 C   0  0  0  0  0  0
   -0.0180   -9.0870   -3.3320 H   0  0  0  0  0  0
    0.1460   -9.2420   -4.3980 C   0  0  0  0  0  0
    0.7370   -9.7880   -8.1870 H   0  0  0  0  0  0
    0.5700   -9.6350   -7.1200 C   0  0  0  0  0  0
    1.4570  -10.9290   -4.1030 H   0  0  0  0  0  0
    0.9750  -10.2750   -4.8310 C   0  0  0  0  0  0
    1.8360  -11.2790   -6.5340 H   0  0  0  0  0  0
    1.1880  -10.4720   -6.1940 C   0  0  0  0  0  0
    0.8200   -4.4600   -3.5310 H   0  0  0  0  0  0
   -0.2120   -4.2720   -3.2350 N   0  0  0  0  0  0
    0.5110   -2.7530   -2.0060 H   0  0  0  0  0  0
   -0.4440   -3.0330   -2.4490 C   0  0  0  0  0  0
   -1.0080   -1.6960   -3.5440 P   0  0  0  0  0  0
    0.1180   -1.0590   -4.2410 O   0  5  0  0  0  0
   -1.8510   -2.3790   -4.7570 O   0  0  0  0  0  0
   -1.7960   -2.2610   -0.9700 H   0  0  0  0  0  0
   -2.2260   -3.8720   -1.5920 H   0  0  0  0  0  0
   -1.4040   -3.2340   -1.2660 C   0  0  0  0  0  0
    0.2590   -3.4550    0.0570 H   0  0  0  0  0  0
   -0.7380   -3.8850   -0.0420 C   0  0  0  0  0  0
   -1.0860   -4.0550    2.0800 H   0  0  0  0  0  0
   -1.6220   -2.5140    1.3680 H   0  0  0  0  0  0
   -2.5670   -3.9970    1.0940 H   0  0  0  0  0  0
   -1.5630   -3.5910    1.2160 C   0  0  0  0  0  0
   -0.1040   -5.8190    0.6760 H   0  0  0  0  0  0
   -1.5600   -5.8570   -0.3470 H   0  0  0  0  0  0
    0.0410   -5.6070   -1.0850 H   0  0  0  0  0  0
   -0.5790   -5.4020   -0.2120 C   0  0  0  0  0  0
   -1.8870   -0.5960   -2.6650 O   0  0  0  0  0  0
   -1.7490    0.8310   -4.1190 H   0  0  0  0  0  0
   -1.7750    0.7850   -3.0300 C   0  0  0  0  0  0
   -0.5070    1.3830   -2.4820 C   0  0  0  0  0  0
    0.3270    2.0010   -3.1530 O   0  0  0  0  0  0
   -3.8980    1.1250   -2.8950 H   0  0  0  0  0  0
   -2.9820    1.6100   -1.4480 H   0  0  0  0  0  0
   -2.9810    1.5930   -2.5370 C   0  0  0  0  0  0
   -1.9030    3.4090   -2.8780 H   0  0  0  0  0  0
   -2.9080    3.0330   -3.0670 C   0  0  0  0  0  0
   -3.0940    4.1070   -4.9300 H   0  0  0  0  0  0
   -2.3930    2.4780   -5.0880 H   0  0  0  0  0  0
   -4.1390    2.6720   -4.8020 H   0  0  0  0  0  0
   -3.1510    3.0750   -4.5820 C   0  0  0  0  0  0
   -3.8270    4.9500   -2.7230 H   0  0  0  0  0  0
   -4.9110    3.5600   -2.4760 H   0  0  0  0  0  0
   -3.6630    3.9410   -1.2660 H   0  0  0  0  0  0
   -3.8980    3.9360   -2.3300 C   0  0  0  0  0  0
   -1.0770    0.6920   -0.5260 H   0  0  0  0  0  0
   -0.3290    1.2290   -1.1100 N   0  0  0  0  0  0
    1.3920    2.4080   -1.1580 H   0  0  0  0  0  0
    0.8590    1.7850   -0.4400 C   0  0  0  0  0  0
    1.7960    0.6940   -0.0020 C   0  0  0  0  0  0
    1.4910   -0.2240    0.7530 O   0  5  0  0  0  0
    1.3410    3.0670    1.2260 H   0  0  0  0  0  0
   -0.1720    3.4880    0.3880 H   0  0  0  0  0  0
   -0.1150    2.0700    1.4620 H   0  0  0  0  0  0
    0.4490    2.6660    0.7440 C   0  0  0  0  0  0
    3.0570    0.7670   -0.4750 O   0  0  0  0  0  0
  1  2  2  0  0  0
  1  3  1  0  0  0
  1 19  1  0  0  0
  3  6  1  0  0  0
  4  6  1  0  0  0
  5  6  1  0  0  0
  6  7  1  0  0  0
  7  9  2  0  0  0
  7 11  1  0  0  0
  8  9  1  0  0  0
  9 13  1  0  0  0
 10 11  1  0  0  0
 11 15  2  0  0  0
 12 13  1  0  0  0
 13 17  2  0  0  0
 14 15  1  0  0  0
 15 17  1  0  0  0
 16 17  1  0  0  0
 18 19  1  0  0  0
 19 21  1  0  0  0
 20 21  1  0  0  0
 21 22  1  0  0  0
 21 27  1  0  0  0
 22 23  1  0  0  0
 22 24  2  0  0  0
 22 38  1  0  0  0
 25 27  1  0  0  0
 26 27  1  0  0  0
 27 29  1  0  0  0
 28 29  1  0  0  0
 29 33  1  0  0  0
 29 37  1  0  0  0
 30 33  1  0  0  0
 31 33  1  0  0  0
 32 33  1  0  0  0
 34 37  1  0  0  0
 35 37  1  0  0  0
 36 37  1  0  0  0
 38 40  1  0  0  0
 39 40  1  0  0  0
 40 41  1  0  0  0
 40 45  1  0  0  0
 41 42  2  0  0  0
 41 57  1  0  0  0
 43 45  1  0  0  0
 44 45  1  0  0  0
 45 47  1  0  0  0
 46 47  1  0  0  0
 47 51  1  0  0  0
 47 55  1  0  0  0
 48 51  1  0  0  0
 49 51  1  0  0  0
 50 51  1  0  0  0
 52 55  1  0  0  0
 53 55  1  0  0  0
 54 55  1  0  0  0
 56 57  1  0  0  0
 57 59  1  0  0  0
 58 59  1  0  0  0
 59 60  1  0  0  0
 59 65  1  0  0  0
 60 61  1  0  0  0
 60 66  2  0  0  0
 62 65  1  0  0  0
 63 65  1  0  0  0
 64 65  1  0  0  0
M  CHG  2  23  -1  61  -1
M  END
>  <ACTIVITY>
4.38

>  <SET>
2

>  <Min_dist>
0

>  <Avg_dist>
0.26

$$$$
z_nh_glnh2
  Cerius2 12110214373D 1   1.00000                          
Structure written by Cerius2 SD Exporter
 45 45  0  0  0  0  0  0  0  0999 V2000
    7.4290    2.9880   -1.3290 H   0  0  0  0  0  0
    7.3310    2.3540   -0.4480 C   0  0  0  0  0  0
    5.2960    1.8000   -0.8870 H   0  0  0  0  0  0
    6.1340    1.6860   -0.1980 C   0  0  0  0  0  0
   -1.7420   -0.8690   -1.3740 H   0  0  0  0  0  0
   -1.3840   -0.2300   -2.1820 C   0  0  0  0  0  0
    6.0010    0.8730    0.9260 C   0  0  0  0  0  0
    0.0990    0.0140   -0.6120 H   0  0  0  0  0  0
   -0.1670    0.3500   -1.6150 N   0  0  0  0  0  0
    2.5150    2.3410   -1.4880 H   0  0  0  0  0  0
    1.6660    1.6980   -1.2530 N   0  0  0  0  0  0
    0.3620    1.2000    0.4590 H   0  0  0  0  0  0
    1.3820    1.1570    0.0780 N   0  0  0  0  0  0
    0.6940    1.2770   -2.1970 C   0  0  0  0  0  0
    0.6530    1.6870   -3.3650 O   0  0  0  0  0  0
    6.9790    0.1000    2.6850 H   0  0  0  0  0  0
    7.0760    0.7340    1.8030 C   0  0  0  0  0  0
   -3.4120    0.1820   -2.7590 H   0  0  0  0  0  0
   -2.8640    1.0650   -1.3140 H   0  0  0  0  0  0
   -2.5860    0.7370   -2.3160 C   0  0  0  0  0  0
   -1.2060   -1.2950   -3.2220 C   0  0  0  0  0  0
   -0.3590   -1.2780   -4.1140 O   0  0  0  0  0  0
   -1.3630    2.3820   -2.9170 H   0  0  0  0  0  0
   -2.3480    1.9900   -3.1720 C   0  0  0  0  0  0
   -2.1770    2.5800   -5.2370 H   0  0  0  0  0  0
   -1.5560    0.9490   -4.8840 H   0  0  0  0  0  0
   -3.3110    1.2390   -4.9470 H   0  0  0  0  0  0
   -2.3480    1.6660   -4.6680 C   0  0  0  0  0  0
   -3.2370    3.9300   -3.4790 H   0  0  0  0  0  0
   -4.4010    2.6410   -3.0920 H   0  0  0  0  0  0
   -3.3650    3.3180   -1.8130 H   0  0  0  0  0  0
   -3.4150    3.0460   -2.8670 C   0  0  0  0  0  0
   -2.1080   -3.1490   -3.8340 H   0  0  0  0  0  0
   -2.9020   -2.2920   -2.3510 H   0  0  0  0  0  0
   -2.1390   -2.3190   -3.1290 N   0  0  0  0  0  0
    9.1120    1.2900    2.2470 H   0  0  0  0  0  0
    8.2750    1.4010    1.5580 C   0  0  0  0  0  0
    9.3400    2.7320    0.2370 H   0  0  0  0  0  0
    8.4030    2.2110    0.4310 C   0  0  0  0  0  0
    4.8530   -0.9160    0.9190 H   0  0  0  0  0  0
    4.4680    0.2120    2.2420 H   0  0  0  0  0  0
    4.7200    0.1330    1.1840 C   0  0  0  0  0  0
    3.6590    0.6800    0.4100 O   0  0  0  0  0  0
    2.3920    0.5800    0.8850 C   0  0  0  0  0  0
    2.1170    0.0080    1.9440 O   0  0  0  0  0  0
  1  2  1  0  0  0
  2  4  1  0  0  0
  2 39  2  0  0  0
  3  4  1  0  0  0
  4  7  2  0  0  0
  5  6  1  0  0  0
  6  9  1  0  0  0
  6 20  1  0  0  0
  6 21  1  0  0  0
  7 17  1  0  0  0
  7 42  1  0  0  0
  8  9  1  0  0  0
  9 14  1  0  0  0
 10 11  1  0  0  0
 11 13  1  0  0  0
 11 14  1  0  0  0
 12 13  1  0  0  0
 13 44  1  0  0  0
 14 15  2  0  0  0
 16 17  1  0  0  0
 17 37  2  0  0  0
 18 20  1  0  0  0
 19 20  1  0  0  0
 20 24  1  0  0  0
 21 22  2  0  0  0
 21 35  1  0  0  0
 23 24  1  0  0  0
 24 28  1  0  0  0
 24 32  1  0  0  0
 25 28  1  0  0  0
 26 28  1  0  0  0
 27 28  1  0  0  0
 29 32  1  0  0  0
 30 32  1  0  0  0
 31 32  1  0  0  0
 33 35  1  0  0  0
 34 35  1  0  0  0
 36 37  1  0  0  0
 37 39  1  0  0  0
 38 39  1  0  0  0
 40 42  1  0  0  0
 41 42  1  0  0  0
 42 43  1  0  0  0
 43 44  1  0  0  0
 44 45  2  0  0  0
M  END
>  <ACTIVITY>
3.42

>  <SET>
2

>  <Min_dist>
0.12

>  <Avg_dist>
0.37

$$$$
z_nh_glnhoh
  Cerius2 12110214373D 1   1.00000                          
Structure written by Cerius2 SD Exporter
 46 46  0  0  0  0  0  0  0  0999 V2000
    9.1970    1.2770    2.2490 H   0  0  0  0  0  0
    8.3610    1.4020    1.5610 C   0  0  0  0  0  0
    7.0350    0.1460    2.7060 H   0  0  0  0  0  0
    7.1460    0.7680    1.8180 C   0  0  0  0  0  0
   -1.6150   -0.7870   -1.4600 H   0  0  0  0  0  0
   -1.2810   -0.0430   -2.1840 C   0  0  0  0  0  0
    6.0720    0.9250    0.9430 C   0  0  0  0  0  0
   -2.4170   -3.4670   -4.8750 H   0  0  0  0  0  0
   -1.7250   -2.6640   -4.6220 O   0  0  0  0  0  0
   -0.0030    0.3340   -0.4490 H   0  0  0  0  0  0
   -0.1580    0.5820   -1.4990 N   0  0  0  0  0  0
    2.5840    2.5080   -1.4220 H   0  0  0  0  0  0
    1.7280    1.8820   -1.1700 N   0  0  0  0  0  0
    0.4320    1.4170    0.5570 H   0  0  0  0  0  0
    1.4470    1.3470    0.1640 N   0  0  0  0  0  0
    0.7270    1.4710   -2.0900 C   0  0  0  0  0  0
    0.6680    1.8350   -3.2720 O   0  0  0  0  0  0
    5.3850    1.8480   -0.8800 H   0  0  0  0  0  0
    6.2210    1.7210   -0.1920 C   0  0  0  0  0  0
   -3.3260    0.2410   -2.7840 H   0  0  0  0  0  0
   -2.8510    1.1530   -1.3310 H   0  0  0  0  0  0
   -2.5400    0.8440   -2.3290 C   0  0  0  0  0  0
   -0.9470   -0.9490   -3.3320 C   0  0  0  0  0  0
   -0.0450   -0.9790   -4.1700 O   0  0  0  0  0  0
   -1.3860    2.5390   -2.9310 H   0  0  0  0  0  0
   -2.3550    2.1080   -3.1830 C   0  0  0  0  0  0
   -2.2150    2.7020   -5.2510 H   0  0  0  0  0  0
   -1.5290    1.0980   -4.8990 H   0  0  0  0  0  0
   -3.2940    1.3180   -4.9550 H   0  0  0  0  0  0
   -2.3480    1.7830   -4.6800 C   0  0  0  0  0  0
   -3.3200    4.0110   -3.4830 H   0  0  0  0  0  0
   -4.4310    2.6770   -3.0940 H   0  0  0  0  0  0
   -3.4180    3.3910   -1.8170 H   0  0  0  0  0  0
   -3.4610    3.1200   -2.8720 C   0  0  0  0  0  0
   -2.7510   -2.0590   -2.7770 H   0  0  0  0  0  0
   -1.9270   -1.9110   -3.4750 N   0  0  0  0  0  0
    7.5460    2.9770   -1.3410 H   0  0  0  0  0  0
    7.4340    2.3560   -0.4530 C   0  0  0  0  0  0
    9.4550    2.6910    0.2230 H   0  0  0  0  0  0
    8.5050    2.1960    0.4250 C   0  0  0  0  0  0
    4.8620   -0.8220    0.9270 H   0  0  0  0  0  0
    4.5460    0.2910    2.2800 H   0  0  0  0  0  0
    4.7720    0.2250    1.2160 C   0  0  0  0  0  0
    3.7140    0.8240    0.4760 O   0  0  0  0  0  0
    2.4490    0.7440    0.9610 C   0  0  0  0  0  0
    2.1680    0.1610    2.0140 O   0  0  0  0  0  0
  1  2  1  0  0  0
  2  4  1  0  0  0
  2 40  2  0  0  0
  3  4  1  0  0  0
  4  7  2  0  0  0
  5  6  1  0  0  0
  6 11  1  0  0  0
  6 22  1  0  0  0
  6 23  1  0  0  0
  7 19  1  0  0  0
  7 43  1  0  0  0
  8  9  1  0  0  0
  9 36  1  0  0  0
 10 11  1  0  0  0
 11 16  1  0  0  0
 12 13  1  0  0  0
 13 15  1  0  0  0
 13 16  1  0  0  0
 14 15  1  0  0  0
 15 45  1  0  0  0
 16 17  2  0  0  0
 18 19  1  0  0  0
 19 38  2  0  0  0
 20 22  1  0  0  0
 21 22  1  0  0  0
 22 26  1  0  0  0
 23 24  2  0  0  0
 23 36  1  0  0  0
 25 26  1  0  0  0
 26 30  1  0  0  0
 26 34  1  0  0  0
 27 30  1  0  0  0
 28 30  1  0  0  0
 29 30  1  0  0  0
 31 34  1  0  0  0
 32 34  1  0  0  0
 33 34  1  0  0  0
 35 36  1  0  0  0
 37 38  1  0  0  0
 38 40  1  0  0  0
 39 40  1  0  0  0
 41 43  1  0  0  0
 42 43  1  0  0  0
 43 44  1  0  0  0
 44 45  1  0  0  0
 45 46  2  0  0  0
M  END
>  <ACTIVITY>
5.57

>  <SET>
1

>  <Min_dist>
999.9

>  <Avg_dist>
999.9

$$$$
zala
  Cerius2 12110214373D 1   1.00000                          
Structure written by Cerius2 SD Exporter
 80 81  0  0  0  0  0  0  0  0999 V2000
    2.3990  -12.1860   -8.0740 H   0  0  0  0  0  0
    1.9760  -11.7030   -7.1930 C   0  0  0  0  0  0
    1.2010  -10.0260   -8.3020 H   0  0  0  0  0  0
    1.3040  -10.4890   -7.3200 C   0  0  0  0  0  0
    0.7620   -9.8630   -6.1990 C   0  0  0  0  0  0
    0.4650   -9.9850   -4.0680 H   0  0  0  0  0  0
    0.8910  -10.4660   -4.9480 C   0  0  0  0  0  0
    1.6610  -12.1460   -3.8370 H   0  0  0  0  0  0
    1.5630  -11.6800   -4.8180 C   0  0  0  0  0  0
    2.6350  -13.2470   -5.8400 H   0  0  0  0  0  0
    2.1070  -12.2990   -5.9410 C   0  0  0  0  0  0
    0.3360   -8.0620   -7.2550 H   0  0  0  0  0  0
   -1.0290   -8.7140   -6.3160 H   0  0  0  0  0  0
    0.0480   -8.5480   -6.3220 C   0  0  0  0  0  0
    0.4123   -7.7178   -5.2161 O   0  0  0  0  0  0
   -0.5159   -7.1879   -4.4246 C   0  0  0  0  0  0
   -1.7159   -7.2019   -4.7166 O   0  0  0  0  0  0
   -1.7619   -5.6729   -2.6696 H   0  0  0  0  0  0
   -0.8619   -6.0678   -2.1996 C   0  0  0  0  0  0
    1.0771   -6.6589   -3.0916 H   0  0  0  0  0  0
   -0.0019   -6.6498   -3.2456 N   0  0  0  0  0  0
   -0.1489   -4.9398   -1.5076 C   0  0  0  0  0  0
    1.0431   -4.6918   -1.7006 O   0  0  0  0  0  0
   -1.9129   -6.6948   -0.4246 H   0  0  0  0  0  0
   -1.8289   -7.9299   -1.7036 H   0  0  0  0  0  0
   -0.3899   -7.5659   -0.7226 H   0  0  0  0  0  0
   -1.2789   -7.1429   -1.1896 C   0  0  0  0  0  0
   -1.9399   -4.4818   -0.4406 H   0  0  0  0  0  0
   -0.9199   -4.1598   -0.6496 N   0  0  0  0  0  0
   -1.2309   -2.4998    0.6074 H   0  0  0  0  0  0
    0.4221   -3.1589    0.6274 H   0  0  0  0  0  0
   -0.4339   -2.9198   -0.0046 C   0  0  0  0  0  0
    0.1471   -0.9228   -0.5696 H   0  0  0  0  0  0
    0.9211   -2.2098   -1.5246 H   0  0  0  0  0  0
   -0.0089   -1.8848   -1.0566 C   0  0  0  0  0  0
   -1.7989   -2.5478   -1.9896 H   0  0  0  0  0  0
   -1.0879   -1.7349   -2.1346 C   0  0  0  0  0  0
   -0.5549   -1.9829   -3.5086 C   0  0  0  0  0  0
   -0.0589   -1.1359   -4.2126 O   0  5  0  0  0  0
   -0.5109   -3.1658   -4.1496 O   0  0  0  0  0  0
   -1.8359    0.4891   -3.7496 H   0  0  0  0  0  0
   -1.7689    0.7271   -2.6876 C   0  0  0  0  0  0
   -2.9919   -0.8859   -2.2156 H   0  0  0  0  0  0
   -1.9889   -0.5508   -1.9516 N   0  0  0  0  0  0
   -3.8299    1.2752   -2.4016 H   0  0  0  0  0  0
   -2.7069    1.9971   -1.2256 H   0  0  0  0  0  0
   -2.8509    1.7362   -2.2736 C   0  0  0  0  0  0
   -0.3979    1.3292   -2.5036 C   0  0  0  0  0  0
    0.1711    1.8501   -3.4676 O   0  0  0  0  0  0
   -1.7589    3.3651   -3.1376 H   0  0  0  0  0  0
   -2.7909    3.0171   -3.1166 C   0  0  0  0  0  0
   -3.1709    3.6702   -5.1396 H   0  0  0  0  0  0
   -2.5579    2.0042   -5.0086 H   0  0  0  0  0  0
   -4.2449    2.3681   -4.5746 H   0  0  0  0  0  0
   -3.2229    2.7452   -4.5646 C   0  0  0  0  0  0
   -3.6089    5.0111   -3.0946 H   0  0  0  0  0  0
   -4.6929    3.7652   -2.4336 H   0  0  0  0  0  0
   -3.2979    4.3262   -1.4816 H   0  0  0  0  0  0
   -3.6599    4.1082   -2.4866 C   0  0  0  0  0  0
    2.0771    1.5981   -2.0416 H   0  0  0  0  0  0
    1.5841    1.7331   -1.0786 C   0  0  0  0  0  0
   -0.3849    0.9352   -0.3856 H   0  0  0  0  0  0
    0.1851    1.2901   -1.2446 N   0  0  0  0  0  0
    2.3191    0.8731   -0.0846 C   0  0  0  0  0  0
    3.5331    0.6982   -0.0996 O   0  5  0  0  0  0
    2.7211    3.5562   -0.9486 H   0  0  0  0  0  0
    1.0191    3.7822   -1.4176 H   0  0  0  0  0  0
    1.6961    3.2351   -0.7616 C   0  0  0  0  0  0
    1.3451    3.5501    0.6654 C   0  0  0  0  0  0
    3.4001    3.8622    1.2314 H   0  0  0  0  0  0
    2.3641    3.8472    1.5694 C   0  0  0  0  0  0
   -0.7819    3.3091    0.3994 H   0  0  0  0  0  0
    0.0211    3.5351    1.1014 C   0  0  0  0  0  0
    2.8671    4.3591    3.6034 H   0  0  0  0  0  0
    2.0661    4.1261    2.9014 C   0  0  0  0  0  0
   -1.3119    3.7942    2.7714 H   0  0  0  0  0  0
   -0.2759    3.8102    2.4334 C   0  0  0  0  0  0
    0.5051    4.3201    4.3764 H   0  0  0  0  0  0
    0.7431    4.1062    3.3354 C   0  0  0  0  0  0
    1.5781    0.2862    0.8804 O   0  0  0  0  0  0
  1  2  1  0  0  0
  2  4  1  0  0  0
  2 11  2  0  0  0
  3  4  1  0  0  0
  4  5  2  0  0  0
  5  7  1  0  0  0
  5 14  1  0  0  0
  6  7  1  0  0  0
  7  9  2  0  0  0
  8  9  1  0  0  0
  9 11  1  0  0  0
 10 11  1  0  0  0
 12 14  1  0  0  0
 13 14  1  0  0  0
 14 15  1  0  0  0
 15 16  1  0  0  0
 16 17  2  0  0  0
 16 21  1  0  0  0
 18 19  1  0  0  0
 19 21  1  0  0  0
 19 22  1  0  0  0
 19 27  1  0  0  0
 20 21  1  0  0  0
 22 23  2  0  0  0
 22 29  1  0  0  0
 24 27  1  0  0  0
 25 27  1  0  0  0
 26 27  1  0  0  0
 28 29  1  0  0  0
 29 32  1  0  0  0
 30 32  1  0  0  0
 31 32  1  0  0  0
 32 35  1  0  0  0
 33 35  1  0  0  0
 34 35  1  0  0  0
 35 37  1  0  0  0
 36 37  1  0  0  0
 37 38  1  0  0  0
 37 44  1  0  0  0
 38 39  1  0  0  0
 38 40  2  0  0  0
 41 42  1  0  0  0
 42 44  1  0  0  0
 42 47  1  0  0  0
 42 48  1  0  0  0
 43 44  1  0  0  0
 45 47  1  0  0  0
 46 47  1  0  0  0
 47 51  1  0  0  0
 48 49  2  0  0  0
 48 63  1  0  0  0
 50 51  1  0  0  0
 51 55  1  0  0  0
 51 59  1  0  0  0
 52 55  1  0  0  0
 53 55  1  0  0  0
 54 55  1  0  0  0
 56 59  1  0  0  0
 57 59  1  0  0  0
 58 59  1  0  0  0
 60 61  1  0  0  0
 61 63  1  0  0  0
 61 64  1  0  0  0
 61 68  1  0  0  0
 62 63  1  0  0  0
 64 65  1  0  0  0
 64 80  2  0  0  0
 66 68  1  0  0  0
 67 68  1  0  0  0
 68 69  1  0  0  0
 69 71  2  0  0  0
 69 73  1  0  0  0
 70 71  1  0  0  0
 71 75  1  0  0  0
 72 73  1  0  0  0
 73 77  2  0  0  0
 74 75  1  0  0  0
 75 79  2  0  0  0
 76 77  1  0  0  0
 77 79  1  0  0  0
 78 79  1  0  0  0
M  CHG  2  39  -1  65  -1
M  END
>  <ACTIVITY>
6.07

>  <SET>
1

>  <Min_dist>
999.9

>  <Avg_dist>
999.9

$$$$
zapola
  Cerius2 12110214373D 1   1.00000                          
Structure written by Cerius2 SD Exporter
 57 57  0  0  0  0  0  0  0  0999 V2000
   -1.2150   -5.2850   -3.6800 C   0  0  0  0  0  0
   -2.4440   -5.3180   -3.4970 O   0  0  0  0  0  0
   -0.5985   -6.2431   -4.3662 O   0  0  0  0  0  0
   -2.0664   -7.6798   -4.1466 H   0  0  0  0  0  0
   -1.9464   -6.9478   -5.7646 H   0  0  0  0  0  0
   -1.3794   -7.3118   -4.9076 C   0  0  0  0  0  0
   -0.4794   -8.4258   -5.3456 C   0  0  0  0  0  0
   -0.0684   -9.0808   -3.3336 H   0  0  0  0  0  0
    0.1226   -9.2478   -4.3936 C   0  0  0  0  0  0
   -0.6944   -7.9938   -7.4466 H   0  0  0  0  0  0
   -0.2284   -8.6368   -6.6996 C   0  0  0  0  0  0
    1.4336  -10.9238   -4.0466 H   0  0  0  0  0  0
    0.9666  -10.2818   -4.7936 C   0  0  0  0  0  0
    0.8096   -9.8348   -8.1596 H   0  0  0  0  0  0
    0.6166   -9.6698   -7.0996 C   0  0  0  0  0  0
    1.8736  -11.3018   -6.4626 H   0  0  0  0  0  0
    1.2136  -10.4938   -6.1476 C   0  0  0  0  0  0
    0.7230   -4.3890   -3.4910 H   0  0  0  0  0  0
   -0.3320   -4.2910   -3.2370 N   0  0  0  0  0  0
   -1.6690   -3.3750   -1.9130 H   0  0  0  0  0  0
   -0.7520   -3.1190   -2.4440 C   0  0  0  0  0  0
   -1.0970   -1.7150   -3.5410 P   0  0  0  0  0  0
    0.1070   -1.1750   -4.1790 O   0  5  0  0  0  0
   -1.9100   -2.3000   -4.8150 O   0  0  0  0  0  0
   -0.0430   -1.8870   -0.8240 H   0  0  0  0  0  0
    0.4400   -3.5970   -0.7130 H   0  0  0  0  0  0
    1.2410   -2.5200   -1.8820 H   0  0  0  0  0  0
    0.2970   -2.7540   -1.3900 C   0  0  0  0  0  0
   -1.9210   -0.5560   -2.6870 O   0  0  0  0  0  0
   -1.7370    0.8500   -4.1640 H   0  0  0  0  0  0
   -1.7790    0.8140   -3.0760 C   0  0  0  0  0  0
   -0.5110    1.3910   -2.5100 C   0  0  0  0  0  0
    0.3320    2.0040   -3.1720 O   0  0  0  0  0  0
   -3.8960    1.2000   -2.9820 H   0  0  0  0  0  0
   -3.0010    1.6460   -1.5090 H   0  0  0  0  0  0
   -2.9770    1.6440   -2.5990 C   0  0  0  0  0  0
   -1.8570    3.4440   -2.8950 H   0  0  0  0  0  0
   -2.8670    3.0910   -3.1040 C   0  0  0  0  0  0
   -3.0030    4.1980   -4.9510 H   0  0  0  0  0  0
   -2.3340    2.5580   -5.1260 H   0  0  0  0  0  0
   -4.0790    2.7840   -4.8630 H   0  0  0  0  0  0
   -3.0870    3.1630   -4.6210 C   0  0  0  0  0  0
   -3.7550    5.0190   -2.7390 H   0  0  0  0  0  0
   -4.8680    3.6460   -2.5320 H   0  0  0  0  0  0
   -3.6310    3.9820   -1.2980 H   0  0  0  0  0  0
   -3.8510    4.0000   -2.3650 C   0  0  0  0  0  0
   -1.0970    0.6910   -0.5620 H   0  0  0  0  0  0
   -0.3480    1.2360   -1.1370 N   0  0  0  0  0  0
    1.3590    2.4350   -1.1650 H   0  0  0  0  0  0
    0.8290    1.8020   -0.4530 C   0  0  0  0  0  0
    1.7780    0.7220   -0.0160 C   0  0  0  0  0  0
    1.4910   -0.1870    0.7560 O   0  5  0  0  0  0
    1.2810    3.0790    1.2240 H   0  0  0  0  0  0
   -0.2300    3.4880    0.3750 H   0  0  0  0  0  0
   -0.1650    2.0640    1.4420 H   0  0  0  0  0  0
    0.3980    2.6710    0.7320 C   0  0  0  0  0  0
    3.0320    0.7930   -0.5100 O   0  0  0  0  0  0
  1  2  2  0  0  0
  1  3  1  0  0  0
  1 19  1  0  0  0
  3  6  1  0  0  0
  4  6  1  0  0  0
  5  6  1  0  0  0
  6  7  1  0  0  0
  7  9  2  0  0  0
  7 11  1  0  0  0
  8  9  1  0  0  0
  9 13  1  0  0  0
 10 11  1  0  0  0
 11 15  2  0  0  0
 12 13  1  0  0  0
 13 17  2  0  0  0
 14 15  1  0  0  0
 15 17  1  0  0  0
 16 17  1  0  0  0
 18 19  1  0  0  0
 19 21  1  0  0  0
 20 21  1  0  0  0
 21 22  1  0  0  0
 21 28  1  0  0  0
 22 23  1  0  0  0
 22 24  2  0  0  0
 22 29  1  0  0  0
 25 28  1  0  0  0
 26 28  1  0  0  0
 27 28  1  0  0  0
 29 31  1  0  0  0
 30 31  1  0  0  0
 31 32  1  0  0  0
 31 36  1  0  0  0
 32 33  2  0  0  0
 32 48  1  0  0  0
 34 36  1  0  0  0
 35 36  1  0  0  0
 36 38  1  0  0  0
 37 38  1  0  0  0
 38 42  1  0  0  0
 38 46  1  0  0  0
 39 42  1  0  0  0
 40 42  1  0  0  0
 41 42  1  0  0  0
 43 46  1  0  0  0
 44 46  1  0  0  0
 45 46  1  0  0  0
 47 48  1  0  0  0
 48 50  1  0  0  0
 49 50  1  0  0  0
 50 51  1  0  0  0
 50 56  1  0  0  0
 51 52  1  0  0  0
 51 57  2  0  0  0
 53 56  1  0  0  0
 54 56  1  0  0  0
 55 56  1  0  0  0
M  CHG  2  23  -1  52  -1
M  END
>  <ACTIVITY>
5.74

>  <SET>
1

>  <Min_dist>
999.9

>  <Avg_dist>
999.9

$$$$
zfgnh2
  Cerius2 12110214373D 1   1.00000                          
Structure written by Cerius2 SD Exporter
 47 48  0  0  0  0  0  0  0  0999 V2000
    9.1420    1.3130    2.2690 H   0  0  0  0  0  0
    8.2830    1.4010    1.6040 C   0  0  0  0  0  0
    7.1250   -0.0810    2.6560 H   0  0  0  0  0  0
    7.1500    0.6190    1.8210 C   0  0  0  0  0  0
   -2.4080    0.0650   -2.3850 H   0  0  0  0  0  0
   -1.3300    0.5670   -3.7100 H   0  0  0  0  0  0
   -1.3970   -0.0070   -2.7860 C   0  0  0  0  0  0
    6.0480    0.7280    0.9740 C   0  0  0  0  0  0
   -0.6320    0.3880   -0.7470 H   0  0  0  0  0  0
   -0.4520    0.5370   -1.8120 N   0  0  0  0  0  0
    2.7020    0.9430   -1.7110 H   0  0  0  0  0  0
    1.7970    1.3370   -1.2470 C   0  0  0  0  0  0
    0.4630    0.2940    0.1850 H   0  0  0  0  0  0
    1.5020    0.5030   -0.0690 N   0  0  0  0  0  0
    0.6760    1.2430   -2.2280 C   0  0  0  0  0  0
    0.7760    1.7380   -3.3540 O   0  0  0  0  0  0
    5.2230    1.7230   -0.7500 H   0  0  0  0  0  0
    6.0840    1.6300   -0.0890 C   0  0  0  0  0  0
   -1.0780   -1.4500   -3.0730 C   0  0  0  0  0  0
   -0.4880   -1.7530   -4.1010 O   0  0  0  0  0  0
    1.4840    3.2160    0.3900 C   0  0  0  0  0  0
   -1.2740   -3.4960   -2.4340 H   0  0  0  0  0  0
   -2.0870   -2.2020   -1.3260 H   0  0  0  0  0  0
   -1.5110   -2.4550   -2.2160 N   0  0  0  0  0  0
    7.2400    3.1140   -1.1430 H   0  0  0  0  0  0
    7.2160    2.4120   -0.3090 C   0  0  0  0  0  0
    9.2040    2.9060    0.3640 H   0  0  0  0  0  0
    8.3170    2.2970    0.5370 C   0  0  0  0  0  0
    5.1100   -1.1790    0.9890 H   0  0  0  0  0  0
    4.5190   -0.0480    2.2300 H   0  0  0  0  0  0
    4.8440   -0.1420    1.1940 C   0  0  0  0  0  0
    3.7800    0.2460    0.3340 O   0  0  0  0  0  0
    2.5110   -0.0250    0.7270 C   0  0  0  0  0  0
    2.2670   -0.6810    1.7430 O   0  0  0  0  0  0
    3.3640    3.3580    1.4340 H   0  0  0  0  0  0
    2.2800    3.4470    1.5100 C   0  0  0  0  0  0
    2.3190    3.9740    3.6010 H   0  0  0  0  0  0
    1.6960    3.7910    2.7260 C   0  0  0  0  0  0
   -0.1520    4.1630    3.7690 H   0  0  0  0  0  0
    0.3110    3.9000    2.8180 C   0  0  0  0  0  0
   -1.5680    3.7580    1.7740 H   0  0  0  0  0  0
   -0.4840    3.6720    1.6970 C   0  0  0  0  0  0
   -0.5250    3.1710   -0.3980 H   0  0  0  0  0  0
    0.0980    3.3380    0.4800 C   0  0  0  0  0  0
    3.2190    2.8890   -0.7840 H   0  0  0  0  0  0
    1.7950    3.4450   -1.6950 H   0  0  0  0  0  0
    2.1390    2.7950   -0.8910 C   0  0  0  0  0  0
  1  2  1  0  0  0
  2  4  1  0  0  0
  2 28  2  0  0  0
  3  4  1  0  0  0
  4  8  2  0  0  0
  5  7  1  0  0  0
  6  7  1  0  0  0
  7 10  1  0  0  0
  7 19  1  0  0  0
  8 18  1  0  0  0
  8 31  1  0  0  0
  9 10  1  0  0  0
 10 15  1  0  0  0
 11 12  1  0  0  0
 12 14  1  0  0  0
 12 15  1  0  0  0
 12 47  1  0  0  0
 13 14  1  0  0  0
 14 33  1  0  0  0
 15 16  2  0  0  0
 17 18  1  0  0  0
 18 26  2  0  0  0
 19 20  2  0  0  0
 19 24  1  0  0  0
 21 36  1  0  0  0
 21 44  2  0  0  0
 21 47  1  0  0  0
 22 24  1  0  0  0
 23 24  1  0  0  0
 25 26  1  0  0  0
 26 28  1  0  0  0
 27 28  1  0  0  0
 29 31  1  0  0  0
 30 31  1  0  0  0
 31 32  1  0  0  0
 32 33  1  0  0  0
 33 34  2  0  0  0
 35 36  1  0  0  0
 36 38  2  0  0  0
 37 38  1  0  0  0
 38 40  1  0  0  0
 39 40  1  0  0  0
 40 42  2  0  0  0
 41 42  1  0  0  0
 42 44  1  0  0  0
 43 44  1  0  0  0
 45 47  1  0  0  0
 46 47  1  0  0  0
M  END
>  <ACTIVITY>
3.46

>  <SET>
1

>  <Min_dist>
999.9

>  <Avg_dist>
999.9

$$$$
zfplazncrys
  Cerius2 12110214373D 1   1.00000                          
Structure written by Cerius2 SD Exporter
 68 69  0  0  0  0  0  0  0  0999 V2000
   -1.1780   -5.2160   -3.6190 C   0  0  0  0  0  0
   -2.4070   -5.2420   -3.4330 O   0  0  0  0  0  0
   -0.5715   -6.1983   -4.2794 O   0  0  0  0  0  0
   -1.9097   -7.7041   -3.8266 H   0  0  0  0  0  0
   -2.0817   -6.9851   -5.4456 H   0  0  0  0  0  0
   -1.3697   -7.3121   -4.6886 C   0  0  0  0  0  0
   -0.5007   -8.3911   -5.2596 C   0  0  0  0  0  0
    0.0673   -9.1671   -3.3286 H   0  0  0  0  0  0
    0.1713   -9.2691   -4.4086 C   0  0  0  0  0  0
   -0.8777   -7.8261   -7.3046 H   0  0  0  0  0  0
   -0.3587   -8.5151   -6.6386 C   0  0  0  0  0  0
    1.4933  -10.9641   -4.2726 H   0  0  0  0  0  0
    0.9743  -10.2741   -4.9376 C   0  0  0  0  0  0
    0.5563   -9.6191   -8.2466 H   0  0  0  0  0  0
    0.4473   -9.5201   -7.1666 C   0  0  0  0  0  0
    1.7463  -11.1831   -6.7346 H   0  0  0  0  0  0
    1.1143  -10.3981   -6.3186 C   0  0  0  0  0  0
    0.7580   -4.3180   -3.4800 H   0  0  0  0  0  0
   -0.2910   -4.2160   -3.2030 N   0  0  0  0  0  0
   -1.6060   -3.2480   -1.8700 H   0  0  0  0  0  0
   -0.6860   -3.0300   -2.4120 C   0  0  0  0  0  0
   -1.0480   -1.6390   -3.5260 P   0  0  0  0  0  0
    0.1330   -1.0690   -4.1930 O   0  5  0  0  0  0
   -1.7070   -2.2100   -4.6540 O   0  0  0  0  0  0
    1.3440   -2.8240   -1.7160 H   0  0  0  0  0  0
    0.1960   -1.6760   -0.9850 H   0  0  0  0  0  0
    0.3380   -2.7060   -1.3130 C   0  0  0  0  0  0
    0.1680   -3.6300   -0.1300 C   0  0  0  0  0  0
   -0.4920   -2.0460    1.1670 H   0  0  0  0  0  0
   -0.2890   -3.1140    1.0810 C   0  0  0  0  0  0
    0.8060   -5.4230   -1.1350 H   0  0  0  0  0  0
    0.4330   -4.9980   -0.2030 C   0  0  0  0  0  0
   -0.8520   -3.5130    3.1190 H   0  0  0  0  0  0
   -0.4910   -3.9400    2.1830 C   0  0  0  0  0  0
    0.4320   -6.8990    0.8180 H   0  0  0  0  0  0
    0.2280   -5.8310    0.8990 C   0  0  0  0  0  0
   -0.3990   -5.9480    2.9650 H   0  0  0  0  0  0
   -0.2370   -5.3020    2.1020 C   0  0  0  0  0  0
   -3.0370   -0.7190   -2.8610 H   0  0  0  0  0  0
   -1.9900   -0.4700   -2.6900 N   0  0  0  0  0  0
   -1.7880    1.0320   -4.1270 H   0  0  0  0  0  0
   -1.8170    0.9530   -3.0400 C   0  0  0  0  0  0
   -0.5250    1.4730   -2.4760 C   0  0  0  0  0  0
    0.3300    2.0610   -3.1420 O   0  0  0  0  0  0
   -3.9220    1.4030   -2.9500 H   0  0  0  0  0  0
   -3.0330    1.7420   -1.4460 H   0  0  0  0  0  0
   -2.9950    1.7970   -2.5340 C   0  0  0  0  0  0
   -1.8410    3.6020   -2.6680 H   0  0  0  0  0  0
   -2.8360    3.2660   -2.9600 C   0  0  0  0  0  0
   -2.8330    4.4580   -4.7580 H   0  0  0  0  0  0
   -2.1680    2.8200   -4.9630 H   0  0  0  0  0  0
   -3.9260    3.0540   -4.8100 H   0  0  0  0  0  0
   -2.9490    3.4100   -4.4830 C   0  0  0  0  0  0
   -3.7370    5.1800   -2.5610 H   0  0  0  0  0  0
   -4.8690    3.8080   -2.5030 H   0  0  0  0  0  0
   -3.7200    4.0700   -1.1690 H   0  0  0  0  0  0
   -3.8640    4.1440   -2.2470 C   0  0  0  0  0  0
   -1.0830    0.7310   -0.5320 H   0  0  0  0  0  0
   -0.3380    1.2840   -1.1050 N   0  0  0  0  0  0
    1.3650    2.4780   -1.1230 H   0  0  0  0  0  0
    0.8520    1.8210   -0.4210 C   0  0  0  0  0  0
    1.8200    0.7360   -0.0460 C   0  0  0  0  0  0
    1.4650   -0.1760    0.7670 O   0  5  0  0  0  0
    1.3410    3.0350    1.2930 H   0  0  0  0  0  0
   -0.1830    3.4810    0.4880 H   0  0  0  0  0  0
   -0.1060    2.0200    1.5010 H   0  0  0  0  0  0
    0.4470    2.6490    0.8040 C   0  0  0  0  0  0
    2.9880    0.7910   -0.5410 O   0  0  0  0  0  0
  1  2  2  0  0  0
  1  3  1  0  0  0
  1 19  1  0  0  0
  3  6  1  0  0  0
  4  6  1  0  0  0
  5  6  1  0  0  0
  6  7  1  0  0  0
  7  9  2  0  0  0
  7 11  1  0  0  0
  8  9  1  0  0  0
  9 13  1  0  0  0
 10 11  1  0  0  0
 11 15  2  0  0  0
 12 13  1  0  0  0
 13 17  2  0  0  0
 14 15  1  0  0  0
 15 17  1  0  0  0
 16 17  1  0  0  0
 18 19  1  0  0  0
 19 21  1  0  0  0
 20 21  1  0  0  0
 21 22  1  0  0  0
 21 27  1  0  0  0
 22 23  1  0  0  0
 22 24  2  0  0  0
 22 40  1  0  0  0
 25 27  1  0  0  0
 26 27  1  0  0  0
 27 28  1  0  0  0
 28 30  2  0  0  0
 28 32  1  0  0  0
 29 30  1  0  0  0
 30 34  1  0  0  0
 31 32  1  0  0  0
 32 36  2  0  0  0
 33 34  1  0  0  0
 34 38  2  0  0  0
 35 36  1  0  0  0
 36 38  1  0  0  0
 37 38  1  0  0  0
 39 40  1  0  0  0
 40 42  1  0  0  0
 41 42  1  0  0  0
 42 43  1  0  0  0
 42 47  1  0  0  0
 43 44  2  0  0  0
 43 59  1  0  0  0
 45 47  1  0  0  0
 46 47  1  0  0  0
 47 49  1  0  0  0
 48 49  1  0  0  0
 49 53  1  0  0  0
 49 57  1  0  0  0
 50 53  1  0  0  0
 51 53  1  0  0  0
 52 53  1  0  0  0
 54 57  1  0  0  0
 55 57  1  0  0  0
 56 57  1  0  0  0
 58 59  1  0  0  0
 59 61  1  0  0  0
 60 61  1  0  0  0
 61 62  1  0  0  0
 61 67  1  0  0  0
 62 63  1  0  0  0
 62 68  2  0  0  0
 64 67  1  0  0  0
 65 67  1  0  0  0
 66 67  1  0  0  0
M  CHG  2  23  -1  63  -1
M  END
>  <ACTIVITY>
10.17

>  <SET>
2

>  <Min_dist>
0

>  <Avg_dist>
0.24

$$$$
zfpola
  Cerius2 12110214373D 1   1.00000                          
Structure written by Cerius2 SD Exporter
 67 68  0  0  0  0  0  0  0  0999 V2000
   -1.1930   -5.2490   -3.6300 C   0  0  0  0  0  0
   -2.4230   -5.2810   -3.4610 O   0  0  0  0  0  0
   -0.5705   -6.2162   -4.2977 O   0  0  0  0  0  0
   -2.0315   -7.6571   -4.0602 H   0  0  0  0  0  0
   -1.9425   -6.9131   -5.6752 H   0  0  0  0  0  0
   -1.3585   -7.2831   -4.8322 C   0  0  0  0  0  0
   -0.4675   -8.3921   -5.2942 C   0  0  0  0  0  0
   -0.0265   -9.0761   -3.2982 H   0  0  0  0  0  0
    0.1465   -9.2291   -4.3632 C   0  0  0  0  0  0
   -0.7145   -7.9301   -7.3852 H   0  0  0  0  0  0
   -0.2395   -8.5861   -6.6552 C   0  0  0  0  0  0
    1.4555  -10.9161   -4.0612 H   0  0  0  0  0  0
    0.9795  -10.2611   -4.7912 C   0  0  0  0  0  0
    0.7705   -9.7661   -8.1482 H   0  0  0  0  0  0
    0.5945   -9.6161   -7.0832 C   0  0  0  0  0  0
    1.8545  -11.2611   -6.4892 H   0  0  0  0  0  0
    1.2035  -10.4541   -6.1522 C   0  0  0  0  0  0
    0.7400   -4.3380   -3.4150 H   0  0  0  0  0  0
   -0.3230   -4.2440   -3.1900 N   0  0  0  0  0  0
   -1.7150   -3.3360   -1.9420 H   0  0  0  0  0  0
   -0.7820   -3.0630   -2.4350 C   0  0  0  0  0  0
   -1.1040   -1.6810   -3.5550 P   0  0  0  0  0  0
    0.1090   -1.1560   -4.1860 O   0  5  0  0  0  0
   -1.9160   -2.2840   -4.8210 O   0  0  0  0  0  0
    1.2120   -2.6950   -1.7100 H   0  0  0  0  0  0
   -0.0360   -1.6510   -0.9900 H   0  0  0  0  0  0
    0.1930   -2.6630   -1.3260 C   0  0  0  0  0  0
    0.0640   -3.6110   -0.1740 C   0  0  0  0  0  0
   -0.4140   -2.0510    1.2350 H   0  0  0  0  0  0
   -0.2680   -3.1210    1.0880 C   0  0  0  0  0  0
    0.5120   -5.3620   -1.3490 H   0  0  0  0  0  0
    0.2520   -4.9780   -0.3630 C   0  0  0  0  0  0
   -0.6710   -3.6130    3.1490 H   0  0  0  0  0  0
   -0.4120   -3.9970    2.1620 C   0  0  0  0  0  0
    0.2560   -6.9260    0.5630 H   0  0  0  0  0  0
    0.1080   -5.8560    0.7100 C   0  0  0  0  0  0
   -0.3380   -6.0520    2.8100 H   0  0  0  0  0  0
   -0.2250   -5.3650    1.9720 C   0  0  0  0  0  0
   -1.9270   -0.5140   -2.7110 O   0  0  0  0  0  0
   -1.7220    0.9090   -4.1680 H   0  0  0  0  0  0
   -1.7690    0.8550   -3.0800 C   0  0  0  0  0  0
   -0.4970    1.4080   -2.5000 C   0  0  0  0  0  0
    0.3480    2.0220   -3.1580 O   0  0  0  0  0  0
   -3.8820    1.2620   -2.9850 H   0  0  0  0  0  0
   -2.9870    1.6740   -1.5030 H   0  0  0  0  0  0
   -2.9600    1.6900   -2.5920 C   0  0  0  0  0  0
   -1.8200    3.4820   -2.8520 H   0  0  0  0  0  0
   -2.8320    3.1420   -3.0740 C   0  0  0  0  0  0
   -2.9430    4.2770   -4.9060 H   0  0  0  0  0  0
   -2.2890    2.6330   -5.1000 H   0  0  0  0  0  0
   -4.0340    2.8720   -4.8460 H   0  0  0  0  0  0
   -3.0400    3.2380   -4.5910 C   0  0  0  0  0  0
   -3.7040    5.0730   -2.6870 H   0  0  0  0  0  0
   -4.8320    3.7080   -2.5100 H   0  0  0  0  0  0
   -3.6020    4.0140   -1.2610 H   0  0  0  0  0  0
   -3.8130    4.0500   -2.3300 C   0  0  0  0  0  0
   -1.0780    0.6780   -0.5620 H   0  0  0  0  0  0
   -0.3310    1.2350   -1.1290 N   0  0  0  0  0  0
    1.3560    2.4560   -1.1320 H   0  0  0  0  0  0
    0.8440    1.7950   -0.4340 C   0  0  0  0  0  0
    1.8250    0.7230   -0.0420 C   0  0  0  0  0  0
    1.4730   -0.1880    0.7710 O   0  5  0  0  0  0
    1.2920    3.0270    1.2770 H   0  0  0  0  0  0
   -0.2280    3.4430    0.4510 H   0  0  0  0  0  0
   -0.1400    1.9900    1.4750 H   0  0  0  0  0  0
    0.4110    2.6240    0.7800 C   0  0  0  0  0  0
    2.9940    0.7950   -0.5270 O   0  0  0  0  0  0
  1  2  2  0  0  0
  1  3  1  0  0  0
  1 19  1  0  0  0
  3  6  1  0  0  0
  4  6  1  0  0  0
  5  6  1  0  0  0
  6  7  1  0  0  0
  7  9  2  0  0  0
  7 11  1  0  0  0
  8  9  1  0  0  0
  9 13  1  0  0  0
 10 11  1  0  0  0
 11 15  2  0  0  0
 12 13  1  0  0  0
 13 17  2  0  0  0
 14 15  1  0  0  0
 15 17  1  0  0  0
 16 17  1  0  0  0
 18 19  1  0  0  0
 19 21  1  0  0  0
 20 21  1  0  0  0
 21 22  1  0  0  0
 21 27  1  0  0  0
 22 23  1  0  0  0
 22 24  2  0  0  0
 22 39  1  0  0  0
 25 27  1  0  0  0
 26 27  1  0  0  0
 27 28  1  0  0  0
 28 30  2  0  0  0
 28 32  1  0  0  0
 29 30  1  0  0  0
 30 34  1  0  0  0
 31 32  1  0  0  0
 32 36  2  0  0  0
 33 34  1  0  0  0
 34 38  2  0  0  0
 35 36  1  0  0  0
 36 38  1  0  0  0
 37 38  1  0  0  0
 39 41  1  0  0  0
 40 41  1  0  0  0
 41 42  1  0  0  0
 41 46  1  0  0  0
 42 43  2  0  0  0
 42 58  1  0  0  0
 44 46  1  0  0  0
 45 46  1  0  0  0
 46 48  1  0  0  0
 47 48  1  0  0  0
 48 52  1  0  0  0
 48 56  1  0  0  0
 49 52  1  0  0  0
 50 52  1  0  0  0
 51 52  1  0  0  0
 53 56  1  0  0  0
 54 56  1  0  0  0
 55 56  1  0  0  0
 57 58  1  0  0  0
 58 60  1  0  0  0
 59 60  1  0  0  0
 60 61  1  0  0  0
 60 66  1  0  0  0
 61 62  1  0  0  0
 61 67  2  0  0  0
 63 66  1  0  0  0
 64 66  1  0  0  0
 65 66  1  0  0  0
M  CHG  2  23  -1  62  -1
M  END
>  <ACTIVITY>
7.35

>  <SET>
1

>  <Min_dist>
999.9

>  <Avg_dist>
999.9

$$$$
zg_d_lnhoh
  Cerius2 12110214373D 1   1.00000                          
Structure written by Cerius2 SD Exporter
 47 47  0  0  0  0  0  0  0  0999 V2000
    7.5430    2.9930   -1.1390 H   0  0  0  0  0  0
    7.3620    2.3200   -0.3010 C   0  0  0  0  0  0
    5.3680    1.8160   -0.9410 H   0  0  0  0  0  0
    6.1410    1.6580   -0.1890 C   0  0  0  0  0  0
   -1.6350   -0.6770   -1.6870 H   0  0  0  0  0  0
   -1.2990    0.1450   -2.3200 C   0  0  0  0  0  0
    5.9020    0.7950    0.8800 C   0  0  0  0  0  0
   -2.6190   -3.1130   -5.0760 H   0  0  0  0  0  0
   -1.7410   -2.5540   -4.7510 O   0  0  0  0  0  0
   -0.1840    0.4930   -0.4550 H   0  0  0  0  0  0
   -0.2530    0.7540   -1.5100 N   0  0  0  0  0  0
    1.5020    3.2890   -0.9630 H   0  0  0  0  0  0
    2.6520    1.9950   -1.3770 H   0  0  0  0  0  0
    1.6350    2.2110   -1.0510 C   0  0  0  0  0  0
    0.4230    1.7430    0.7440 H   0  0  0  0  0  0
    1.3760    1.5650    0.2460 N   0  0  0  0  0  0
    0.6540    1.6530   -2.0370 C   0  0  0  0  0  0
    0.6260    1.9460   -3.2290 O   0  0  0  0  0  0
    6.7130   -0.0750    2.6770 H   0  0  0  0  0  0
    6.8940    0.5980    1.8390 C   0  0  0  0  0  0
   -3.3390    0.3920   -2.9540 H   0  0  0  0  0  0
   -2.9170    1.2790   -1.4690 H   0  0  0  0  0  0
   -2.5770    1.0010   -2.4670 C   0  0  0  0  0  0
   -0.8740   -0.6830   -3.5050 C   0  0  0  0  0  0
    0.0930   -0.9050   -4.2170 O   0  0  0  0  0  0
   -1.4270    2.7150   -3.0270 H   0  0  0  0  0  0
   -2.3950    2.2880   -3.2880 C   0  0  0  0  0  0
   -2.2610    2.9330   -5.3410 H   0  0  0  0  0  0
   -1.5730    1.3210   -5.0310 H   0  0  0  0  0  0
   -3.3380    1.5410   -5.0770 H   0  0  0  0  0  0
   -2.3920    2.0000   -4.7930 C   0  0  0  0  0  0
   -3.3600    4.1990   -3.5340 H   0  0  0  0  0  0
   -4.4710    2.8550   -3.1780 H   0  0  0  0  0  0
   -3.4530    3.5350   -1.8850 H   0  0  0  0  0  0
   -3.4990    3.2910   -2.9470 C   0  0  0  0  0  0
   -2.9020   -1.1660   -3.6890 H   0  0  0  0  0  0
   -1.8880   -1.4530   -3.9680 N   0  0  0  0  0  0
    8.8890    1.1040    2.4850 H   0  0  0  0  0  0
    8.1170    1.2590    1.7310 C   0  0  0  0  0  0
    9.3080    2.6340    0.5730 H   0  0  0  0  0  0
    8.3520    2.1190    0.6600 C   0  0  0  0  0  0
    4.6990   -0.9180    0.5060 H   0  0  0  0  0  0
    4.3410   -0.0750    2.0320 H   0  0  0  0  0  0
    4.5980    0.0580    0.9810 C   0  0  0  0  0  0
    3.5630    0.7880    0.3350 O   0  0  0  0  0  0
    2.3110    0.7350    0.8540 C   0  0  0  0  0  0
    2.0170   -0.0060    1.7980 O   0  0  0  0  0  0
  1  2  1  0  0  0
  2  4  1  0  0  0
  2 41  2  0  0  0
  3  4  1  0  0  0
  4  7  2  0  0  0
  5  6  1  0  0  0
  6 11  1  0  0  0
  6 23  1  0  0  0
  6 24  1  0  0  0
  7 20  1  0  0  0
  7 44  1  0  0  0
  8  9  1  0  0  0
  9 37  1  0  0  0
 10 11  1  0  0  0
 11 17  1  0  0  0
 12 14  1  0  0  0
 13 14  1  0  0  0
 14 16  1  0  0  0
 14 17  1  0  0  0
 15 16  1  0  0  0
 16 46  1  0  0  0
 17 18  2  0  0  0
 19 20  1  0  0  0
 20 39  2  0  0  0
 21 23  1  0  0  0
 22 23  1  0  0  0
 23 27  1  0  0  0
 24 25  2  0  0  0
 24 37  1  0  0  0
 26 27  1  0  0  0
 27 31  1  0  0  0
 27 35  1  0  0  0
 28 31  1  0  0  0
 29 31  1  0  0  0
 30 31  1  0  0  0
 32 35  1  0  0  0
 33 35  1  0  0  0
 34 35  1  0  0  0
 36 37  1  0  0  0
 38 39  1  0  0  0
 39 41  1  0  0  0
 40 41  1  0  0  0
 42 44  1  0  0  0
 43 44  1  0  0  0
 44 45  1  0  0  0
 45 46  1  0  0  0
 46 47  2  0  0  0
M  END
>  <ACTIVITY>
4.32

>  <SET>
1

>  <Min_dist>
999.9

>  <Avg_dist>
999.9

$$$$
zgg_d_lnhoh
  Cerius2 12110214373D 1   1.00000                          
Structure written by Cerius2 SD Exporter
 54 54  0  0  0  0  0  0  0  0999 V2000
    3.7965    1.1865   -0.1718 H   0  0  0  0  0  0
    3.8565   -0.5855   -0.3318 H   0  0  0  0  0  0
    3.6595    0.2395    0.3522 C   0  0  0  0  0  0
    4.3335   -0.2825    2.4222 H   0  0  0  0  0  0
    4.6155    0.1705    1.4712 N   0  0  0  0  0  0
    2.2455    0.1495    0.8252 C   0  0  0  0  0  0
    1.8885   -0.6795    1.6582 O   0  0  0  0  0  0
   -0.7115    1.5375   -3.5818 H   0  0  0  0  0  0
   -1.1845    0.7935   -2.9418 C   0  0  0  0  0  0
   -2.5485   -3.1795   -4.8978 H   0  0  0  0  0  0
   -1.6865   -2.5485   -4.6798 O   0  0  0  0  0  0
    1.4385    2.9745   -0.4618 H   0  0  0  0  0  0
    2.5945    1.8205   -1.1678 H   0  0  0  0  0  0
    1.5735    1.9505   -0.8098 C   0  0  0  0  0  0
    0.2965    0.9895    0.6982 H   0  0  0  0  0  0
    1.3035    1.0115    0.2832 N   0  0  0  0  0  0
    0.6045    1.6515   -1.9098 C   0  0  0  0  0  0
    0.7115    2.0335   -3.0718 O   0  0  0  0  0  0
    8.3326    5.6604   -2.8274 H   0  0  0  0  0  0
    7.5486    5.0234   -2.4174 C   0  0  0  0  0  0
   -0.8515    0.4955   -0.6918 H   0  0  0  0  0  0
   -0.5255    0.9065   -1.6478 N   0  0  0  0  0  0
   -3.1585    0.9045   -3.7848 H   0  0  0  0  0  0
   -3.1235    0.7225   -2.0148 H   0  0  0  0  0  0
   -2.6515    1.2085   -2.8698 C   0  0  0  0  0  0
   -0.8755   -0.4485   -3.7318 C   0  0  0  0  0  0
    0.1375   -0.7965   -4.3048 O   0  0  0  0  0  0
   -2.0425    3.0435   -1.9488 H   0  0  0  0  0  0
   -2.7555    2.7285   -2.7108 C   0  0  0  0  0  0
   -2.4875    4.5145   -3.8958 H   0  0  0  0  0  0
   -1.3885    3.1805   -4.3208 H   0  0  0  0  0  0
   -3.0995    3.1145   -4.8078 H   0  0  0  0  0  0
   -2.4075    3.4355   -4.0298 C   0  0  0  0  0  0
   -4.2235    4.1985   -2.1618 H   0  0  0  0  0  0
   -4.8815    2.7845   -3.0188 H   0  0  0  0  0  0
   -4.3875    2.6405   -1.3158 H   0  0  0  0  0  0
   -4.1625    3.1155   -2.2708 C   0  0  0  0  0  0
   -2.8845   -1.0455   -3.8068 H   0  0  0  0  0  0
   -1.8625   -1.3295   -4.0588 N   0  0  0  0  0  0
    8.9406    3.6834   -1.4624 H   0  0  0  0  0  0
    7.8916    3.9134   -1.6474 C   0  0  0  0  0  0
    6.8986    3.1014   -1.1184 C   0  0  0  0  0  0
    4.7746    2.7724   -0.9564 H   0  0  0  0  0  0
    5.5576    3.4074   -1.3694 C   0  0  0  0  0  0
    4.1626    4.7414   -2.3324 H   0  0  0  0  0  0
    5.2116    4.5134   -2.1414 C   0  0  0  0  0  0
    5.9506    6.1954   -3.2684 H   0  0  0  0  0  0
    6.2116    5.3254   -2.6654 C   0  0  0  0  0  0
    7.9456    1.2744   -0.8294 H   0  0  0  0  0  0
    7.7426    2.2564    0.6406 H   0  0  0  0  0  0
    7.2606    1.9154   -0.2754 C   0  0  0  0  0  0
    6.0830    1.1750    0.0560 O   0  0  0  0  0  0
    5.8875    0.6985    1.2822 C   0  0  0  0  0  0
    6.7585    0.7345    2.1602 O   0  0  0  0  0  0
  1  3  1  0  0  0
  2  3  1  0  0  0
  3  5  1  0  0  0
  3  6  1  0  0  0
  4  5  1  0  0  0
  5 53  1  0  0  0
  6  7  2  0  0  0
  6 16  1  0  0  0
  8  9  1  0  0  0
  9 22  1  0  0  0
  9 25  1  0  0  0
  9 26  1  0  0  0
 10 11  1  0  0  0
 11 39  1  0  0  0
 12 14  1  0  0  0
 13 14  1  0  0  0
 14 16  1  0  0  0
 14 17  1  0  0  0
 15 16  1  0  0  0
 17 18  2  0  0  0
 17 22  1  0  0  0
 19 20  1  0  0  0
 20 41  1  0  0  0
 20 48  2  0  0  0
 21 22  1  0  0  0
 23 25  1  0  0  0
 24 25  1  0  0  0
 25 29  1  0  0  0
 26 27  2  0  0  0
 26 39  1  0  0  0
 28 29  1  0  0  0
 29 33  1  0  0  0
 29 37  1  0  0  0
 30 33  1  0  0  0
 31 33  1  0  0  0
 32 33  1  0  0  0
 34 37  1  0  0  0
 35 37  1  0  0  0
 36 37  1  0  0  0
 38 39  1  0  0  0
 40 41  1  0  0  0
 41 42  2  0  0  0
 42 44  1  0  0  0
 42 51  1  0  0  0
 43 44  1  0  0  0
 44 46  2  0  0  0
 45 46  1  0  0  0
 46 48  1  0  0  0
 47 48  1  0  0  0
 49 51  1  0  0  0
 50 51  1  0  0  0
 51 52  1  0  0  0
 52 53  1  0  0  0
 53 54  2  0  0  0
M  END
>  <ACTIVITY>
3.6

>  <SET>
1

>  <Min_dist>
999.9

>  <Avg_dist>
999.9

$$$$
zgglnhoh
  Cerius2 12110214373D 1   1.00000                          
Structure written by Cerius2 SD Exporter
 54 54  0  0  0  0  0  0  0  0999 V2000
    4.0181    1.0586   -0.3552 H   0  0  0  0  0  0
    3.6291   -0.6724   -0.2142 H   0  0  0  0  0  0
    3.6971    0.2716    0.3268 C   0  0  0  0  0  0
    4.4561   -0.4344    2.3068 H   0  0  0  0  0  0
    4.6901    0.1356    1.4088 N   0  0  0  0  0  0
    2.3511    0.6186    0.8768 C   0  0  0  0  0  0
    1.9131    0.0936    1.8968 O   0  0  0  0  0  0
   -1.4869   -0.7714   -1.4462 H   0  0  0  0  0  0
   -1.1909   -0.0334   -2.1912 C   0  0  0  0  0  0
   -2.4419   -3.3964   -4.9232 H   0  0  0  0  0  0
   -1.7259   -2.6164   -4.6652 O   0  0  0  0  0  0
    1.9011    3.0956   -1.1912 H   0  0  0  0  0  0
    2.8551    1.6206   -1.4782 H   0  0  0  0  0  0
    1.8821    2.0066   -1.1712 C   0  0  0  0  0  0
    0.6741    1.9266    0.6788 H   0  0  0  0  0  0
    1.5661    1.5366    0.1898 N   0  0  0  0  0  0
    0.8171    1.4986   -2.1012 C   0  0  0  0  0  0
    0.7081    1.8316   -3.2792 O   0  0  0  0  0  0
    4.2936    4.7971   -2.5562 H   0  0  0  0  0  0
    5.3126    4.6491   -2.1982 C   0  0  0  0  0  0
    0.1351    0.3126   -0.4802 H   0  0  0  0  0  0
   -0.0479    0.5876   -1.5192 N   0  0  0  0  0  0
   -3.2459    0.2386   -2.7602 H   0  0  0  0  0  0
   -2.7569    1.1446   -1.3082 H   0  0  0  0  0  0
   -2.4579    0.8446   -2.3132 C   0  0  0  0  0  0
   -0.8979   -0.9344   -3.3512 C   0  0  0  0  0  0
   -0.0089   -0.9714   -4.2022 O   0  0  0  0  0  0
   -1.3369    2.5656   -2.9152 H   0  0  0  0  0  0
   -2.2999    2.1166   -3.1602 C   0  0  0  0  0  0
   -2.1859    2.7216   -5.2272 H   0  0  0  0  0  0
   -1.4729    1.1266   -4.8882 H   0  0  0  0  0  0
   -3.2409    1.3196   -4.9292 H   0  0  0  0  0  0
   -2.2999    1.7986   -4.6592 C   0  0  0  0  0  0
   -3.3029    4.0046   -3.4372 H   0  0  0  0  0  0
   -4.3859    2.6456   -3.0512 H   0  0  0  0  0  0
   -3.3769    3.3696   -1.7762 H   0  0  0  0  0  0
   -3.4229    3.1056   -2.8322 C   0  0  0  0  0  0
   -2.7269   -2.0064   -2.8102 H   0  0  0  0  0  0
   -1.9009   -1.8704   -3.5082 N   0  0  0  0  0  0
    4.8626    2.7931   -1.2022 H   0  0  0  0  0  0
    5.6346    3.5241   -1.4402 C   0  0  0  0  0  0
    6.9386    3.3291   -0.9831 C   0  0  0  0  0  0
    8.9456    4.1171   -0.9312 H   0  0  0  0  0  0
    7.9256    4.2661   -1.2841 C   0  0  0  0  0  0
    8.3756    6.1271   -2.2681 H   0  0  0  0  0  0
    7.6046    5.3911   -2.0372 C   0  0  0  0  0  0
    6.0586    6.4651   -3.0882 H   0  0  0  0  0  0
    6.3026    5.5831   -2.4962 C   0  0  0  0  0  0
    7.9856    1.4951   -0.7261 H   0  0  0  0  0  0
    7.7326    2.4241    0.7709 H   0  0  0  0  0  0
    7.2816    2.1141   -0.1711 C   0  0  0  0  0  0
    6.0940    1.3630    0.0940 O   0  0  0  0  0  0
    5.9311    0.7496    1.2628 C   0  0  0  0  0  0
    6.8121    0.7336    2.1298 O   0  0  0  0  0  0
  1  3  1  0  0  0
  2  3  1  0  0  0
  3  5  1  0  0  0
  3  6  1  0  0  0
  4  5  1  0  0  0
  5 53  1  0  0  0
  6  7  2  0  0  0
  6 16  1  0  0  0
  8  9  1  0  0  0
  9 22  1  0  0  0
  9 25  1  0  0  0
  9 26  1  0  0  0
 10 11  1  0  0  0
 11 39  1  0  0  0
 12 14  1  0  0  0
 13 14  1  0  0  0
 14 16  1  0  0  0
 14 17  1  0  0  0
 15 16  1  0  0  0
 17 18  2  0  0  0
 17 22  1  0  0  0
 19 20  1  0  0  0
 20 41  1  0  0  0
 20 48  2  0  0  0
 21 22  1  0  0  0
 23 25  1  0  0  0
 24 25  1  0  0  0
 25 29  1  0  0  0
 26 27  2  0  0  0
 26 39  1  0  0  0
 28 29  1  0  0  0
 29 33  1  0  0  0
 29 37  1  0  0  0
 30 33  1  0  0  0
 31 33  1  0  0  0
 32 33  1  0  0  0
 34 37  1  0  0  0
 35 37  1  0  0  0
 36 37  1  0  0  0
 38 39  1  0  0  0
 40 41  1  0  0  0
 41 42  2  0  0  0
 42 44  1  0  0  0
 42 51  1  0  0  0
 43 44  1  0  0  0
 44 46  2  0  0  0
 45 46  1  0  0  0
 46 48  1  0  0  0
 47 48  1  0  0  0
 49 51  1  0  0  0
 50 51  1  0  0  0
 51 52  1  0  0  0
 52 53  1  0  0  0
 53 54  2  0  0  0
M  END
>  <ACTIVITY>
4.41

>  <SET>
1

>  <Min_dist>
999.9

>  <Avg_dist>
999.9

$$$$
zggnhoh
  Cerius2 12110214373D 1   1.00000                          
Structure written by Cerius2 SD Exporter
 35 35  0  0  0  0  0  0  0  0999 V2000
    7.1658    3.1867   -1.2727 H   0  0  0  0  0  0
    7.0498    2.4777   -0.4517 C   0  0  0  0  0  0
    5.0398    1.9357   -1.0047 H   0  0  0  0  0  0
    5.8558    1.7737   -0.3017 C   0  0  0  0  0  0
   -2.5654    0.2304   -2.6166 H   0  0  0  0  0  0
   -1.7074    1.4394   -3.6026 H   0  0  0  0  0  0
   -1.5874    0.5714   -2.9546 C   0  0  0  0  0  0
    5.7008    0.8647    0.7433 C   0  0  0  0  0  0
   -2.4944   -3.3756   -4.8076 H   0  0  0  0  0  0
   -1.6464   -2.7216   -4.6056 O   0  0  0  0  0  0
   -1.0604    0.6604   -0.7756 H   0  0  0  0  0  0
   -0.8024    0.9634   -1.7906 N   0  0  0  0  0  0
    0.9386    3.0904   -0.5506 H   0  0  0  0  0  0
    2.2406    2.1344   -1.2986 H   0  0  0  0  0  0
    1.2086    2.1124   -0.9506 C   0  0  0  0  0  0
    0.0396    0.8374    0.4124 H   0  0  0  0  0  0
    1.0486    1.0864    0.0844 N   0  0  0  0  0  0
    0.2966    1.7534   -2.0786 C   0  0  0  0  0  0
    0.4736    2.1064   -3.2426 O   0  0  0  0  0  0
    6.6328   -0.0403    2.4633 H   0  0  0  0  0  0
    6.7488    0.6677    1.6423 C   0  0  0  0  0  0
   -0.9404   -0.5336   -3.7446 C   0  0  0  0  0  0
    0.1396   -0.7506   -4.2706 O   0  0  0  0  0  0
   -2.8914   -1.2286   -3.8686 H   0  0  0  0  0  0
   -1.8514   -1.4876   -4.0676 N   0  0  0  0  0  0
    8.7588    1.2137    2.2023 H   0  0  0  0  0  0
    7.9438    1.3707    1.4963 C   0  0  0  0  0  0
    9.0298    2.8227    0.3293 H   0  0  0  0  0  0
    8.0948    2.2747    0.4463 C   0  0  0  0  0  0
    4.5728   -0.9093    0.4403 H   0  0  0  0  0  0
    4.2048   -0.0393    1.9493 H   0  0  0  0  0  0
    4.4328    0.0747    0.8893 C   0  0  0  0  0  0
    3.3360    0.7280    0.2450 O   0  0  0  0  0  0
    2.1166    0.4114    0.6714 C   0  0  0  0  0  0
    1.9356   -0.4396    1.5474 O   0  0  0  0  0  0
  1  2  1  0  0  0
  2  4  1  0  0  0
  2 29  2  0  0  0
  3  4  1  0  0  0
  4  8  2  0  0  0
  5  7  1  0  0  0
  6  7  1  0  0  0
  7 12  1  0  0  0
  7 22  1  0  0  0
  8 21  1  0  0  0
  8 32  1  0  0  0
  9 10  1  0  0  0
 10 25  1  0  0  0
 11 12  1  0  0  0
 12 18  1  0  0  0
 13 15  1  0  0  0
 14 15  1  0  0  0
 15 17  1  0  0  0
 15 18  1  0  0  0
 16 17  1  0  0  0
 17 34  1  0  0  0
 18 19  2  0  0  0
 20 21  1  0  0  0
 21 27  2  0  0  0
 22 23  2  0  0  0
 22 25  1  0  0  0
 24 25  1  0  0  0
 26 27  1  0  0  0
 27 29  1  0  0  0
 28 29  1  0  0  0
 30 32  1  0  0  0
 31 32  1  0  0  0
 32 33  1  0  0  0
 33 34  1  0  0  0
 34 35  2  0  0  0
M  END
>  <ACTIVITY>
3.03

>  <SET>
2

>  <Min_dist>
0.15

>  <Avg_dist>
0.41

$$$$
zglnh2
  Cerius2 12110214373D 1   1.00000                          
Structure written by Cerius2 SD Exporter
 46 46  0  0  0  0  0  0  0  0999 V2000
    8.9948    1.1779    2.4066 H   0  0  0  0  0  0
    8.1808    1.2929    1.6916 C   0  0  0  0  0  0
    6.8678   -0.0561    2.7426 H   0  0  0  0  0  0
    6.9848    0.6009    1.8796 C   0  0  0  0  0  0
   -1.7086   -0.8443   -1.3459 H   0  0  0  0  0  0
   -1.3926   -0.3073   -2.2399 C   0  0  0  0  0  0
    5.9378    0.7439    0.9706 C   0  0  0  0  0  0
    0.2604   -0.2323   -0.8379 H   0  0  0  0  0  0
   -0.0996    0.2137   -1.7649 N   0  0  0  0  0  0
    1.8074    2.7477   -1.3379 H   0  0  0  0  0  0
    2.7594    1.2767   -1.6489 H   0  0  0  0  0  0
    1.7834    1.6587   -1.3489 C   0  0  0  0  0  0
    0.4354    1.3117    0.3751 H   0  0  0  0  0  0
    1.4434    1.1547   -0.0089 N   0  0  0  0  0  0
    0.7364    1.1827   -2.3079 C   0  0  0  0  0  0
    0.6534    1.6197   -3.4529 O   0  0  0  0  0  0
    5.2798    1.7049   -0.8424 H   0  0  0  0  0  0
    6.0958    1.5869   -0.1294 C   0  0  0  0  0  0
   -3.4126    0.1907   -2.7719 H   0  0  0  0  0  0
   -2.7926    1.0527   -1.3439 H   0  0  0  0  0  0
   -2.5536    0.7137   -2.3519 C   0  0  0  0  0  0
   -1.4076   -1.5323   -3.1239 C   0  0  0  0  0  0
   -0.8006   -1.7493   -4.1669 O   0  0  0  0  0  0
   -1.2996    2.3227   -2.9829 H   0  0  0  0  0  0
   -2.3016    1.9597   -3.2129 C   0  0  0  0  0  0
   -2.1666    2.5467   -5.2799 H   0  0  0  0  0  0
   -1.5846    0.8987   -4.9439 H   0  0  0  0  0  0
   -3.3306    1.2397   -4.9619 H   0  0  0  0  0  0
   -2.3496    1.6387   -4.7069 C   0  0  0  0  0  0
   -3.1436    3.9237   -3.4959 H   0  0  0  0  0  0
   -4.3336    2.6677   -3.0799 H   0  0  0  0  0  0
   -3.2466    3.3137   -1.8269 H   0  0  0  0  0  0
   -3.3306    3.0447   -2.8799 C   0  0  0  0  0  0
   -2.3496   -3.4583   -3.3019 H   0  0  0  0  0  0
   -2.8806   -2.4103   -1.8249 H   0  0  0  0  0  0
   -2.2746   -2.5393   -2.7209 N   0  0  0  0  0  0
    7.4068    2.9369   -1.1844 H   0  0  0  0  0  0
    7.2888    2.2799   -0.3224 C   0  0  0  0  0  0
    9.2688    2.6709    0.4396 H   0  0  0  0  0  0
    8.3328    2.1309    0.5886 C   0  0  0  0  0  0
    4.8268   -1.0671    0.8836 H   0  0  0  0  0  0
    4.3608    0.0299    2.2056 H   0  0  0  0  0  0
    4.6618   -0.0251    1.1596 C   0  0  0  0  0  0
    3.6250    0.5210    0.3400 O   0  0  0  0  0  0
    2.3704    0.4857    0.7801 C   0  0  0  0  0  0
    2.0474   -0.1013    1.8161 O   0  0  0  0  0  0
  1  2  1  0  0  0
  2  4  1  0  0  0
  2 40  2  0  0  0
  3  4  1  0  0  0
  4  7  2  0  0  0
  5  6  1  0  0  0
  6  9  1  0  0  0
  6 21  1  0  0  0
  6 22  1  0  0  0
  7 18  1  0  0  0
  7 43  1  0  0  0
  8  9  1  0  0  0
  9 15  1  0  0  0
 10 12  1  0  0  0
 11 12  1  0  0  0
 12 14  1  0  0  0
 12 15  1  0  0  0
 13 14  1  0  0  0
 14 45  1  0  0  0
 15 16  2  0  0  0
 17 18  1  0  0  0
 18 38  2  0  0  0
 19 21  1  0  0  0
 20 21  1  0  0  0
 21 25  1  0  0  0
 22 23  2  0  0  0
 22 36  1  0  0  0
 24 25  1  0  0  0
 25 29  1  0  0  0
 25 33  1  0  0  0
 26 29  1  0  0  0
 27 29  1  0  0  0
 28 29  1  0  0  0
 30 33  1  0  0  0
 31 33  1  0  0  0
 32 33  1  0  0  0
 34 36  1  0  0  0
 35 36  1  0  0  0
 37 38  1  0  0  0
 38 40  1  0  0  0
 39 40  1  0  0  0
 41 43  1  0  0  0
 42 43  1  0  0  0
 43 44  1  0  0  0
 44 45  1  0  0  0
 45 46  2  0  0  0
M  END
>  <ACTIVITY>
1.68

>  <SET>
1

>  <Min_dist>
999.9

>  <Avg_dist>
999.9

$$$$
zglnhoh
  Cerius2 12110214373D 1   1.00000                          
Structure written by Cerius2 SD Exporter
 47 47  0  0  0  0  0  0  0  0999 V2000
    7.5331    2.9958   -1.1802 H   0  0  0  0  0  0
    7.3681    2.3288   -0.3342 C   0  0  0  0  0  0
    5.3641    1.8138   -0.9362 H   0  0  0  0  0  0
    6.1501    1.6638   -0.1962 C   0  0  0  0  0  0
   -1.5967   -0.6839   -1.6849 H   0  0  0  0  0  0
   -1.2647    0.1371   -2.3209 C   0  0  0  0  0  0
    5.9321    0.8078    0.8828 C   0  0  0  0  0  0
   -2.5967   -3.1069   -5.0909 H   0  0  0  0  0  0
   -1.7187   -2.5509   -4.7639 O   0  0  0  0  0  0
   -0.1347    0.4791   -0.4629 H   0  0  0  0  0  0
   -0.2117    0.7441   -1.5179 N   0  0  0  0  0  0
    1.5573    3.2741   -0.9799 H   0  0  0  0  0  0
    2.6953    1.9691   -1.3929 H   0  0  0  0  0  0
    1.6803    2.1941   -1.0659 C   0  0  0  0  0  0
    0.4613    1.7311    0.7251 H   0  0  0  0  0  0
    1.4173    1.5541    0.2331 N   0  0  0  0  0  0
    0.6923    1.6431   -2.0479 C   0  0  0  0  0  0
    0.6573    1.9401   -3.2389 O   0  0  0  0  0  0
    6.7761   -0.0452    2.6728 H   0  0  0  0  0  0
    6.9411    0.6218    1.8268 C   0  0  0  0  0  0
   -3.3087    0.3851   -2.9409 H   0  0  0  0  0  0
   -2.8757    1.2721   -1.4599 H   0  0  0  0  0  0
   -2.5427    0.9931   -2.4599 C   0  0  0  0  0  0
   -0.8477   -0.6879   -3.5099 C   0  0  0  0  0  0
    0.1163   -0.9109   -4.2259 O   0  0  0  0  0  0
   -1.3947    2.7061   -3.0279 H   0  0  0  0  0  0
   -2.3657    2.2801   -3.2819 C   0  0  0  0  0  0
   -2.2467    2.9251   -5.3359 H   0  0  0  0  0  0
   -1.5577    1.3131   -5.0309 H   0  0  0  0  0  0
   -3.3237    1.5351   -5.0639 H   0  0  0  0  0  0
   -2.3737    1.9921   -4.7869 C   0  0  0  0  0  0
   -3.3307    4.1921   -3.5199 H   0  0  0  0  0  0
   -4.4407    2.8491   -3.1549 H   0  0  0  0  0  0
   -3.4127    3.5281   -1.8709 H   0  0  0  0  0  0
   -3.4667    3.2851   -2.9319 C   0  0  0  0  0  0
   -2.8777   -1.1659   -3.6949 H   0  0  0  0  0  0
   -1.8647   -1.4529   -3.9749 N   0  0  0  0  0  0
    8.9441    1.1388    2.4348 H   0  0  0  0  0  0
    8.1591    1.2858    1.6928 C   0  0  0  0  0  0
    9.3271    2.6558    0.5048 H   0  0  0  0  0  0
    8.3731    2.1388    0.6118 C   0  0  0  0  0  0
    4.7301   -0.9162    0.5578 H   0  0  0  0  0  0
    4.3821   -0.0392    2.0668 H   0  0  0  0  0  0
    4.6301    0.0698    1.0108 C   0  0  0  0  0  0
    3.5830    0.7870    0.3520 O   0  0  0  0  0  0
    2.3523    0.7311    0.8531 C   0  0  0  0  0  0
    2.0533   -0.0059    1.7981 O   0  0  0  0  0  0
  1  2  1  0  0  0
  2  4  1  0  0  0
  2 41  2  0  0  0
  3  4  1  0  0  0
  4  7  2  0  0  0
  5  6  1  0  0  0
  6 11  1  0  0  0
  6 23  1  0  0  0
  6 24  1  0  0  0
  7 20  1  0  0  0
  7 44  1  0  0  0
  8  9  1  0  0  0
  9 37  1  0  0  0
 10 11  1  0  0  0
 11 17  1  0  0  0
 12 14  1  0  0  0
 13 14  1  0  0  0
 14 16  1  0  0  0
 14 17  1  0  0  0
 15 16  1  0  0  0
 16 46  1  0  0  0
 17 18  2  0  0  0
 19 20  1  0  0  0
 20 39  2  0  0  0
 21 23  1  0  0  0
 22 23  1  0  0  0
 23 27  1  0  0  0
 24 25  2  0  0  0
 24 37  1  0  0  0
 26 27  1  0  0  0
 27 31  1  0  0  0
 27 35  1  0  0  0
 28 31  1  0  0  0
 29 31  1  0  0  0
 30 31  1  0  0  0
 32 35  1  0  0  0
 33 35  1  0  0  0
 34 35  1  0  0  0
 36 37  1  0  0  0
 38 39  1  0  0  0
 39 41  1  0  0  0
 40 41  1  0  0  0
 42 44  1  0  0  0
 43 44  1  0  0  0
 44 45  1  0  0  0
 45 46  1  0  0  0
 46 47  2  0  0  0
M  END
>  <ACTIVITY>
4.89

>  <SET>
1

>  <Min_dist>
999.9

>  <Avg_dist>
999.9

$$$$
zglnmeoh
  Cerius2 12110214373D 1   1.00000                          
Structure written by Cerius2 SD Exporter
 50 50  0  0  0  0  0  0  0  0999 V2000
    8.8022    1.2895    2.0173 H   0  0  0  0  0  0
    7.9602    1.4595    1.3463 C   0  0  0  0  0  0
    6.6952    0.0165    2.3263 H   0  0  0  0  0  0
    6.7762    0.7455    1.5193 C   0  0  0  0  0  0
   -2.4111   -0.3974   -2.1495 H   0  0  0  0  0  0
   -1.4751   -0.1204   -2.6345 C   0  0  0  0  0  0
    5.6942    0.9575    0.6653 C   0  0  0  0  0  0
    1.1719   -3.8764   -1.5025 H   0  0  0  0  0  0
    0.7949   -3.1804   -2.2525 O   0  0  0  0  0  0
   -0.9731    0.6876   -0.6565 H   0  0  0  0  0  0
   -0.7131    0.7366   -1.7135 N   0  0  0  0  0  0
    0.7099    3.0966   -0.6035 H   0  0  0  0  0  0
    2.1579    2.2776   -1.2355 H   0  0  0  0  0  0
    1.1189    2.1426   -0.9375 C   0  0  0  0  0  0
    0.0319    0.9096    0.5185 H   0  0  0  0  0  0
    1.0239    1.1486    0.1335 N   0  0  0  0  0  0
    0.3199    1.6106   -2.0795 C   0  0  0  0  0  0
    0.5609    1.9276   -3.2455 O   0  0  0  0  0  0
    4.9612    2.0705   -1.0267 H   0  0  0  0  0  0
    5.8052    1.8945   -0.3597 C   0  0  0  0  0  0
   -1.0011    0.7856   -4.5315 H   0  0  0  0  0  0
   -2.5881   -0.0174   -4.4775 H   0  0  0  0  0  0
   -1.8921    0.6156   -3.9275 C   0  0  0  0  0  0
   -0.6811   -1.3704   -2.9215 C   0  0  0  0  0  0
   -0.3881   -1.6874   -4.0665 O   0  0  0  0  0  0
   -1.8301    2.6126   -3.1775 H   0  0  0  0  0  0
   -2.5711    1.9766   -3.6625 C   0  0  0  0  0  0
   -3.4841    3.5796   -4.7795 H   0  0  0  0  0  0
   -2.1331    2.7766   -5.6165 H   0  0  0  0  0  0
   -3.7121    1.9636   -5.4915 H   0  0  0  0  0  0
   -3.0061    2.6206   -4.9825 C   0  0  0  0  0  0
   -4.1971    2.8586   -2.5475 H   0  0  0  0  0  0
   -4.5111    1.2016   -3.1145 H   0  0  0  0  0  0
   -3.4171    1.4786   -1.7385 H   0  0  0  0  0  0
   -3.7601    1.8716   -2.6955 C   0  0  0  0  0  0
   -0.2191   -2.2594   -1.9125 N   0  0  0  0  0  0
    7.0682    3.3405   -1.3427 H   0  0  0  0  0  0
    6.9882    2.6105   -0.5377 C   0  0  0  0  0  0
    8.9952    2.9475    0.1763 H   0  0  0  0  0  0
    8.0682    2.3915    0.3153 C   0  0  0  0  0  0
    4.5712   -0.8215    0.3773 H   0  0  0  0  0  0
    4.2382    0.0325    1.9033 H   0  0  0  0  0  0
    4.4362    0.1565    0.8383 C   0  0  0  0  0  0
    3.3180    0.8080    0.2300 O   0  0  0  0  0  0
    2.1129    0.4876    0.6925 C   0  0  0  0  0  0
    1.9599   -0.3614    1.5765 O   0  0  0  0  0  0
   -1.4581   -1.6364   -0.3365 H   0  0  0  0  0  0
   -1.0801   -3.3754   -0.3565 H   0  0  0  0  0  0
    0.1579   -2.2014    0.1525 H   0  0  0  0  0  0
   -0.6791   -2.3754   -0.5235 C   0  0  0  0  0  0
  1  2  1  0  0  0
  2  4  1  0  0  0
  2 40  2  0  0  0
  3  4  1  0  0  0
  4  7  2  0  0  0
  5  6  1  0  0  0
  6 11  1  0  0  0
  6 23  1  0  0  0
  6 24  1  0  0  0
  7 20  1  0  0  0
  7 43  1  0  0  0
  8  9  1  0  0  0
  9 36  1  0  0  0
 10 11  1  0  0  0
 11 17  1  0  0  0
 12 14  1  0  0  0
 13 14  1  0  0  0
 14 16  1  0  0  0
 14 17  1  0  0  0
 15 16  1  0  0  0
 16 45  1  0  0  0
 17 18  2  0  0  0
 19 20  1  0  0  0
 20 38  2  0  0  0
 21 23  1  0  0  0
 22 23  1  0  0  0
 23 27  1  0  0  0
 24 25  2  0  0  0
 24 36  1  0  0  0
 26 27  1  0  0  0
 27 31  1  0  0  0
 27 35  1  0  0  0
 28 31  1  0  0  0
 29 31  1  0  0  0
 30 31  1  0  0  0
 32 35  1  0  0  0
 33 35  1  0  0  0
 34 35  1  0  0  0
 36 50  1  0  0  0
 37 38  1  0  0  0
 38 40  1  0  0  0
 39 40  1  0  0  0
 41 43  1  0  0  0
 42 43  1  0  0  0
 43 44  1  0  0  0
 44 45  1  0  0  0
 45 46  2  0  0  0
 47 50  1  0  0  0
 48 50  1  0  0  0
 49 50  1  0  0  0
M  END
>  <ACTIVITY>
2.65

>  <SET>
1

>  <Min_dist>
999.9

>  <Avg_dist>
999.9

$$$$
zgly
  Cerius2 12110214373D 1   1.00000                          
Structure written by Cerius2 SD Exporter
 77 78  0  0  0  0  0  0  0  0999 V2000
    1.9700  -11.9880   -8.4450 H   0  0  0  0  0  0
    1.6130  -11.6030   -7.4900 C   0  0  0  0  0  0
    0.9910   -9.7130   -8.3130 H   0  0  0  0  0  0
    1.0630  -10.3260   -7.4140 C   0  0  0  0  0  0
    0.6030   -9.8270   -6.1980 C   0  0  0  0  0  0
    0.3320  -10.2290   -4.0990 H   0  0  0  0  0  0
    0.6940  -10.6140   -5.0520 C   0  0  0  0  0  0
    1.3160  -12.5050   -4.2230 H   0  0  0  0  0  0
    1.2450  -11.8920   -5.1220 C   0  0  0  0  0  0
    2.1390  -13.3870   -6.3970 H   0  0  0  0  0  0
    1.7070  -12.3880   -6.3420 C   0  0  0  0  0  0
    0.3590   -7.8480   -6.9500 H   0  0  0  0  0  0
   -1.0710   -8.5110   -6.1250 H   0  0  0  0  0  0
    0.0170   -8.4470   -6.1060 C   0  0  0  0  0  0
    0.4370   -7.8410   -4.8920 O   0  0  0  0  0  0
   -0.4640   -7.2030   -4.1090 C   0  0  0  0  0  0
   -1.6190   -6.9770   -4.4840 O   0  0  0  0  0  0
   -1.7310   -5.8200   -2.3550 H   0  0  0  0  0  0
   -1.0350   -6.8080   -1.0480 H   0  0  0  0  0  0
   -0.8040   -6.1360   -1.8740 C   0  0  0  0  0  0
    1.0590   -7.0970   -2.5970 H   0  0  0  0  0  0
    0.0310   -6.8450   -2.8550 N   0  0  0  0  0  0
   -0.0880   -4.9260   -1.3410 C   0  0  0  0  0  0
    1.0740   -4.6550   -1.6510 O   0  0  0  0  0  0
   -1.8190   -4.4420   -0.1920 H   0  0  0  0  0  0
   -0.8230   -4.1080   -0.4840 N   0  0  0  0  0  0
   -1.1360   -2.3640    0.6540 H   0  0  0  0  0  0
    0.5280   -2.9960    0.6870 H   0  0  0  0  0  0
   -0.3430   -2.8150    0.0570 C   0  0  0  0  0  0
    0.2260   -0.8560   -0.6410 H   0  0  0  0  0  0
    0.9590   -2.2010   -1.5480 H   0  0  0  0  0  0
    0.0480   -1.8440   -1.0680 C   0  0  0  0  0  0
   -1.7540   -2.5700   -1.9370 H   0  0  0  0  0  0
   -1.0650   -1.7440   -2.1160 C   0  0  0  0  0  0
   -0.5530   -1.9930   -3.4950 C   0  0  0  0  0  0
   -0.0790   -1.1390   -4.2050 O   0  5  0  0  0  0
   -0.5050   -3.1770   -4.1340 O   0  0  0  0  0  0
   -1.8460    0.4690   -3.7340 H   0  0  0  0  0  0
   -1.7790    0.7120   -2.6730 C   0  0  0  0  0  0
   -2.9810   -0.9180   -2.1970 H   0  0  0  0  0  0
   -1.9820   -0.5690   -1.9350 N   0  0  0  0  0  0
   -3.8460    1.2410   -2.3980 H   0  0  0  0  0  0
   -2.7360    1.9680   -1.2120 H   0  0  0  0  0  0
   -2.8710    1.7090   -2.2620 C   0  0  0  0  0  0
   -0.4140    1.3320   -2.4950 C   0  0  0  0  0  0
    0.1530    1.8490   -3.4630 O   0  0  0  0  0  0
   -1.7840    3.3460   -3.1200 H   0  0  0  0  0  0
   -2.8160    2.9930   -3.1010 C   0  0  0  0  0  0
   -3.1940    3.6510   -5.1220 H   0  0  0  0  0  0
   -2.5740    1.9870   -4.9960 H   0  0  0  0  0  0
   -4.2640    2.3430   -4.5640 H   0  0  0  0  0  0
   -3.2430    2.7240   -4.5510 C   0  0  0  0  0  0
   -3.6410    4.9840   -3.0730 H   0  0  0  0  0  0
   -4.7210    3.7310   -2.4160 H   0  0  0  0  0  0
   -3.3290    4.2950   -1.4620 H   0  0  0  0  0  0
   -3.6890    4.0790   -2.4670 C   0  0  0  0  0  0
    2.0550    1.6380   -2.0330 H   0  0  0  0  0  0
    1.5610    1.7670   -1.0690 C   0  0  0  0  0  0
   -0.4060    0.9700   -0.3710 H   0  0  0  0  0  0
    0.1650    1.3150   -1.2340 N   0  0  0  0  0  0
    2.3010    0.9100   -0.0770 C   0  0  0  0  0  0
    3.5140    0.7310   -0.0990 O   0  5  0  0  0  0
    2.6870    3.5990   -0.9480 H   0  0  0  0  0  0
    0.9790    3.8130   -1.4030 H   0  0  0  0  0  0
    1.6660    3.2700   -0.7530 C   0  0  0  0  0  0
    1.3230    3.5830    0.6770 C   0  0  0  0  0  0
    3.3790    3.9370    1.2170 H   0  0  0  0  0  0
    2.3470    3.9040    1.5680 C   0  0  0  0  0  0
   -0.8010    3.3000    0.4380 H   0  0  0  0  0  0
    0.0050    3.5450    1.1290 C   0  0  0  0  0  0
    2.8650    4.4330    3.5930 H   0  0  0  0  0  0
    2.0600    4.1820    2.9020 C   0  0  0  0  0  0
   -1.3120    3.7850    2.8140 H   0  0  0  0  0  0
   -0.2810    3.8200    2.4630 C   0  0  0  0  0  0
    0.5140    4.3530    4.3950 H   0  0  0  0  0  0
    0.7430    4.1380    3.3520 C   0  0  0  0  0  0
    1.5640    0.3270    0.8940 O   0  0  0  0  0  0
  1  2  1  0  0  0
  2  4  1  0  0  0
  2 11  2  0  0  0
  3  4  1  0  0  0
  4  5  2  0  0  0
  5  7  1  0  0  0
  5 14  1  0  0  0
  6  7  1  0  0  0
  7  9  2  0  0  0
  8  9  1  0  0  0
  9 11  1  0  0  0
 10 11  1  0  0  0
 12 14  1  0  0  0
 13 14  1  0  0  0
 14 15  1  0  0  0
 15 16  1  0  0  0
 16 17  2  0  0  0
 16 22  1  0  0  0
 18 20  1  0  0  0
 19 20  1  0  0  0
 20 22  1  0  0  0
 20 23  1  0  0  0
 21 22  1  0  0  0
 23 24  2  0  0  0
 23 26  1  0  0  0
 25 26  1  0  0  0
 26 29  1  0  0  0
 27 29  1  0  0  0
 28 29  1  0  0  0
 29 32  1  0  0  0
 30 32  1  0  0  0
 31 32  1  0  0  0
 32 34  1  0  0  0
 33 34  1  0  0  0
 34 35  1  0  0  0
 34 41  1  0  0  0
 35 36  1  0  0  0
 35 37  2  0  0  0
 38 39  1  0  0  0
 39 41  1  0  0  0
 39 44  1  0  0  0
 39 45  1  0  0  0
 40 41  1  0  0  0
 42 44  1  0  0  0
 43 44  1  0  0  0
 44 48  1  0  0  0
 45 46  2  0  0  0
 45 60  1  0  0  0
 47 48  1  0  0  0
 48 52  1  0  0  0
 48 56  1  0  0  0
 49 52  1  0  0  0
 50 52  1  0  0  0
 51 52  1  0  0  0
 53 56  1  0  0  0
 54 56  1  0  0  0
 55 56  1  0  0  0
 57 58  1  0  0  0
 58 60  1  0  0  0
 58 61  1  0  0  0
 58 65  1  0  0  0
 59 60  1  0  0  0
 61 62  1  0  0  0
 61 77  2  0  0  0
 63 65  1  0  0  0
 64 65  1  0  0  0
 65 66  1  0  0  0
 66 68  2  0  0  0
 66 70  1  0  0  0
 67 68  1  0  0  0
 68 72  1  0  0  0
 69 70  1  0  0  0
 70 74  2  0  0  0
 71 72  1  0  0  0
 72 76  2  0  0  0
 73 74  1  0  0  0
 74 76  1  0  0  0
 75 76  1  0  0  0
M  CHG  2  36  -1  62  -1
M  END
>  <ACTIVITY>
6.39

>  <SET>
1

>  <Min_dist>
999.9

>  <Avg_dist>
999.9

$$$$
zgpcla
  Cerius2 12110214373D 1   1.00000                          
Structure written by Cerius2 SD Exporter
 56 56  0  0  0  0  0  0  0  0999 V2000
    0.2660   -4.6560   -0.8360 C   0  0  0  0  0  0
   -1.5660   -3.7450   -1.5540 H   0  0  0  0  0  0
   -0.4770   -3.6960   -1.5230 N   0  0  0  0  0  0
    0.5880   -1.8920   -1.4610 H   0  0  0  0  0  0
    1.1190   -3.0400   -2.7120 H   0  0  0  0  0  0
    0.2540   -2.6140   -2.2060 C   0  0  0  0  0  0
    1.4950   -4.5770   -0.6900 O   0  0  0  0  0  0
   -0.4450   -5.7050   -0.3500 O   0  0  0  0  0  0
    1.1600   -6.9860   -0.1810 H   0  0  0  0  0  0
    0.5580   -6.3030    1.3480 H   0  0  0  0  0  0
    0.2680   -6.7020    0.3760 C   0  0  0  0  0  0
   -0.5980   -7.9070    0.5730 C   0  0  0  0  0  0
   -1.6730   -7.0790    2.2510 H   0  0  0  0  0  0
   -1.5600   -7.9320    1.5830 C   0  0  0  0  0  0
    0.3000   -8.9730   -1.0700 H   0  0  0  0  0  0
   -0.4530   -8.9960   -0.2820 C   0  0  0  0  0  0
   -3.1300   -9.0750    2.5230 H   0  0  0  0  0  0
   -2.3770   -9.0510    1.7350 C   0  0  0  0  0  0
   -1.1580  -10.9690   -0.8000 H   0  0  0  0  0  0
   -1.2700  -10.1150   -0.1320 C   0  0  0  0  0  0
   -2.8690  -11.0140    0.9950 H   0  0  0  0  0  0
   -2.2290  -10.1390    0.8760 C   0  0  0  0  0  0
   -0.7760   -1.7590   -3.4270 P   0  0  0  0  0  0
    0.0580   -0.9570   -4.3470 O   0  5  0  0  0  0
   -1.5970   -2.8760   -4.3210 O   0  0  0  0  0  0
   -2.9220   -0.9820   -2.7060 H   0  0  0  0  0  0
   -1.6760   -0.7330   -1.4610 H   0  0  0  0  0  0
   -1.8950   -0.6670   -2.5260 C   0  0  0  0  0  0
   -1.6710    0.8000   -4.0730 H   0  0  0  0  0  0
   -1.7300    0.7960   -2.9840 C   0  0  0  0  0  0
   -0.4650    1.3990   -2.4360 C   0  0  0  0  0  0
    0.3640    2.0170   -3.1180 O   0  0  0  0  0  0
   -3.8500    1.1500   -2.8720 H   0  0  0  0  0  0
   -2.9350    1.7010   -1.4480 H   0  0  0  0  0  0
   -2.9320    1.6320   -2.5360 C   0  0  0  0  0  0
   -1.8400    3.4160   -2.9780 H   0  0  0  0  0  0
   -2.8520    3.0420   -3.1320 C   0  0  0  0  0  0
   -3.0660    4.0240   -5.0410 H   0  0  0  0  0  0
   -2.3880    2.3810   -5.1330 H   0  0  0  0  0  0
   -4.1250    2.6110   -4.8210 H   0  0  0  0  0  0
   -3.1280    3.0130   -4.6410 C   0  0  0  0  0  0
   -3.7490    4.9800   -2.8640 H   0  0  0  0  0  0
   -4.8410    3.6130   -2.5390 H   0  0  0  0  0  0
   -3.5730    4.0380   -1.3650 H   0  0  0  0  0  0
   -3.8240    3.9860   -2.4240 C   0  0  0  0  0  0
   -1.0320    0.7200   -0.4760 H   0  0  0  0  0  0
   -0.2890    1.2620   -1.0610 N   0  0  0  0  0  0
    1.4130    2.4720   -1.1000 H   0  0  0  0  0  0
    0.8890    1.8380   -0.3840 C   0  0  0  0  0  0
    1.8400    0.7620    0.0610 C   0  0  0  0  0  0
    1.5600   -0.1380    0.8470 O   0  5  0  0  0  0
    1.3350    3.1200    1.2940 H   0  0  0  0  0  0
   -0.1840    3.5130    0.4540 H   0  0  0  0  0  0
   -0.0990    2.0890    1.5180 H   0  0  0  0  0  0
    0.4540    2.7030    0.8070 C   0  0  0  0  0  0
    3.0920    0.8240   -0.4450 O   0  0  0  0  0  0
  1  3  1  0  0  0
  1  7  2  0  0  0
  1  8  1  0  0  0
  2  3  1  0  0  0
  3  6  1  0  0  0
  4  6  1  0  0  0
  5  6  1  0  0  0
  6 23  1  0  0  0
  8 11  1  0  0  0
  9 11  1  0  0  0
 10 11  1  0  0  0
 11 12  1  0  0  0
 12 14  2  0  0  0
 12 16  1  0  0  0
 13 14  1  0  0  0
 14 18  1  0  0  0
 15 16  1  0  0  0
 16 20  2  0  0  0
 17 18  1  0  0  0
 18 22  2  0  0  0
 19 20  1  0  0  0
 20 22  1  0  0  0
 21 22  1  0  0  0
 23 24  1  0  0  0
 23 25  2  0  0  0
 23 28  1  0  0  0
 26 28  1  0  0  0
 27 28  1  0  0  0
 28 30  1  0  0  0
 29 30  1  0  0  0
 30 31  1  0  0  0
 30 35  1  0  0  0
 31 32  2  0  0  0
 31 47  1  0  0  0
 33 35  1  0  0  0
 34 35  1  0  0  0
 35 37  1  0  0  0
 36 37  1  0  0  0
 37 41  1  0  0  0
 37 45  1  0  0  0
 38 41  1  0  0  0
 39 41  1  0  0  0
 40 41  1  0  0  0
 42 45  1  0  0  0
 43 45  1  0  0  0
 44 45  1  0  0  0
 46 47  1  0  0  0
 47 49  1  0  0  0
 48 49  1  0  0  0
 49 50  1  0  0  0
 49 55  1  0  0  0
 50 51  1  0  0  0
 50 56  2  0  0  0
 52 55  1  0  0  0
 53 55  1  0  0  0
 54 55  1  0  0  0
M  CHG  2  24  -1  51  -1
M  END
>  <ACTIVITY>
7.73

>  <SET>
1

>  <Min_dist>
999.9

>  <Avg_dist>
999.9

$$$$
zgpclf
  Cerius2 12110214373D 1   1.00000                          
Structure written by Cerius2 SD Exporter
 66 67  0  0  0  0  0  0  0  0999 V2000
    0.2310   -4.7030   -0.8810 C   0  0  0  0  0  0
   -1.5930   -3.9380   -1.7760 H   0  0  0  0  0  0
   -0.5250   -3.7940   -1.6150 N   0  0  0  0  0  0
    0.4140   -1.9380   -1.3530 H   0  0  0  0  0  0
    1.1180   -2.9680   -2.6230 H   0  0  0  0  0  0
    0.1880   -2.6290   -2.1640 C   0  0  0  0  0  0
    1.4540   -4.5790   -0.7360 O   0  0  0  0  0  0
   -0.4510   -5.7300   -0.3160 O   0  0  0  0  0  0
    1.2460   -6.8420   -0.0050 H   0  0  0  0  0  0
    0.5220   -6.1170    1.4500 H   0  0  0  0  0  0
    0.3090   -6.6090    0.5010 C   0  0  0  0  0  0
   -0.4320   -7.8830    0.7680 C   0  0  0  0  0  0
    0.5170   -8.9640   -0.8360 H   0  0  0  0  0  0
   -0.1920   -9.0150   -0.0100 C   0  0  0  0  0  0
   -1.5520   -7.0620    2.4170 H   0  0  0  0  0  0
   -1.3510   -7.9470    1.8130 C   0  0  0  0  0  0
   -0.6610  -11.0920   -0.3480 H   0  0  0  0  0  0
   -0.8540  -10.2100    0.2610 C   0  0  0  0  0  0
   -2.7340   -9.1890    2.9060 H   0  0  0  0  0  0
   -2.0160   -9.1410    2.0870 C   0  0  0  0  0  0
   -2.2780  -11.2090    1.5350 H   0  0  0  0  0  0
   -1.7640  -10.2740    1.3140 C   0  0  0  0  0  0
   -0.8010   -1.7660   -3.4110 P   0  0  0  0  0  0
    0.0630   -0.9850   -4.3260 O   0  5  0  0  0  0
   -1.6120   -2.8810   -4.3150 O   0  0  0  0  0  0
   -2.9500   -0.9220   -2.7670 H   0  0  0  0  0  0
   -1.7590   -0.7680   -1.4540 H   0  0  0  0  0  0
   -1.9220   -0.6510   -2.5250 C   0  0  0  0  0  0
   -1.7320    0.8960   -3.9890 H   0  0  0  0  0  0
   -1.6970    0.8250   -2.9020 C   0  0  0  0  0  0
   -0.3390    1.3030   -2.4590 C   0  0  0  0  0  0
    0.4080    1.9560   -3.1930 O   0  0  0  0  0  0
   -3.7770    1.3240   -2.6470 H   0  0  0  0  0  0
   -2.7510    1.7090   -1.2440 H   0  0  0  0  0  0
   -2.8100    1.7160   -2.3320 C   0  0  0  0  0  0
   -1.6550    3.4920   -2.5930 H   0  0  0  0  0  0
   -2.6650    3.1630   -2.8360 C   0  0  0  0  0  0
   -2.7290    4.2790   -4.6820 H   0  0  0  0  0  0
   -2.0780    2.6310   -4.8440 H   0  0  0  0  0  0
   -3.8280    2.8800   -4.6330 H   0  0  0  0  0  0
   -2.8370    3.2440   -4.3590 C   0  0  0  0  0  0
   -3.5280    5.1100   -2.5080 H   0  0  0  0  0  0
   -4.6720    3.7590   -2.3280 H   0  0  0  0  0  0
   -3.4670    4.0800   -1.0580 H   0  0  0  0  0  0
   -3.6540    4.0950   -2.1320 C   0  0  0  0  0  0
   -0.5490    0.5670   -0.4220 H   0  0  0  0  0  0
    0.1160    0.9840   -1.1790 N   0  0  0  0  0  0
    2.0490    1.0830   -1.8580 H   0  0  0  0  0  0
    1.5520    1.2430   -0.9010 C   0  0  0  0  0  0
    2.1540    0.2620    0.0670 C   0  0  0  0  0  0
    1.5140   -0.4180    0.8600 O   0  5  0  0  0  0
    2.9310    2.8500   -0.5040 H   0  0  0  0  0  0
    1.3890    3.3660   -1.2290 H   0  0  0  0  0  0
    1.8510    2.6990   -0.5010 C   0  0  0  0  0  0
    1.3210    3.0310    0.8640 C   0  0  0  0  0  0
   -0.6140    3.6420    0.1360 H   0  0  0  0  0  0
    0.0220    3.5070    1.0110 C   0  0  0  0  0  0
    3.1450    2.4890    1.8750 H   0  0  0  0  0  0
    2.1260    2.8600    1.9900 C   0  0  0  0  0  0
    3.5020    0.1830    0.0720 O   0  0  0  0  0  0
   -1.4800    4.1830    2.3930 H   0  0  0  0  0  0
   -0.4630    3.8090    2.2790 C   0  0  0  0  0  0
    2.2730    3.0230    4.1350 H   0  0  0  0  0  0
    1.6390    3.1610    3.2590 C   0  0  0  0  0  0
   -0.0480    3.8780    4.3950 H   0  0  0  0  0  0
    0.3400    3.6380    3.4050 C   0  0  0  0  0  0
  1  3  1  0  0  0
  1  7  2  0  0  0
  1  8  1  0  0  0
  2  3  1  0  0  0
  3  6  1  0  0  0
  4  6  1  0  0  0
  5  6  1  0  0  0
  6 23  1  0  0  0
  8 11  1  0  0  0
  9 11  1  0  0  0
 10 11  1  0  0  0
 11 12  1  0  0  0
 12 14  2  0  0  0
 12 16  1  0  0  0
 13 14  1  0  0  0
 14 18  1  0  0  0
 15 16  1  0  0  0
 16 20  2  0  0  0
 17 18  1  0  0  0
 18 22  2  0  0  0
 19 20  1  0  0  0
 20 22  1  0  0  0
 21 22  1  0  0  0
 23 24  1  0  0  0
 23 25  2  0  0  0
 23 28  1  0  0  0
 26 28  1  0  0  0
 27 28  1  0  0  0
 28 30  1  0  0  0
 29 30  1  0  0  0
 30 31  1  0  0  0
 30 35  1  0  0  0
 31 32  2  0  0  0
 31 47  1  0  0  0
 33 35  1  0  0  0
 34 35  1  0  0  0
 35 37  1  0  0  0
 36 37  1  0  0  0
 37 41  1  0  0  0
 37 45  1  0  0  0
 38 41  1  0  0  0
 39 41  1  0  0  0
 40 41  1  0  0  0
 42 45  1  0  0  0
 43 45  1  0  0  0
 44 45  1  0  0  0
 46 47  1  0  0  0
 47 49  1  0  0  0
 48 49  1  0  0  0
 49 50  1  0  0  0
 49 54  1  0  0  0
 50 51  1  0  0  0
 50 60  2  0  0  0
 52 54  1  0  0  0
 53 54  1  0  0  0
 54 55  1  0  0  0
 55 57  2  0  0  0
 55 59  1  0  0  0
 56 57  1  0  0  0
 57 62  1  0  0  0
 58 59  1  0  0  0
 59 64  2  0  0  0
 61 62  1  0  0  0
 62 66  2  0  0  0
 63 64  1  0  0  0
 64 66  1  0  0  0
 65 66  1  0  0  0
M  CHG  2  24  -1  51  -1
M  END
>  <ACTIVITY>
7.18

>  <SET>
1

>  <Min_dist>
999.9

>  <Avg_dist>
999.9

$$$$
zgpclg
  Cerius2 12110214373D 1   1.00000                          
Structure written by Cerius2 SD Exporter
 53 53  0  0  0  0  0  0  0  0999 V2000
    0.0950   -4.7150   -0.8830 C   0  0  0  0  0  0
   -1.7270   -3.7970   -1.6390 H   0  0  0  0  0  0
   -0.6430   -3.7400   -1.5490 N   0  0  0  0  0  0
    0.3800   -1.9230   -1.3280 H   0  0  0  0  0  0
    1.0460   -3.0210   -2.5610 H   0  0  0  0  0  0
    0.1290   -2.6250   -2.1230 C   0  0  0  0  0  0
    1.3270   -4.6580   -0.7990 O   0  0  0  0  0  0
   -0.6030   -5.7310   -0.3210 O   0  0  0  0  0  0
    1.0890   -6.8820   -0.1410 H   0  0  0  0  0  0
    0.4080   -6.2690    1.3850 H   0  0  0  0  0  0
    0.1680   -6.6820    0.4050 C   0  0  0  0  0  0
   -0.5810   -7.9680    0.5870 C   0  0  0  0  0  0
    0.3900   -8.9520   -1.0660 H   0  0  0  0  0  0
   -0.3380   -9.0470   -0.2610 C   0  0  0  0  0  0
   -1.7130   -7.2470    2.2730 H   0  0  0  0  0  0
   -1.5170   -8.0920    1.6110 C   0  0  0  0  0  0
   -0.8300  -11.0890   -0.7470 H   0  0  0  0  0  0
   -1.0220  -10.2470   -0.0830 C   0  0  0  0  0  0
   -2.9350   -9.3850    2.5940 H   0  0  0  0  0  0
   -2.2030   -9.2900    1.7920 C   0  0  0  0  0  0
   -2.4900  -11.3060    1.0880 H   0  0  0  0  0  0
   -1.9550  -10.3680    0.9460 C   0  0  0  0  0  0
   -0.8020   -1.7480   -3.4070 P   0  0  0  0  0  0
    0.1050   -0.9660   -4.2810 O   0  5  0  0  0  0
   -1.5990   -2.8480   -4.3440 O   0  0  0  0  0  0
   -2.9620   -0.9370   -2.7730 H   0  0  0  0  0  0
   -1.7570   -0.6860   -1.4870 H   0  0  0  0  0  0
   -1.9390   -0.6280   -2.5600 C   0  0  0  0  0  0
   -1.6910    0.8410   -4.1060 H   0  0  0  0  0  0
   -1.7540    0.8280   -3.0180 C   0  0  0  0  0  0
   -0.4830    1.4050   -2.4550 C   0  0  0  0  0  0
    0.3560    2.0160   -3.1280 O   0  0  0  0  0  0
   -3.8720    1.2170   -2.9310 H   0  0  0  0  0  0
   -2.9730    1.7110   -1.4760 H   0  0  0  0  0  0
   -2.9520    1.6740   -2.5650 C   0  0  0  0  0  0
   -1.8430    3.4700   -2.9110 H   0  0  0  0  0  0
   -2.8490    3.1040   -3.1150 C   0  0  0  0  0  0
   -2.9800    4.1530   -4.9980 H   0  0  0  0  0  0
   -2.2980    2.5130   -5.1170 H   0  0  0  0  0  0
   -4.0470    2.7340   -4.8730 H   0  0  0  0  0  0
   -3.0590    3.1280   -4.6360 C   0  0  0  0  0  0
   -3.7540    5.0380   -2.8190 H   0  0  0  0  0  0
   -4.8590    3.6640   -2.5760 H   0  0  0  0  0  0
   -3.6340    4.0490   -1.3440 H   0  0  0  0  0  0
   -3.8460    4.0300   -2.4130 C   0  0  0  0  0  0
   -1.0740    0.7080   -0.5100 H   0  0  0  0  0  0
   -0.3150    1.2440   -1.0810 N   0  0  0  0  0  0
    1.3880    2.4740   -1.0450 H   0  0  0  0  0  0
    0.5430    2.3100    0.5130 H   0  0  0  0  0  0
    0.8680    1.7820   -0.3830 C   0  0  0  0  0  0
    1.8080    0.6790    0.0110 C   0  0  0  0  0  0
    1.5140   -0.2490    0.7570 O   0  5  0  0  0  0
    3.0590    0.7540   -0.4870 O   0  0  0  0  0  0
  1  3  1  0  0  0
  1  7  2  0  0  0
  1  8  1  0  0  0
  2  3  1  0  0  0
  3  6  1  0  0  0
  4  6  1  0  0  0
  5  6  1  0  0  0
  6 23  1  0  0  0
  8 11  1  0  0  0
  9 11  1  0  0  0
 10 11  1  0  0  0
 11 12  1  0  0  0
 12 14  2  0  0  0
 12 16  1  0  0  0
 13 14  1  0  0  0
 14 18  1  0  0  0
 15 16  1  0  0  0
 16 20  2  0  0  0
 17 18  1  0  0  0
 18 22  2  0  0  0
 19 20  1  0  0  0
 20 22  1  0  0  0
 21 22  1  0  0  0
 23 24  1  0  0  0
 23 25  2  0  0  0
 23 28  1  0  0  0
 26 28  1  0  0  0
 27 28  1  0  0  0
 28 30  1  0  0  0
 29 30  1  0  0  0
 30 31  1  0  0  0
 30 35  1  0  0  0
 31 32  2  0  0  0
 31 47  1  0  0  0
 33 35  1  0  0  0
 34 35  1  0  0  0
 35 37  1  0  0  0
 36 37  1  0  0  0
 37 41  1  0  0  0
 37 45  1  0  0  0
 38 41  1  0  0  0
 39 41  1  0  0  0
 40 41  1  0  0  0
 42 45  1  0  0  0
 43 45  1  0  0  0
 44 45  1  0  0  0
 46 47  1  0  0  0
 47 50  1  0  0  0
 48 50  1  0  0  0
 49 50  1  0  0  0
 50 51  1  0  0  0
 51 52  1  0  0  0
 51 53  2  0  0  0
M  CHG  2  24  -1  52  -1
M  END
>  <ACTIVITY>
6.52

>  <SET>
1

>  <Min_dist>
999.9

>  <Avg_dist>
999.9

$$$$
zgpcllzncrys
  Cerius2 12110214373D 1   1.00000                          
Structure written by Cerius2 SD Exporter
 65 65  0  0  0  0  0  0  0  0999 V2000
    0.2600   -4.6430   -0.8260 C   0  0  0  0  0  0
    1.4840   -4.5150   -0.6750 O   0  0  0  0  0  0
   -0.4100   -5.7500   -0.4310 O   0  0  0  0  0  0
    1.1190   -7.1270   -0.4270 H   0  0  0  0  0  0
    0.7200   -6.4150    1.1550 H   0  0  0  0  0  0
    0.3080   -6.7870    0.2170 C   0  0  0  0  0  0
   -0.6200   -7.9240    0.4940 C   0  0  0  0  0  0
    0.3160   -9.2410   -0.9360 H   0  0  0  0  0  0
   -0.4760   -9.1310   -0.1940 C   0  0  0  0  0  0
   -1.2220  -11.1340   -0.4750 H   0  0  0  0  0  0
   -1.3390  -10.1930    0.0630 C   0  0  0  0  0  0
   -1.7580   -6.8390    1.9640 H   0  0  0  0  0  0
   -1.6390   -7.7820    1.4320 C   0  0  0  0  0  0
   -3.3040   -8.7300    2.4310 H   0  0  0  0  0  0
   -2.5080   -8.8440    1.6950 C   0  0  0  0  0  0
   -3.0270  -10.8810    1.2190 H   0  0  0  0  0  0
   -2.3540  -10.0490    1.0120 C   0  0  0  0  0  0
   -1.6070   -3.6000   -1.2720 H   0  0  0  0  0  0
   -0.5250   -3.6500   -1.4020 N   0  0  0  0  0  0
    0.6680   -1.9440   -1.5230 H   0  0  0  0  0  0
    1.0220   -3.2050   -2.7280 H   0  0  0  0  0  0
    0.2290   -2.6760   -2.2000 C   0  0  0  0  0  0
   -0.7760   -1.7960   -3.4160 P   0  0  0  0  0  0
    0.0970   -0.9890   -4.2960 O   0  5  0  0  0  0
   -1.5930   -2.8930   -4.3300 O   0  0  0  0  0  0
   -2.9180   -1.0200   -2.6840 H   0  0  0  0  0  0
   -1.6580   -0.7430   -1.4560 H   0  0  0  0  0  0
   -1.8900   -0.6960   -2.5210 C   0  0  0  0  0  0
   -1.7240    0.7530   -4.0940 H   0  0  0  0  0  0
   -1.7380    0.7590   -3.0040 C   0  0  0  0  0  0
   -0.4500    1.3550   -2.5120 C   0  0  0  0  0  0
    0.3480    1.9800   -3.2170 O   0  0  0  0  0  0
   -3.8500    1.1610   -2.8790 H   0  0  0  0  0  0
   -2.9250    1.6300   -1.4330 H   0  0  0  0  0  0
   -2.9220    1.6070   -2.5220 C   0  0  0  0  0  0
   -1.7960    3.3880   -2.8840 H   0  0  0  0  0  0
   -2.8160    3.0420   -3.0550 C   0  0  0  0  0  0
   -2.9980    4.1330   -4.9100 H   0  0  0  0  0  0
   -2.3500    2.4850   -5.0890 H   0  0  0  0  0  0
   -4.0850    2.7300   -4.7750 H   0  0  0  0  0  0
   -3.0820    3.1020   -4.5670 C   0  0  0  0  0  0
   -3.6950    4.9730   -2.6960 H   0  0  0  0  0  0
   -4.8020    3.6020   -2.4460 H   0  0  0  0  0  0
   -3.5370    3.9550   -1.2450 H   0  0  0  0  0  0
   -3.7820    3.9590   -2.3070 C   0  0  0  0  0  0
   -0.8550    0.6540   -0.5040 H   0  0  0  0  0  0
   -0.1720    1.1910   -1.1620 N   0  0  0  0  0  0
    1.6420    2.0970   -1.5300 H   0  0  0  0  0  0
    1.0810    1.7710   -0.6540 C   0  0  0  0  0  0
    1.9590    0.7580    0.0270 C   0  0  0  0  0  0
    1.5740   -0.0590    0.8580 O   0  5  0  0  0  0
    1.8080    3.3700    0.5890 H   0  0  0  0  0  0
    0.4510    3.8210   -0.4710 H   0  0  0  0  0  0
    0.8490    3.0460    0.1850 C   0  0  0  0  0  0
   -0.0670    1.8170    1.6870 H   0  0  0  0  0  0
   -0.1320    2.8540    1.3580 C   0  0  0  0  0  0
   -0.4550    3.6390    3.3390 H   0  0  0  0  0  0
    1.2550    3.5530    2.8520 H   0  0  0  0  0  0
    0.2000    4.8190    2.1780 H   0  0  0  0  0  0
    0.2440    3.7830    2.5150 C   0  0  0  0  0  0
   -2.2470    3.0000    1.7650 H   0  0  0  0  0  0
   -1.6470    4.1720    0.5660 H   0  0  0  0  0  0
   -1.8520    2.4620    0.1150 H   0  0  0  0  0  0
   -1.5740    3.1430    0.9190 C   0  0  0  0  0  0
    3.2630    0.7920   -0.3180 O   0  0  0  0  0  0
  1  2  2  0  0  0
  1  3  1  0  0  0
  1 19  1  0  0  0
  3  6  1  0  0  0
  4  6  1  0  0  0
  5  6  1  0  0  0
  6  7  1  0  0  0
  7  9  2  0  0  0
  7 13  1  0  0  0
  8  9  1  0  0  0
  9 11  1  0  0  0
 10 11  1  0  0  0
 11 17  2  0  0  0
 12 13  1  0  0  0
 13 15  2  0  0  0
 14 15  1  0  0  0
 15 17  1  0  0  0
 16 17  1  0  0  0
 18 19  1  0  0  0
 19 22  1  0  0  0
 20 22  1  0  0  0
 21 22  1  0  0  0
 22 23  1  0  0  0
 23 24  1  0  0  0
 23 25  2  0  0  0
 23 28  1  0  0  0
 26 28  1  0  0  0
 27 28  1  0  0  0
 28 30  1  0  0  0
 29 30  1  0  0  0
 30 31  1  0  0  0
 30 35  1  0  0  0
 31 32  2  0  0  0
 31 47  1  0  0  0
 33 35  1  0  0  0
 34 35  1  0  0  0
 35 37  1  0  0  0
 36 37  1  0  0  0
 37 41  1  0  0  0
 37 45  1  0  0  0
 38 41  1  0  0  0
 39 41  1  0  0  0
 40 41  1  0  0  0
 42 45  1  0  0  0
 43 45  1  0  0  0
 44 45  1  0  0  0
 46 47  1  0  0  0
 47 49  1  0  0  0
 48 49  1  0  0  0
 49 50  1  0  0  0
 49 54  1  0  0  0
 50 51  1  0  0  0
 50 65  2  0  0  0
 52 54  1  0  0  0
 53 54  1  0  0  0
 54 56  1  0  0  0
 55 56  1  0  0  0
 56 60  1  0  0  0
 56 64  1  0  0  0
 57 60  1  0  0  0
 58 60  1  0  0  0
 59 60  1  0  0  0
 61 64  1  0  0  0
 62 64  1  0  0  0
 63 64  1  0  0  0
M  CHG  2  24  -1  51  -1
M  END
>  <ACTIVITY>
6.74

>  <SET>
1

>  <Min_dist>
999.9

>  <Avg_dist>
999.9

$$$$
zgpclnh2
  Cerius2 12110214373D 1   1.00000                          
Structure written by Cerius2 SD Exporter
 48 48  0  0  0  0  0  0  0  0999 V2000
    0.1200   -4.7600   -0.8710 C   0  0  0  0  0  0
   -1.7010   -3.9400   -1.7510 H   0  0  0  0  0  0
   -0.6230   -3.8460   -1.6220 N   0  0  0  0  0  0
    0.4820   -2.0890   -1.4260 H   0  0  0  0  0  0
    1.0150   -3.1810   -2.7280 H   0  0  0  0  0  0
    0.1480   -2.7500   -2.2250 C   0  0  0  0  0  0
    1.3470   -4.6660   -0.7630 O   0  0  0  0  0  0
   -0.5670   -5.7570   -0.2550 O   0  0  0  0  0  0
    1.1790   -6.7730    0.1390 H   0  0  0  0  0  0
    0.3820   -6.0390    1.5500 H   0  0  0  0  0  0
    0.2190   -6.5730    0.6140 C   0  0  0  0  0  0
   -0.4600   -7.8800    0.9110 C   0  0  0  0  0  0
    0.4350   -8.9150   -0.7520 H   0  0  0  0  0  0
   -0.2400   -8.9910    0.1000 C   0  0  0  0  0  0
   -1.4930   -7.1230    2.6450 H   0  0  0  0  0  0
   -1.3200   -7.9880    2.0040 C   0  0  0  0  0  0
   -0.7050  -11.0670   -0.2620 H   0  0  0  0  0  0
   -0.8800  -10.2010    0.3750 C   0  0  0  0  0  0
   -2.6330   -9.2720    3.1360 H   0  0  0  0  0  0
   -1.9610   -9.1950    2.2810 C   0  0  0  0  0  0
   -2.2440  -11.2460    1.6770 H   0  0  0  0  0  0
   -1.7420  -10.3020    1.4630 C   0  0  0  0  0  0
   -0.7730   -1.7650   -3.4290 P   0  0  0  0  0  0
    0.1620   -0.9450   -4.2250 O   0  5  0  0  0  0
   -1.5750   -2.7680   -4.4590 O   0  0  0  0  0  0
   -2.9180   -1.0020   -2.6920 H   0  0  0  0  0  0
   -1.6560   -0.7080   -1.4710 H   0  0  0  0  0  0
   -1.8920   -0.6690   -2.5350 C   0  0  0  0  0  0
   -1.7090    0.7700   -4.1150 H   0  0  0  0  0  0
   -1.7550    0.7840   -3.0260 C   0  0  0  0  0  0
   -0.4950    1.4080   -2.4930 C   0  0  0  0  0  0
    0.3130    2.0350   -3.1890 O   0  0  0  0  0  0
   -3.8800    1.1110   -2.8960 H   0  0  0  0  0  0
   -2.9560    1.7100   -1.4970 H   0  0  0  0  0  0
   -2.9650    1.6140   -2.5830 C   0  0  0  0  0  0
   -1.8970    3.3890   -3.1250 H   0  0  0  0  0  0
   -2.9170    3.0140   -3.2130 C   0  0  0  0  0  0
   -3.2280    3.9620   -5.1250 H   0  0  0  0  0  0
   -2.5570    2.3170   -5.2220 H   0  0  0  0  0  0
   -4.2750    2.5550   -4.8240 H   0  0  0  0  0  0
   -3.2700    2.9580   -4.7040 C   0  0  0  0  0  0
   -3.7960    4.9610   -2.9310 H   0  0  0  0  0  0
   -4.8680    3.6030   -2.5130 H   0  0  0  0  0  0
   -3.5320    4.0480   -1.4250 H   0  0  0  0  0  0
   -3.8450    3.9760   -2.4670 C   0  0  0  0  0  0
    0.6090    1.6910   -0.6640 H   0  0  0  0  0  0
   -1.0090    0.7290   -0.5130 H   0  0  0  0  0  0
   -0.2830    1.2660   -1.1240 N   0  0  0  0  0  0
  1  3  1  0  0  0
  1  7  2  0  0  0
  1  8  1  0  0  0
  2  3  1  0  0  0
  3  6  1  0  0  0
  4  6  1  0  0  0
  5  6  1  0  0  0
  6 23  1  0  0  0
  8 11  1  0  0  0
  9 11  1  0  0  0
 10 11  1  0  0  0
 11 12  1  0  0  0
 12 14  2  0  0  0
 12 16  1  0  0  0
 13 14  1  0  0  0
 14 18  1  0  0  0
 15 16  1  0  0  0
 16 20  2  0  0  0
 17 18  1  0  0  0
 18 22  2  0  0  0
 19 20  1  0  0  0
 20 22  1  0  0  0
 21 22  1  0  0  0
 23 24  1  0  0  0
 23 25  2  0  0  0
 23 28  1  0  0  0
 26 28  1  0  0  0
 27 28  1  0  0  0
 28 30  1  0  0  0
 29 30  1  0  0  0
 30 31  1  0  0  0
 30 35  1  0  0  0
 31 32  2  0  0  0
 31 48  1  0  0  0
 33 35  1  0  0  0
 34 35  1  0  0  0
 35 37  1  0  0  0
 36 37  1  0  0  0
 37 41  1  0  0  0
 37 45  1  0  0  0
 38 41  1  0  0  0
 39 41  1  0  0  0
 40 41  1  0  0  0
 42 45  1  0  0  0
 43 45  1  0  0  0
 44 45  1  0  0  0
 46 48  1  0  0  0
 47 48  1  0  0  0
M  CHG  1  24  -1
M  END
>  <ACTIVITY>
5.85

>  <SET>
2

>  <Min_dist>
0.08

>  <Avg_dist>
0.37

$$$$
zgpla
  Cerius2 12110214373D 1   1.00000                          
Structure written by Cerius2 SD Exporter
 55 55  0  0  0  0  0  0  0  0999 V2000
    0.2580   -4.5570   -1.1330 C   0  0  0  0  0  0
    1.4750   -4.4770   -1.3370 O   0  0  0  0  0  0
   -0.2790   -5.6180   -0.4830 O   0  0  0  0  0  0
    1.3660   -6.8140   -0.7710 H   0  0  0  0  0  0
    1.2730   -5.9980    0.8080 H   0  0  0  0  0  0
    0.6990   -6.5110    0.0360 C   0  0  0  0  0  0
    0.0690   -7.7300    0.6290 C   0  0  0  0  0  0
   -1.1180   -6.6360    2.0580 H   0  0  0  0  0  0
   -0.8440   -7.6200    1.6780 C   0  0  0  0  0  0
    1.1330   -9.0790   -0.6700 H   0  0  0  0  0  0
    0.4190   -8.9890    0.1480 C   0  0  0  0  0  0
   -2.1210   -8.6730    3.0600 H   0  0  0  0  0  0
   -1.4070   -8.7630    2.2410 C   0  0  0  0  0  0
    0.1340  -11.1200    0.3290 H   0  0  0  0  0  0
   -0.1420  -10.1360    0.7090 C   0  0  0  0  0  0
   -1.4930  -10.9200    2.1970 H   0  0  0  0  0  0
   -1.0550  -10.0250    1.7570 C   0  0  0  0  0  0
   -1.7190   -3.7220   -1.4830 H   0  0  0  0  0  0
   -0.6410   -3.5670   -1.5220 N   0  0  0  0  0  0
   -0.1090   -1.5760   -1.1760 H   0  0  0  0  0  0
    0.9880   -2.4780   -2.2490 H   0  0  0  0  0  0
   -0.0550   -2.3000   -1.9890 C   0  0  0  0  0  0
   -0.8930   -1.5970   -3.4370 P   0  0  0  0  0  0
    0.1120   -0.9320   -4.2980 O   0  5  0  0  0  0
   -1.5880   -2.8120   -4.3140 O   0  0  0  0  0  0
   -3.0180   -0.7480   -3.3010 H   0  0  0  0  0  0
   -2.0570   -0.4600   -2.8760 N   0  0  0  0  0  0
   -1.7620    1.0540   -4.2730 H   0  0  0  0  0  0
   -1.8520    0.9770   -3.1900 C   0  0  0  0  0  0
   -0.5910    1.4910   -2.5570 C   0  0  0  0  0  0
    0.2880    2.0840   -3.1860 O   0  0  0  0  0  0
   -3.9490    1.4850   -3.2540 H   0  0  0  0  0  0
   -3.1770    1.7520   -1.6720 H   0  0  0  0  0  0
   -3.0490    1.8400   -2.7510 C   0  0  0  0  0  0
   -1.8110    3.5840   -2.7910 H   0  0  0  0  0  0
   -2.8170    3.3160   -3.1130 C   0  0  0  0  0  0
   -2.7240    4.5880   -4.8550 H   0  0  0  0  0  0
   -2.1280    2.9320   -5.1220 H   0  0  0  0  0  0
   -3.8770    3.2380   -4.9920 H   0  0  0  0  0  0
   -2.8920    3.5340   -4.6310 C   0  0  0  0  0  0
   -3.6150    5.2630   -2.6480 H   0  0  0  0  0  0
   -4.8220    3.9550   -2.6470 H   0  0  0  0  0  0
   -3.6700    4.1050   -1.2980 H   0  0  0  0  0  0
   -3.8020    4.2250   -2.3730 C   0  0  0  0  0  0
   -1.2220    0.7430   -0.6370 H   0  0  0  0  0  0
   -0.4620    1.3000   -1.1850 N   0  0  0  0  0  0
    1.2280    2.5280   -1.1500 H   0  0  0  0  0  0
    0.7060    1.8510   -0.4750 C   0  0  0  0  0  0
    1.6730    0.7660   -0.0950 C   0  0  0  0  0  0
    1.4170   -0.1650    0.6620 O   0  5  0  0  0  0
    1.1340    3.0540    1.2630 H   0  0  0  0  0  0
   -0.3820    3.4770    0.4330 H   0  0  0  0  0  0
   -0.2940    2.0050    1.4300 H   0  0  0  0  0  0
    0.2590    2.6550    0.7510 C   0  0  0  0  0  0
    2.9070    0.8580   -0.6340 O   0  0  0  0  0  0
  1  2  2  0  0  0
  1  3  1  0  0  0
  1 19  1  0  0  0
  3  6  1  0  0  0
  4  6  1  0  0  0
  5  6  1  0  0  0
  6  7  1  0  0  0
  7  9  2  0  0  0
  7 11  1  0  0  0
  8  9  1  0  0  0
  9 13  1  0  0  0
 10 11  1  0  0  0
 11 15  2  0  0  0
 12 13  1  0  0  0
 13 17  2  0  0  0
 14 15  1  0  0  0
 15 17  1  0  0  0
 16 17  1  0  0  0
 18 19  1  0  0  0
 19 22  1  0  0  0
 20 22  1  0  0  0
 21 22  1  0  0  0
 22 23  1  0  0  0
 23 24  1  0  0  0
 23 25  2  0  0  0
 23 27  1  0  0  0
 26 27  1  0  0  0
 27 29  1  0  0  0
 28 29  1  0  0  0
 29 30  1  0  0  0
 29 34  1  0  0  0
 30 31  2  0  0  0
 30 46  1  0  0  0
 32 34  1  0  0  0
 33 34  1  0  0  0
 34 36  1  0  0  0
 35 36  1  0  0  0
 36 40  1  0  0  0
 36 44  1  0  0  0
 37 40  1  0  0  0
 38 40  1  0  0  0
 39 40  1  0  0  0
 41 44  1  0  0  0
 42 44  1  0  0  0
 43 44  1  0  0  0
 45 46  1  0  0  0
 46 48  1  0  0  0
 47 48  1  0  0  0
 48 49  1  0  0  0
 48 54  1  0  0  0
 49 50  1  0  0  0
 49 55  2  0  0  0
 51 54  1  0  0  0
 52 54  1  0  0  0
 53 54  1  0  0  0
M  CHG  2  24  -1  50  -1
M  END
>  <ACTIVITY>
7.78

>  <SET>
1

>  <Min_dist>
999.9

>  <Avg_dist>
999.9

$$$$
zgplf
  Cerius2 12110214373D 1   1.00000                          
Structure written by Cerius2 SD Exporter
 65 66  0  0  0  0  0  0  0  0999 V2000
    0.1470   -4.7610   -0.9020 C   0  0  0  0  0  0
   -1.7520   -4.0070   -1.6560 H   0  0  0  0  0  0
   -0.6880   -3.8120   -1.5170 N   0  0  0  0  0  0
   -0.0760   -1.8330   -1.1370 H   0  0  0  0  0  0
    0.9470   -2.7290   -2.2850 H   0  0  0  0  0  0
   -0.0780   -2.5320   -1.9720 C   0  0  0  0  0  0
    1.3710   -4.6090   -0.8180 O   0  0  0  0  0  0
   -0.4360   -5.8730   -0.3770 O   0  0  0  0  0  0
    1.1800   -7.1470   -0.3380 H   0  0  0  0  0  0
    0.7760   -6.3700    1.2110 H   0  0  0  0  0  0
    0.3660   -6.8350    0.3140 C   0  0  0  0  0  0
   -0.4240   -8.0560    0.7190 C   0  0  0  0  0  0
    0.4590   -9.3060   -0.7930 H   0  0  0  0  0  0
   -0.2540   -9.2540    0.0290 C   0  0  0  0  0  0
   -1.5030   -7.0710    2.3030 H   0  0  0  0  0  0
   -1.3500   -8.0060    1.7630 C   0  0  0  0  0  0
   -0.8460  -11.3200   -0.1690 H   0  0  0  0  0  0
   -0.9870  -10.3890    0.3800 C   0  0  0  0  0  0
   -2.7950   -9.0820    2.9420 H   0  0  0  0  0  0
   -2.0810   -9.1340    2.1210 C   0  0  0  0  0  0
   -2.4680  -11.2190    1.7110 H   0  0  0  0  0  0
   -1.9000  -10.3320    1.4300 C   0  0  0  0  0  0
   -0.9740   -1.7700   -3.3650 P   0  0  0  0  0  0
   -0.0330   -1.1330   -4.3300 O   0  5  0  0  0  0
   -1.7240   -2.9600   -4.2130 O   0  0  0  0  0  0
   -3.0520   -0.8350   -3.1200 H   0  0  0  0  0  0
   -2.0680   -0.6140   -2.7070 N   0  0  0  0  0  0
   -1.8390    0.9620   -4.0210 H   0  0  0  0  0  0
   -1.8130    0.8320   -2.9390 C   0  0  0  0  0  0
   -0.4360    1.2770   -2.4930 C   0  0  0  0  0  0
    0.3310    1.9170   -3.2220 O   0  0  0  0  0  0
   -3.8850    1.2660   -2.5400 H   0  0  0  0  0  0
   -2.7620    1.8040   -1.2670 H   0  0  0  0  0  0
   -2.9120    1.7180   -2.3440 C   0  0  0  0  0  0
   -1.8490    3.4960   -2.8770 H   0  0  0  0  0  0
   -2.8640    3.1140   -2.9760 C   0  0  0  0  0  0
   -3.1770    4.0410   -4.9020 H   0  0  0  0  0  0
   -2.5000    2.3960   -4.9810 H   0  0  0  0  0  0
   -4.2200    2.6330   -4.5880 H   0  0  0  0  0  0
   -3.2160    3.0410   -4.4700 C   0  0  0  0  0  0
   -3.7580    5.0560   -2.7170 H   0  0  0  0  0  0
   -4.8300    3.6940   -2.3120 H   0  0  0  0  0  0
   -3.5150    4.1510   -1.2040 H   0  0  0  0  0  0
   -3.8100    4.0730   -2.2500 C   0  0  0  0  0  0
   -0.6650    0.5440   -0.4540 H   0  0  0  0  0  0
    0.0080    0.9470   -1.2110 N   0  0  0  0  0  0
    1.9340    1.0020   -1.9000 H   0  0  0  0  0  0
    1.4530    1.1790   -0.9380 C   0  0  0  0  0  0
    2.0530    0.1880    0.0190 C   0  0  0  0  0  0
    1.4100   -0.5270    0.7770 O   0  5  0  0  0  0
    2.8730    2.7730   -0.6520 H   0  0  0  0  0  0
    1.2830    3.3030   -1.2520 H   0  0  0  0  0  0
    1.7950    2.6330   -0.5620 C   0  0  0  0  0  0
    1.3810    2.9750    0.8390 C   0  0  0  0  0  0
   -0.6510    3.4530    0.3010 H   0  0  0  0  0  0
    0.0760    3.3800    1.1100 C   0  0  0  0  0  0
    3.3290    2.5670    1.6680 H   0  0  0  0  0  0
    2.3070    2.8820    1.8780 C   0  0  0  0  0  0
    3.4040    0.1370    0.0520 O   0  0  0  0  0  0
   -1.3200    4.0100    2.6230 H   0  0  0  0  0  0
   -0.2990    3.6920    2.4140 C   0  0  0  0  0  0
    2.6550    3.1130    3.9930 H   0  0  0  0  0  0
    1.9300    3.1910    3.1820 C   0  0  0  0  0  0
    0.3280    3.8430    4.4700 H   0  0  0  0  0  0
    0.6250    3.5980    3.4510 C   0  0  0  0  0  0
  1  3  1  0  0  0
  1  7  2  0  0  0
  1  8  1  0  0  0
  2  3  1  0  0  0
  3  6  1  0  0  0
  4  6  1  0  0  0
  5  6  1  0  0  0
  6 23  1  0  0  0
  8 11  1  0  0  0
  9 11  1  0  0  0
 10 11  1  0  0  0
 11 12  1  0  0  0
 12 14  2  0  0  0
 12 16  1  0  0  0
 13 14  1  0  0  0
 14 18  1  0  0  0
 15 16  1  0  0  0
 16 20  2  0  0  0
 17 18  1  0  0  0
 18 22  2  0  0  0
 19 20  1  0  0  0
 20 22  1  0  0  0
 21 22  1  0  0  0
 23 24  1  0  0  0
 23 25  2  0  0  0
 23 27  1  0  0  0
 26 27  1  0  0  0
 27 29  1  0  0  0
 28 29  1  0  0  0
 29 30  1  0  0  0
 29 34  1  0  0  0
 30 31  2  0  0  0
 30 46  1  0  0  0
 32 34  1  0  0  0
 33 34  1  0  0  0
 34 36  1  0  0  0
 35 36  1  0  0  0
 36 40  1  0  0  0
 36 44  1  0  0  0
 37 40  1  0  0  0
 38 40  1  0  0  0
 39 40  1  0  0  0
 41 44  1  0  0  0
 42 44  1  0  0  0
 43 44  1  0  0  0
 45 46  1  0  0  0
 46 48  1  0  0  0
 47 48  1  0  0  0
 48 49  1  0  0  0
 48 53  1  0  0  0
 49 50  1  0  0  0
 49 59  2  0  0  0
 51 53  1  0  0  0
 52 53  1  0  0  0
 53 54  1  0  0  0
 54 56  2  0  0  0
 54 58  1  0  0  0
 55 56  1  0  0  0
 56 61  1  0  0  0
 57 58  1  0  0  0
 58 63  2  0  0  0
 60 61  1  0  0  0
 61 65  2  0  0  0
 62 63  1  0  0  0
 63 65  1  0  0  0
 64 65  1  0  0  0
M  CHG  2  24  -1  50  -1
M  END
>  <ACTIVITY>
7.12

>  <SET>
1

>  <Min_dist>
999.9

>  <Avg_dist>
999.9

$$$$
zgplg
  Cerius2 12110214373D 1   1.00000                          
Structure written by Cerius2 SD Exporter
 52 52  0  0  0  0  0  0  0  0999 V2000
   -0.0250   -4.6670   -1.2620 C   0  0  0  0  0  0
   -1.9780   -3.8150   -1.7980 H   0  0  0  0  0  0
   -0.9030   -3.6700   -1.6970 N   0  0  0  0  0  0
   -0.3120   -1.7350   -1.1470 H   0  0  0  0  0  0
    0.8340   -2.6060   -2.1940 H   0  0  0  0  0  0
   -0.2200   -2.4010   -2.0050 C   0  0  0  0  0  0
    1.2060   -4.5220   -1.3000 O   0  0  0  0  0  0
   -0.5760   -5.8020   -0.7640 O   0  0  0  0  0  0
    1.0000   -7.1020   -0.9790 H   0  0  0  0  0  0
    0.9040   -6.2600    0.5860 H   0  0  0  0  0  0
    0.3260   -6.7480   -0.2000 C   0  0  0  0  0  0
   -0.4020   -7.9200    0.3870 C   0  0  0  0  0  0
    0.3960   -9.3230   -1.0410 H   0  0  0  0  0  0
   -0.2450   -9.1880   -0.1710 C   0  0  0  0  0  0
   -1.3510   -6.7600    1.9360 H   0  0  0  0  0  0
   -1.2250   -7.7500    1.4990 C   0  0  0  0  0  0
   -0.7830  -11.2730   -0.0570 H   0  0  0  0  0  0
   -0.9080  -10.2830    0.3820 C   0  0  0  0  0  0
   -2.5250   -8.7100    2.9260 H   0  0  0  0  0  0
   -1.8850   -8.8450    2.0540 C   0  0  0  0  0  0
   -2.2460  -10.9670    1.9270 H   0  0  0  0  0  0
   -1.7270  -10.1110    1.4940 C   0  0  0  0  0  0
   -0.9280   -1.5890   -3.4560 P   0  0  0  0  0  0
    0.1430   -0.9250   -4.2380 O   0  5  0  0  0  0
   -1.6130   -2.7340   -4.4270 O   0  0  0  0  0  0
   -3.0350   -0.7150   -3.3100 H   0  0  0  0  0  0
   -2.0730   -0.4530   -2.8710 N   0  0  0  0  0  0
   -1.7730    1.1070   -4.2120 H   0  0  0  0  0  0
   -1.8530    0.9870   -3.1320 C   0  0  0  0  0  0
   -0.5730    1.4770   -2.5090 C   0  0  0  0  0  0
    0.3090    2.0650   -3.1460 O   0  0  0  0  0  0
   -3.9590    1.4320   -3.0530 H   0  0  0  0  0  0
   -3.0800    1.7670   -1.5420 H   0  0  0  0  0  0
   -3.0350    1.8250   -2.6290 C   0  0  0  0  0  0
   -1.8710    3.6190   -2.7550 H   0  0  0  0  0  0
   -2.8670    3.2910   -3.0510 C   0  0  0  0  0  0
   -2.8570    4.4890   -4.8470 H   0  0  0  0  0  0
   -2.2020    2.8470   -5.0560 H   0  0  0  0  0  0
   -3.9590    3.0910   -4.9030 H   0  0  0  0  0  0
   -2.9800    3.4400   -4.5750 C   0  0  0  0  0  0
   -3.7600    5.2100   -2.6530 H   0  0  0  0  0  0
   -4.8990    3.8440   -2.6020 H   0  0  0  0  0  0
   -3.7550    4.0990   -1.2630 H   0  0  0  0  0  0
   -3.8940    4.1740   -2.3420 C   0  0  0  0  0  0
   -1.2110    0.7130   -0.6060 H   0  0  0  0  0  0
   -0.4420    1.2720   -1.1390 N   0  0  0  0  0  0
    1.2160    2.5530   -1.0020 H   0  0  0  0  0  0
    0.3690    2.2470    0.5340 H   0  0  0  0  0  0
    0.7170    1.7970   -0.3960 C   0  0  0  0  0  0
    1.6950    0.7030   -0.0740 C   0  0  0  0  0  0
    1.4550   -0.2500    0.6580 O   0  5  0  0  0  0
    2.9190    0.8230   -0.6250 O   0  0  0  0  0  0
  1  3  1  0  0  0
  1  7  2  0  0  0
  1  8  1  0  0  0
  2  3  1  0  0  0
  3  6  1  0  0  0
  4  6  1  0  0  0
  5  6  1  0  0  0
  6 23  1  0  0  0
  8 11  1  0  0  0
  9 11  1  0  0  0
 10 11  1  0  0  0
 11 12  1  0  0  0
 12 14  2  0  0  0
 12 16  1  0  0  0
 13 14  1  0  0  0
 14 18  1  0  0  0
 15 16  1  0  0  0
 16 20  2  0  0  0
 17 18  1  0  0  0
 18 22  2  0  0  0
 19 20  1  0  0  0
 20 22  1  0  0  0
 21 22  1  0  0  0
 23 24  1  0  0  0
 23 25  2  0  0  0
 23 27  1  0  0  0
 26 27  1  0  0  0
 27 29  1  0  0  0
 28 29  1  0  0  0
 29 30  1  0  0  0
 29 34  1  0  0  0
 30 31  2  0  0  0
 30 46  1  0  0  0
 32 34  1  0  0  0
 33 34  1  0  0  0
 34 36  1  0  0  0
 35 36  1  0  0  0
 36 40  1  0  0  0
 36 44  1  0  0  0
 37 40  1  0  0  0
 38 40  1  0  0  0
 39 40  1  0  0  0
 41 44  1  0  0  0
 42 44  1  0  0  0
 43 44  1  0  0  0
 45 46  1  0  0  0
 46 49  1  0  0  0
 47 49  1  0  0  0
 48 49  1  0  0  0
 49 50  1  0  0  0
 50 51  1  0  0  0
 50 52  2  0  0  0
M  CHG  2  24  -1  51  -1
M  END
>  <ACTIVITY>
6.57

>  <SET>
1

>  <Min_dist>
999.9

>  <Avg_dist>
999.9

$$$$
zgpllzncrys
  Cerius2 12110214373D 1   1.00000                          
Structure written by Cerius2 SD Exporter
 64 64  0  0  0  0  0  0  0  0999 V2000
    0.1810   -4.6180   -1.0110 C   0  0  0  0  0  0
    1.4070   -4.4500   -0.9520 O   0  0  0  0  0  0
   -0.4060   -5.7670   -0.5850 O   0  0  0  0  0  0
    1.0830   -7.1520   -0.8900 H   0  0  0  0  0  0
    1.0910   -6.3500    0.6990 H   0  0  0  0  0  0
    0.4590   -6.7820   -0.0770 C   0  0  0  0  0  0
   -0.3100   -7.9310    0.5070 C   0  0  0  0  0  0
   -1.1710   -6.7880    2.1200 H   0  0  0  0  0  0
   -1.0980   -7.7670    1.6450 C   0  0  0  0  0  0
    0.4040   -9.3190   -0.9770 H   0  0  0  0  0  0
   -0.2160   -9.1870   -0.0900 C   0  0  0  0  0  0
   -2.4070   -8.7220    3.0690 H   0  0  0  0  0  0
   -1.7930   -8.8530    2.1780 C   0  0  0  0  0  0
   -0.8320  -11.2530   -0.0340 H   0  0  0  0  0  0
   -0.9100  -10.2740    0.4380 C   0  0  0  0  0  0
   -2.2550  -10.9520    1.9820 H   0  0  0  0  0  0
   -1.7040  -10.1050    1.5710 C   0  0  0  0  0  0
   -1.7640   -3.7450   -1.4870 H   0  0  0  0  0  0
   -0.6800   -3.6330   -1.5020 N   0  0  0  0  0  0
    0.0590   -1.6940   -1.2420 H   0  0  0  0  0  0
    0.9810   -2.7110   -2.3750 H   0  0  0  0  0  0
   -0.0180   -2.4310   -2.0410 C   0  0  0  0  0  0
   -0.8930   -1.6690   -3.4390 P   0  0  0  0  0  0
    0.0910   -0.9750   -4.3030 O   0  5  0  0  0  0
   -1.6150   -2.8460   -4.3430 O   0  0  0  0  0  0
   -3.0140   -0.8270   -3.1970 H   0  0  0  0  0  0
   -2.0370   -0.5500   -2.8020 N   0  0  0  0  0  0
   -1.8220    0.9990   -4.1670 H   0  0  0  0  0  0
   -1.8420    0.8920   -3.0830 C   0  0  0  0  0  0
   -0.5290    1.4010   -2.5410 C   0  0  0  0  0  0
    0.3040    2.0110   -3.2190 O   0  0  0  0  0  0
   -3.9430    1.3430   -2.9190 H   0  0  0  0  0  0
   -3.0050    1.6680   -1.4420 H   0  0  0  0  0  0
   -3.0020    1.7310   -2.5300 C   0  0  0  0  0  0
   -1.8400    3.5240   -2.6810 H   0  0  0  0  0  0
   -2.8450    3.2020   -2.9540 C   0  0  0  0  0  0
   -2.8800    4.4050   -4.7430 H   0  0  0  0  0  0
   -2.2300    2.7640   -4.9740 H   0  0  0  0  0  0
   -3.9820    3.0070   -4.7760 H   0  0  0  0  0  0
   -2.9950    3.3550   -4.4710 C   0  0  0  0  0  0
   -3.7150    5.1270   -2.5310 H   0  0  0  0  0  0
   -4.8600    3.7670   -2.4440 H   0  0  0  0  0  0
   -3.6750    4.0160   -1.1400 H   0  0  0  0  0  0
   -3.8460    4.0920   -2.2140 C   0  0  0  0  0  0
   -0.9640    0.6870   -0.5410 H   0  0  0  0  0  0
   -0.2590    1.2010   -1.1930 N   0  0  0  0  0  0
    1.5890    2.0130   -1.5720 H   0  0  0  0  0  0
    1.0300    1.7200   -0.6830 C   0  0  0  0  0  0
    1.8640    0.6680   -0.0050 C   0  0  0  0  0  0
    1.4420   -0.1540    0.8000 O   0  5  0  0  0  0
    1.8740    3.2790    0.5390 H   0  0  0  0  0  0
    0.5310    3.8070   -0.5020 H   0  0  0  0  0  0
    0.8920    3.0120    0.1510 C   0  0  0  0  0  0
   -0.0830    1.8310    1.6480 H   0  0  0  0  0  0
   -0.0800    2.8760    1.3360 C   0  0  0  0  0  0
   -0.3220    3.6380    3.3380 H   0  0  0  0  0  0
    1.3710    3.4340    2.8290 H   0  0  0  0  0  0
    0.4090    4.7910    2.1960 H   0  0  0  0  0  0
    0.3780    3.7480    2.5100 C   0  0  0  0  0  0
   -2.1730    3.1680    1.7760 H   0  0  0  0  0  0
   -1.5090    4.3070    0.5810 H   0  0  0  0  0  0
   -1.8420    2.6220    0.1140 H   0  0  0  0  0  0
   -1.5040    3.2720    0.9220 C   0  0  0  0  0  0
    3.1800    0.6650   -0.3050 O   0  0  0  0  0  0
  1  2  2  0  0  0
  1  3  1  0  0  0
  1 19  1  0  0  0
  3  6  1  0  0  0
  4  6  1  0  0  0
  5  6  1  0  0  0
  6  7  1  0  0  0
  7  9  2  0  0  0
  7 11  1  0  0  0
  8  9  1  0  0  0
  9 13  1  0  0  0
 10 11  1  0  0  0
 11 15  2  0  0  0
 12 13  1  0  0  0
 13 17  2  0  0  0
 14 15  1  0  0  0
 15 17  1  0  0  0
 16 17  1  0  0  0
 18 19  1  0  0  0
 19 22  1  0  0  0
 20 22  1  0  0  0
 21 22  1  0  0  0
 22 23  1  0  0  0
 23 24  1  0  0  0
 23 25  2  0  0  0
 23 27  1  0  0  0
 26 27  1  0  0  0
 27 29  1  0  0  0
 28 29  1  0  0  0
 29 30  1  0  0  0
 29 34  1  0  0  0
 30 31  2  0  0  0
 30 46  1  0  0  0
 32 34  1  0  0  0
 33 34  1  0  0  0
 34 36  1  0  0  0
 35 36  1  0  0  0
 36 40  1  0  0  0
 36 44  1  0  0  0
 37 40  1  0  0  0
 38 40  1  0  0  0
 39 40  1  0  0  0
 41 44  1  0  0  0
 42 44  1  0  0  0
 43 44  1  0  0  0
 45 46  1  0  0  0
 46 48  1  0  0  0
 47 48  1  0  0  0
 48 49  1  0  0  0
 48 53  1  0  0  0
 49 50  1  0  0  0
 49 64  2  0  0  0
 51 53  1  0  0  0
 52 53  1  0  0  0
 53 55  1  0  0  0
 54 55  1  0  0  0
 55 59  1  0  0  0
 55 63  1  0  0  0
 56 59  1  0  0  0
 57 59  1  0  0  0
 58 59  1  0  0  0
 60 63  1  0  0  0
 61 63  1  0  0  0
 62 63  1  0  0  0
M  CHG  2  24  -1  50  -1
M  END
>  <ACTIVITY>
8.04

>  <SET>
1

>  <Min_dist>
999.9

>  <Avg_dist>
999.9

$$$$
zgplnh2
  Cerius2 12110214373D 1   1.00000                          
Structure written by Cerius2 SD Exporter
 47 47  0  0  0  0  0  0  0  0999 V2000
    0.0210   -4.7400   -1.2690 C   0  0  0  0  0  0
   -1.9120   -3.8650   -1.7680 H   0  0  0  0  0  0
   -0.8340   -3.7220   -1.6900 N   0  0  0  0  0  0
   -0.2700   -1.7810   -1.1610 H   0  0  0  0  0  0
    0.8640   -2.6350   -2.2370 H   0  0  0  0  0  0
   -0.1880   -2.4440   -2.0230 C   0  0  0  0  0  0
    1.2560   -4.6190   -1.2810 O   0  0  0  0  0  0
   -0.5650   -5.8820   -0.8320 O   0  0  0  0  0  0
    0.9200   -7.2570   -1.2100 H   0  0  0  0  0  0
    1.0570   -6.3810    0.3330 H   0  0  0  0  0  0
    0.3650   -6.8530   -0.3630 C   0  0  0  0  0  0
   -0.3470   -7.9680    0.3340 C   0  0  0  0  0  0
    0.3350   -9.4400   -1.0810 H   0  0  0  0  0  0
   -0.2460   -9.2580   -0.1760 C   0  0  0  0  0  0
   -1.1890   -6.7190    1.8800 H   0  0  0  0  0  0
   -1.1020   -7.7310    1.4840 C   0  0  0  0  0  0
   -0.8000  -11.3290    0.0610 H   0  0  0  0  0  0
   -0.8830  -10.3180    0.4610 C   0  0  0  0  0  0
   -2.3290   -8.6070    3.0260 H   0  0  0  0  0  0
   -1.7420   -8.7900    2.1260 C   0  0  0  0  0  0
   -2.1280  -10.9090    2.1180 H   0  0  0  0  0  0
   -1.6300  -10.0810    1.6150 C   0  0  0  0  0  0
   -0.9210   -1.6070   -3.4600 P   0  0  0  0  0  0
    0.1490   -0.9330   -4.2260 O   0  5  0  0  0  0
   -1.6060   -2.7310   -4.4550 O   0  0  0  0  0  0
   -3.0430   -0.7560   -3.2410 H   0  0  0  0  0  0
   -2.0650   -0.4640   -2.8590 N   0  0  0  0  0  0
   -1.8580    1.0570   -4.2770 H   0  0  0  0  0  0
   -1.8780    0.9730   -3.1910 C   0  0  0  0  0  0
   -0.5780    1.4890   -2.6450 C   0  0  0  0  0  0
    0.2620    2.0860   -3.3190 O   0  0  0  0  0  0
   -3.9800    1.4090   -3.0250 H   0  0  0  0  0  0
   -3.0350    1.7840   -1.5650 H   0  0  0  0  0  0
   -3.0420    1.8200   -2.6540 C   0  0  0  0  0  0
   -1.9170    3.6310   -2.8680 H   0  0  0  0  0  0
   -2.9230    3.2870   -3.1080 C   0  0  0  0  0  0
   -3.0240    4.4620   -4.9130 H   0  0  0  0  0  0
   -2.3520    2.8290   -5.1370 H   0  0  0  0  0  0
   -4.1030    3.0470   -4.8970 H   0  0  0  0  0  0
   -3.1140    3.4160   -4.6230 C   0  0  0  0  0  0
   -3.8300    5.1990   -2.6940 H   0  0  0  0  0  0
   -4.9410    3.8130   -2.5650 H   0  0  0  0  0  0
   -3.7360    4.1100   -1.2890 H   0  0  0  0  0  0
   -3.9300    4.1660   -2.3600 C   0  0  0  0  0  0
    0.5800    1.6410   -0.8350 H   0  0  0  0  0  0
   -1.0920    0.7790   -0.6760 H   0  0  0  0  0  0
   -0.3460    1.2880   -1.2870 N   0  0  0  0  0  0
  1  3  1  0  0  0
  1  7  2  0  0  0
  1  8  1  0  0  0
  2  3  1  0  0  0
  3  6  1  0  0  0
  4  6  1  0  0  0
  5  6  1  0  0  0
  6 23  1  0  0  0
  8 11  1  0  0  0
  9 11  1  0  0  0
 10 11  1  0  0  0
 11 12  1  0  0  0
 12 14  2  0  0  0
 12 16  1  0  0  0
 13 14  1  0  0  0
 14 18  1  0  0  0
 15 16  1  0  0  0
 16 20  2  0  0  0
 17 18  1  0  0  0
 18 22  2  0  0  0
 19 20  1  0  0  0
 20 22  1  0  0  0
 21 22  1  0  0  0
 23 24  1  0  0  0
 23 25  2  0  0  0
 23 27  1  0  0  0
 26 27  1  0  0  0
 27 29  1  0  0  0
 28 29  1  0  0  0
 29 30  1  0  0  0
 29 34  1  0  0  0
 30 31  2  0  0  0
 30 47  1  0  0  0
 32 34  1  0  0  0
 33 34  1  0  0  0
 34 36  1  0  0  0
 35 36  1  0  0  0
 36 40  1  0  0  0
 36 44  1  0  0  0
 37 40  1  0  0  0
 38 40  1  0  0  0
 39 40  1  0  0  0
 41 44  1  0  0  0
 42 44  1  0  0  0
 43 44  1  0  0  0
 45 47  1  0  0  0
 46 47  1  0  0  0
M  CHG  1  24  -1
M  END
>  <ACTIVITY>
6.12

>  <SET>
1

>  <Min_dist>
999.9

>  <Avg_dist>
999.9

$$$$
zgpola
  Cerius2 12110214373D 1   1.00000                          
Structure written by Cerius2 SD Exporter
 54 54  0  0  0  0  0  0  0  0999 V2000
    0.1600   -4.6380   -1.0880 C   0  0  0  0  0  0
    1.3820   -4.4640   -0.9660 O   0  0  0  0  0  0
   -0.4290   -5.7910   -0.6900 O   0  0  0  0  0  0
    1.2590   -6.9660   -0.7640 H   0  0  0  0  0  0
    0.8600   -6.2920    0.8350 H   0  0  0  0  0  0
    0.4480   -6.7320   -0.0740 C   0  0  0  0  0  0
   -0.2740   -7.9940    0.2780 C   0  0  0  0  0  0
   -1.3030   -7.1240    1.9600 H   0  0  0  0  0  0
   -1.1460   -8.0230    1.3640 C   0  0  0  0  0  0
    0.6140   -9.1210   -1.3270 H   0  0  0  0  0  0
   -0.0700   -9.1430   -0.4790 C   0  0  0  0  0  0
   -2.4990   -9.2220    2.5400 H   0  0  0  0  0  0
   -1.8160   -9.2000    1.6900 C   0  0  0  0  0  0
   -0.5770  -11.2230   -0.7480 H   0  0  0  0  0  0
   -0.7390  -10.3230   -0.1540 C   0  0  0  0  0  0
   -2.1400  -11.2710    1.1820 H   0  0  0  0  0  0
   -1.6140  -10.3500    0.9290 C   0  0  0  0  0  0
   -1.7590   -3.8230   -1.7470 H   0  0  0  0  0  0
   -0.6840   -3.6750   -1.6450 N   0  0  0  0  0  0
    0.0590   -1.7670   -1.2350 H   0  0  0  0  0  0
    0.9960   -2.7060   -2.4210 H   0  0  0  0  0  0
   -0.0080   -2.4480   -2.0830 C   0  0  0  0  0  0
   -0.8750   -1.6050   -3.4350 P   0  0  0  0  0  0
    0.1140   -0.9260   -4.3000 O   0  5  0  0  0  0
   -1.6360   -2.7350   -4.3780 O   0  0  0  0  0  0
   -1.9150   -0.5130   -2.7390 O   0  0  0  0  0  0
   -1.7380    0.9350   -4.1690 H   0  0  0  0  0  0
   -1.7880    0.8760   -3.0820 C   0  0  0  0  0  0
   -0.5330    1.4540   -2.4930 C   0  0  0  0  0  0
    0.3210    2.0610   -3.1480 O   0  0  0  0  0  0
   -3.9070    1.2730   -3.0510 H   0  0  0  0  0  0
   -3.0680    1.6380   -1.5240 H   0  0  0  0  0  0
   -3.0020    1.6910   -2.6110 C   0  0  0  0  0  0
   -1.8690    3.5010   -2.7510 H   0  0  0  0  0  0
   -2.8640    3.1620   -3.0390 C   0  0  0  0  0  0
   -2.8860    4.3610   -4.8330 H   0  0  0  0  0  0
   -2.2030    2.7320   -5.0480 H   0  0  0  0  0  0
   -3.9630    2.9450   -4.8840 H   0  0  0  0  0  0
   -2.9880    3.3110   -4.5610 C   0  0  0  0  0  0
   -3.7770    5.0710   -2.6390 H   0  0  0  0  0  0
   -4.8980    3.6910   -2.5660 H   0  0  0  0  0  0
   -3.7400    3.9670   -1.2430 H   0  0  0  0  0  0
   -3.8940    4.0350   -2.3200 C   0  0  0  0  0  0
   -1.1350    0.7450   -0.5540 H   0  0  0  0  0  0
   -0.3820    1.2920   -1.1200 N   0  0  0  0  0  0
    1.3050    2.5230   -1.1120 H   0  0  0  0  0  0
    0.7880    1.8550   -0.4240 C   0  0  0  0  0  0
    1.7520    0.7710   -0.0310 C   0  0  0  0  0  0
    1.4870   -0.1520    0.7320 O   0  5  0  0  0  0
    1.2300    3.0820    1.2930 H   0  0  0  0  0  0
   -0.2920    3.4930    0.4680 H   0  0  0  0  0  0
   -0.1970    2.0360    1.4850 H   0  0  0  0  0  0
    0.3510    2.6760    0.7930 C   0  0  0  0  0  0
    2.9880    0.8520   -0.5640 O   0  0  0  0  0  0
  1  2  2  0  0  0
  1  3  1  0  0  0
  1 19  1  0  0  0
  3  6  1  0  0  0
  4  6  1  0  0  0
  5  6  1  0  0  0
  6  7  1  0  0  0
  7  9  2  0  0  0
  7 11  1  0  0  0
  8  9  1  0  0  0
  9 13  1  0  0  0
 10 11  1  0  0  0
 11 15  2  0  0  0
 12 13  1  0  0  0
 13 17  2  0  0  0
 14 15  1  0  0  0
 15 17  1  0  0  0
 16 17  1  0  0  0
 18 19  1  0  0  0
 19 22  1  0  0  0
 20 22  1  0  0  0
 21 22  1  0  0  0
 22 23  1  0  0  0
 23 24  1  0  0  0
 23 25  2  0  0  0
 23 26  1  0  0  0
 26 28  1  0  0  0
 27 28  1  0  0  0
 28 29  1  0  0  0
 28 33  1  0  0  0
 29 30  2  0  0  0
 29 45  1  0  0  0
 31 33  1  0  0  0
 32 33  1  0  0  0
 33 35  1  0  0  0
 34 35  1  0  0  0
 35 39  1  0  0  0
 35 43  1  0  0  0
 36 39  1  0  0  0
 37 39  1  0  0  0
 38 39  1  0  0  0
 40 43  1  0  0  0
 41 43  1  0  0  0
 42 43  1  0  0  0
 44 45  1  0  0  0
 45 47  1  0  0  0
 46 47  1  0  0  0
 47 48  1  0  0  0
 47 53  1  0  0  0
 48 49  1  0  0  0
 48 54  2  0  0  0
 50 53  1  0  0  0
 51 53  1  0  0  0
 52 53  1  0  0  0
M  CHG  2  24  -1  49  -1
M  END
>  <ACTIVITY>
4.89

>  <SET>
1

>  <Min_dist>
999.9

>  <Avg_dist>
999.9

$$$$
zgpolf
  Cerius2 12110214373D 1   1.00000                          
Structure written by Cerius2 SD Exporter
 64 65  0  0  0  0  0  0  0  0999 V2000
    0.4020   -4.5570   -0.8400 C   0  0  0  0  0  0
   -0.4380   -3.6870   -1.5380 N   0  0  0  0  0  0
    0.3550   -1.7620   -1.3250 H   0  0  0  0  0  0
    1.1440   -2.7740   -2.5580 H   0  0  0  0  0  0
    0.1880   -2.4900   -2.1190 C   0  0  0  0  0  0
    1.6080   -4.3320   -0.6680 O   0  0  0  0  0  0
   -0.2100   -5.6610   -0.3460 O   0  0  0  0  0  0
    1.4780   -6.7760    0.0160 H   0  0  0  0  0  0
    0.7590   -5.9820    1.4370 H   0  0  0  0  0  0
    0.5430   -6.5140    0.5120 C   0  0  0  0  0  0
   -0.2020   -7.7820    0.8430 C   0  0  0  0  0  0
    0.6010   -8.8740   -0.8380 H   0  0  0  0  0  0
   -0.0520   -8.9120    0.0350 C   0  0  0  0  0  0
   -1.1580   -6.9610    2.5930 H   0  0  0  0  0  0
   -1.0390   -7.8400    1.9580 C   0  0  0  0  0  0
   -0.6130  -10.9690   -0.2900 H   0  0  0  0  0  0
   -0.7340  -10.0890    0.3420 C   0  0  0  0  0  0
   -2.3730   -9.0570    3.1340 H   0  0  0  0  0  0
   -1.7190   -9.0170    2.2620 C   0  0  0  0  0  0
   -2.1020  -11.0640    1.6960 H   0  0  0  0  0  0
   -1.5680  -10.1440    1.4560 C   0  0  0  0  0  0
   -0.8380   -1.7230   -3.4050 P   0  0  0  0  0  0
    0.0360   -1.0000   -4.3650 O   0  5  0  0  0  0
   -1.4163   -3.8688   -1.6378 H   0  0  0  0  0  0
   -1.6160   -2.9110   -4.2510 O   0  0  0  0  0  0
   -1.8720   -0.6800   -2.6320 O   0  0  0  0  0  0
   -1.7740    0.8350   -3.9710 H   0  0  0  0  0  0
   -1.7400    0.7290   -2.8870 C   0  0  0  0  0  0
   -0.3960    1.2830   -2.4330 C   0  0  0  0  0  0
    0.3500    1.9390   -3.1690 O   0  0  0  0  0  0
   -3.8550    1.1160   -2.6700 H   0  0  0  0  0  0
   -2.8820    1.5430   -1.2420 H   0  0  0  0  0  0
   -2.9130    1.5490   -2.3310 C   0  0  0  0  0  0
   -1.7800    3.3270   -2.6290 H   0  0  0  0  0  0
   -2.7940    2.9900   -2.8440 C   0  0  0  0  0  0
   -2.8980    4.0930   -4.6930 H   0  0  0  0  0  0
   -2.2290    2.4520   -4.8530 H   0  0  0  0  0  0
   -3.9780    2.6800   -4.6180 H   0  0  0  0  0  0
   -2.9890    3.0590   -4.3610 C   0  0  0  0  0  0
   -3.6180    4.9510   -2.5030 H   0  0  0  0  0  0
   -4.7670    3.6150   -2.2490 H   0  0  0  0  0  0
   -3.4980    3.9390   -1.0440 H   0  0  0  0  0  0
   -3.7370    3.9420   -2.1070 C   0  0  0  0  0  0
   -0.6120    0.6170   -0.3710 H   0  0  0  0  0  0
    0.0510    1.0130   -1.1410 N   0  0  0  0  0  0
    1.9640    1.1410   -1.8450 H   0  0  0  0  0  0
    1.4920    1.2990   -0.8750 C   0  0  0  0  0  0
    2.1390    0.3270    0.0710 C   0  0  0  0  0  0
    1.5460   -0.3650    0.8880 O   0  5  0  0  0  0
    2.8760    2.9320   -0.6010 H   0  0  0  0  0  0
    1.2740    3.4210   -1.2030 H   0  0  0  0  0  0
    1.8030    2.7670   -0.5100 C   0  0  0  0  0  0
    1.3780    3.1010    0.8900 C   0  0  0  0  0  0
   -0.6440    3.5750    0.3140 H   0  0  0  0  0  0
    0.0650    3.4940    1.1370 C   0  0  0  0  0  0
    3.3120    2.7110    1.7580 H   0  0  0  0  0  0
    2.2810    3.0100    1.9490 C   0  0  0  0  0  0
    3.4860    0.2680    0.0290 O   0  0  0  0  0  0
   -1.3670    4.0930    2.6240 H   0  0  0  0  0  0
   -0.3390    3.7850    2.4350 C   0  0  0  0  0  0
    2.5830    3.2220    4.0760 H   0  0  0  0  0  0
    1.8740    3.2990    3.2520 C   0  0  0  0  0  0
    0.2330    3.9090    4.5120 H   0  0  0  0  0  0
    0.5580    3.6860    3.4970 C   0  0  0  0  0  0
  1  2  1  0  0  0
  1  6  2  0  0  0
  1  7  1  0  0  0
  2  5  1  0  0  0
  2 24  1  0  0  0
  3  5  1  0  0  0
  4  5  1  0  0  0
  5 22  1  0  0  0
  7 10  1  0  0  0
  8 10  1  0  0  0
  9 10  1  0  0  0
 10 11  1  0  0  0
 11 13  2  0  0  0
 11 15  1  0  0  0
 12 13  1  0  0  0
 13 17  1  0  0  0
 14 15  1  0  0  0
 15 19  2  0  0  0
 16 17  1  0  0  0
 17 21  2  0  0  0
 18 19  1  0  0  0
 19 21  1  0  0  0
 20 21  1  0  0  0
 22 23  1  0  0  0
 22 25  2  0  0  0
 22 26  1  0  0  0
 26 28  1  0  0  0
 27 28  1  0  0  0
 28 29  1  0  0  0
 28 33  1  0  0  0
 29 30  2  0  0  0
 29 45  1  0  0  0
 31 33  1  0  0  0
 32 33  1  0  0  0
 33 35  1  0  0  0
 34 35  1  0  0  0
 35 39  1  0  0  0
 35 43  1  0  0  0
 36 39  1  0  0  0
 37 39  1  0  0  0
 38 39  1  0  0  0
 40 43  1  0  0  0
 41 43  1  0  0  0
 42 43  1  0  0  0
 44 45  1  0  0  0
 45 47  1  0  0  0
 46 47  1  0  0  0
 47 48  1  0  0  0
 47 52  1  0  0  0
 48 49  1  0  0  0
 48 58  2  0  0  0
 50 52  1  0  0  0
 51 52  1  0  0  0
 52 53  1  0  0  0
 53 55  2  0  0  0
 53 57  1  0  0  0
 54 55  1  0  0  0
 55 60  1  0  0  0
 56 57  1  0  0  0
 57 62  2  0  0  0
 59 60  1  0  0  0
 60 64  2  0  0  0
 61 62  1  0  0  0
 62 64  1  0  0  0
 63 64  1  0  0  0
M  CHG  2  23  -1  49  -1
M  END
>  <ACTIVITY>
4.27

>  <SET>
1

>  <Min_dist>
999.9

>  <Avg_dist>
999.9

$$$$
zgpolg
  Cerius2 12110214373D 1   1.00000                          
Structure written by Cerius2 SD Exporter
 51 51  0  0  0  0  0  0  0  0999 V2000
    0.0480   -4.6900   -1.1000 C   0  0  0  0  0  0
   -1.8190   -3.7260   -1.6720 H   0  0  0  0  0  0
   -0.7320   -3.6640   -1.6280 N   0  0  0  0  0  0
    0.1600   -1.8050   -1.2930 H   0  0  0  0  0  0
    0.9680   -2.8260   -2.5060 H   0  0  0  0  0  0
    0.0040   -2.4930   -2.1230 C   0  0  0  0  0  0
    1.2840   -4.6490   -1.0610 O   0  0  0  0  0  0
   -0.6320   -5.7510   -0.6110 O   0  0  0  0  0  0
    0.9100   -7.1170   -0.5970 H   0  0  0  0  0  0
    0.5400   -6.3580    0.9700 H   0  0  0  0  0  0
    0.1100   -6.7670    0.0560 C   0  0  0  0  0  0
   -0.7840   -7.9180    0.4020 C   0  0  0  0  0  0
   -1.6110   -6.9520    2.1430 H   0  0  0  0  0  0
   -1.6180   -7.8430    1.5150 C   0  0  0  0  0  0
   -0.1210   -9.1290   -1.2550 H   0  0  0  0  0  0
   -0.7830   -9.0650   -0.3910 C   0  0  0  0  0  0
   -3.1190   -8.8470    2.6950 H   0  0  0  0  0  0
   -2.4630   -8.9080    1.8270 C   0  0  0  0  0  0
   -1.6280  -11.0200   -0.7050 H   0  0  0  0  0  0
   -1.6250  -10.1270   -0.0810 C   0  0  0  0  0  0
   -3.1280  -10.8810    1.2710 H   0  0  0  0  0  0
   -2.4670  -10.0490    1.0290 C   0  0  0  0  0  0
   -0.8680   -1.6140   -3.4450 P   0  0  0  0  0  0
    0.1200   -0.9230   -4.3000 O   0  5  0  0  0  0
   -1.6370   -2.7200   -4.4030 O   0  0  0  0  0  0
   -1.9020   -0.5320   -2.7230 O   0  0  0  0  0  0
   -1.7320    0.9220   -4.1500 H   0  0  0  0  0  0
   -1.7780    0.8610   -3.0630 C   0  0  0  0  0  0
   -0.5210    1.4410   -2.4750 C   0  0  0  0  0  0
    0.3290    2.0510   -3.1310 O   0  0  0  0  0  0
   -3.9030    1.2220   -2.9830 H   0  0  0  0  0  0
   -3.0260    1.6710   -1.5010 H   0  0  0  0  0  0
   -2.9930    1.6750   -2.5900 C   0  0  0  0  0  0
   -1.8860    3.4840   -2.8820 H   0  0  0  0  0  0
   -2.8950    3.1270   -3.0880 C   0  0  0  0  0  0
   -3.0490    4.2450   -4.9280 H   0  0  0  0  0  0
   -2.3700    2.6110   -5.1170 H   0  0  0  0  0  0
   -4.1160    2.8230   -4.8420 H   0  0  0  0  0  0
   -3.1240    3.2070   -4.6040 C   0  0  0  0  0  0
   -3.7940    5.0490   -2.7110 H   0  0  0  0  0  0
   -4.8980    3.6690   -2.5050 H   0  0  0  0  0  0
   -3.6580    4.0070   -1.2740 H   0  0  0  0  0  0
   -3.8830    4.0280   -2.3410 C   0  0  0  0  0  0
   -1.1380    0.7180   -0.5510 H   0  0  0  0  0  0
   -0.3730    1.2630   -1.1020 N   0  0  0  0  0  0
    1.3060    2.5220   -1.0090 H   0  0  0  0  0  0
    0.4550    2.2850    0.5360 H   0  0  0  0  0  0
    0.7950    1.7960   -0.3770 C   0  0  0  0  0  0
    1.7540    0.6970   -0.0180 C   0  0  0  0  0  0
    1.4840   -0.2410    0.7280 O   0  5  0  0  0  0
    2.9900    0.7830   -0.5510 O   0  0  0  0  0  0
  1  3  1  0  0  0
  1  7  2  0  0  0
  1  8  1  0  0  0
  2  3  1  0  0  0
  3  6  1  0  0  0
  4  6  1  0  0  0
  5  6  1  0  0  0
  6 23  1  0  0  0
  8 11  1  0  0  0
  9 11  1  0  0  0
 10 11  1  0  0  0
 11 12  1  0  0  0
 12 14  2  0  0  0
 12 16  1  0  0  0
 13 14  1  0  0  0
 14 18  1  0  0  0
 15 16  1  0  0  0
 16 20  2  0  0  0
 17 18  1  0  0  0
 18 22  2  0  0  0
 19 20  1  0  0  0
 20 22  1  0  0  0
 21 22  1  0  0  0
 23 24  1  0  0  0
 23 25  2  0  0  0
 23 26  1  0  0  0
 26 28  1  0  0  0
 27 28  1  0  0  0
 28 29  1  0  0  0
 28 33  1  0  0  0
 29 30  2  0  0  0
 29 45  1  0  0  0
 31 33  1  0  0  0
 32 33  1  0  0  0
 33 35  1  0  0  0
 34 35  1  0  0  0
 35 39  1  0  0  0
 35 43  1  0  0  0
 36 39  1  0  0  0
 37 39  1  0  0  0
 38 39  1  0  0  0
 40 43  1  0  0  0
 41 43  1  0  0  0
 42 43  1  0  0  0
 44 45  1  0  0  0
 45 48  1  0  0  0
 46 48  1  0  0  0
 47 48  1  0  0  0
 48 49  1  0  0  0
 49 50  1  0  0  0
 49 51  2  0  0  0
M  CHG  2  24  -1  50  -1
M  END
>  <ACTIVITY>
3.64

>  <SET>
1

>  <Min_dist>
999.9

>  <Avg_dist>
999.9

$$$$
zgpollzncrys
  Cerius2 12110214373D 1   1.00000                          
Structure written by Cerius2 SD Exporter
 63 63  0  0  0  0  0  0  0  0999 V2000
    0.3560   -4.6070   -0.9970 C   0  0  0  0  0  0
    1.5850   -4.4930   -0.9400 O   0  0  0  0  0  0
   -0.2850   -5.7010   -0.5170 O   0  0  0  0  0  0
    1.3030   -7.0100   -0.5900 H   0  0  0  0  0  0
    0.9010   -6.3780    1.0250 H   0  0  0  0  0  0
    0.4890   -6.7360    0.0810 C   0  0  0  0  0  0
   -0.3650   -7.9440    0.3410 C   0  0  0  0  0  0
   -1.4090   -7.0380    1.9940 H   0  0  0  0  0  0
   -1.2990   -7.9290    1.3750 C   0  0  0  0  0  0
    0.5030   -9.1040   -1.2550 H   0  0  0  0  0  0
   -0.2290   -9.0860   -0.4470 C   0  0  0  0  0  0
   -2.8190   -9.0310    2.4330 H   0  0  0  0  0  0
   -2.0930   -9.0470    1.6210 C   0  0  0  0  0  0
   -0.9170  -11.0960   -0.8250 H   0  0  0  0  0  0
   -1.0250  -10.2060   -0.2060 C   0  0  0  0  0  0
   -2.5810  -11.0580    1.0180 H   0  0  0  0  0  0
   -1.9570  -10.1850    0.8280 C   0  0  0  0  0  0
   -1.5440   -3.7430   -1.5710 H   0  0  0  0  0  0
   -0.4600   -3.6260   -1.5590 N   0  0  0  0  0  0
    0.3350   -1.6970   -1.3430 H   0  0  0  0  0  0
    1.1330   -2.7100   -2.5690 H   0  0  0  0  0  0
    0.1740   -2.4260   -2.1370 C   0  0  0  0  0  0
   -0.8480   -1.6660   -3.4300 P   0  0  0  0  0  0
    0.0160   -0.9730   -4.4090 O   0  5  0  0  0  0
   -1.6260   -2.8690   -4.2510 O   0  0  0  0  0  0
   -1.8860   -0.6070   -2.6850 O   0  0  0  0  0  0
   -1.7740    0.8400   -4.1150 H   0  0  0  0  0  0
   -1.7780    0.7850   -3.0260 C   0  0  0  0  0  0
   -0.4950    1.3770   -2.5070 C   0  0  0  0  0  0
    0.3150    2.0020   -3.1980 O   0  0  0  0  0  0
   -3.8990    1.1440   -2.8770 H   0  0  0  0  0  0
   -2.9730    1.5920   -1.4240 H   0  0  0  0  0  0
   -2.9760    1.5960   -2.5140 C   0  0  0  0  0  0
   -1.8840    3.4100   -2.8080 H   0  0  0  0  0  0
   -2.8900    3.0460   -3.0150 C   0  0  0  0  0  0
   -3.0510    4.1590   -4.8590 H   0  0  0  0  0  0
   -2.3570    2.5300   -5.0430 H   0  0  0  0  0  0
   -4.1050    2.7270   -4.7710 H   0  0  0  0  0  0
   -3.1170    3.1210   -4.5320 C   0  0  0  0  0  0
   -3.7990    4.9640   -2.6470 H   0  0  0  0  0  0
   -4.8950    3.5770   -2.4340 H   0  0  0  0  0  0
   -3.6550    3.9290   -1.2060 H   0  0  0  0  0  0
   -3.8810    3.9430   -2.2720 C   0  0  0  0  0  0
   -0.9260    0.6970   -0.4960 H   0  0  0  0  0  0
   -0.2260    1.2130   -1.1540 N   0  0  0  0  0  0
    1.6020    2.0800   -1.5230 H   0  0  0  0  0  0
    1.0430    1.7650   -0.6410 C   0  0  0  0  0  0
    1.8960    0.7270    0.0410 C   0  0  0  0  0  0
    1.4920   -0.0890    0.8610 O   0  5  0  0  0  0
    1.8290    3.3250    0.6130 H   0  0  0  0  0  0
    0.5020    3.8380   -0.4570 H   0  0  0  0  0  0
    0.8610    3.0440    0.1980 C   0  0  0  0  0  0
   -0.1420    1.8310    1.6530 H   0  0  0  0  0  0
   -0.1380    2.8800    1.3580 C   0  0  0  0  0  0
   -2.2430    3.1460    1.7570 H   0  0  0  0  0  0
   -1.5630    4.3120    0.5960 H   0  0  0  0  0  0
   -1.8700    2.6320    0.0940 H   0  0  0  0  0  0
   -1.5560    3.2710    0.9190 C   0  0  0  0  0  0
   -0.4250    3.6120    3.3640 H   0  0  0  0  0  0
    1.2800    3.4260    2.8870 H   0  0  0  0  0  0
    0.3210    4.7860    2.2540 H   0  0  0  0  0  0
    0.2900    3.7380    2.5510 C   0  0  0  0  0  0
    3.2060    0.7310   -0.2820 O   0  0  0  0  0  0
  1  2  2  0  0  0
  1  3  1  0  0  0
  1 19  1  0  0  0
  3  6  1  0  0  0
  4  6  1  0  0  0
  5  6  1  0  0  0
  6  7  1  0  0  0
  7  9  2  0  0  0
  7 11  1  0  0  0
  8  9  1  0  0  0
  9 13  1  0  0  0
 10 11  1  0  0  0
 11 15  2  0  0  0
 12 13  1  0  0  0
 13 17  2  0  0  0
 14 15  1  0  0  0
 15 17  1  0  0  0
 16 17  1  0  0  0
 18 19  1  0  0  0
 19 22  1  0  0  0
 20 22  1  0  0  0
 21 22  1  0  0  0
 22 23  1  0  0  0
 23 24  1  0  0  0
 23 25  2  0  0  0
 23 26  1  0  0  0
 26 28  1  0  0  0
 27 28  1  0  0  0
 28 29  1  0  0  0
 28 33  1  0  0  0
 29 30  2  0  0  0
 29 45  1  0  0  0
 31 33  1  0  0  0
 32 33  1  0  0  0
 33 35  1  0  0  0
 34 35  1  0  0  0
 35 39  1  0  0  0
 35 43  1  0  0  0
 36 39  1  0  0  0
 37 39  1  0  0  0
 38 39  1  0  0  0
 40 43  1  0  0  0
 41 43  1  0  0  0
 42 43  1  0  0  0
 44 45  1  0  0  0
 45 47  1  0  0  0
 46 47  1  0  0  0
 47 48  1  0  0  0
 47 52  1  0  0  0
 48 49  1  0  0  0
 48 63  2  0  0  0
 50 52  1  0  0  0
 51 52  1  0  0  0
 52 54  1  0  0  0
 53 54  1  0  0  0
 54 58  1  0  0  0
 54 62  1  0  0  0
 55 58  1  0  0  0
 56 58  1  0  0  0
 57 58  1  0  0  0
 59 62  1  0  0  0
 60 62  1  0  0  0
 61 62  1  0  0  0
M  CHG  2  24  -1  49  -1
M  END
>  <ACTIVITY>
5.05

>  <SET>
1

>  <Min_dist>
999.9

>  <Avg_dist>
999.9

$$$$
zgpolnh2
  Cerius2 12110214373D 1   1.00000                          
Structure written by Cerius2 SD Exporter
 46 46  0  0  0  0  0  0  0  0999 V2000
    0.2620   -4.5340   -1.0550 C   0  0  0  0  0  0
   -1.6950   -3.8440   -1.7790 H   0  0  0  0  0  0
   -0.6330   -3.6370   -1.6400 N   0  0  0  0  0  0
    0.0270   -1.6960   -1.2010 H   0  0  0  0  0  0
    1.0370   -2.5930   -2.3600 H   0  0  0  0  0  0
    0.0140   -2.3790   -2.0500 C   0  0  0  0  0  0
    1.4830   -4.3320   -1.0260 O   0  0  0  0  0  0
   -0.2820   -5.6390   -0.4980 O   0  0  0  0  0  0
    1.4360   -6.7650   -0.4120 H   0  0  0  0  0  0
    0.9830   -5.9350    1.0960 H   0  0  0  0  0  0
    0.6040   -6.4810    0.2320 C   0  0  0  0  0  0
   -0.0940   -7.7210    0.7060 C   0  0  0  0  0  0
    0.6020   -8.9400   -0.9310 H   0  0  0  0  0  0
    0.0120   -8.9100   -0.0150 C   0  0  0  0  0  0
   -0.9390   -6.7570    2.4390 H   0  0  0  0  0  0
   -0.8560   -7.6850    1.8740 C   0  0  0  0  0  0
   -0.5480  -10.9910   -0.1320 H   0  0  0  0  0  0
   -0.6360  -10.0610    0.4310 C   0  0  0  0  0  0
   -2.1100   -8.8000    3.2300 H   0  0  0  0  0  0
   -1.5100   -8.8320    2.3200 C   0  0  0  0  0  0
   -1.9020  -10.9200    1.9500 H   0  0  0  0  0  0
   -1.3960  -10.0200    1.5990 C   0  0  0  0  0  0
   -0.8620   -1.5920   -3.4210 P   0  0  0  0  0  0
    0.1140   -0.9080   -4.2980 O   0  5  0  0  0  0
   -1.5980   -2.7690   -4.3260 O   0  0  0  0  0  0
   -1.9260   -0.5180   -2.7390 O   0  0  0  0  0  0
   -1.7330    0.9570   -4.1390 H   0  0  0  0  0  0
   -1.7780    0.8690   -3.0530 C   0  0  0  0  0  0
   -0.5000    1.4080   -2.4630 C   0  0  0  0  0  0
    0.3370    2.0330   -3.1190 O   0  0  0  0  0  0
   -3.8900    1.2760   -2.9990 H   0  0  0  0  0  0
   -3.0300    1.6450   -1.4850 H   0  0  0  0  0  0
   -2.9780    1.6930   -2.5730 C   0  0  0  0  0  0
   -1.8600    3.5130   -2.7100 H   0  0  0  0  0  0
   -2.8490    3.1620   -3.0040 C   0  0  0  0  0  0
   -2.8690    4.3590   -4.8000 H   0  0  0  0  0  0
   -2.1720    2.7350   -5.0090 H   0  0  0  0  0  0
   -3.9340    2.9330   -4.8570 H   0  0  0  0  0  0
   -2.9650    3.3080   -4.5280 C   0  0  0  0  0  0
   -3.7990    5.0580   -2.6150 H   0  0  0  0  0  0
   -4.8990    3.6600   -2.5590 H   0  0  0  0  0  0
   -3.7640    3.9540   -1.2200 H   0  0  0  0  0  0
   -3.9040    4.0200   -2.2980 C   0  0  0  0  0  0
    0.6180    1.5410   -0.6260 H   0  0  0  0  0  0
   -1.0300    0.6260   -0.5270 H   0  0  0  0  0  0
   -0.2890    1.1750   -1.1080 N   0  0  0  0  0  0
  1  3  1  0  0  0
  1  7  2  0  0  0
  1  8  1  0  0  0
  2  3  1  0  0  0
  3  6  1  0  0  0
  4  6  1  0  0  0
  5  6  1  0  0  0
  6 23  1  0  0  0
  8 11  1  0  0  0
  9 11  1  0  0  0
 10 11  1  0  0  0
 11 12  1  0  0  0
 12 14  2  0  0  0
 12 16  1  0  0  0
 13 14  1  0  0  0
 14 18  1  0  0  0
 15 16  1  0  0  0
 16 20  2  0  0  0
 17 18  1  0  0  0
 18 22  2  0  0  0
 19 20  1  0  0  0
 20 22  1  0  0  0
 21 22  1  0  0  0
 23 24  1  0  0  0
 23 25  2  0  0  0
 23 26  1  0  0  0
 26 28  1  0  0  0
 27 28  1  0  0  0
 28 29  1  0  0  0
 28 33  1  0  0  0
 29 30  2  0  0  0
 29 46  1  0  0  0
 31 33  1  0  0  0
 32 33  1  0  0  0
 33 35  1  0  0  0
 34 35  1  0  0  0
 35 39  1  0  0  0
 35 43  1  0  0  0
 36 39  1  0  0  0
 37 39  1  0  0  0
 38 39  1  0  0  0
 40 43  1  0  0  0
 41 43  1  0  0  0
 42 43  1  0  0  0
 44 46  1  0  0  0
 45 46  1  0  0  0
M  CHG  1  24  -1
M  END
>  <ACTIVITY>
3.18

>  <SET>
1

>  <Min_dist>
999.9

>  <Avg_dist>
999.9

$$$$
zlgnh2
  Cerius2 12110214373D 1   1.00000                          
Structure written by Cerius2 SD Exporter
 46 46  0  0  0  0  0  0  0  0999 V2000
    6.8270    3.1500   -1.1960 H   0  0  0  0  0  0
    6.7810    2.4220   -0.3860 C   0  0  0  0  0  0
    4.8000    1.7510   -0.9020 H   0  0  0  0  0  0
    5.6430    1.6340   -0.2210 C   0  0  0  0  0  0
   -1.5600   -1.0800   -1.1580 H   0  0  0  0  0  0
    0.1290   -1.5170   -1.5150 H   0  0  0  0  0  0
   -0.8150   -1.1850   -1.9470 C   0  0  0  0  0  0
    5.5780    0.6990    0.8100 C   0  0  0  0  0  0
   -1.3640    0.2880   -3.4390 H   0  0  0  0  0  0
   -0.6340    0.0900   -2.6540 N   0  0  0  0  0  0
    2.2150    1.2390   -1.6380 H   0  0  0  0  0  0
    1.1960    1.3860   -1.2820 C   0  0  0  0  0  0
   -0.0340    0.2080    0.1230 H   0  0  0  0  0  0
    0.9860    0.4740   -0.1550 N   0  0  0  0  0  0
    0.3220    1.0830   -2.4780 C   0  0  0  0  0  0
    0.4850    1.7180   -3.5110 O   0  0  0  0  0  0
    6.6110   -0.1640    2.4930 H   0  0  0  0  0  0
    6.6580    0.5620    1.6810 C   0  0  0  0  0  0
   -1.2820   -2.1510   -2.9760 C   0  0  0  0  0  0
   -0.7610   -2.1920   -4.0840 O   0  0  0  0  0  0
   -0.1810    2.0860    0.7980 H   0  0  0  0  0  0
   -0.1670    2.9780    0.1710 C   0  0  0  0  0  0
    0.9730    4.1470    1.5750 H   0  0  0  0  0  0
   -0.0170    5.1080    0.4500 H   0  0  0  0  0  0
   -0.7900    4.2420    1.8000 H   0  0  0  0  0  0
    0.0130    4.2070    1.0630 C   0  0  0  0  0  0
   -2.7620   -3.6350   -3.4380 H   0  0  0  0  0  0
   -2.9150   -2.8070   -1.7480 H   0  0  0  0  0  0
   -2.3980   -2.9180   -2.7010 N   0  0  0  0  0  0
    8.6380    1.2380    2.2040 H   0  0  0  0  0  0
    7.7970    1.3490    1.5200 C   0  0  0  0  0  0
    8.7510    2.8920    0.3540 H   0  0  0  0  0  0
    7.8600    2.2780    0.4840 C   0  0  0  0  0  0
    4.6330   -1.1990    0.6820 H   0  0  0  0  0  0
    4.0630   -0.1710    2.0180 H   0  0  0  0  0  0
    4.3720   -0.1820    0.9730 C   0  0  0  0  0  0
    3.2910    0.2700    0.1640 O   0  0  0  0  0  0
    2.0420   -0.0640    0.5730 C   0  0  0  0  0  0
    1.8510   -0.7870    1.5550 O   0  0  0  0  0  0
   -1.6200    2.1490   -1.1930 H   0  0  0  0  0  0
   -2.3240    3.0620    0.1640 H   0  0  0  0  0  0
   -1.5510    3.9280   -1.1850 H   0  0  0  0  0  0
   -1.5130    3.0330   -0.5640 C   0  0  0  0  0  0
    1.9320    3.1510   -0.2910 H   0  0  0  0  0  0
    0.8480    3.4770   -1.6650 H   0  0  0  0  0  0
    1.0210    2.8360   -0.8000 C   0  0  0  0  0  0
  1  2  1  0  0  0
  2  4  1  0  0  0
  2 33  2  0  0  0
  3  4  1  0  0  0
  4  8  2  0  0  0
  5  7  1  0  0  0
  6  7  1  0  0  0
  7 10  1  0  0  0
  7 19  1  0  0  0
  8 18  1  0  0  0
  8 36  1  0  0  0
  9 10  1  0  0  0
 10 15  1  0  0  0
 11 12  1  0  0  0
 12 14  1  0  0  0
 12 15  1  0  0  0
 12 46  1  0  0  0
 13 14  1  0  0  0
 14 38  1  0  0  0
 15 16  2  0  0  0
 17 18  1  0  0  0
 18 31  2  0  0  0
 19 20  2  0  0  0
 19 29  1  0  0  0
 21 22  1  0  0  0
 22 26  1  0  0  0
 22 43  1  0  0  0
 22 46  1  0  0  0
 23 26  1  0  0  0
 24 26  1  0  0  0
 25 26  1  0  0  0
 27 29  1  0  0  0
 28 29  1  0  0  0
 30 31  1  0  0  0
 31 33  1  0  0  0
 32 33  1  0  0  0
 34 36  1  0  0  0
 35 36  1  0  0  0
 36 37  1  0  0  0
 37 38  1  0  0  0
 38 39  2  0  0  0
 40 43  1  0  0  0
 41 43  1  0  0  0
 42 43  1  0  0  0
 44 46  1  0  0  0
 45 46  1  0  0  0
M  END
>  <ACTIVITY>
2.51

>  <SET>
1

>  <Min_dist>
999.9

>  <Avg_dist>
999.9

$$$$
zlpola
  Cerius2 12110214373D 1   1.00000                          
Structure written by Cerius2 SD Exporter
 66 66  0  0  0  0  0  0  0  0999 V2000
   -1.2080   -5.2680   -3.6590 C   0  0  0  0  0  0
   -2.4370   -5.2970   -3.4770 O   0  0  0  0  0  0
   -0.5820   -6.2510   -4.3500 O   0  0  0  0  0  0
   -2.0390   -7.6850   -4.1130 H   0  0  0  0  0  0
   -1.9410   -6.9470   -5.7300 H   0  0  0  0  0  0
   -1.3620   -7.3130   -4.8820 C   0  0  0  0  0  0
   -0.4660   -8.4240   -5.3350 C   0  0  0  0  0  0
   -0.7000   -7.9760   -7.4310 H   0  0  0  0  0  0
   -0.2280   -8.6250   -6.6940 C   0  0  0  0  0  0
   -0.0370   -9.0940   -3.3330 H   0  0  0  0  0  0
    0.1440   -9.2530   -4.3960 C   0  0  0  0  0  0
    0.7960   -9.8120   -8.1720 H   0  0  0  0  0  0
    0.6120   -9.6560   -7.1090 C   0  0  0  0  0  0
    1.4560  -10.9340   -4.0740 H   0  0  0  0  0  0
    0.9830  -10.2850   -4.8110 C   0  0  0  0  0  0
    1.8730  -11.2940   -6.4970 H   0  0  0  0  0  0
    1.2170  -10.4870   -6.1700 C   0  0  0  0  0  0
    0.7310   -4.3730   -3.4790 H   0  0  0  0  0  0
   -0.3240   -4.2710   -3.2250 N   0  0  0  0  0  0
   -1.6510   -3.3460   -1.9000 H   0  0  0  0  0  0
   -0.7400   -3.0900   -2.4420 C   0  0  0  0  0  0
   -1.0930   -1.7000   -3.5490 P   0  0  0  0  0  0
    0.1090   -1.1570   -4.1880 O   0  5  0  0  0  0
   -1.9080   -2.3000   -4.8150 O   0  0  0  0  0  0
    1.2870   -2.6180   -1.8940 H   0  0  0  0  0  0
    0.0490   -1.7470   -0.9570 H   0  0  0  0  0  0
    0.3190   -2.7050   -1.4010 C   0  0  0  0  0  0
    0.5050   -4.7420   -0.7610 H   0  0  0  0  0  0
    0.4140   -3.7610   -0.2930 C   0  0  0  0  0  0
    1.7060   -4.2730    1.3550 H   0  0  0  0  0  0
    2.5470   -3.5690   -0.0470 H   0  0  0  0  0  0
    1.5860   -2.5270    1.0290 H   0  0  0  0  0  0
    1.6520   -3.5150    0.5730 C   0  0  0  0  0  0
   -0.7650   -4.5120    1.3520 H   0  0  0  0  0  0
   -0.9760   -2.7740    1.0310 H   0  0  0  0  0  0
   -1.7200   -3.9760   -0.0510 H   0  0  0  0  0  0
   -0.8540   -3.7550    0.5720 C   0  0  0  0  0  0
   -1.9210   -0.5430   -2.6970 O   0  0  0  0  0  0
   -1.7360    0.8690   -4.1680 H   0  0  0  0  0  0
   -1.7780    0.8270   -3.0800 C   0  0  0  0  0  0
   -0.5100    1.3990   -2.5110 C   0  0  0  0  0  0
    0.3340    2.0110   -3.1710 O   0  0  0  0  0  0
   -3.8960    1.2140   -2.9850 H   0  0  0  0  0  0
   -3.0010    1.6530   -1.5100 H   0  0  0  0  0  0
   -2.9770    1.6560   -2.5990 C   0  0  0  0  0  0
   -1.8550    3.4560   -2.8870 H   0  0  0  0  0  0
   -2.8650    3.1040   -3.0980 C   0  0  0  0  0  0
   -2.9980    4.2200   -4.9410 H   0  0  0  0  0  0
   -2.3290    2.5800   -5.1220 H   0  0  0  0  0  0
   -4.0750    2.8050   -4.8600 H   0  0  0  0  0  0
   -3.0830    3.1830   -4.6150 C   0  0  0  0  0  0
   -3.7530    5.0310   -2.7260 H   0  0  0  0  0  0
   -4.8670    3.6570   -2.5270 H   0  0  0  0  0  0
   -3.6310    3.9880   -1.2890 H   0  0  0  0  0  0
   -3.8500    4.0100   -2.3570 C   0  0  0  0  0  0
   -1.0950    0.6940   -0.5640 H   0  0  0  0  0  0
   -0.3470    1.2400   -1.1380 N   0  0  0  0  0  0
    1.3620    2.4350   -1.1670 H   0  0  0  0  0  0
    0.8300    1.8050   -0.4540 C   0  0  0  0  0  0
    1.7770    0.7250   -0.0140 C   0  0  0  0  0  0
    1.4900   -0.1760    0.7680 O   0  5  0  0  0  0
    1.2830    3.0840    1.2210 H   0  0  0  0  0  0
   -0.2260    3.4940    0.3710 H   0  0  0  0  0  0
   -0.1650    2.0720    1.4400 H   0  0  0  0  0  0
    0.4000    2.6760    0.7300 C   0  0  0  0  0  0
    3.0290    0.7860   -0.5150 O   0  0  0  0  0  0
  1  2  2  0  0  0
  1  3  1  0  0  0
  1 19  1  0  0  0
  3  6  1  0  0  0
  4  6  1  0  0  0
  5  6  1  0  0  0
  6  7  1  0  0  0
  7  9  2  0  0  0
  7 11  1  0  0  0
  8  9  1  0  0  0
  9 13  1  0  0  0
 10 11  1  0  0  0
 11 15  2  0  0  0
 12 13  1  0  0  0
 13 17  2  0  0  0
 14 15  1  0  0  0
 15 17  1  0  0  0
 16 17  1  0  0  0
 18 19  1  0  0  0
 19 21  1  0  0  0
 20 21  1  0  0  0
 21 22  1  0  0  0
 21 27  1  0  0  0
 22 23  1  0  0  0
 22 24  2  0  0  0
 22 38  1  0  0  0
 25 27  1  0  0  0
 26 27  1  0  0  0
 27 29  1  0  0  0
 28 29  1  0  0  0
 29 33  1  0  0  0
 29 37  1  0  0  0
 30 33  1  0  0  0
 31 33  1  0  0  0
 32 33  1  0  0  0
 34 37  1  0  0  0
 35 37  1  0  0  0
 36 37  1  0  0  0
 38 40  1  0  0  0
 39 40  1  0  0  0
 40 41  1  0  0  0
 40 45  1  0  0  0
 41 42  2  0  0  0
 41 57  1  0  0  0
 43 45  1  0  0  0
 44 45  1  0  0  0
 45 47  1  0  0  0
 46 47  1  0  0  0
 47 51  1  0  0  0
 47 55  1  0  0  0
 48 51  1  0  0  0
 49 51  1  0  0  0
 50 51  1  0  0  0
 52 55  1  0  0  0
 53 55  1  0  0  0
 54 55  1  0  0  0
 56 57  1  0  0  0
 57 59  1  0  0  0
 58 59  1  0  0  0
 59 60  1  0  0  0
 59 65  1  0  0  0
 60 61  1  0  0  0
 60 66  2  0  0  0
 62 65  1  0  0  0
 63 65  1  0  0  0
 64 65  1  0  0  0
M  CHG  2  23  -1  61  -1
M  END
>  <ACTIVITY>
6.17

>  <SET>
1

>  <Min_dist>
999.9

>  <Avg_dist>
999.9

$$$$
zygnh2
  Cerius2 12110214373D 1   1.00000                          
Structure written by Cerius2 SD Exporter
 48 49  0  0  0  0  0  0  0  0999 V2000
    8.7690    1.2910    2.1370 H   0  0  0  0  0  0
    7.9020    1.3820    1.4840 C   0  0  0  0  0  0
    6.7640   -0.1150    2.5360 H   0  0  0  0  0  0
    6.7750    0.5930    1.7070 C   0  0  0  0  0  0
    0.2330   -1.5390   -1.5750 H   0  0  0  0  0  0
   -1.4400   -1.1970   -1.0740 H   0  0  0  0  0  0
   -0.7520   -1.2240   -1.9190 C   0  0  0  0  0  0
    5.6620    0.7040    0.8750 C   0  0  0  0  0  0
   -1.5360    0.3920   -3.1560 H   0  0  0  0  0  0
   -0.6730    0.0980   -2.5580 N   0  0  0  0  0  0
    2.3270    0.7240   -1.8110 H   0  0  0  0  0  0
    1.4140    1.1740   -1.4210 C   0  0  0  0  0  0
    0.0830    0.2260    0.0830 H   0  0  0  0  0  0
    1.1220    0.4130   -0.1900 N   0  0  0  0  0  0
    0.3660    1.0200   -2.4950 C   0  0  0  0  0  0
    0.4730    1.6970   -3.5110 O   0  0  0  0  0  0
    4.8110    1.7120   -0.8290 H   0  0  0  0  0  0
    5.6810    1.6160   -0.1790 C   0  0  0  0  0  0
   -1.2550   -2.1520   -2.9660 C   0  0  0  0  0  0
   -0.7420   -2.1910   -4.0780 O   0  0  0  0  0  0
    1.1120    3.1110    0.1660 C   0  0  0  0  0  0
   -2.7910   -3.5670   -3.4560 H   0  0  0  0  0  0
   -2.9130   -2.7650   -1.7510 H   0  0  0  0  0  0
   -2.4000   -2.8790   -2.7060 N   0  0  0  0  0  0
    6.8160    3.1160   -1.2330 H   0  0  0  0  0  0
    6.8060    2.4060   -0.4060 C   0  0  0  0  0  0
    8.8000    2.9030    0.2470 H   0  0  0  0  0  0
    7.9180    2.2880    0.4250 C   0  0  0  0  0  0
    4.7420   -1.2110    0.9240 H   0  0  0  0  0  0
    4.1290   -0.0590    2.1350 H   0  0  0  0  0  0
    4.4640   -0.1730    1.1040 C   0  0  0  0  0  0
    3.4030    0.1850    0.2260 O   0  0  0  0  0  0
    2.1350   -0.0710    0.6300 C   0  0  0  0  0  0
    1.8940   -0.6790    1.6760 O   0  0  0  0  0  0
    3.0580    3.4400    1.0350 H   0  0  0  0  0  0
    1.9810    3.4370    1.2080 C   0  0  0  0  0  0
    2.1560    4.0260    3.2780 H   0  0  0  0  0  0
    1.4820    3.7590    2.4640 C   0  0  0  0  0  0
    0.1020    3.7330    2.6660 C   0  0  0  0  0  0
   -1.8570    3.4660    1.7910 H   0  0  0  0  0  0
   -0.7800    3.4500    1.6220 C   0  0  0  0  0  0
   -0.9480    2.9410   -0.4630 H   0  0  0  0  0  0
   -0.2710    3.1480    0.3650 C   0  0  0  0  0  0
    2.7800    2.8170   -1.1130 H   0  0  0  0  0  0
    1.2710    3.2630   -1.9440 H   0  0  0  0  0  0
    1.7010    2.6650   -1.1410 C   0  0  0  0  0  0
   -1.4690    3.9450    4.0930 H   0  0  0  0  0  0
   -0.3930    3.9620    3.9200 O   0  0  0  0  0  0
  1  2  1  0  0  0
  2  4  1  0  0  0
  2 28  2  0  0  0
  3  4  1  0  0  0
  4  8  2  0  0  0
  5  7  1  0  0  0
  6  7  1  0  0  0
  7 10  1  0  0  0
  7 19  1  0  0  0
  8 18  1  0  0  0
  8 31  1  0  0  0
  9 10  1  0  0  0
 10 15  1  0  0  0
 11 12  1  0  0  0
 12 14  1  0  0  0
 12 15  1  0  0  0
 12 46  1  0  0  0
 13 14  1  0  0  0
 14 33  1  0  0  0
 15 16  2  0  0  0
 17 18  1  0  0  0
 18 26  2  0  0  0
 19 20  2  0  0  0
 19 24  1  0  0  0
 21 36  1  0  0  0
 21 43  2  0  0  0
 21 46  1  0  0  0
 22 24  1  0  0  0
 23 24  1  0  0  0
 25 26  1  0  0  0
 26 28  1  0  0  0
 27 28  1  0  0  0
 29 31  1  0  0  0
 30 31  1  0  0  0
 31 32  1  0  0  0
 32 33  1  0  0  0
 33 34  2  0  0  0
 35 36  1  0  0  0
 36 38  2  0  0  0
 37 38  1  0  0  0
 38 39  1  0  0  0
 39 41  2  0  0  0
 39 48  1  0  0  0
 40 41  1  0  0  0
 41 43  1  0  0  0
 42 43  1  0  0  0
 44 46  1  0  0  0
 45 46  1  0  0  0
 47 48  1  0  0  0
M  END
>  <ACTIVITY>
3.66

>  <SET>
2

>  <Min_dist>
0.06

>  <Avg_dist>
0.33

$$$$
