01
  Cerius2 12110214423D 1   1.00000                          
Structure written by Cerius2 SD Exporter
 75 78  0  0  0  0  0  0  0  0999 V2000
    4.6733   -7.8162   13.7915 C   0  0  0  0  0  0
    6.2336   -5.7812   14.8720 C   0  0  0  0  0  0
    9.9352   -8.0005   13.3356 H   0  0  0  0  0  0
    8.5735   -9.8678   12.4790 H   0  0  0  0  0  0
    4.0616   -6.7264   14.4122 C   0  0  0  0  0  0
    4.8420   -5.7035   14.9521 C   0  0  0  0  0  0
    4.0292   -8.5785   13.3777 H   0  0  0  0  0  0
    6.8053   -9.2441   10.2712 H   0  0  0  0  0  0
    5.3022  -10.4327    8.5482 H   0  0  0  0  0  0
    6.1690   -9.0230    7.9137 H   0  0  0  0  0  0
    2.8710  -10.4660    8.2971 H   0  0  0  0  0  0
    4.9956   -6.8009    7.6851 H   0  0  0  0  0  0
    2.8594   -5.6061    7.3473 H   0  0  0  0  0  0
    0.7151   -6.7687    7.7675 H   0  0  0  0  0  0
    3.9973   -9.8029   10.9190 H   0  0  0  0  0  0
   -1.6563   -9.4335    7.4364 H   0  0  0  0  0  0
   -0.6904   -8.0264    6.9649 H   0  0  0  0  0  0
    1.0576  -11.0980    8.9979 H   0  0  0  0  0  0
   -0.6508  -11.2001    8.5433 H   0  0  0  0  0  0
    7.5116   -6.1605    8.2583 H   0  0  0  0  0  0
    7.8356   -7.7441    8.9719 H   0  0  0  0  0  0
    9.6828   -6.1119    9.4185 H   0  0  0  0  0  0
    8.9435   -6.7115   10.9279 H   0  0  0  0  0  0
   10.7948   -3.7188   11.1921 C   0  0  0  0  0  0
    9.4612   -3.4113   10.0261 S   0  0  0  0  0  0
    7.0048   -3.4564   11.3804 H   0  0  0  0  0  0
    7.2283   -5.0544   12.1360 H   0  0  0  0  0  0
    5.0672   -4.9684   10.8790 H   0  0  0  0  0  0
    5.9317   -4.5076    9.3969 H   0  0  0  0  0  0
    5.7740  -10.4331   12.4830 S   0  0  0  0  0  0
    6.7040  -11.4411   12.0170 O   0  0  0  0  0  0
    4.7722  -10.8269   13.4545 O   0  0  0  0  0  0
    6.6885   -9.0238   13.1044 C   0  0  0  0  0  0
    6.0696   -7.9129   13.7012 C   0  0  0  0  0  0
    6.8474   -6.8664   14.2243 C   0  0  0  0  0  0
    8.2410   -6.9028   14.0916 C   0  0  0  0  0  0
    8.8557   -7.9810   13.4540 C   0  0  0  0  0  0
    8.0788   -9.0362   12.9668 C   0  0  0  0  0  0
    6.9703   -4.7924   15.4326 N   0  0  0  0  0  0
    5.5375   -7.4848   10.3680 C   0  0  0  0  0  0
    5.7635   -8.9549   10.0855 C   0  0  0  0  0  0
    5.3850   -9.3376    8.6224 C   0  0  0  0  0  0
    4.0592   -8.6813    8.1961 C   0  0  0  0  0  0
    2.8505   -9.3892    8.1723 C   0  0  0  0  0  0
    4.0573   -7.3328    7.8202 C   0  0  0  0  0  0
    1.6264   -8.7278    7.9815 C   0  0  0  0  0  0
    2.8493   -6.6593    7.6221 C   0  0  0  0  0  0
    1.6387   -7.3399    7.7866 C   0  0  0  0  0  0
    0.3114   -9.4860    7.9858 C   0  0  0  0  0  0
    4.5138   -7.2489   10.9917 O   0  0  0  0  0  0
    4.9859   -9.7209   11.0549 N   0  0  0  0  0  0
   -0.7481   -8.9459    7.4292 N   0  3  0  0  0  0
    0.2355  -10.6723    8.5420 N   0  0  0  0  0  0
    6.3626   -6.4718    9.9757 N   0  0  0  0  0  0
    7.5947   -6.7037    9.2145 C   0  0  0  0  0  0
    8.7663   -6.1038   10.0265 C   0  0  0  0  0  0
    8.4008   -4.7519   10.4297 N   0  0  0  0  0  0
    7.1737   -4.5222   11.1772 C   0  0  0  0  0  0
    6.0152   -5.0908   10.3292 C   0  0  0  0  0  0
    8.8263   -2.1567   10.3745 O   0  0  0  0  0  0
    9.9639   -3.5970    8.6807 O   0  0  0  0  0  0
   10.4000   -3.6900   12.2174 H   0  0  0  0  0  0
   11.5632   -2.9419   11.0741 H   0  0  0  0  0  0
   11.2442   -4.7036   11.0047 H   0  0  0  0  0  0
    2.9784   -6.6720   14.4783 H   0  0  0  0  0  0
    4.3653   -4.8516   15.4312 H   0  0  0  0  0  0
    8.8652   -6.0980   14.4713 H   0  0  0  0  0  0
    7.2077   -3.5606   14.6865 C   0  0  0  0  0  0
    7.4290   -4.9219   16.8140 C   0  0  0  0  0  0
    7.4058   -2.7163   15.3687 H   0  0  0  0  0  0
    6.3294   -3.3085   14.0672 H   0  0  0  0  0  0
    8.0825   -3.7036   14.0370 H   0  0  0  0  0  0
    7.1221   -5.8875   17.2488 H   0  0  0  0  0  0
    7.0061   -4.1124   17.4287 H   0  0  0  0  0  0
    8.5269   -4.8557   16.8383 H   0  0  0  0  0  0
  1  5  1  0  0  0
  1  7  1  0  0  0
  1 34  2  0  0  0
  2  6  1  0  0  0
  2 35  2  0  0  0
  2 39  1  0  0  0
  3 37  1  0  0  0
  4 38  1  0  0  0
  5  6  2  0  0  0
  5 65  1  0  0  0
  6 66  1  0  0  0
  8 41  1  0  0  0
  9 42  1  0  0  0
 10 42  1  0  0  0
 11 44  1  0  0  0
 12 45  1  0  0  0
 13 47  1  0  0  0
 14 48  1  0  0  0
 15 51  1  0  0  0
 16 52  1  0  0  0
 17 52  1  0  0  0
 18 53  1  0  0  0
 19 53  1  0  0  0
 20 55  1  0  0  0
 21 55  1  0  0  0
 22 56  1  0  0  0
 23 56  1  0  0  0
 24 25  1  0  0  0
 24 62  1  0  0  0
 24 63  1  0  0  0
 24 64  1  0  0  0
 25 57  1  0  0  0
 25 60  2  0  0  0
 25 61  2  0  0  0
 26 58  1  0  0  0
 27 58  1  0  0  0
 28 59  1  0  0  0
 29 59  1  0  0  0
 30 31  2  0  0  0
 30 32  2  0  0  0
 30 33  1  0  0  0
 30 51  1  0  0  0
 33 34  1  0  0  0
 33 38  2  0  0  0
 34 35  1  0  0  0
 35 36  1  0  0  0
 36 37  2  0  0  0
 36 67  1  0  0  0
 37 38  1  0  0  0
 39 68  1  0  0  0
 39 69  1  0  0  0
 40 41  1  0  0  0
 40 50  2  0  0  0
 40 54  1  0  0  0
 41 42  1  0  0  0
 41 51  1  0  0  0
 42 43  1  0  0  0
 43 44  2  0  0  0
 43 45  1  0  0  0
 44 46  1  0  0  0
 45 47  2  0  0  0
 46 48  2  0  0  0
 46 49  1  0  0  0
 47 48  1  0  0  0
 49 52  2  0  0  0
 49 53  1  0  0  0
 54 55  1  0  0  0
 54 59  1  0  0  0
 55 56  1  0  0  0
 56 57  1  0  0  0
 57 58  1  0  0  0
 58 59  1  0  0  0
 68 70  1  0  0  0
 68 71  1  0  0  0
 68 72  1  0  0  0
 69 73  1  0  0  0
 69 74  1  0  0  0
 69 75  1  0  0  0
M  CHG  1  52   1
M  END
>  <ACTIVITY>
8.38

>  <SET>
2

>  <Min_dist>
0.07

>  <Avg_dist>
0.26

$$$$
02
  Cerius2 12110214423D 1   1.00000                          
Structure written by Cerius2 SD Exporter
 73 75  0  0  0  0  0  0  0  0999 V2000
    3.8967   -8.7832   14.0111 H   0  0  0  0  0  0
    4.0115   -6.6715   15.2079 H   0  0  0  0  0  0
    8.2360   -6.4683   14.3851 H   0  0  0  0  0  0
    8.0915   -8.6218   13.2158 H   0  0  0  0  0  0
    4.8674   -4.4271   16.1242 C   0  0  0  0  0  0
    6.7348   -3.8525   14.5855 C   0  0  0  0  0  0
    7.2292   -5.0141   16.7832 C   0  0  0  0  0  0
    6.7797   -9.2738   10.4215 H   0  0  0  0  0  0
    5.2364  -10.4464    8.6719 H   0  0  0  0  0  0
    6.1681   -9.0608    8.0999 H   0  0  0  0  0  0
    2.7869  -10.3079    8.5679 H   0  0  0  0  0  0
    5.1110   -6.8120    7.7513 H   0  0  0  0  0  0
    3.1042   -5.6862    6.8886 H   0  0  0  0  0  0
    0.9030   -6.7521    7.0363 H   0  0  0  0  0  0
    4.0345  -10.0568   11.0449 H   0  0  0  0  0  0
   -1.6049   -9.4382    7.0272 H   0  0  0  0  0  0
   -0.5958   -8.1455    6.3961 H   0  0  0  0  0  0
    0.8065  -10.8000    9.1409 H   0  0  0  0  0  0
   -0.8102  -10.9432    8.4583 H   0  0  0  0  0  0
    7.6203   -6.2691    8.4341 H   0  0  0  0  0  0
    7.8752   -7.8404    9.2053 H   0  0  0  0  0  0
    9.7071   -6.2095    9.7191 H   0  0  0  0  0  0
    8.8786   -6.7543   11.2048 H   0  0  0  0  0  0
   10.8900   -3.7877   10.9764 C   0  0  0  0  0  0
    9.3246   -3.5297   10.1182 S   0  0  0  0  0  0
    6.9040   -3.5402   11.4895 H   0  0  0  0  0  0
    7.0567   -5.1928   12.1692 H   0  0  0  0  0  0
    4.9868   -5.0085   10.8320 H   0  0  0  0  0  0
    5.9353   -4.5714    9.3911 H   0  0  0  0  0  0
    5.7809  -10.3917   12.6477 S   0  0  0  0  0  0
    7.0926  -10.9390   12.3210 O   0  0  0  0  0  0
    4.8563  -11.2263   13.4083 O   0  0  0  0  0  0
    5.9785   -8.8505   13.5239 C   0  0  0  0  0  0
    4.8489   -8.2711   14.0958 C   0  0  0  0  0  0
    4.9275   -7.0482   14.7684 C   0  0  0  0  0  0
    6.1350   -6.3399   14.8753 C   0  0  0  0  0  0
    7.2688   -6.9492   14.3115 C   0  0  0  0  0  0
    7.2000   -8.1821   13.6431 C   0  0  0  0  0  0
    6.2378   -4.9435   15.5813 C   0  0  0  0  0  0
    5.4980   -7.5407   10.5025 C   0  0  0  0  0  0
    5.7275   -9.0190   10.2399 C   0  0  0  0  0  0
    5.3412   -9.3557    8.7626 C   0  0  0  0  0  0
    4.0658   -8.6404    8.2521 C   0  0  0  0  0  0
    2.8172   -9.2804    8.2318 C   0  0  0  0  0  0
    4.1608   -7.3313    7.7697 C   0  0  0  0  0  0
    1.6440   -8.6498    7.7840 C   0  0  0  0  0  0
    3.0126   -6.6878    7.2962 C   0  0  0  0  0  0
    1.7685   -7.3259    7.3477 C   0  0  0  0  0  0
    0.3006   -9.3736    7.7667 C   0  0  0  0  0  0
    4.4771   -7.2927   11.1287 O   0  0  0  0  0  0
    5.0056   -9.8444   11.2159 N   0  0  0  0  0  0
   -0.6918   -8.9568    7.0158 N   0  3  0  0  0  0
    0.0900  -10.4384    8.5018 N   0  0  0  0  0  0
    6.3363   -6.5361   10.0747 N   0  0  0  0  0  0
    7.6251   -6.7918    9.4058 C   0  0  0  0  0  0
    8.7597   -6.1756   10.2718 C   0  0  0  0  0  0
    8.3706   -4.8065   10.5941 N   0  0  0  0  0  0
    7.0819   -4.5934   11.2457 C   0  0  0  0  0  0
    5.9612   -5.1450   10.3358 C   0  0  0  0  0  0
    8.7682   -2.2859   10.6144 O   0  0  0  0  0  0
    9.5576   -3.6543    8.6925 O   0  0  0  0  0  0
   10.7357   -3.7450   12.0629 H   0  0  0  0  0  0
   11.5699   -2.9774   10.6797 H   0  0  0  0  0  0
   11.3489   -4.7478   10.7107 H   0  0  0  0  0  0
    4.9842   -3.4295   16.5797 H   0  0  0  0  0  0
    4.4644   -5.0962   16.8961 H   0  0  0  0  0  0
    4.1314   -4.3293   15.3139 H   0  0  0  0  0  0
    7.7289   -4.0814   14.1784 H   0  0  0  0  0  0
    6.8048   -2.8675   15.0685 H   0  0  0  0  0  0
    6.0146   -3.7613   13.7613 H   0  0  0  0  0  0
    6.8948   -5.7726   17.5054 H   0  0  0  0  0  0
    7.2804   -4.0453   17.3028 H   0  0  0  0  0  0
    8.2494   -5.2683   16.4630 H   0  0  0  0  0  0
  1 34  1  0  0  0
  2 35  1  0  0  0
  3 37  1  0  0  0
  4 38  1  0  0  0
  5 39  1  0  0  0
  5 65  1  0  0  0
  5 66  1  0  0  0
  5 67  1  0  0  0
  6 39  1  0  0  0
  6 68  1  0  0  0
  6 69  1  0  0  0
  6 70  1  0  0  0
  7 39  1  0  0  0
  7 71  1  0  0  0
  7 72  1  0  0  0
  7 73  1  0  0  0
  8 41  1  0  0  0
  9 42  1  0  0  0
 10 42  1  0  0  0
 11 44  1  0  0  0
 12 45  1  0  0  0
 13 47  1  0  0  0
 14 48  1  0  0  0
 15 51  1  0  0  0
 16 52  1  0  0  0
 17 52  1  0  0  0
 18 53  1  0  0  0
 19 53  1  0  0  0
 20 55  1  0  0  0
 21 55  1  0  0  0
 22 56  1  0  0  0
 23 56  1  0  0  0
 24 25  1  0  0  0
 24 62  1  0  0  0
 24 63  1  0  0  0
 24 64  1  0  0  0
 25 57  1  0  0  0
 25 60  2  0  0  0
 25 61  2  0  0  0
 26 58  1  0  0  0
 27 58  1  0  0  0
 28 59  1  0  0  0
 29 59  1  0  0  0
 30 31  2  0  0  0
 30 32  2  0  0  0
 30 33  1  0  0  0
 30 51  1  0  0  0
 33 34  1  0  0  0
 33 38  2  0  0  0
 34 35  2  0  0  0
 35 36  1  0  0  0
 36 37  2  0  0  0
 36 39  1  0  0  0
 37 38  1  0  0  0
 40 41  1  0  0  0
 40 50  2  0  0  0
 40 54  1  0  0  0
 41 42  1  0  0  0
 41 51  1  0  0  0
 42 43  1  0  0  0
 43 44  2  0  0  0
 43 45  1  0  0  0
 44 46  1  0  0  0
 45 47  2  0  0  0
 46 48  2  0  0  0
 46 49  1  0  0  0
 47 48  1  0  0  0
 49 52  2  0  0  0
 49 53  1  0  0  0
 54 55  1  0  0  0
 54 59  1  0  0  0
 55 56  1  0  0  0
 56 57  1  0  0  0
 57 58  1  0  0  0
 58 59  1  0  0  0
M  CHG  1  52   1
M  END
>  <ACTIVITY>
8.37

>  <SET>
1

>  <Min_dist>
999.9

>  <Avg_dist>
999.9

$$$$
03
  Cerius2 12110214423D 1   1.00000                          
Structure written by Cerius2 SD Exporter
 71 73  0  0  0  0  0  0  0  0999 V2000
    3.8841   -8.7679   14.0187 H   0  0  0  0  0  0
    4.0055   -6.6686   15.2040 H   0  0  0  0  0  0
    8.2364   -6.4594   14.3768 H   0  0  0  0  0  0
    8.0884   -8.6090   13.2148 H   0  0  0  0  0  0
    4.8646   -4.4367   16.1300 C   0  0  0  0  0  0
    6.7341   -3.8585   14.5847 C   0  0  0  0  0  0
    7.2254   -5.0254   16.7785 C   0  0  0  0  0  0
    6.7670   -9.2941   10.4085 H   0  0  0  0  0  0
    5.2205  -10.4633    8.6738 H   0  0  0  0  0  0
    6.1401   -9.0860    8.0830 H   0  0  0  0  0  0
    2.7921  -10.3275    8.5633 H   0  0  0  0  0  0
    5.1009   -6.8274    7.7419 H   0  0  0  0  0  0
    3.0861   -5.6833    6.9051 H   0  0  0  0  0  0
    0.8969   -6.7518    7.0539 H   0  0  0  0  0  0
    4.0351  -10.0538   11.0491 H   0  0  0  0  0  0
   -1.5988   -9.4232    7.0142 H   0  0  0  0  0  0
   -0.5643   -8.1351    6.3935 H   0  0  0  0  0  0
    0.8213  -10.7986    9.1455 H   0  0  0  0  0  0
   -0.8012  -10.9447    8.4810 H   0  0  0  0  0  0
    7.5667   -6.2845    8.4131 H   0  0  0  0  0  0
    7.8332   -7.8506    9.1545 H   0  0  0  0  0  0
    9.6844   -6.3391    9.7392 H   0  0  0  0  0  0
    8.7623   -6.7986   11.1985 H   0  0  0  0  0  0
    8.4447   -4.1649    9.6120 H   0  0  0  0  0  0
    9.5551   -4.1431   11.4773 C   0  0  0  0  0  0
    6.8415   -3.5336   11.4576 H   0  0  0  0  0  0
    7.0455   -5.1873   12.1496 H   0  0  0  0  0  0
    4.9590   -5.0333   10.8218 H   0  0  0  0  0  0
    5.8946   -4.6121    9.3709 H   0  0  0  0  0  0
    5.7795  -10.3781   12.6583 S   0  0  0  0  0  0
    7.0875  -10.9119   12.3278 O   0  0  0  0  0  0
    4.8470  -11.2101   13.3972 O   0  0  0  0  0  0
    5.9661   -8.8371   13.5284 C   0  0  0  0  0  0
    4.8363   -8.2566   14.0999 C   0  0  0  0  0  0
    4.9226   -7.0354   14.7691 C   0  0  0  0  0  0
    6.1323   -6.3339   14.8758 C   0  0  0  0  0  0
    7.2656   -6.9385   14.3078 C   0  0  0  0  0  0
    7.1904   -8.1710   13.6422 C   0  0  0  0  0  0
    6.2347   -4.9471   15.5812 C   0  0  0  0  0  0
    5.4828   -7.5590   10.4964 C   0  0  0  0  0  0
    5.7216   -9.0267   10.2297 C   0  0  0  0  0  0
    5.3300   -9.3751    8.7617 C   0  0  0  0  0  0
    4.0647   -8.6559    8.2558 C   0  0  0  0  0  0
    2.8195   -9.2980    8.2358 C   0  0  0  0  0  0
    4.1524   -7.3468    7.7706 C   0  0  0  0  0  0
    1.6529   -8.6563    7.7897 C   0  0  0  0  0  0
    3.0103   -6.6934    7.3039 C   0  0  0  0  0  0
    1.7661   -7.3281    7.3551 C   0  0  0  0  0  0
    0.3068   -9.3742    7.7702 C   0  0  0  0  0  0
    4.4695   -7.3207   11.1377 O   0  0  0  0  0  0
    5.0060   -9.8439   11.2100 N   0  0  0  0  0  0
   -0.6811   -8.9442    7.0172 N   0  3  0  0  0  0
    0.1012  -10.4422    8.5067 N   0  0  0  0  0  0
    6.3071   -6.5601   10.0670 N   0  0  0  0  0  0
    7.5745   -6.8109    9.3761 C   0  0  0  0  0  0
    8.7133   -6.2322   10.2531 C   0  0  0  0  0  0
    8.4497   -4.7334   10.5617 C   0  0  0  0  0  0
    7.0519   -4.5933   11.2234 C   0  0  0  0  0  0
    5.9343   -5.1740   10.3224 C   0  0  0  0  0  0
   10.5349   -4.2270   10.9876 H   0  0  0  0  0  0
    9.5946   -4.6792   12.4328 H   0  0  0  0  0  0
    9.3584   -3.0802   11.6778 H   0  0  0  0  0  0
    4.9715   -3.4404   16.5959 H   0  0  0  0  0  0
    4.4690   -5.1155   16.9017 H   0  0  0  0  0  0
    4.1278   -4.3345   15.3169 H   0  0  0  0  0  0
    7.7277   -4.0996   14.1813 H   0  0  0  0  0  0
    6.8110   -2.8749   15.0736 H   0  0  0  0  0  0
    6.0124   -3.7652   13.7602 H   0  0  0  0  0  0
    6.8893   -5.7883   17.4973 H   0  0  0  0  0  0
    7.2796   -4.0571   17.3016 H   0  0  0  0  0  0
    8.2442   -5.2809   16.4518 H   0  0  0  0  0  0
  1 34  1  0  0  0
  2 35  1  0  0  0
  3 37  1  0  0  0
  4 38  1  0  0  0
  5 39  1  0  0  0
  5 63  1  0  0  0
  5 64  1  0  0  0
  5 65  1  0  0  0
  6 39  1  0  0  0
  6 66  1  0  0  0
  6 67  1  0  0  0
  6 68  1  0  0  0
  7 39  1  0  0  0
  7 69  1  0  0  0
  7 70  1  0  0  0
  7 71  1  0  0  0
  8 41  1  0  0  0
  9 42  1  0  0  0
 10 42  1  0  0  0
 11 44  1  0  0  0
 12 45  1  0  0  0
 13 47  1  0  0  0
 14 48  1  0  0  0
 15 51  1  0  0  0
 16 52  1  0  0  0
 17 52  1  0  0  0
 18 53  1  0  0  0
 19 53  1  0  0  0
 20 55  1  0  0  0
 21 55  1  0  0  0
 22 56  1  0  0  0
 23 56  1  0  0  0
 24 57  1  0  0  0
 25 57  1  0  0  0
 25 60  1  0  0  0
 25 61  1  0  0  0
 25 62  1  0  0  0
 26 58  1  0  0  0
 27 58  1  0  0  0
 28 59  1  0  0  0
 29 59  1  0  0  0
 30 31  2  0  0  0
 30 32  2  0  0  0
 30 33  1  0  0  0
 30 51  1  0  0  0
 33 34  1  0  0  0
 33 38  2  0  0  0
 34 35  2  0  0  0
 35 36  1  0  0  0
 36 37  2  0  0  0
 36 39  1  0  0  0
 37 38  1  0  0  0
 40 41  1  0  0  0
 40 50  2  0  0  0
 40 54  1  0  0  0
 41 42  1  0  0  0
 41 51  1  0  0  0
 42 43  1  0  0  0
 43 44  2  0  0  0
 43 45  1  0  0  0
 44 46  1  0  0  0
 45 47  2  0  0  0
 46 48  2  0  0  0
 46 49  1  0  0  0
 47 48  1  0  0  0
 49 52  2  0  0  0
 49 53  1  0  0  0
 54 55  1  0  0  0
 54 59  1  0  0  0
 55 56  1  0  0  0
 56 57  1  0  0  0
 57 58  1  0  0  0
 58 59  1  0  0  0
M  CHG  1  52   1
M  END
>  <ACTIVITY>
8.3

>  <SET>
1

>  <Min_dist>
999.9

>  <Avg_dist>
999.9

$$$$
04
  Cerius2 12110214423D 1   1.00000                          
Structure written by Cerius2 SD Exporter
 65 68  0  0  0  0  0  0  0  0999 V2000
    3.9005   -6.3666   15.3061 C   0  0  0  0  0  0
    4.0651   -5.1495   15.9725 C   0  0  0  0  0  0
    5.3335   -4.5681   16.0570 C   0  0  0  0  0  0
    6.4341   -5.2034   15.4742 C   0  0  0  0  0  0
    6.7749   -9.3075   10.3935 H   0  0  0  0  0  0
    5.2368  -10.4885    8.6668 H   0  0  0  0  0  0
    6.1548   -9.1080    8.0564 H   0  0  0  0  0  0
    2.7967  -10.3795    8.5187 H   0  0  0  0  0  0
    5.1069   -6.8559    7.7470 H   0  0  0  0  0  0
    3.0733   -5.6776    6.9965 H   0  0  0  0  0  0
    0.8801   -6.7569    7.1677 H   0  0  0  0  0  0
    3.9868   -9.9510   11.0087 H   0  0  0  0  0  0
   -1.5840   -9.3722    7.0464 H   0  0  0  0  0  0
   -0.5356   -8.0688    6.4807 H   0  0  0  0  0  0
    0.8814  -10.8498    9.0928 H   0  0  0  0  0  0
   -0.7681  -10.9712    8.4730 H   0  0  0  0  0  0
    7.5534   -6.2231    8.4387 H   0  0  0  0  0  0
    7.8266   -7.8151    9.1446 H   0  0  0  0  0  0
    9.6715   -6.3131    9.7804 H   0  0  0  0  0  0
    8.7319   -6.7887   11.2273 H   0  0  0  0  0  0
    8.4267   -4.1439    9.6644 H   0  0  0  0  0  0
    9.5482   -4.1330   11.5167 C   0  0  0  0  0  0
    6.8251   -3.4905   11.4750 H   0  0  0  0  0  0
    7.0386   -5.0830   12.2569 H   0  0  0  0  0  0
    4.9591   -5.0452   10.8996 H   0  0  0  0  0  0
    5.8710   -4.6055    9.4447 H   0  0  0  0  0  0
    5.7060  -10.4191   12.6300 S   0  0  0  0  0  0
    6.9965  -11.0007   12.3112 O   0  0  0  0  0  0
    4.7394  -11.2178   13.3594 O   0  0  0  0  0  0
    7.3704   -7.0625   14.2229 C   0  0  0  0  0  0
    7.2033   -8.2785   13.5552 C   0  0  0  0  0  0
    5.9417   -8.8752   13.4779 C   0  0  0  0  0  0
    4.8442   -8.2282   14.0518 C   0  0  0  0  0  0
    5.0019   -7.0091   14.7224 C   0  0  0  0  0  0
    6.2706   -6.4218   14.8069 C   0  0  0  0  0  0
    2.9094   -6.8066   15.2486 H   0  0  0  0  0  0
    5.4919   -7.5642   10.5032 C   0  0  0  0  0  0
    5.7260   -9.0331   10.2115 C   0  0  0  0  0  0
    5.3456   -9.3954    8.7446 C   0  0  0  0  0  0
    4.0710   -8.6853    8.2478 C   0  0  0  0  0  0
    2.8323   -9.3377    8.2247 C   0  0  0  0  0  0
    4.1523   -7.3671    7.7874 C   0  0  0  0  0  0
    1.6633   -8.6745    7.8170 C   0  0  0  0  0  0
    3.0023   -6.6954    7.3683 C   0  0  0  0  0  0
    1.7618   -7.3329    7.4269 C   0  0  0  0  0  0
    0.3191   -9.3840    7.7896 C   0  0  0  0  0  0
    4.4775   -7.3352   11.1426 O   0  0  0  0  0  0
    4.9665   -9.8304   11.1662 N   0  0  0  0  0  0
   -0.6631   -8.9084    7.0619 N   0  3  0  0  0  0
    0.1347  -10.4735    8.4935 N   0  0  0  0  0  0
    6.3095   -6.5476   10.0962 N   0  0  0  0  0  0
    7.5745   -6.7772    9.3908 C   0  0  0  0  0  0
    8.6990   -6.2074   10.2907 C   0  0  0  0  0  0
    8.4282   -4.7117   10.6116 C   0  0  0  0  0  0
    7.0389   -4.5567   11.2892 C   0  0  0  0  0  0
    5.9309   -5.1630   10.3934 C   0  0  0  0  0  0
   10.5260   -4.2305   11.0195 H   0  0  0  0  0  0
    9.5859   -4.6684   12.4783 H   0  0  0  0  0  0
    9.3619   -3.0658   11.7137 H   0  0  0  0  0  0
    3.2116   -4.6559   16.4272 H   0  0  0  0  0  0
    5.4650   -3.6225   16.5764 H   0  0  0  0  0  0
    7.4132   -4.7406   15.5456 H   0  0  0  0  0  0
    8.3605   -6.6192   14.2785 H   0  0  0  0  0  0
    8.0618   -8.7553   13.0979 H   0  0  0  0  0  0
    3.8623   -8.6840   13.9717 H   0  0  0  0  0  0
  1  2  1  0  0  0
  1 34  2  0  0  0
  1 36  1  0  0  0
  2  3  2  0  0  0
  2 60  1  0  0  0
  3  4  1  0  0  0
  3 61  1  0  0  0
  4 35  2  0  0  0
  4 62  1  0  0  0
  5 38  1  0  0  0
  6 39  1  0  0  0
  7 39  1  0  0  0
  8 41  1  0  0  0
  9 42  1  0  0  0
 10 44  1  0  0  0
 11 45  1  0  0  0
 12 48  1  0  0  0
 13 49  1  0  0  0
 14 49  1  0  0  0
 15 50  1  0  0  0
 16 50  1  0  0  0
 17 52  1  0  0  0
 18 52  1  0  0  0
 19 53  1  0  0  0
 20 53  1  0  0  0
 21 54  1  0  0  0
 22 54  1  0  0  0
 22 57  1  0  0  0
 22 58  1  0  0  0
 22 59  1  0  0  0
 23 55  1  0  0  0
 24 55  1  0  0  0
 25 56  1  0  0  0
 26 56  1  0  0  0
 27 28  2  0  0  0
 27 29  2  0  0  0
 27 32  1  0  0  0
 27 48  1  0  0  0
 30 31  2  0  0  0
 30 35  1  0  0  0
 30 63  1  0  0  0
 31 32  1  0  0  0
 31 64  1  0  0  0
 32 33  2  0  0  0
 33 34  1  0  0  0
 33 65  1  0  0  0
 34 35  1  0  0  0
 37 38  1  0  0  0
 37 47  2  0  0  0
 37 51  1  0  0  0
 38 39  1  0  0  0
 38 48  1  0  0  0
 39 40  1  0  0  0
 40 41  2  0  0  0
 40 42  1  0  0  0
 41 43  1  0  0  0
 42 44  2  0  0  0
 43 45  2  0  0  0
 43 46  1  0  0  0
 44 45  1  0  0  0
 46 49  2  0  0  0
 46 50  1  0  0  0
 51 52  1  0  0  0
 51 56  1  0  0  0
 52 53  1  0  0  0
 53 54  1  0  0  0
 54 55  1  0  0  0
 55 56  1  0  0  0
M  CHG  1  49   1
M  END
>  <ACTIVITY>
8.21

>  <SET>
1

>  <Min_dist>
999.9

>  <Avg_dist>
999.9

$$$$
05
  Cerius2 12110214423D 1   1.00000                          
Structure written by Cerius2 SD Exporter
 75 78  0  0  0  0  0  0  0  0999 V2000
    3.9391   -6.4800   15.5598 C   0  0  0  0  0  0
    4.2271   -4.9900   15.8642 C   0  0  0  0  0  0
    5.6809   -4.7925   16.3708 C   0  0  0  0  0  0
    6.7871   -9.3033   10.3901 H   0  0  0  0  0  0
    5.2581  -10.4845    8.6569 H   0  0  0  0  0  0
    6.1746   -9.1011    8.0469 H   0  0  0  0  0  0
    2.8404  -10.3777    8.5024 H   0  0  0  0  0  0
    5.1121   -6.8535    7.7493 H   0  0  0  0  0  0
    3.0698   -5.6670    7.0385 H   0  0  0  0  0  0
    0.9043   -6.7326    7.2192 H   0  0  0  0  0  0
    3.9760   -9.9147   10.9838 H   0  0  0  0  0  0
   -1.5771   -9.3652    7.0655 H   0  0  0  0  0  0
   -0.5578   -8.0821    6.4953 H   0  0  0  0  0  0
    0.8646  -10.8791    9.0919 H   0  0  0  0  0  0
   -0.7550  -10.9831    8.4687 H   0  0  0  0  0  0
    7.5899   -6.1940    8.4655 H   0  0  0  0  0  0
    7.8640   -7.7900    9.1636 H   0  0  0  0  0  0
    9.6873   -6.1956    9.7570 H   0  0  0  0  0  0
    8.8342   -6.7569   11.2176 H   0  0  0  0  0  0
    9.3806   -3.5112   10.2361 S   0  0  0  0  0  0
    8.7991   -2.2598   10.6657 O   0  0  0  0  0  0
    6.8605   -3.4737   11.4699 H   0  0  0  0  0  0
    7.0626   -5.0338   12.2960 H   0  0  0  0  0  0
    4.9872   -5.0389   10.9262 H   0  0  0  0  0  0
    5.9089   -4.5846    9.4814 H   0  0  0  0  0  0
    5.6892  -10.4715   12.5935 S   0  0  0  0  0  0
    6.9619  -11.0812   12.2574 O   0  0  0  0  0  0
    4.6929  -11.2411   13.3132 O   0  0  0  0  0  0
    6.5862   -5.2569   15.3591 O   0  0  0  0  0  0
    7.4295   -7.1258   14.1038 C   0  0  0  0  0  0
    7.2336   -8.3361   13.4410 C   0  0  0  0  0  0
    5.9731   -8.9492   13.4622 C   0  0  0  0  0  0
    4.9205   -8.3362   14.1404 C   0  0  0  0  0  0
    5.1134   -7.1196   14.8034 C   0  0  0  0  0  0
    6.3659   -6.5027   14.7672 C   0  0  0  0  0  0
    5.5172   -7.5557   10.4985 C   0  0  0  0  0  0
    5.7427   -9.0205   10.1967 C   0  0  0  0  0  0
    5.3644   -9.3906    8.7326 C   0  0  0  0  0  0
    4.0830   -8.6859    8.2471 C   0  0  0  0  0  0
    2.8461   -9.3390    8.2222 C   0  0  0  0  0  0
    4.1569   -7.3652    7.7949 C   0  0  0  0  0  0
    1.6728   -8.6774    7.8292 C   0  0  0  0  0  0
    3.0042   -6.6903    7.3943 C   0  0  0  0  0  0
    1.7677   -7.3306    7.4562 C   0  0  0  0  0  0
    0.3290   -9.3870    7.8006 C   0  0  0  0  0  0
    4.4950   -7.3287   11.1281 O   0  0  0  0  0  0
    4.9591   -9.8172   11.1319 N   0  0  0  0  0  0
   -0.6590   -8.9074    7.0815 N   0  3  0  0  0  0
    0.1428  -10.4859    8.4919 N   0  0  0  0  0  0
    6.3427   -6.5314   10.1136 N   0  0  0  0  0  0
    7.6128   -6.7529    9.4167 C   0  0  0  0  0  0
    8.7328   -6.1574   10.3045 C   0  0  0  0  0  0
    8.3519   -4.7952   10.6634 N   0  0  0  0  0  0
    7.0723   -4.5423   11.3169 C   0  0  0  0  0  0
    5.9635   -5.1510   10.4274 C   0  0  0  0  0  0
    9.7429   -3.6739    8.8477 O   0  0  0  0  0  0
   10.8564   -3.7923   11.2366 C   0  0  0  0  0  0
   10.6017   -3.7436   12.3071 H   0  0  0  0  0  0
    8.4024   -6.6547   14.1075 H   0  0  0  0  0  0
    8.0570   -8.8003   12.9086 H   0  0  0  0  0  0
    3.9448   -8.8136   14.1491 H   0  0  0  0  0  0
    3.7887   -7.0453   16.4900 H   0  0  0  0  0  0
    3.0202   -6.5598   14.9595 H   0  0  0  0  0  0
    4.1077   -4.4144   14.9329 H   0  0  0  0  0  0
    3.5030   -4.6167   16.6051 H   0  0  0  0  0  0
    5.9806   -3.2793   16.5526 C   0  0  0  0  0  0
    5.9480   -5.5361   17.7084 C   0  0  0  0  0  0
    5.3164   -2.8342   17.3096 H   0  0  0  0  0  0
    5.8347   -2.7510   15.5986 H   0  0  0  0  0  0
    7.0250   -3.1368   16.8668 H   0  0  0  0  0  0
    5.2451   -5.1916   18.4839 H   0  0  0  0  0  0
    6.9741   -5.3332   18.0477 H   0  0  0  0  0  0
    5.8461   -6.6223   17.5889 H   0  0  0  0  0  0
   11.5810   -2.9984   11.0026 H   0  0  0  0  0  0
   11.3128   -4.7686   11.0101 H   0  0  0  0  0  0
  1  2  1  0  0  0
  1 34  1  0  0  0
  1 62  1  0  0  0
  1 63  1  0  0  0
  2  3  1  0  0  0
  2 64  1  0  0  0
  2 65  1  0  0  0
  3 29  1  0  0  0
  3 66  1  0  0  0
  3 67  1  0  0  0
  4 37  1  0  0  0
  5 38  1  0  0  0
  6 38  1  0  0  0
  7 40  1  0  0  0
  8 41  1  0  0  0
  9 43  1  0  0  0
 10 44  1  0  0  0
 11 47  1  0  0  0
 12 48  1  0  0  0
 13 48  1  0  0  0
 14 49  1  0  0  0
 15 49  1  0  0  0
 16 51  1  0  0  0
 17 51  1  0  0  0
 18 52  1  0  0  0
 19 52  1  0  0  0
 20 21  2  0  0  0
 20 53  1  0  0  0
 20 56  2  0  0  0
 20 57  1  0  0  0
 22 54  1  0  0  0
 23 54  1  0  0  0
 24 55  1  0  0  0
 25 55  1  0  0  0
 26 27  2  0  0  0
 26 28  2  0  0  0
 26 32  1  0  0  0
 26 47  1  0  0  0
 29 35  1  0  0  0
 30 31  1  0  0  0
 30 35  2  0  0  0
 30 59  1  0  0  0
 31 32  2  0  0  0
 31 60  1  0  0  0
 32 33  1  0  0  0
 33 34  2  0  0  0
 33 61  1  0  0  0
 34 35  1  0  0  0
 36 37  1  0  0  0
 36 46  2  0  0  0
 36 50  1  0  0  0
 37 38  1  0  0  0
 37 47  1  0  0  0
 38 39  1  0  0  0
 39 40  2  0  0  0
 39 41  1  0  0  0
 40 42  1  0  0  0
 41 43  2  0  0  0
 42 44  2  0  0  0
 42 45  1  0  0  0
 43 44  1  0  0  0
 45 48  2  0  0  0
 45 49  1  0  0  0
 50 51  1  0  0  0
 50 55  1  0  0  0
 51 52  1  0  0  0
 52 53  1  0  0  0
 53 54  1  0  0  0
 54 55  1  0  0  0
 57 58  1  0  0  0
 57 74  1  0  0  0
 57 75  1  0  0  0
 66 68  1  0  0  0
 66 69  1  0  0  0
 66 70  1  0  0  0
 67 71  1  0  0  0
 67 72  1  0  0  0
 67 73  1  0  0  0
M  CHG  1  48   1
M  END
>  <ACTIVITY>
8.13

>  <SET>
2

>  <Min_dist>
0.11

>  <Avg_dist>
0.32

$$$$
06
  Cerius2 12110214423D 1   1.00000                          
Structure written by Cerius2 SD Exporter
 71 74  0  0  0  0  0  0  0  0999 V2000
    3.9949   -6.2333   15.1752 C   0  0  0  0  0  0
    4.2568   -5.0051   15.7883 C   0  0  0  0  0  0
    5.5535   -4.4857   15.7815 C   0  0  0  0  0  0
    6.5861   -5.1964   15.1632 C   0  0  0  0  0  0
    6.7802   -9.3682   10.3948 H   0  0  0  0  0  0
    5.4365  -10.4006    8.4812 H   0  0  0  0  0  0
    6.2948   -8.9339    7.9934 H   0  0  0  0  0  0
    3.0182  -10.4195    8.3081 H   0  0  0  0  0  0
    5.1227   -6.7403    7.7379 H   0  0  0  0  0  0
    2.9975   -5.6214    7.1566 H   0  0  0  0  0  0
    0.8685   -6.7713    7.4316 H   0  0  0  0  0  0
    3.9038   -9.8552   10.7452 H   0  0  0  0  0  0
   -1.5424   -9.6037    7.3377 H   0  0  0  0  0  0
   -0.6114   -8.2623    6.6783 H   0  0  0  0  0  0
    1.0613  -10.9422    9.2302 H   0  0  0  0  0  0
   -0.5991  -11.1219    8.6720 H   0  0  0  0  0  0
    7.7176   -6.3437    8.4500 H   0  0  0  0  0  0
    7.9924   -7.8855    9.2699 H   0  0  0  0  0  0
    9.8454   -6.4187    9.9337 H   0  0  0  0  0  0
    8.7980   -6.7398   11.2861 H   0  0  0  0  0  0
    9.4765   -3.8204   10.5146 C   0  0  0  0  0  0
    9.3339   -2.8564   11.2520 O   0  0  0  0  0  0
    7.0186   -3.4207   11.2664 H   0  0  0  0  0  0
    7.2350   -4.8979   12.2423 H   0  0  0  0  0  0
    5.1581   -5.0293   10.9269 H   0  0  0  0  0  0
    6.0242   -4.6454    9.4261 H   0  0  0  0  0  0
    5.4413  -10.4447   12.5394 S   0  0  0  0  0  0
    6.6748  -11.1772   12.3264 O   0  0  0  0  0  0
    4.3314  -11.0849   13.2182 O   0  0  0  0  0  0
    7.3602   -7.1503   13.9393 C   0  0  0  0  0  0
    7.0964   -8.3775   13.3252 C   0  0  0  0  0  0
    5.8014   -8.9013   13.3382 C   0  0  0  0  0  0
    4.7696   -8.1812   13.9457 C   0  0  0  0  0  0
    5.0270   -6.9497   14.5579 C   0  0  0  0  0  0
    6.3293   -6.4301   14.5537 C   0  0  0  0  0  0
    2.9816   -6.6236   15.1845 H   0  0  0  0  0  0
    5.5834   -7.5526   10.4529 C   0  0  0  0  0  0
    5.7711   -9.0227   10.1329 C   0  0  0  0  0  0
    5.4811   -9.3106    8.6301 C   0  0  0  0  0  0
    4.1713   -8.6368    8.1785 C   0  0  0  0  0  0
    2.9638   -9.3505    8.1430 C   0  0  0  0  0  0
    4.1887   -7.2933    7.7952 C   0  0  0  0  0  0
    1.7315   -8.7224    7.8915 C   0  0  0  0  0  0
    2.9861   -6.6599    7.4823 C   0  0  0  0  0  0
    1.7726   -7.3477    7.5872 C   0  0  0  0  0  0
    0.4120   -9.4942    7.9447 C   0  0  0  0  0  0
    4.5495   -7.2956   11.0485 O   0  0  0  0  0  0
    4.8726   -9.7930   10.9851 N   0  0  0  0  0  0
   -0.6452   -9.0929    7.2820 N   0  3  0  0  0  0
    0.2862  -10.5880    8.6565 N   0  0  0  0  0  0
    6.4617   -6.5628   10.1106 N   0  0  0  0  0  0
    7.7343   -6.8332    9.4348 C   0  0  0  0  0  0
    8.8417   -6.2133   10.3195 C   0  0  0  0  0  0
    8.5334   -4.8081   10.5971 N   0  0  0  0  0  0
    7.2410   -4.5000   11.2167 C   0  0  0  0  0  0
    6.1120   -5.1677   10.3927 C   0  0  0  0  0  0
   10.5658   -3.7931    9.6879 N   0  0  0  0  0  0
   10.6166   -4.5551    8.4384 C   0  0  0  0  0  0
   11.6175   -2.8164    9.9800 C   0  0  0  0  0  0
    3.4539   -4.4553   16.2699 H   0  0  0  0  0  0
    5.7582   -3.5312   16.2564 H   0  0  0  0  0  0
    7.5885   -4.7789   15.1621 H   0  0  0  0  0  0
    8.3744   -6.7625   13.9334 H   0  0  0  0  0  0
    7.8991   -8.9206   12.8386 H   0  0  0  0  0  0
    3.7644   -8.5890   13.9339 H   0  0  0  0  0  0
   10.9770   -3.8937    7.6356 H   0  0  0  0  0  0
    9.6314   -4.9141    8.1127 H   0  0  0  0  0  0
   11.3296   -5.3900    8.5147 H   0  0  0  0  0  0
   11.8684   -2.8137   11.0525 H   0  0  0  0  0  0
   11.2827   -1.8096    9.6865 H   0  0  0  0  0  0
   12.5391   -3.0522    9.4258 H   0  0  0  0  0  0
  1  2  1  0  0  0
  1 34  2  0  0  0
  1 36  1  0  0  0
  2  3  2  0  0  0
  2 60  1  0  0  0
  3  4  1  0  0  0
  3 61  1  0  0  0
  4 35  2  0  0  0
  4 62  1  0  0  0
  5 38  1  0  0  0
  6 39  1  0  0  0
  7 39  1  0  0  0
  8 41  1  0  0  0
  9 42  1  0  0  0
 10 44  1  0  0  0
 11 45  1  0  0  0
 12 48  1  0  0  0
 13 49  1  0  0  0
 14 49  1  0  0  0
 15 50  1  0  0  0
 16 50  1  0  0  0
 17 52  1  0  0  0
 18 52  1  0  0  0
 19 53  1  0  0  0
 20 53  1  0  0  0
 21 22  2  0  0  0
 21 54  1  0  0  0
 21 57  1  0  0  0
 23 55  1  0  0  0
 24 55  1  0  0  0
 25 56  1  0  0  0
 26 56  1  0  0  0
 27 28  2  0  0  0
 27 29  2  0  0  0
 27 32  1  0  0  0
 27 48  1  0  0  0
 30 31  2  0  0  0
 30 35  1  0  0  0
 30 63  1  0  0  0
 31 32  1  0  0  0
 31 64  1  0  0  0
 32 33  2  0  0  0
 33 34  1  0  0  0
 33 65  1  0  0  0
 34 35  1  0  0  0
 37 38  1  0  0  0
 37 47  2  0  0  0
 37 51  1  0  0  0
 38 39  1  0  0  0
 38 48  1  0  0  0
 39 40  1  0  0  0
 40 41  2  0  0  0
 40 42  1  0  0  0
 41 43  1  0  0  0
 42 44  2  0  0  0
 43 45  2  0  0  0
 43 46  1  0  0  0
 44 45  1  0  0  0
 46 49  2  0  0  0
 46 50  1  0  0  0
 51 52  1  0  0  0
 51 56  1  0  0  0
 52 53  1  0  0  0
 53 54  1  0  0  0
 54 55  1  0  0  0
 55 56  1  0  0  0
 57 58  1  0  0  0
 57 59  1  0  0  0
 58 66  1  0  0  0
 58 67  1  0  0  0
 58 68  1  0  0  0
 59 69  1  0  0  0
 59 70  1  0  0  0
 59 71  1  0  0  0
M  CHG  1  49   1
M  END
>  <ACTIVITY>
8.06

>  <SET>
1

>  <Min_dist>
999.9

>  <Avg_dist>
999.9

$$$$
07
  Cerius2 12110214423D 1   1.00000                          
Structure written by Cerius2 SD Exporter
 74 77  0  0  0  0  0  0  0  0999 V2000
    6.7865   -9.3194   14.9233 C   0  0  0  0  0  0
    8.1557   -8.6029   15.1104 C   0  0  0  0  0  0
    8.4282   -8.7256   16.6400 C   0  0  0  0  0  0
    7.1780   -9.5048   17.1484 C   0  0  0  0  0  0
    7.3650  -10.9807   16.7105 C   0  0  0  0  0  0
    7.0951  -10.7690   15.2526 C   0  0  0  0  0  0
    6.7734   -9.3147   10.3800 H   0  0  0  0  0  0
    5.2680  -10.4665    8.6258 H   0  0  0  0  0  0
    6.1854   -9.0781    8.0342 H   0  0  0  0  0  0
    2.8446  -10.3602    8.4771 H   0  0  0  0  0  0
    5.1336   -6.8131    7.7634 H   0  0  0  0  0  0
    3.0913   -5.6500    7.0154 H   0  0  0  0  0  0
    0.9055   -6.7175    7.2146 H   0  0  0  0  0  0
    3.9579   -9.9428   10.9575 H   0  0  0  0  0  0
   -1.6007   -9.3956    7.0910 H   0  0  0  0  0  0
   -0.5926   -8.0895    6.5077 H   0  0  0  0  0  0
    0.8501  -10.8852    9.0658 H   0  0  0  0  0  0
   -0.7784  -10.9845    8.4337 H   0  0  0  0  0  0
    7.5901   -6.2224    8.4687 H   0  0  0  0  0  0
    7.8453   -7.8222    9.1595 H   0  0  0  0  0  0
    9.6973   -6.3357    9.8152 H   0  0  0  0  0  0
    8.7595   -6.8386   11.2527 H   0  0  0  0  0  0
    8.4482   -4.1643    9.7413 H   0  0  0  0  0  0
    9.5777   -4.1849   11.5901 C   0  0  0  0  0  0
    6.8564   -3.5509   11.5816 H   0  0  0  0  0  0
    7.0604   -5.1734   12.3085 H   0  0  0  0  0  0
    4.9855   -5.0676   10.9390 H   0  0  0  0  0  0
    5.9161   -4.5929    9.5053 H   0  0  0  0  0  0
    5.6760  -10.4409   12.5584 S   0  0  0  0  0  0
    6.9169  -11.0670   12.1473 O   0  0  0  0  0  0
    4.7011  -11.2319   13.2776 O   0  0  0  0  0  0
    6.0741   -8.9845   13.5690 C   0  0  0  0  0  0
    5.7230   -7.4531   16.5015 C   0  0  0  0  0  0
    8.1181   -7.5446   14.8071 H   0  0  0  0  0  0
    8.9357   -9.0935   14.5068 H   0  0  0  0  0  0
    8.5089   -7.7443   17.1376 H   0  0  0  0  0  0
    9.3711   -9.2587   16.8508 H   0  0  0  0  0  0
    6.0284   -8.9676   16.2386 C   0  0  0  0  0  0
    5.5018   -7.5688   10.4956 C   0  0  0  0  0  0
    5.7282   -9.0292   10.1882 C   0  0  0  0  0  0
    5.3699   -9.3736    8.7130 C   0  0  0  0  0  0
    4.0931   -8.6573    8.2299 C   0  0  0  0  0  0
    2.8544   -9.3121    8.2006 C   0  0  0  0  0  0
    4.1789   -7.3321    7.7929 C   0  0  0  0  0  0
    1.6687   -8.6624    7.8179 C   0  0  0  0  0  0
    3.0209   -6.6702    7.3847 C   0  0  0  0  0  0
    1.7813   -7.3110    7.4523 C   0  0  0  0  0  0
    0.3225   -9.3834    7.7923 C   0  0  0  0  0  0
    4.4785   -7.3449   11.1245 O   0  0  0  0  0  0
    4.9355   -9.8028   11.1389 N   0  0  0  0  0  0
   -0.6863   -8.9233    7.0891 N   0  3  0  0  0  0
    0.1227  -10.4882    8.4705 N   0  0  0  0  0  0
    6.3307   -6.5549   10.1136 N   0  0  0  0  0  0
    7.5998   -6.7856    9.4161 C   0  0  0  0  0  0
    8.7260   -6.2388   10.3282 C   0  0  0  0  0  0
    8.4562   -4.7496   10.6783 C   0  0  0  0  0  0
    7.0682   -4.6103   11.3609 C   0  0  0  0  0  0
    5.9618   -5.1769   10.4393 C   0  0  0  0  0  0
   10.5553   -4.2717   11.0904 H   0  0  0  0  0  0
    9.6180   -4.7373   12.5417 H   0  0  0  0  0  0
    9.3917   -3.1212   11.8074 H   0  0  0  0  0  0
    7.0124   -9.4057   18.2354 H   0  0  0  0  0  0
    6.6220  -11.6544   17.1620 H   0  0  0  0  0  0
    8.3718  -11.3905   16.8857 H   0  0  0  0  0  0
    7.1069  -11.7082   14.4661 O   0  0  0  0  0  0
    4.6748   -9.7333   16.4031 C   0  0  0  0  0  0
    6.7068   -8.3335   12.9470 H   0  0  0  0  0  0
    5.1304   -8.4498   13.7507 H   0  0  0  0  0  0
    5.3638   -7.3432   17.5370 H   0  0  0  0  0  0
    4.9321   -7.0854   15.8311 H   0  0  0  0  0  0
    6.5717   -6.7701   16.3843 H   0  0  0  0  0  0
    4.7007  -10.7819   16.0804 H   0  0  0  0  0  0
    3.8817   -9.2495   15.8144 H   0  0  0  0  0  0
    4.3746   -9.7123   17.4615 H   0  0  0  0  0  0
  1  2  1  0  0  0
  1  6  1  0  0  0
  1 32  1  0  0  0
  1 38  1  0  0  0
  2  3  1  0  0  0
  2 34  1  0  0  0
  2 35  1  0  0  0
  3  4  1  0  0  0
  3 36  1  0  0  0
  3 37  1  0  0  0
  4  5  1  0  0  0
  4 38  1  0  0  0
  4 62  1  0  0  0
  5  6  1  0  0  0
  5 63  1  0  0  0
  5 64  1  0  0  0
  6 65  2  0  0  0
  7 40  1  0  0  0
  8 41  1  0  0  0
  9 41  1  0  0  0
 10 43  1  0  0  0
 11 44  1  0  0  0
 12 46  1  0  0  0
 13 47  1  0  0  0
 14 50  1  0  0  0
 15 51  1  0  0  0
 16 51  1  0  0  0
 17 52  1  0  0  0
 18 52  1  0  0  0
 19 54  1  0  0  0
 20 54  1  0  0  0
 21 55  1  0  0  0
 22 55  1  0  0  0
 23 56  1  0  0  0
 24 56  1  0  0  0
 24 59  1  0  0  0
 24 60  1  0  0  0
 24 61  1  0  0  0
 25 57  1  0  0  0
 26 57  1  0  0  0
 27 58  1  0  0  0
 28 58  1  0  0  0
 29 30  2  0  0  0
 29 31  2  0  0  0
 29 32  1  0  0  0
 29 50  1  0  0  0
 32 67  1  0  0  0
 32 68  1  0  0  0
 33 38  1  0  0  0
 33 69  1  0  0  0
 33 70  1  0  0  0
 33 71  1  0  0  0
 38 66  1  0  0  0
 39 40  1  0  0  0
 39 49  2  0  0  0
 39 53  1  0  0  0
 40 41  1  0  0  0
 40 50  1  0  0  0
 41 42  1  0  0  0
 42 43  2  0  0  0
 42 44  1  0  0  0
 43 45  1  0  0  0
 44 46  2  0  0  0
 45 47  2  0  0  0
 45 48  1  0  0  0
 46 47  1  0  0  0
 48 51  2  0  0  0
 48 52  1  0  0  0
 53 54  1  0  0  0
 53 58  1  0  0  0
 54 55  1  0  0  0
 55 56  1  0  0  0
 56 57  1  0  0  0
 57 58  1  0  0  0
 66 72  1  0  0  0
 66 73  1  0  0  0
 66 74  1  0  0  0
M  CHG  1  51   1
M  END
>  <ACTIVITY>
7.85

>  <SET>
2

>  <Min_dist>
0.26

>  <Avg_dist>
0.36

$$$$
08
  Cerius2 12110214423D 1   1.00000                          
Structure written by Cerius2 SD Exporter
 65 68  0  0  0  0  0  0  0  0999 V2000
    4.5941   -7.8708   13.8584 C   0  0  0  0  0  0
    6.1253   -5.8186   14.9485 C   0  0  0  0  0  0
    9.8635   -7.9242   13.3760 H   0  0  0  0  0  0
    8.5437   -9.8081   12.4904 H   0  0  0  0  0  0
    3.9692   -6.8177   14.5326 C   0  0  0  0  0  0
    4.7354   -5.7918   15.0873 C   0  0  0  0  0  0
    3.9567   -8.6238   13.4143 H   0  0  0  0  0  0
    6.8090   -9.2288   10.3515 H   0  0  0  0  0  0
    5.2916  -10.4129    8.6311 H   0  0  0  0  0  0
    6.1431   -8.9975    8.0009 H   0  0  0  0  0  0
    2.8223  -10.3650    8.6667 H   0  0  0  0  0  0
    5.0044   -6.7712    7.7671 H   0  0  0  0  0  0
    2.8968   -5.6320    7.1791 H   0  0  0  0  0  0
    0.7486   -6.8487    7.3038 H   0  0  0  0  0  0
    3.9947   -9.7988   11.0112 H   0  0  0  0  0  0
   -1.5728   -9.5023    7.2315 H   0  0  0  0  0  0
   -0.5575   -8.1623    6.6713 H   0  0  0  0  0  0
    1.0057  -10.8916    9.2445 H   0  0  0  0  0  0
   -0.6638  -11.0896    8.6821 H   0  0  0  0  0  0
    7.4628   -6.1603    8.3340 H   0  0  0  0  0  0
    7.8054   -7.7291    9.0457 H   0  0  0  0  0  0
    9.6612   -6.1783    9.4635 H   0  0  0  0  0  0
    8.9031   -6.7042   10.9866 H   0  0  0  0  0  0
    8.3940   -4.0496    9.5188 H   0  0  0  0  0  0
    9.6408   -4.0870   11.2970 C   0  0  0  0  0  0
    6.9439   -3.4122   11.4331 H   0  0  0  0  0  0
    7.2173   -4.9915   12.2029 H   0  0  0  0  0  0
    5.0641   -4.9909   11.0402 H   0  0  0  0  0  0
    5.8177   -4.5115    9.5155 H   0  0  0  0  0  0
    5.7653  -10.4493   12.5138 S   0  0  0  0  0  0
    6.7188  -11.4251   12.0232 O   0  0  0  0  0  0
    4.7654  -10.8778   13.4725 O   0  0  0  0  0  0
    6.6413   -9.0225   13.1476 C   0  0  0  0  0  0
    5.9896   -7.9364   13.7582 C   0  0  0  0  0  0
    6.7509   -6.8805   14.2822 C   0  0  0  0  0  0
    8.1424   -6.8761   14.1433 C   0  0  0  0  0  0
    8.7846   -7.9332   13.4933 C   0  0  0  0  0  0
    8.0322   -8.9971   12.9972 C   0  0  0  0  0  0
    6.7099   -5.0050   15.3651 H   0  0  0  0  0  0
    5.5183   -7.4795   10.4657 C   0  0  0  0  0  0
    5.7607   -8.9449   10.1722 C   0  0  0  0  0  0
    5.3687   -9.3165    8.7144 C   0  0  0  0  0  0
    4.0531   -8.6402    8.2943 C   0  0  0  0  0  0
    2.8378   -9.3296    8.3404 C   0  0  0  0  0  0
    4.0691   -7.3133    7.8481 C   0  0  0  0  0  0
    1.6458   -8.7048    7.9562 C   0  0  0  0  0  0
    2.8802   -6.6692    7.4984 C   0  0  0  0  0  0
    1.6683   -7.3631    7.5604 C   0  0  0  0  0  0
    0.3330   -9.4646    7.9588 C   0  0  0  0  0  0
    4.4959   -7.2624   11.0881 O   0  0  0  0  0  0
    4.9868   -9.7282   11.1308 N   0  0  0  0  0  0
   -0.6663   -9.0118    7.2447 N   0  3  0  0  0  0
    0.2182  -10.5559    8.6709 N   0  0  0  0  0  0
    6.3370   -6.4656   10.0756 N   0  0  0  0  0  0
    7.5480   -6.6933    9.2917 C   0  0  0  0  0  0
    8.7452   -6.1062   10.0774 C   0  0  0  0  0  0
    8.4702   -4.6306   10.4474 C   0  0  0  0  0  0
    7.1470   -4.4790   11.2329 C   0  0  0  0  0  0
    5.9743   -5.0949   10.4327 C   0  0  0  0  0  0
   10.5968   -4.2282   10.7758 H   0  0  0  0  0  0
    9.6837   -4.6194   12.2543 H   0  0  0  0  0  0
    9.5024   -3.0164   11.4964 H   0  0  0  0  0  0
    2.8878   -6.7945   14.6247 H   0  0  0  0  0  0
    4.2555   -4.9784   15.6215 H   0  0  0  0  0  0
    8.7390   -6.0577   14.5333 H   0  0  0  0  0  0
  1  5  1  0  0  0
  1  7  1  0  0  0
  1 34  2  0  0  0
  2  6  1  0  0  0
  2 35  2  0  0  0
  2 39  1  0  0  0
  3 37  1  0  0  0
  4 38  1  0  0  0
  5  6  2  0  0  0
  5 63  1  0  0  0
  6 64  1  0  0  0
  8 41  1  0  0  0
  9 42  1  0  0  0
 10 42  1  0  0  0
 11 44  1  0  0  0
 12 45  1  0  0  0
 13 47  1  0  0  0
 14 48  1  0  0  0
 15 51  1  0  0  0
 16 52  1  0  0  0
 17 52  1  0  0  0
 18 53  1  0  0  0
 19 53  1  0  0  0
 20 55  1  0  0  0
 21 55  1  0  0  0
 22 56  1  0  0  0
 23 56  1  0  0  0
 24 57  1  0  0  0
 25 57  1  0  0  0
 25 60  1  0  0  0
 25 61  1  0  0  0
 25 62  1  0  0  0
 26 58  1  0  0  0
 27 58  1  0  0  0
 28 59  1  0  0  0
 29 59  1  0  0  0
 30 31  2  0  0  0
 30 32  2  0  0  0
 30 33  1  0  0  0
 30 51  1  0  0  0
 33 34  1  0  0  0
 33 38  2  0  0  0
 34 35  1  0  0  0
 35 36  1  0  0  0
 36 37  2  0  0  0
 36 65  1  0  0  0
 37 38  1  0  0  0
 40 41  1  0  0  0
 40 50  2  0  0  0
 40 54  1  0  0  0
 41 42  1  0  0  0
 41 51  1  0  0  0
 42 43  1  0  0  0
 43 44  2  0  0  0
 43 45  1  0  0  0
 44 46  1  0  0  0
 45 47  2  0  0  0
 46 48  2  0  0  0
 46 49  1  0  0  0
 47 48  1  0  0  0
 49 52  2  0  0  0
 49 53  1  0  0  0
 54 55  1  0  0  0
 54 59  1  0  0  0
 55 56  1  0  0  0
 56 57  1  0  0  0
 57 58  1  0  0  0
 58 59  1  0  0  0
M  CHG  1  52   1
M  END
>  <ACTIVITY>
7.8

>  <SET>
1

>  <Min_dist>
999.9

>  <Avg_dist>
999.9

$$$$
09
  Cerius2 12110214423D 1   1.00000                          
Structure written by Cerius2 SD Exporter
 68 71  0  0  0  0  0  0  0  0999 V2000
    3.9010   -6.3666   15.3040 C   0  0  0  0  0  0
    4.0670   -5.1500   15.9709 C   0  0  0  0  0  0
    5.3342   -4.5682   16.0546 C   0  0  0  0  0  0
    6.4341   -5.2044   15.4715 C   0  0  0  0  0  0
    6.7753   -9.3072   10.3975 H   0  0  0  0  0  0
    5.2404  -10.4904    8.6641 H   0  0  0  0  0  0
    6.1583   -9.1135    8.0519 H   0  0  0  0  0  0
    2.7962  -10.3801    8.5154 H   0  0  0  0  0  0
    5.1085   -6.8553    7.7449 H   0  0  0  0  0  0
    3.0745   -5.6743    7.0071 H   0  0  0  0  0  0
    0.8775   -6.7572    7.1789 H   0  0  0  0  0  0
    3.9812   -9.9505   11.0079 H   0  0  0  0  0  0
   -1.5839   -9.3724    7.0523 H   0  0  0  0  0  0
   -0.5344   -8.0705    6.4838 H   0  0  0  0  0  0
    0.8808  -10.8537    9.0933 H   0  0  0  0  0  0
   -0.7682  -10.9736    8.4710 H   0  0  0  0  0  0
    7.5476   -6.2233    8.4220 H   0  0  0  0  0  0
    7.8106   -7.8163    9.1282 H   0  0  0  0  0  0
    9.6608   -6.3097    9.7753 H   0  0  0  0  0  0
    8.7191   -6.8187   11.2023 H   0  0  0  0  0  0
    8.4466   -4.1364    9.6934 H   0  0  0  0  0  0
    9.4875   -4.2235   11.5711 C   0  0  0  0  0  0
    6.8203   -3.4955   11.4658 H   0  0  0  0  0  0
    6.9947   -5.0873   12.2484 H   0  0  0  0  0  0
    4.9439   -5.0509   10.8832 H   0  0  0  0  0  0
    5.8591   -4.6002    9.4337 H   0  0  0  0  0  0
    5.7015  -10.4155   12.6303 S   0  0  0  0  0  0
    6.9942  -10.9922   12.3144 O   0  0  0  0  0  0
    4.7301  -11.2051   13.3606 O   0  0  0  0  0  0
    7.3700   -7.0700   14.2230 C   0  0  0  0  0  0
    7.2019   -8.2826   13.5507 C   0  0  0  0  0  0
    5.9383   -8.8728   13.4757 C   0  0  0  0  0  0
    4.8405   -8.2273   14.0496 C   0  0  0  0  0  0
    5.0016   -7.0078   14.7181 C   0  0  0  0  0  0
    6.2709   -6.4252   14.8051 C   0  0  0  0  0  0
    2.9112   -6.8070   15.2460 H   0  0  0  0  0  0
    5.4870   -7.5647   10.4950 C   0  0  0  0  0  0
    5.7277   -9.0334   10.2059 C   0  0  0  0  0  0
    5.3488   -9.3981    8.7390 C   0  0  0  0  0  0
    4.0744   -8.6867    8.2465 C   0  0  0  0  0  0
    2.8347   -9.3376    8.2243 C   0  0  0  0  0  0
    4.1540   -7.3673    7.7881 C   0  0  0  0  0  0
    1.6655   -8.6745    7.8194 C   0  0  0  0  0  0
    3.0034   -6.6942    7.3740 C   0  0  0  0  0  0
    1.7619   -7.3318    7.4331 C   0  0  0  0  0  0
    0.3206   -9.3851    7.7924 C   0  0  0  0  0  0
    4.4764   -7.3418   11.1448 O   0  0  0  0  0  0
    4.9631   -9.8278   11.1613 N   0  0  0  0  0  0
   -0.6624   -8.9090    7.0665 N   0  3  0  0  0  0
    0.1349  -10.4761    8.4939 N   0  0  0  0  0  0
    6.2996   -6.5454   10.0790 N   0  0  0  0  0  0
    7.5657   -6.7774    9.3740 C   0  0  0  0  0  0
    8.6871   -6.2163   10.2804 C   0  0  0  0  0  0
    8.4206   -4.7260   10.6267 C   0  0  0  0  0  0
    7.0218   -4.5621   11.2815 C   0  0  0  0  0  0
    5.9178   -5.1624   10.3795 C   0  0  0  0  0  0
   10.2180   -3.2973   11.2516 O   0  0  0  0  0  0
    9.5309   -4.8865   12.7440 O   0  0  0  0  0  0
   10.5279   -4.4504   13.6846 C   0  0  0  0  0  0
    3.2128   -4.6574   16.4251 H   0  0  0  0  0  0
    5.4648   -3.6228   16.5747 H   0  0  0  0  0  0
    7.4122   -4.7397   15.5421 H   0  0  0  0  0  0
    8.3613   -6.6350   14.2902 H   0  0  0  0  0  0
    8.0579   -8.7647   13.0890 H   0  0  0  0  0  0
    3.8604   -8.6863   13.9700 H   0  0  0  0  0  0
   11.1563   -5.3210   13.9130 H   0  0  0  0  0  0
   10.0011   -4.1700   14.6060 H   0  0  0  0  0  0
   11.1798   -3.6163   13.3863 H   0  0  0  0  0  0
  1  2  1  0  0  0
  1 34  2  0  0  0
  1 36  1  0  0  0
  2  3  2  0  0  0
  2 60  1  0  0  0
  3  4  1  0  0  0
  3 61  1  0  0  0
  4 35  2  0  0  0
  4 62  1  0  0  0
  5 38  1  0  0  0
  6 39  1  0  0  0
  7 39  1  0  0  0
  8 41  1  0  0  0
  9 42  1  0  0  0
 10 44  1  0  0  0
 11 45  1  0  0  0
 12 48  1  0  0  0
 13 49  1  0  0  0
 14 49  1  0  0  0
 15 50  1  0  0  0
 16 50  1  0  0  0
 17 52  1  0  0  0
 18 52  1  0  0  0
 19 53  1  0  0  0
 20 53  1  0  0  0
 21 54  1  0  0  0
 22 54  1  0  0  0
 22 57  2  0  0  0
 22 58  1  0  0  0
 23 55  1  0  0  0
 24 55  1  0  0  0
 25 56  1  0  0  0
 26 56  1  0  0  0
 27 28  2  0  0  0
 27 29  2  0  0  0
 27 32  1  0  0  0
 27 48  1  0  0  0
 30 31  2  0  0  0
 30 35  1  0  0  0
 30 63  1  0  0  0
 31 32  1  0  0  0
 31 64  1  0  0  0
 32 33  2  0  0  0
 33 34  1  0  0  0
 33 65  1  0  0  0
 34 35  1  0  0  0
 37 38  1  0  0  0
 37 47  2  0  0  0
 37 51  1  0  0  0
 38 39  1  0  0  0
 38 48  1  0  0  0
 39 40  1  0  0  0
 40 41  2  0  0  0
 40 42  1  0  0  0
 41 43  1  0  0  0
 42 44  2  0  0  0
 43 45  2  0  0  0
 43 46  1  0  0  0
 44 45  1  0  0  0
 46 49  2  0  0  0
 46 50  1  0  0  0
 51 52  1  0  0  0
 51 56  1  0  0  0
 52 53  1  0  0  0
 53 54  1  0  0  0
 54 55  1  0  0  0
 55 56  1  0  0  0
 58 59  1  0  0  0
 59 66  1  0  0  0
 59 67  1  0  0  0
 59 68  1  0  0  0
M  CHG  1  49   1
M  END
>  <ACTIVITY>
7.77

>  <SET>
1

>  <Min_dist>
999.9

>  <Avg_dist>
999.9

$$$$
10
  Cerius2 12110214423D 1   1.00000                          
Structure written by Cerius2 SD Exporter
 68 72  0  0  0  0  0  0  0  0999 V2000
    4.0867   -6.0010   14.9522 C   0  0  0  0  0  0
    4.3845   -4.7669   15.5253 C   0  0  0  0  0  0
    5.6999   -4.2948   15.5295 C   0  0  0  0  0  0
    6.7144   -5.0588   14.9394 C   0  0  0  0  0  0
    6.7805   -9.4165   10.3564 H   0  0  0  0  0  0
    5.4459  -10.4026    8.4179 H   0  0  0  0  0  0
    6.2979   -8.9091    7.9852 H   0  0  0  0  0  0
    3.0259  -10.4097    8.4069 H   0  0  0  0  0  0
    5.0339   -6.8329    7.6362 H   0  0  0  0  0  0
    2.9742   -5.6316    7.0900 H   0  0  0  0  0  0
    0.8581   -6.8160    7.2501 H   0  0  0  0  0  0
    3.9269   -9.9679   10.7085 H   0  0  0  0  0  0
   -1.5070   -9.5495    7.4538 H   0  0  0  0  0  0
   -0.6013   -8.2196    6.7836 H   0  0  0  0  0  0
    1.2161  -10.9080    9.2616 H   0  0  0  0  0  0
   -0.4501  -11.1170    8.8138 H   0  0  0  0  0  0
    6.0913   -5.2488   10.5773 C   0  0  0  0  0  0
    6.4846   -6.6063   10.1896 N   0  0  0  0  0  0
    7.7406   -6.8285    9.4627 C   0  0  0  0  0  0
    8.8661   -6.0538   10.1868 C   0  0  0  0  0  0
    9.4913   -3.5862    9.9866 C   0  0  0  0  0  0
    9.1329   -2.2420    9.8765 C   0  0  0  0  0  0
    7.7846   -1.8720    9.9289 C   0  0  0  0  0  0
    6.8033   -2.8429   10.1358 C   0  0  0  0  0  0
    7.1635   -4.1883   10.2878 C   0  0  0  0  0  0
    5.4361  -10.3869   12.5518 S   0  0  0  0  0  0
    6.6534  -11.1566   12.3829 O   0  0  0  0  0  0
    4.3140  -10.9618   13.2678 O   0  0  0  0  0  0
    7.4323   -7.0665   13.7698 C   0  0  0  0  0  0
    7.1374   -8.3124   13.2187 C   0  0  0  0  0  0
    5.8326   -8.8091   13.2618 C   0  0  0  0  0  0
    4.8164   -8.0309   13.8312 C   0  0  0  0  0  0
    5.1064   -6.7825   14.3792 C   0  0  0  0  0  0
    6.4192   -6.2956   14.3653 C   0  0  0  0  0  0
    3.0609   -6.3557   14.9523 H   0  0  0  0  0  0
    5.5875   -7.6010   10.4476 C   0  0  0  0  0  0
    5.7695   -9.0643   10.1076 C   0  0  0  0  0  0
    5.4835   -9.3179    8.6031 C   0  0  0  0  0  0
    4.1601   -8.6635    8.1745 C   0  0  0  0  0  0
    2.9612   -9.3584    8.1833 C   0  0  0  0  0  0
    4.1211   -7.3422    7.7360 C   0  0  0  0  0  0
    1.7483   -8.7130    7.8889 C   0  0  0  0  0  0
    2.9508   -6.6712    7.4059 C   0  0  0  0  0  0
    1.7522   -7.3689    7.4927 C   0  0  0  0  0  0
    0.4519   -9.4811    8.0041 C   0  0  0  0  0  0
    4.5256   -7.3331   10.9895 O   0  0  0  0  0  0
    4.8829   -9.8380   10.9694 N   0  0  0  0  0  0
   -0.6176   -9.0502    7.3797 N   0  3  0  0  0  0
    0.4096  -10.5723    8.7306 N   0  0  0  0  0  0
    8.5045   -4.5636   10.1629 C   0  0  0  0  0  0
    5.8950   -5.2100   11.6572 H   0  0  0  0  0  0
    5.1666   -4.9792   10.0389 H   0  0  0  0  0  0
    7.6344   -6.0763    8.1555 C   0  0  0  0  0  0
    9.8231   -6.2285    9.6640 H   0  0  0  0  0  0
    8.9605   -6.3922   11.2264 H   0  0  0  0  0  0
   10.5366   -3.8713    9.9318 H   0  0  0  0  0  0
    3.5940   -4.1688   15.9711 H   0  0  0  0  0  0
    5.9345   -3.3405   15.9883 H   0  0  0  0  0  0
    7.7299   -4.6738   14.9383 H   0  0  0  0  0  0
    8.4517   -6.6963   13.7377 H   0  0  0  0  0  0
    7.9264   -8.8969   12.7552 H   0  0  0  0  0  0
    3.8019   -8.4160   13.8359 H   0  0  0  0  0  0
    9.8994   -1.4840    9.7506 H   0  0  0  0  0  0
    7.5038   -0.8298    9.8118 H   0  0  0  0  0  0
    5.7592   -2.5490   10.1795 H   0  0  0  0  0  0
    8.0603   -7.8777    9.3487 H   0  0  0  0  0  0
    6.6038   -5.4006    7.9345 O   0  5  0  0  0  0
    8.6028   -6.0516    7.3582 O   0  0  0  0  0  0
  1  2  1  0  0  0
  1 33  2  0  0  0
  1 35  1  0  0  0
  2  3  2  0  0  0
  2 57  1  0  0  0
  3  4  1  0  0  0
  3 58  1  0  0  0
  4 34  2  0  0  0
  4 59  1  0  0  0
  5 37  1  0  0  0
  6 38  1  0  0  0
  7 38  1  0  0  0
  8 40  1  0  0  0
  9 41  1  0  0  0
 10 43  1  0  0  0
 11 44  1  0  0  0
 12 47  1  0  0  0
 13 48  1  0  0  0
 14 48  1  0  0  0
 15 49  1  0  0  0
 16 49  1  0  0  0
 17 18  1  0  0  0
 17 25  1  0  0  0
 17 51  1  0  0  0
 17 52  1  0  0  0
 18 19  1  0  0  0
 18 36  1  0  0  0
 19 20  1  0  0  0
 19 53  1  0  0  0
 19 66  1  0  0  0
 20 50  1  0  0  0
 20 54  1  0  0  0
 20 55  1  0  0  0
 21 22  1  0  0  0
 21 50  2  0  0  0
 21 56  1  0  0  0
 22 23  2  0  0  0
 22 63  1  0  0  0
 23 24  1  0  0  0
 23 64  1  0  0  0
 24 25  2  0  0  0
 24 65  1  0  0  0
 25 50  1  0  0  0
 26 27  2  0  0  0
 26 28  2  0  0  0
 26 31  1  0  0  0
 26 47  1  0  0  0
 29 30  2  0  0  0
 29 34  1  0  0  0
 29 60  1  0  0  0
 30 31  1  0  0  0
 30 61  1  0  0  0
 31 32  2  0  0  0
 32 33  1  0  0  0
 32 62  1  0  0  0
 33 34  1  0  0  0
 36 37  1  0  0  0
 36 46  2  0  0  0
 37 38  1  0  0  0
 37 47  1  0  0  0
 38 39  1  0  0  0
 39 40  2  0  0  0
 39 41  1  0  0  0
 40 42  1  0  0  0
 41 43  2  0  0  0
 42 44  2  0  0  0
 42 45  1  0  0  0
 43 44  1  0  0  0
 45 48  2  0  0  0
 45 49  1  0  0  0
 53 67  1  0  0  0
 53 68  2  0  0  0
M  CHG  2  48   1  67  -1
M  END
>  <ACTIVITY>
7.74

>  <SET>
2

>  <Min_dist>
0.05

>  <Avg_dist>
0.25

$$$$
11
  Cerius2 12110214423D 1   1.00000                          
Structure written by Cerius2 SD Exporter
 67 70  0  0  0  0  0  0  0  0999 V2000
    3.8993   -6.3636   15.2963 C   0  0  0  0  0  0
    4.0684   -5.1489   15.9652 C   0  0  0  0  0  0
    5.3371   -4.5695   16.0470 C   0  0  0  0  0  0
    6.4338   -5.2056   15.4601 C   0  0  0  0  0  0
    6.7685   -9.3131   10.4022 H   0  0  0  0  0  0
    5.2536  -10.4959    8.6521 H   0  0  0  0  0  0
    6.1694   -9.1125    8.0434 H   0  0  0  0  0  0
    2.8028  -10.3913    8.5093 H   0  0  0  0  0  0
    5.1137   -6.8591    7.7440 H   0  0  0  0  0  0
    3.0679   -5.6624    7.0592 H   0  0  0  0  0  0
    0.8719   -6.7609    7.2209 H   0  0  0  0  0  0
    3.9587   -9.9267   10.9852 H   0  0  0  0  0  0
   -1.5725   -9.3638    7.0674 H   0  0  0  0  0  0
   -0.5196   -8.0536    6.5190 H   0  0  0  0  0  0
    0.9095  -10.8695    9.0832 H   0  0  0  0  0  0
   -0.7470  -10.9876    8.4751 H   0  0  0  0  0  0
    7.6748   -6.1943    8.5106 H   0  0  0  0  0  0
    7.8355   -7.8304    9.1445 H   0  0  0  0  0  0
    9.6801   -6.4374   10.0612 H   0  0  0  0  0  0
    8.5400   -6.8660   11.3556 H   0  0  0  0  0  0
    9.1917   -3.8434   10.4506 C   0  0  0  0  0  0
    8.9782   -2.7196   10.8796 O   0  0  0  0  0  0
    6.8128   -3.4870   11.3751 H   0  0  0  0  0  0
    6.9782   -4.9837   12.3293 H   0  0  0  0  0  0
    4.9620   -5.0539   10.8896 H   0  0  0  0  0  0
    5.8945   -4.6202    9.4458 H   0  0  0  0  0  0
    5.6717  -10.4194   12.6264 S   0  0  0  0  0  0
    6.9578  -11.0138   12.3150 O   0  0  0  0  0  0
    4.6842  -11.1924   13.3534 O   0  0  0  0  0  0
    7.3637   -7.0725   14.2034 C   0  0  0  0  0  0
    7.1926   -8.2922   13.5434 C   0  0  0  0  0  0
    5.9250   -8.8762   13.4695 C   0  0  0  0  0  0
    4.8303   -8.2245   14.0402 C   0  0  0  0  0  0
    4.9974   -7.0048   14.7088 C   0  0  0  0  0  0
    6.2684   -6.4260   14.7910 C   0  0  0  0  0  0
    2.9084   -6.8031   15.2391 H   0  0  0  0  0  0
    5.4848   -7.5687   10.4788 C   0  0  0  0  0  0
    5.7251   -9.0355   10.1960 C   0  0  0  0  0  0
    5.3591   -9.4026    8.7284 C   0  0  0  0  0  0
    4.0814   -8.6927    8.2442 C   0  0  0  0  0  0
    2.8444   -9.3462    8.2258 C   0  0  0  0  0  0
    4.1577   -7.3684    7.7955 C   0  0  0  0  0  0
    1.6735   -8.6783    7.8341 C   0  0  0  0  0  0
    3.0022   -6.6896    7.4058 C   0  0  0  0  0  0
    1.7627   -7.3305    7.4631 C   0  0  0  0  0  0
    0.3322   -9.3895    7.8051 C   0  0  0  0  0  0
    4.4580   -7.3367   11.0982 O   0  0  0  0  0  0
    4.9411   -9.8188   11.1426 N   0  0  0  0  0  0
   -0.6509   -8.9016    7.0880 N   0  3  0  0  0  0
    0.1552  -10.4888    8.4953 N   0  0  0  0  0  0
    6.3138   -6.5576   10.0870 N   0  0  0  0  0  0
    7.6049   -6.7965    9.4295 C   0  0  0  0  0  0
    8.6589   -6.2722   10.4325 C   0  0  0  0  0  0
    8.3360   -4.8718   10.7283 N   0  0  0  0  0  0
    7.0304   -4.5637   11.3125 C   0  0  0  0  0  0
    5.9401   -5.1761   10.3971 C   0  0  0  0  0  0
   10.2782   -4.0861    9.6909 O   0  0  0  0  0  0
   11.0840   -2.9239    9.3450 C   0  0  0  0  0  0
   11.0062   -2.6985    8.2699 H   0  0  0  0  0  0
    3.2151   -4.6559   16.4211 H   0  0  0  0  0  0
    5.4691   -3.6254   16.5671 H   0  0  0  0  0  0
    7.4133   -4.7430   15.5299 H   0  0  0  0  0  0
    8.3548   -6.6321   14.2553 H   0  0  0  0  0  0
    8.0460   -8.7849   13.0903 H   0  0  0  0  0  0
    3.8481   -8.6772   13.9586 H   0  0  0  0  0  0
   12.1211   -3.2225    9.5424 H   0  0  0  0  0  0
   10.9109   -1.9849    9.8975 H   0  0  0  0  0  0
  1  2  1  0  0  0
  1 34  2  0  0  0
  1 36  1  0  0  0
  2  3  2  0  0  0
  2 60  1  0  0  0
  3  4  1  0  0  0
  3 61  1  0  0  0
  4 35  2  0  0  0
  4 62  1  0  0  0
  5 38  1  0  0  0
  6 39  1  0  0  0
  7 39  1  0  0  0
  8 41  1  0  0  0
  9 42  1  0  0  0
 10 44  1  0  0  0
 11 45  1  0  0  0
 12 48  1  0  0  0
 13 49  1  0  0  0
 14 49  1  0  0  0
 15 50  1  0  0  0
 16 50  1  0  0  0
 17 52  1  0  0  0
 18 52  1  0  0  0
 19 53  1  0  0  0
 20 53  1  0  0  0
 21 22  2  0  0  0
 21 54  1  0  0  0
 21 57  1  0  0  0
 23 55  1  0  0  0
 24 55  1  0  0  0
 25 56  1  0  0  0
 26 56  1  0  0  0
 27 28  2  0  0  0
 27 29  2  0  0  0
 27 32  1  0  0  0
 27 48  1  0  0  0
 30 31  2  0  0  0
 30 35  1  0  0  0
 30 63  1  0  0  0
 31 32  1  0  0  0
 31 64  1  0  0  0
 32 33  2  0  0  0
 33 34  1  0  0  0
 33 65  1  0  0  0
 34 35  1  0  0  0
 37 38  1  0  0  0
 37 47  2  0  0  0
 37 51  1  0  0  0
 38 39  1  0  0  0
 38 48  1  0  0  0
 39 40  1  0  0  0
 40 41  2  0  0  0
 40 42  1  0  0  0
 41 43  1  0  0  0
 42 44  2  0  0  0
 43 45  2  0  0  0
 43 46  1  0  0  0
 44 45  1  0  0  0
 46 49  2  0  0  0
 46 50  1  0  0  0
 51 52  1  0  0  0
 51 56  1  0  0  0
 52 53  1  0  0  0
 53 54  1  0  0  0
 54 55  1  0  0  0
 55 56  1  0  0  0
 57 58  1  0  0  0
 58 59  1  0  0  0
 58 66  1  0  0  0
 58 67  1  0  0  0
M  CHG  1  49   1
M  END
>  <ACTIVITY>
7.72

>  <SET>
2

>  <Min_dist>
0.08

>  <Avg_dist>
0.24

$$$$
12
  Cerius2 12110214423D 1   1.00000                          
Structure written by Cerius2 SD Exporter
 65 68  0  0  0  0  0  0  0  0999 V2000
    3.8963   -6.3612   15.2930 C   0  0  0  0  0  0
    4.0706   -5.1464   15.9614 C   0  0  0  0  0  0
    5.3413   -4.5719   16.0402 C   0  0  0  0  0  0
    6.4351   -5.2139   15.4525 C   0  0  0  0  0  0
    6.7418   -9.3938   10.3736 H   0  0  0  0  0  0
    5.1555  -10.5602    8.6732 H   0  0  0  0  0  0
    6.0948   -9.2439    7.9970 H   0  0  0  0  0  0
    2.7556  -10.4087    8.5009 H   0  0  0  0  0  0
    5.1075   -6.9007    7.7531 H   0  0  0  0  0  0
    3.0722   -5.6694    7.0899 H   0  0  0  0  0  0
    0.8626   -6.7530    7.2338 H   0  0  0  0  0  0
    3.9285   -9.9597   10.9977 H   0  0  0  0  0  0
   -1.5884   -9.3622    7.0668 H   0  0  0  0  0  0
   -0.5324   -8.0464    6.5329 H   0  0  0  0  0  0
    0.9034  -10.8732    9.0813 H   0  0  0  0  0  0
   -0.7530  -11.0010    8.4743 H   0  0  0  0  0  0
    9.2977   -5.1466   10.0739 C   0  0  0  0  0  0
    8.8427   -6.6298   10.1497 C   0  0  0  0  0  0
    7.5658   -6.8946    9.3098 C   0  0  0  0  0  0
    6.3516   -6.6178   10.0799 N   0  0  0  0  0  0
    6.0152   -5.2299   10.4079 C   0  0  0  0  0  0
    7.0424   -4.6072   11.3912 C   0  0  0  0  0  0
    8.3400   -4.0879   10.7080 C   0  0  0  0  0  0
   10.2854   -5.0792   10.5625 H   0  0  0  0  0  0
    5.6468  -10.4387   12.6464 S   0  0  0  0  0  0
    6.9277  -11.0448   12.3372 O   0  0  0  0  0  0
    4.6604  -11.1967   13.3910 O   0  0  0  0  0  0
    7.3572   -7.0933   14.2077 C   0  0  0  0  0  0
    7.1782   -8.3079   13.5391 C   0  0  0  0  0  0
    5.9090   -8.8881   13.4725 C   0  0  0  0  0  0
    4.8173   -8.2268   14.0395 C   0  0  0  0  0  0
    4.9898   -7.0087   14.7067 C   0  0  0  0  0  0
    6.2666   -6.4360   14.7895 C   0  0  0  0  0  0
    2.9027   -6.7955   15.2360 H   0  0  0  0  0  0
    5.5130   -7.6188   10.4926 C   0  0  0  0  0  0
    5.7013   -9.0918   10.1859 C   0  0  0  0  0  0
    5.3052   -9.4708    8.7257 C   0  0  0  0  0  0
    4.0523   -8.7222    8.2462 C   0  0  0  0  0  0
    2.8094   -9.3622    8.2252 C   0  0  0  0  0  0
    4.1451   -7.3968    7.8061 C   0  0  0  0  0  0
    1.6503   -8.6778    7.8389 C   0  0  0  0  0  0
    2.9961   -6.7000    7.4248 C   0  0  0  0  0  0
    1.7500   -7.3285    7.4752 C   0  0  0  0  0  0
    0.3119   -9.3920    7.8101 C   0  0  0  0  0  0
    4.5142   -7.3788   11.1537 O   0  0  0  0  0  0
    4.9128   -9.8548   11.1485 N   0  0  0  0  0  0
   -0.6678   -8.8993    7.0944 N   0  3  0  0  0  0
    0.1449  -10.4954    8.4960 N   0  0  0  0  0  0
    9.4662   -4.8959    9.0118 H   0  0  0  0  0  0
    8.6975   -6.9603   11.1897 H   0  0  0  0  0  0
    9.6683   -7.2359    9.7357 H   0  0  0  0  0  0
    7.6291   -7.9178    8.9338 H   0  0  0  0  0  0
    7.5672   -6.2559    8.4134 H   0  0  0  0  0  0
    5.0150   -5.1403   10.8603 H   0  0  0  0  0  0
    5.9778   -4.6402    9.4788 H   0  0  0  0  0  0
    7.2723   -5.3211   12.1937 H   0  0  0  0  0  0
    6.5644   -3.7327   11.8667 H   0  0  0  0  0  0
    3.2198   -4.6506   16.4188 H   0  0  0  0  0  0
    5.4774   -3.6274   16.5586 H   0  0  0  0  0  0
    7.4158   -4.7525   15.5178 H   0  0  0  0  0  0
    8.3533   -6.6647   14.2681 H   0  0  0  0  0  0
    8.0261   -8.7990   13.0744 H   0  0  0  0  0  0
    3.8317   -8.6722   13.9555 H   0  0  0  0  0  0
    8.0469   -3.3505    9.9412 H   0  0  0  0  0  0
    8.9048   -3.5305   11.4757 H   0  0  0  0  0  0
  1  2  1  0  0  0
  1 32  2  0  0  0
  1 34  1  0  0  0
  2  3  2  0  0  0
  2 58  1  0  0  0
  3  4  1  0  0  0
  3 59  1  0  0  0
  4 33  2  0  0  0
  4 60  1  0  0  0
  5 36  1  0  0  0
  6 37  1  0  0  0
  7 37  1  0  0  0
  8 39  1  0  0  0
  9 40  1  0  0  0
 10 42  1  0  0  0
 11 43  1  0  0  0
 12 46  1  0  0  0
 13 47  1  0  0  0
 14 47  1  0  0  0
 15 48  1  0  0  0
 16 48  1  0  0  0
 17 18  1  0  0  0
 17 23  1  0  0  0
 17 24  1  0  0  0
 17 49  1  0  0  0
 18 19  1  0  0  0
 18 50  1  0  0  0
 18 51  1  0  0  0
 19 20  1  0  0  0
 19 52  1  0  0  0
 19 53  1  0  0  0
 20 21  1  0  0  0
 20 35  1  0  0  0
 21 22  1  0  0  0
 21 54  1  0  0  0
 21 55  1  0  0  0
 22 23  1  0  0  0
 22 56  1  0  0  0
 22 57  1  0  0  0
 23 64  1  0  0  0
 23 65  1  0  0  0
 25 26  2  0  0  0
 25 27  2  0  0  0
 25 30  1  0  0  0
 25 46  1  0  0  0
 28 29  2  0  0  0
 28 33  1  0  0  0
 28 61  1  0  0  0
 29 30  1  0  0  0
 29 62  1  0  0  0
 30 31  2  0  0  0
 31 32  1  0  0  0
 31 63  1  0  0  0
 32 33  1  0  0  0
 35 36  1  0  0  0
 35 45  2  0  0  0
 36 37  1  0  0  0
 36 46  1  0  0  0
 37 38  1  0  0  0
 38 39  2  0  0  0
 38 40  1  0  0  0
 39 41  1  0  0  0
 40 42  2  0  0  0
 41 43  2  0  0  0
 41 44  1  0  0  0
 42 43  1  0  0  0
 44 47  2  0  0  0
 44 48  1  0  0  0
M  CHG  1  47   1
M  END
>  <ACTIVITY>
7.68

>  <SET>
1

>  <Min_dist>
999.9

>  <Avg_dist>
999.9

$$$$
13
  Cerius2 12110214423D 1   1.00000                          
Structure written by Cerius2 SD Exporter
 66 69  0  0  0  0  0  0  0  0999 V2000
    3.8996   -6.3639   15.2965 C   0  0  0  0  0  0
    4.0683   -5.1490   15.9655 C   0  0  0  0  0  0
    5.3367   -4.5694   16.0475 C   0  0  0  0  0  0
    6.4337   -5.2055   15.4606 C   0  0  0  0  0  0
    6.7661   -9.3108   10.4027 H   0  0  0  0  0  0
    5.2534  -10.4942    8.6540 H   0  0  0  0  0  0
    6.1691   -9.1120    8.0440 H   0  0  0  0  0  0
    2.8028  -10.3908    8.5094 H   0  0  0  0  0  0
    5.1138   -6.8587    7.7446 H   0  0  0  0  0  0
    3.0681   -5.6630    7.0569 H   0  0  0  0  0  0
    0.8722   -6.7607    7.2193 H   0  0  0  0  0  0
    3.9599   -9.9266   10.9851 H   0  0  0  0  0  0
   -1.5729   -9.3641    7.0665 H   0  0  0  0  0  0
   -0.5200   -8.0544    6.5172 H   0  0  0  0  0  0
    0.9080  -10.8688    9.0837 H   0  0  0  0  0  0
   -0.7481  -10.9869    8.4748 H   0  0  0  0  0  0
    7.6923   -6.1895    8.5268 H   0  0  0  0  0  0
    7.8290   -7.8345    9.1475 H   0  0  0  0  0  0
    9.6666   -6.5915   10.2236 H   0  0  0  0  0  0
    8.4190   -6.8637   11.4244 H   0  0  0  0  0  0
    9.2370   -3.9301   10.3262 C   0  0  0  0  0  0
    9.1301   -2.7872   10.7447 O   0  0  0  0  0  0
    6.9007   -3.4461   11.3504 H   0  0  0  0  0  0
    7.0052   -4.9401   12.3159 H   0  0  0  0  0  0
    4.9888   -5.0360   10.9048 H   0  0  0  0  0  0
    5.9044   -4.6112    9.4506 H   0  0  0  0  0  0
    5.6732  -10.4188   12.6263 S   0  0  0  0  0  0
    6.9595  -11.0127   12.3145 O   0  0  0  0  0  0
    4.6861  -11.1926   13.3532 O   0  0  0  0  0  0
    7.3639   -7.0719   14.2046 C   0  0  0  0  0  0
    7.1931   -8.2924   13.5449 C   0  0  0  0  0  0
    5.9259   -8.8762   13.4702 C   0  0  0  0  0  0
    4.8308   -8.2243   14.0409 C   0  0  0  0  0  0
    4.9971   -7.0052   14.7091 C   0  0  0  0  0  0
    6.2692   -6.4255   14.7915 C   0  0  0  0  0  0
    2.9086   -6.8036   15.2393 H   0  0  0  0  0  0
    5.4854   -7.5587   10.4814 C   0  0  0  0  0  0
    5.7238   -9.0281   10.1969 C   0  0  0  0  0  0
    5.3588   -9.4005    8.7299 C   0  0  0  0  0  0
    4.0818   -8.6915    8.2444 C   0  0  0  0  0  0
    2.8430   -9.3459    8.2254 C   0  0  0  0  0  0
    4.1575   -7.3684    7.7953 C   0  0  0  0  0  0
    1.6746   -8.6778    7.8335 C   0  0  0  0  0  0
    3.0027   -6.6896    7.4043 C   0  0  0  0  0  0
    1.7623   -7.3310    7.4619 C   0  0  0  0  0  0
    0.3307   -9.3898    7.8044 C   0  0  0  0  0  0
    4.4579   -7.3268   11.0992 O   0  0  0  0  0  0
    4.9418   -9.8150   11.1427 N   0  0  0  0  0  0
   -0.6510   -8.9020    7.0870 N   0  3  0  0  0  0
    0.1544  -10.4879    8.4951 N   0  0  0  0  0  0
    6.3181   -6.5483   10.0920 N   0  0  0  0  0  0
    7.6059   -6.8024    9.4380 C   0  0  0  0  0  0
    8.6343   -6.3282   10.4866 C   0  0  0  0  0  0
    8.3657   -4.9079   10.7119 N   0  0  0  0  0  0
    7.0742   -4.5331   11.2956 C   0  0  0  0  0  0
    5.9630   -5.1590   10.4054 C   0  0  0  0  0  0
   10.3803   -4.1313    9.3543 C   0  0  0  0  0  0
   10.3843   -5.0751    8.7930 H   0  0  0  0  0  0
   11.3438   -4.0082    9.8709 H   0  0  0  0  0  0
    3.2148   -4.6562   16.4212 H   0  0  0  0  0  0
    5.4686   -3.6254   16.5676 H   0  0  0  0  0  0
    7.4132   -4.7426   15.5307 H   0  0  0  0  0  0
    8.3551   -6.6315   14.2564 H   0  0  0  0  0  0
    8.0467   -8.7853   13.0923 H   0  0  0  0  0  0
    3.8488   -8.6776   13.9592 H   0  0  0  0  0  0
   10.2897   -3.3342    8.6003 H   0  0  0  0  0  0
  1  2  1  0  0  0
  1 34  2  0  0  0
  1 36  1  0  0  0
  2  3  2  0  0  0
  2 60  1  0  0  0
  3  4  1  0  0  0
  3 61  1  0  0  0
  4 35  2  0  0  0
  4 62  1  0  0  0
  5 38  1  0  0  0
  6 39  1  0  0  0
  7 39  1  0  0  0
  8 41  1  0  0  0
  9 42  1  0  0  0
 10 44  1  0  0  0
 11 45  1  0  0  0
 12 48  1  0  0  0
 13 49  1  0  0  0
 14 49  1  0  0  0
 15 50  1  0  0  0
 16 50  1  0  0  0
 17 52  1  0  0  0
 18 52  1  0  0  0
 19 53  1  0  0  0
 20 53  1  0  0  0
 21 22  2  0  0  0
 21 54  1  0  0  0
 21 57  1  0  0  0
 23 55  1  0  0  0
 24 55  1  0  0  0
 25 56  1  0  0  0
 26 56  1  0  0  0
 27 28  2  0  0  0
 27 29  2  0  0  0
 27 32  1  0  0  0
 27 48  1  0  0  0
 30 31  2  0  0  0
 30 35  1  0  0  0
 30 63  1  0  0  0
 31 32  1  0  0  0
 31 64  1  0  0  0
 32 33  2  0  0  0
 33 34  1  0  0  0
 33 65  1  0  0  0
 34 35  1  0  0  0
 37 38  1  0  0  0
 37 47  2  0  0  0
 37 51  1  0  0  0
 38 39  1  0  0  0
 38 48  1  0  0  0
 39 40  1  0  0  0
 40 41  2  0  0  0
 40 42  1  0  0  0
 41 43  1  0  0  0
 42 44  2  0  0  0
 43 45  2  0  0  0
 43 46  1  0  0  0
 44 45  1  0  0  0
 46 49  2  0  0  0
 46 50  1  0  0  0
 51 52  1  0  0  0
 51 56  1  0  0  0
 52 53  1  0  0  0
 53 54  1  0  0  0
 54 55  1  0  0  0
 55 56  1  0  0  0
 57 58  1  0  0  0
 57 59  1  0  0  0
 57 66  1  0  0  0
M  CHG  1  49   1
M  END
>  <ACTIVITY>
7.64

>  <SET>
1

>  <Min_dist>
999.9

>  <Avg_dist>
999.9

$$$$
14
  Cerius2 12110214423D 1   1.00000                          
Structure written by Cerius2 SD Exporter
 71 75  0  0  0  0  0  0  0  0999 V2000
    4.8814   -6.0070   15.0360 C   0  0  0  0  0  0
    5.2845   -4.6602   15.5938 C   0  0  0  0  0  0
    6.6069   -4.2224   15.4663 C   0  0  0  0  0  0
    7.6266   -5.1053   14.7824 C   0  0  0  0  0  0
    6.7928   -9.1712   10.2593 H   0  0  0  0  0  0
    5.2572  -10.5132    8.5701 H   0  0  0  0  0  0
    6.1539   -9.1241    7.9439 H   0  0  0  0  0  0
    2.7935  -10.4555    8.4418 H   0  0  0  0  0  0
    5.0465   -6.9562    7.4907 H   0  0  0  0  0  0
    2.9708   -5.6901    7.1155 H   0  0  0  0  0  0
    0.7885   -6.7615    7.5033 H   0  0  0  0  0  0
    4.1031  -10.1353   10.9238 H   0  0  0  0  0  0
   -1.6412   -9.3571    7.1560 H   0  0  0  0  0  0
   -0.5953   -8.0189    6.6695 H   0  0  0  0  0  0
    0.8802  -11.0022    8.9953 H   0  0  0  0  0  0
   -0.7898  -11.0735    8.4213 H   0  0  0  0  0  0
    7.0161   -5.9682    8.2890 H   0  0  0  0  0  0
    7.5572   -7.5056    8.9646 H   0  0  0  0  0  0
    9.2144   -5.7139    9.3934 H   0  0  0  0  0  0
    8.5197   -6.3008   10.9309 H   0  0  0  0  0  0
    7.6240   -3.7718    9.3998 H   0  0  0  0  0  0
    8.9383   -3.5420   11.1092 C   0  0  0  0  0  0
    6.1617   -3.3464   11.3898 H   0  0  0  0  0  0
    6.7146   -4.8701   12.1307 H   0  0  0  0  0  0
    4.5269   -5.1927   11.0583 H   0  0  0  0  0  0
    5.1446   -4.6142    9.4995 H   0  0  0  0  0  0
    5.9331  -10.4861   12.4749 S   0  0  0  0  0  0
    7.0951  -11.2360   12.0387 O   0  0  0  0  0  0
    4.9804  -11.1007   13.3782 O   0  0  0  0  0  0
    8.1593   -7.2628   13.5712 C   0  0  0  0  0  0
    7.7758   -8.4953   13.0354 C   0  0  0  0  0  0
    6.4561   -8.9352   13.1675 C   0  0  0  0  0  0
    5.5235   -8.1300   13.8258 C   0  0  0  0  0  0
    5.8992   -6.8856   14.3443 C   0  0  0  0  0  0
    7.2230   -6.4520   14.2198 C   0  0  0  0  0  0
    3.7264   -6.3870   15.1435 O   0  0  0  0  0  0
    5.3068   -7.5954   10.4375 C   0  0  0  0  0  0
    5.7159   -9.0166   10.0944 C   0  0  0  0  0  0
    5.3477   -9.4177    8.6342 C   0  0  0  0  0  0
    4.0468   -8.7435    8.1627 C   0  0  0  0  0  0
    2.8125   -9.4033    8.1902 C   0  0  0  0  0  0
    4.0966   -7.4333    7.6795 C   0  0  0  0  0  0
    1.6241   -8.7245    7.8821 C   0  0  0  0  0  0
    2.9226   -6.7237    7.4315 C   0  0  0  0  0  0
    1.6901   -7.3553    7.5967 C   0  0  0  0  0  0
    0.2813   -9.4349    7.8434 C   0  0  0  0  0  0
    4.2977   -7.5272   11.1223 O   0  0  0  0  0  0
    5.0699   -9.9091   11.0517 N   0  0  0  0  0  0
   -0.7167   -8.8993    7.1859 N   0  3  0  0  0  0
    0.1152  -10.5783    8.4569 N   0  0  0  0  0  0
    5.9629   -6.4657   10.0380 N   0  0  0  0  0  0
    7.1883   -6.5082    9.2325 C   0  0  0  0  0  0
    8.2966   -5.7526   10.0035 C   0  0  0  0  0  0
    7.8278   -4.3112   10.3426 C   0  0  0  0  0  0
    6.5183   -4.3670   11.1741 C   0  0  0  0  0  0
    5.4228   -5.1561   10.4173 C   0  0  0  0  0  0
    9.8487   -3.4728   10.4924 H   0  0  0  0  0  0
    9.1897   -4.0595   12.0477 H   0  0  0  0  0  0
    8.6032   -2.5205   11.3495 H   0  0  0  0  0  0
    4.3404   -3.8499   16.2369 C   0  0  0  0  0  0
    6.9755   -2.9706   15.9735 C   0  0  0  0  0  0
    8.7829   -4.7284   14.6793 O   0  0  0  0  0  0
    9.1913   -6.9399   13.4766 H   0  0  0  0  0  0
    8.5058   -9.1089   12.5188 H   0  0  0  0  0  0
    4.5030   -8.4810   13.9309 H   0  0  0  0  0  0
    6.0327   -2.1640   16.6162 C   0  0  0  0  0  0
    4.7138   -2.6040   16.7494 C   0  0  0  0  0  0
    3.3131   -4.1813   16.3420 H   0  0  0  0  0  0
    7.9966   -2.6162   15.8722 H   0  0  0  0  0  0
    6.3233   -1.1947   17.0113 H   0  0  0  0  0  0
    3.9797   -1.9802   17.2502 H   0  0  0  0  0  0
  1  2  1  0  0  0
  1 34  1  0  0  0
  1 36  2  0  0  0
  2  3  2  0  0  0
  2 60  1  0  0  0
  3  4  1  0  0  0
  3 61  1  0  0  0
  4 35  1  0  0  0
  4 62  2  0  0  0
  5 38  1  0  0  0
  6 39  1  0  0  0
  7 39  1  0  0  0
  8 41  1  0  0  0
  9 42  1  0  0  0
 10 44  1  0  0  0
 11 45  1  0  0  0
 12 48  1  0  0  0
 13 49  1  0  0  0
 14 49  1  0  0  0
 15 50  1  0  0  0
 16 50  1  0  0  0
 17 52  1  0  0  0
 18 52  1  0  0  0
 19 53  1  0  0  0
 20 53  1  0  0  0
 21 54  1  0  0  0
 22 54  1  0  0  0
 22 57  1  0  0  0
 22 58  1  0  0  0
 22 59  1  0  0  0
 23 55  1  0  0  0
 24 55  1  0  0  0
 25 56  1  0  0  0
 26 56  1  0  0  0
 27 28  2  0  0  0
 27 29  2  0  0  0
 27 32  1  0  0  0
 27 48  1  0  0  0
 30 31  1  0  0  0
 30 35  2  0  0  0
 30 63  1  0  0  0
 31 32  2  0  0  0
 31 64  1  0  0  0
 32 33  1  0  0  0
 33 34  2  0  0  0
 33 65  1  0  0  0
 34 35  1  0  0  0
 37 38  1  0  0  0
 37 47  2  0  0  0
 37 51  1  0  0  0
 38 39  1  0  0  0
 38 48  1  0  0  0
 39 40  1  0  0  0
 40 41  2  0  0  0
 40 42  1  0  0  0
 41 43  1  0  0  0
 42 44  2  0  0  0
 43 45  2  0  0  0
 43 46  1  0  0  0
 44 45  1  0  0  0
 46 49  2  0  0  0
 46 50  1  0  0  0
 51 52  1  0  0  0
 51 56  1  0  0  0
 52 53  1  0  0  0
 53 54  1  0  0  0
 54 55  1  0  0  0
 55 56  1  0  0  0
 60 67  2  0  0  0
 60 68  1  0  0  0
 61 66  2  0  0  0
 61 69  1  0  0  0
 66 67  1  0  0  0
 66 70  1  0  0  0
 67 71  1  0  0  0
M  CHG  1  49   1
M  END
>  <ACTIVITY>
7.59

>  <SET>
2

>  <Min_dist>
0.14

>  <Avg_dist>
0.27

$$$$
15
  Cerius2 12110214423D 1   1.00000                          
Structure written by Cerius2 SD Exporter
 62 64  0  0  0  0  0  0  0  0999 V2000
    3.8726   -8.6955   14.0680 H   0  0  0  0  0  0
    4.0703   -6.5360   15.2431 H   0  0  0  0  0  0
    8.2813   -6.4678   14.3971 H   0  0  0  0  0  0
    8.0781   -8.6305   13.2189 H   0  0  0  0  0  0
    6.3181   -4.9483   15.5430 C   0  0  0  0  0  0
    5.3550   -4.5825   15.9262 H   0  0  0  0  0  0
    6.6963   -4.2182   14.8168 H   0  0  0  0  0  0
    6.7591   -9.2883   10.4337 H   0  0  0  0  0  0
    5.2320  -10.4540    8.6687 H   0  0  0  0  0  0
    6.1556   -9.0737    8.0997 H   0  0  0  0  0  0
    2.7892  -10.3130    8.5693 H   0  0  0  0  0  0
    5.1088   -6.8165    7.7481 H   0  0  0  0  0  0
    3.1013   -5.6839    6.8883 H   0  0  0  0  0  0
    0.9061   -6.7482    7.0353 H   0  0  0  0  0  0
    4.0292  -10.0745   11.0541 H   0  0  0  0  0  0
   -1.5631   -9.5201    6.9290 H   0  0  0  0  0  0
   -0.5058   -8.2994    6.2256 H   0  0  0  0  0  0
    0.7211  -10.6424    9.3096 H   0  0  0  0  0  0
   -0.8564  -10.8645    8.5591 H   0  0  0  0  0  0
    7.5650   -6.2714    8.4253 H   0  0  0  0  0  0
    7.8218   -7.8503    9.1853 H   0  0  0  0  0  0
    9.6688   -6.3264    9.7663 H   0  0  0  0  0  0
    8.7501   -6.7956   11.2215 H   0  0  0  0  0  0
    8.4308   -4.1568    9.6561 H   0  0  0  0  0  0
    9.5586   -4.1284   11.5009 C   0  0  0  0  0  0
    6.8205   -3.5109   11.4729 H   0  0  0  0  0  0
    7.0159   -5.1151   12.2220 H   0  0  0  0  0  0
    4.9468   -5.0389   10.8519 H   0  0  0  0  0  0
    5.8822   -4.5955    9.4165 H   0  0  0  0  0  0
    5.7522  -10.3454   12.6842 S   0  0  0  0  0  0
    7.0620  -10.8857   12.3710 O   0  0  0  0  0  0
    4.8276  -11.1687   13.4419 O   0  0  0  0  0  0
    5.9538   -8.8030   13.5493 C   0  0  0  0  0  0
    4.8367   -8.2033   14.1320 C   0  0  0  0  0  0
    4.9513   -6.9758   14.7899 C   0  0  0  0  0  0
    6.1845   -6.3209   14.8665 C   0  0  0  0  0  0
    7.3103   -6.9425   14.3137 C   0  0  0  0  0  0
    7.1975   -8.1703   13.6531 C   0  0  0  0  0  0
    7.0244   -5.0094   16.3857 H   0  0  0  0  0  0
    5.4695   -7.5601   10.5171 C   0  0  0  0  0  0
    5.7108   -9.0294   10.2471 C   0  0  0  0  0  0
    5.3327   -9.3647    8.7657 C   0  0  0  0  0  0
    4.0631   -8.6436    8.2512 C   0  0  0  0  0  0
    2.8154   -9.2852    8.2330 C   0  0  0  0  0  0
    4.1563   -7.3326    7.7679 C   0  0  0  0  0  0
    1.6428   -8.6506    7.7835 C   0  0  0  0  0  0
    3.0150   -6.6868    7.2967 C   0  0  0  0  0  0
    1.7675   -7.3236    7.3479 C   0  0  0  0  0  0
    0.2984   -9.3742    7.7662 C   0  0  0  0  0  0
    4.4540   -7.3258   11.1453 O   0  0  0  0  0  0
    4.9906   -9.8367   11.2330 N   0  0  0  0  0  0
   -0.6478   -9.0420    6.9202 N   0  3  0  0  0  0
    0.0412  -10.3568    8.5973 N   0  0  0  0  0  0
    6.2952   -6.5488   10.0848 N   0  0  0  0  0  0
    7.5688   -6.7977    9.3964 C   0  0  0  0  0  0
    8.7017   -6.2165   10.2857 C   0  0  0  0  0  0
    8.4304   -4.7226   10.6066 C   0  0  0  0  0  0
    7.0344   -4.5702   11.2698 C   0  0  0  0  0  0
    5.9265   -5.1627   10.3643 C   0  0  0  0  0  0
   10.5406   -4.2243   11.0040 H   0  0  0  0  0  0
    9.6088   -4.6501   12.4694 H   0  0  0  0  0  0
    9.3780   -3.0564   11.6914 H   0  0  0  0  0  0
  1 34  1  0  0  0
  2 35  1  0  0  0
  3 37  1  0  0  0
  4 38  1  0  0  0
  5  6  1  0  0  0
  5  7  1  0  0  0
  5 36  1  0  0  0
  5 39  1  0  0  0
  8 41  1  0  0  0
  9 42  1  0  0  0
 10 42  1  0  0  0
 11 44  1  0  0  0
 12 45  1  0  0  0
 13 47  1  0  0  0
 14 48  1  0  0  0
 15 51  1  0  0  0
 16 52  1  0  0  0
 17 52  1  0  0  0
 18 53  1  0  0  0
 19 53  1  0  0  0
 20 55  1  0  0  0
 21 55  1  0  0  0
 22 56  1  0  0  0
 23 56  1  0  0  0
 24 57  1  0  0  0
 25 57  1  0  0  0
 25 60  1  0  0  0
 25 61  1  0  0  0
 25 62  1  0  0  0
 26 58  1  0  0  0
 27 58  1  0  0  0
 28 59  1  0  0  0
 29 59  1  0  0  0
 30 31  2  0  0  0
 30 32  2  0  0  0
 30 33  1  0  0  0
 30 51  1  0  0  0
 33 34  1  0  0  0
 33 38  2  0  0  0
 34 35  2  0  0  0
 35 36  1  0  0  0
 36 37  2  0  0  0
 37 38  1  0  0  0
 40 41  1  0  0  0
 40 50  2  0  0  0
 40 54  1  0  0  0
 41 42  1  0  0  0
 41 51  1  0  0  0
 42 43  1  0  0  0
 43 44  2  0  0  0
 43 45  1  0  0  0
 44 46  1  0  0  0
 45 47  2  0  0  0
 46 48  2  0  0  0
 46 49  1  0  0  0
 47 48  1  0  0  0
 49 52  2  0  0  0
 49 53  1  0  0  0
 54 55  1  0  0  0
 54 59  1  0  0  0
 55 56  1  0  0  0
 56 57  1  0  0  0
 57 58  1  0  0  0
 58 59  1  0  0  0
M  CHG  1  52   1
M  END
>  <ACTIVITY>
7.59

>  <SET>
1

>  <Min_dist>
999.9

>  <Avg_dist>
999.9

$$$$
16
  Cerius2 12110214423D 1   1.00000                          
Structure written by Cerius2 SD Exporter
 74 76  0  0  0  0  0  0  0  0999 V2000
    3.6288   -8.4257   13.6290 C   0  0  0  0  0  0
    4.4730   -6.2784   14.6066 H   0  0  0  0  0  0
    9.1533   -6.5946   14.5036 C   0  0  0  0  0  0
    8.7720   -9.3381   13.4575 C   0  0  0  0  0  0
    6.8423   -5.0535   15.0805 O   0  0  0  0  0  0
    5.7621   -4.1520   15.4135 C   0  0  0  0  0  0
    6.2061   -3.2119   15.7756 H   0  0  0  0  0  0
    6.7456   -9.2792   10.4312 H   0  0  0  0  0  0
    5.2134  -10.4507    8.6855 H   0  0  0  0  0  0
    6.1521   -9.0704    8.1061 H   0  0  0  0  0  0
    2.7924  -10.3100    8.5823 H   0  0  0  0  0  0
    5.1013   -6.8140    7.7511 H   0  0  0  0  0  0
    3.0900   -5.6837    6.8849 H   0  0  0  0  0  0
    0.9056   -6.7528    7.0183 H   0  0  0  0  0  0
    4.0287  -10.1182   10.9768 H   0  0  0  0  0  0
   -1.5942   -9.4343    7.0089 H   0  0  0  0  0  0
   -0.5693   -8.1510    6.3784 H   0  0  0  0  0  0
    0.8157  -10.7871    9.1569 H   0  0  0  0  0  0
   -0.8009  -10.9391    8.4822 H   0  0  0  0  0  0
    7.5596   -6.2986    8.4356 H   0  0  0  0  0  0
    7.8711   -7.8354    9.2388 H   0  0  0  0  0  0
    9.6651   -6.1672    9.6782 H   0  0  0  0  0  0
    8.8737   -6.7272   11.1807 H   0  0  0  0  0  0
   10.8869   -3.7649   10.9784 C   0  0  0  0  0  0
    9.3215   -3.4834   10.1233 S   0  0  0  0  0  0
    6.8718   -3.4820   11.4756 H   0  0  0  0  0  0
    7.0834   -5.0779   12.2381 H   0  0  0  0  0  0
    4.9859   -4.9954   10.8535 H   0  0  0  0  0  0
    5.9542   -4.5854    9.4219 H   0  0  0  0  0  0
    5.7803  -10.4475   12.6097 S   0  0  0  0  0  0
    6.9407  -11.1775   12.1486 O   0  0  0  0  0  0
    4.8268  -11.1433   13.4561 O   0  0  0  0  0  0
    6.2228   -8.8943   13.4055 C   0  0  0  0  0  0
    5.1304   -8.0921   13.7676 C   0  0  0  0  0  0
    5.3541   -6.8405   14.3357 C   0  0  0  0  0  0
    6.6382   -6.3424   14.5511 C   0  0  0  0  0  0
    7.7373   -7.1553   14.2323 C   0  0  0  0  0  0
    7.5328   -8.4424   13.6925 C   0  0  0  0  0  0
    5.0931   -4.5102   16.2085 H   0  0  0  0  0  0
    5.4750   -7.5303   10.4877 C   0  0  0  0  0  0
    5.6988   -9.0070   10.2408 C   0  0  0  0  0  0
    5.3263   -9.3589    8.7722 C   0  0  0  0  0  0
    4.0608   -8.6411    8.2582 C   0  0  0  0  0  0
    2.8170   -9.2846    8.2415 C   0  0  0  0  0  0
    4.1507   -7.3343    7.7703 C   0  0  0  0  0  0
    1.6477   -8.6525    7.7852 C   0  0  0  0  0  0
    3.0083   -6.6879    7.2920 C   0  0  0  0  0  0
    1.7685   -7.3254    7.3365 C   0  0  0  0  0  0
    0.3056   -9.3731    7.7681 C   0  0  0  0  0  0
    4.4252   -7.2735   11.0522 O   0  0  0  0  0  0
    4.9678   -9.8416   11.1912 N   0  0  0  0  0  0
   -0.6804   -8.9559    7.0062 N   0  3  0  0  0  0
    0.0977  -10.4348    8.5137 N   0  0  0  0  0  0
    6.3296   -6.5331   10.1069 N   0  0  0  0  0  0
    7.6001   -6.7899    9.4205 C   0  0  0  0  0  0
    8.7302   -6.1431   10.2581 C   0  0  0  0  0  0
    8.3462   -4.7792   10.6052 N   0  0  0  0  0  0
    7.0742   -4.5456   11.2776 C   0  0  0  0  0  0
    5.9677   -5.1381   10.3756 C   0  0  0  0  0  0
    8.7719   -2.2415   10.6320 O   0  0  0  0  0  0
    9.5567   -3.6070    8.6985 O   0  0  0  0  0  0
   10.7334   -3.7285   12.0670 H   0  0  0  0  0  0
   11.5836   -2.9651   10.6858 H   0  0  0  0  0  0
   11.3270   -4.7340   10.7046 H   0  0  0  0  0  0
    5.1496   -3.9428   14.5256 H   0  0  0  0  0  0
    3.3701   -9.3443   13.1027 H   0  0  0  0  0  0
    3.1125   -7.6052   13.1065 H   0  0  0  0  0  0
    3.2053   -8.4900   14.6430 H   0  0  0  0  0  0
    9.1543   -5.5785   14.9164 H   0  0  0  0  0  0
    9.7294   -6.5555   13.5653 H   0  0  0  0  0  0
    9.6787   -7.2198   15.2437 H   0  0  0  0  0  0
    8.9044   -9.6304   12.4081 H   0  0  0  0  0  0
    8.6879  -10.2339   14.0872 H   0  0  0  0  0  0
    9.7196   -8.8690   13.7367 H   0  0  0  0  0  0
  1 34  1  0  0  0
  1 66  1  0  0  0
  1 67  1  0  0  0
  1 68  1  0  0  0
  2 35  1  0  0  0
  3 37  1  0  0  0
  3 69  1  0  0  0
  3 70  1  0  0  0
  3 71  1  0  0  0
  4 38  1  0  0  0
  4 72  1  0  0  0
  4 73  1  0  0  0
  4 74  1  0  0  0
  5  6  1  0  0  0
  5 36  1  0  0  0
  6  7  1  0  0  0
  6 39  1  0  0  0
  6 65  1  0  0  0
  8 41  1  0  0  0
  9 42  1  0  0  0
 10 42  1  0  0  0
 11 44  1  0  0  0
 12 45  1  0  0  0
 13 47  1  0  0  0
 14 48  1  0  0  0
 15 51  1  0  0  0
 16 52  1  0  0  0
 17 52  1  0  0  0
 18 53  1  0  0  0
 19 53  1  0  0  0
 20 55  1  0  0  0
 21 55  1  0  0  0
 22 56  1  0  0  0
 23 56  1  0  0  0
 24 25  1  0  0  0
 24 62  1  0  0  0
 24 63  1  0  0  0
 24 64  1  0  0  0
 25 57  1  0  0  0
 25 60  2  0  0  0
 25 61  2  0  0  0
 26 58  1  0  0  0
 27 58  1  0  0  0
 28 59  1  0  0  0
 29 59  1  0  0  0
 30 31  2  0  0  0
 30 32  2  0  0  0
 30 33  1  0  0  0
 30 51  1  0  0  0
 33 34  1  0  0  0
 33 38  2  0  0  0
 34 35  2  0  0  0
 35 36  1  0  0  0
 36 37  2  0  0  0
 37 38  1  0  0  0
 40 41  1  0  0  0
 40 50  2  0  0  0
 40 54  1  0  0  0
 41 42  1  0  0  0
 41 51  1  0  0  0
 42 43  1  0  0  0
 43 44  2  0  0  0
 43 45  1  0  0  0
 44 46  1  0  0  0
 45 47  2  0  0  0
 46 48  2  0  0  0
 46 49  1  0  0  0
 47 48  1  0  0  0
 49 52  2  0  0  0
 49 53  1  0  0  0
 54 55  1  0  0  0
 54 59  1  0  0  0
 55 56  1  0  0  0
 56 57  1  0  0  0
 57 58  1  0  0  0
 58 59  1  0  0  0
M  CHG  1  52   1
M  END
>  <ACTIVITY>
7.49

>  <SET>
2

>  <Min_dist>
0.12

>  <Avg_dist>
0.32

$$$$
17
  Cerius2 12110214423D 1   1.00000                          
Structure written by Cerius2 SD Exporter
 73 76  0  0  0  0  0  0  0  0999 V2000
    3.9340   -6.4861   15.5694 C   0  0  0  0  0  0
    4.2186   -4.9960   15.8805 C   0  0  0  0  0  0
    5.6779   -4.8026   16.3793 C   0  0  0  0  0  0
    6.7750   -9.3098   10.3975 H   0  0  0  0  0  0
    5.2412  -10.4896    8.6623 H   0  0  0  0  0  0
    6.1598   -9.1114    8.0515 H   0  0  0  0  0  0
    2.7966  -10.3796    8.5155 H   0  0  0  0  0  0
    5.1088   -6.8543    7.7463 H   0  0  0  0  0  0
    3.0746   -5.6745    7.0058 H   0  0  0  0  0  0
    0.8779   -6.7573    7.1779 H   0  0  0  0  0  0
    3.9786   -9.9462   11.0069 H   0  0  0  0  0  0
   -1.5838   -9.3729    7.0517 H   0  0  0  0  0  0
   -0.5345   -8.0711    6.4828 H   0  0  0  0  0  0
    0.8801  -10.8531    9.0938 H   0  0  0  0  0  0
   -0.7686  -10.9731    8.4710 H   0  0  0  0  0  0
    7.5541   -6.2230    8.4330 H   0  0  0  0  0  0
    7.8165   -7.8162    9.1371 H   0  0  0  0  0  0
    9.6654   -6.3164    9.7767 H   0  0  0  0  0  0
    8.7265   -6.8052   11.2163 H   0  0  0  0  0  0
    8.4433   -4.1396    9.6900 H   0  0  0  0  0  0
    9.5348   -4.1783   11.5700 C   0  0  0  0  0  0
    6.8185   -3.4938   11.4720 H   0  0  0  0  0  0
    7.0145   -5.0860   12.2553 H   0  0  0  0  0  0
    4.9513   -5.0510   10.8935 H   0  0  0  0  0  0
    5.8673   -4.6001    9.4445 H   0  0  0  0  0  0
    5.7064  -10.4679   12.6109 S   0  0  0  0  0  0
    6.9871  -11.0609   12.2756 O   0  0  0  0  0  0
    4.7285  -11.2471   13.3446 O   0  0  0  0  0  0
    6.5870   -5.2576   15.3654 O   0  0  0  0  0  0
    7.4341   -7.1237   14.1125 C   0  0  0  0  0  0
    7.2390   -8.3334   13.4435 C   0  0  0  0  0  0
    5.9819   -8.9420   13.4693 C   0  0  0  0  0  0
    4.9241   -8.3275   14.1444 C   0  0  0  0  0  0
    5.1122   -7.1139   14.8133 C   0  0  0  0  0  0
    6.3715   -6.5008   14.7735 C   0  0  0  0  0  0
    5.4901   -7.5670   10.5007 C   0  0  0  0  0  0
    5.7282   -9.0339   10.2063 C   0  0  0  0  0  0
    5.3500   -9.3966    8.7393 C   0  0  0  0  0  0
    4.0749   -8.6857    8.2466 C   0  0  0  0  0  0
    2.8343   -9.3371    8.2240 C   0  0  0  0  0  0
    4.1540   -7.3664    7.7883 C   0  0  0  0  0  0
    1.6661   -8.6744    7.8191 C   0  0  0  0  0  0
    3.0037   -6.6939    7.3733 C   0  0  0  0  0  0
    1.7619   -7.3316    7.4322 C   0  0  0  0  0  0
    0.3201   -9.3850    7.7921 C   0  0  0  0  0  0
    4.4783   -7.3443   11.1474 O   0  0  0  0  0  0
    4.9620   -9.8358   11.1542 N   0  0  0  0  0  0
   -0.6622   -8.9094    7.0659 N   0  3  0  0  0  0
    0.1347  -10.4755    8.4939 N   0  0  0  0  0  0
    6.3028   -6.5482   10.0891 N   0  0  0  0  0  0
    7.5679   -6.7781    9.3842 C   0  0  0  0  0  0
    8.6928   -6.2147   10.2869 C   0  0  0  0  0  0
    8.4267   -4.7224   10.6282 C   0  0  0  0  0  0
    7.0294   -4.5605   11.2883 C   0  0  0  0  0  0
    5.9242   -5.1648   10.3889 C   0  0  0  0  0  0
   10.5246   -4.2781   11.0981 H   0  0  0  0  0  0
    9.5403   -4.7393   12.5171 H   0  0  0  0  0  0
    9.3605   -3.1145   11.7938 H   0  0  0  0  0  0
    8.4165   -6.6623   14.1145 H   0  0  0  0  0  0
    8.0617   -8.7944   12.9074 H   0  0  0  0  0  0
    3.9477   -8.7987   14.1474 H   0  0  0  0  0  0
    3.7698   -7.0605   16.4947 H   0  0  0  0  0  0
    3.0142   -6.5626   14.9660 H   0  0  0  0  0  0
    4.0840   -4.4224   14.9487 H   0  0  0  0  0  0
    3.4961   -4.6163   16.6219 H   0  0  0  0  0  0
    5.9889   -3.2887   16.5308 C   0  0  0  0  0  0
    5.9412   -5.5436   17.7234 C   0  0  0  0  0  0
    5.3318   -2.8251   17.2812 H   0  0  0  0  0  0
    5.8408   -2.7769   15.5665 H   0  0  0  0  0  0
    7.0371   -3.1407   16.8337 H   0  0  0  0  0  0
    5.2429   -5.1849   18.4953 H   0  0  0  0  0  0
    6.9681   -5.3503   18.0688 H   0  0  0  0  0  0
    5.8262   -6.6331   17.6284 H   0  0  0  0  0  0
  1  2  1  0  0  0
  1 34  1  0  0  0
  1 62  1  0  0  0
  1 63  1  0  0  0
  2  3  1  0  0  0
  2 64  1  0  0  0
  2 65  1  0  0  0
  3 29  1  0  0  0
  3 66  1  0  0  0
  3 67  1  0  0  0
  4 37  1  0  0  0
  5 38  1  0  0  0
  6 38  1  0  0  0
  7 40  1  0  0  0
  8 41  1  0  0  0
  9 43  1  0  0  0
 10 44  1  0  0  0
 11 47  1  0  0  0
 12 48  1  0  0  0
 13 48  1  0  0  0
 14 49  1  0  0  0
 15 49  1  0  0  0
 16 51  1  0  0  0
 17 51  1  0  0  0
 18 52  1  0  0  0
 19 52  1  0  0  0
 20 53  1  0  0  0
 21 53  1  0  0  0
 21 56  1  0  0  0
 21 57  1  0  0  0
 21 58  1  0  0  0
 22 54  1  0  0  0
 23 54  1  0  0  0
 24 55  1  0  0  0
 25 55  1  0  0  0
 26 27  2  0  0  0
 26 28  2  0  0  0
 26 32  1  0  0  0
 26 47  1  0  0  0
 29 35  1  0  0  0
 30 31  1  0  0  0
 30 35  2  0  0  0
 30 59  1  0  0  0
 31 32  2  0  0  0
 31 60  1  0  0  0
 32 33  1  0  0  0
 33 34  2  0  0  0
 33 61  1  0  0  0
 34 35  1  0  0  0
 36 37  1  0  0  0
 36 46  2  0  0  0
 36 50  1  0  0  0
 37 38  1  0  0  0
 37 47  1  0  0  0
 38 39  1  0  0  0
 39 40  2  0  0  0
 39 41  1  0  0  0
 40 42  1  0  0  0
 41 43  2  0  0  0
 42 44  2  0  0  0
 42 45  1  0  0  0
 43 44  1  0  0  0
 45 48  2  0  0  0
 45 49  1  0  0  0
 50 51  1  0  0  0
 50 55  1  0  0  0
 51 52  1  0  0  0
 52 53  1  0  0  0
 53 54  1  0  0  0
 54 55  1  0  0  0
 66 68  1  0  0  0
 66 69  1  0  0  0
 66 70  1  0  0  0
 67 71  1  0  0  0
 67 72  1  0  0  0
 67 73  1  0  0  0
M  CHG  1  48   1
M  END
>  <ACTIVITY>
7.47

>  <SET>
1

>  <Min_dist>
999.9

>  <Avg_dist>
999.9

$$$$
18
  Cerius2 12110214423D 1   1.00000                          
Structure written by Cerius2 SD Exporter
 66 70  0  0  0  0  0  0  0  0999 V2000
    4.0886   -6.0048   14.9499 C   0  0  0  0  0  0
    4.3848   -4.7645   15.5263 C   0  0  0  0  0  0
    5.7006   -4.2960   15.5283 C   0  0  0  0  0  0
    6.7137   -5.0556   14.9409 C   0  0  0  0  0  0
    6.7817   -9.4156   10.3555 H   0  0  0  0  0  0
    5.4480  -10.4032    8.4184 H   0  0  0  0  0  0
    6.2975   -8.9094    7.9850 H   0  0  0  0  0  0
    3.0351  -10.4119    8.3968 H   0  0  0  0  0  0
    5.0619   -6.8106    7.6367 H   0  0  0  0  0  0
    2.9742   -5.6325    7.0900 H   0  0  0  0  0  0
    0.8633   -6.8058    7.2581 H   0  0  0  0  0  0
    3.9270   -9.9675   10.7079 H   0  0  0  0  0  0
   -1.5161   -9.5544    7.4673 H   0  0  0  0  0  0
   -0.6155   -8.2196    6.7911 H   0  0  0  0  0  0
    1.2073  -10.9205    9.2578 H   0  0  0  0  0  0
   -0.4629  -11.1234    8.8011 H   0  0  0  0  0  0
    6.0921   -5.2482   10.5769 C   0  0  0  0  0  0
    6.4830   -6.6039   10.1866 N   0  0  0  0  0  0
    7.7375   -6.8311    9.4632 C   0  0  0  0  0  0
    8.8646   -6.0526   10.1840 C   0  0  0  0  0  0
    9.4908   -3.5878    9.9875 C   0  0  0  0  0  0
    9.1323   -2.2410    9.8775 C   0  0  0  0  0  0
    7.7861   -1.8716    9.9300 C   0  0  0  0  0  0
    6.8035   -2.8445   10.1373 C   0  0  0  0  0  0
    7.1626   -4.1889   10.2853 C   0  0  0  0  0  0
    5.4363  -10.3873   12.5521 S   0  0  0  0  0  0
    6.6534  -11.1570   12.3832 O   0  0  0  0  0  0
    4.3138  -10.9620   13.2678 O   0  0  0  0  0  0
    7.4305   -7.0635   13.7717 C   0  0  0  0  0  0
    7.1375   -8.3141   13.2178 C   0  0  0  0  0  0
    5.8311   -8.8080   13.2628 C   0  0  0  0  0  0
    4.8173   -8.0346   13.8292 C   0  0  0  0  0  0
    5.1040   -6.7779   14.3818 C   0  0  0  0  0  0
    6.4212   -6.2996   14.3628 C   0  0  0  0  0  0
    3.0608   -6.3556   14.9525 H   0  0  0  0  0  0
    5.5881   -7.5999   10.4476 C   0  0  0  0  0  0
    5.7703   -9.0636   10.1077 C   0  0  0  0  0  0
    5.4839   -9.3183    8.6032 C   0  0  0  0  0  0
    4.1641   -8.6589    8.1698 C   0  0  0  0  0  0
    2.9609   -9.3585    8.1772 C   0  0  0  0  0  0
    4.1354   -7.3364    7.7337 C   0  0  0  0  0  0
    1.7486   -8.7155    7.8897 C   0  0  0  0  0  0
    2.9551   -6.6723    7.4071 C   0  0  0  0  0  0
    1.7544   -7.3678    7.4975 C   0  0  0  0  0  0
    0.4465   -9.4843    8.0049 C   0  0  0  0  0  0
    4.5268   -7.3337   10.9912 O   0  0  0  0  0  0
    4.8831   -9.8379   10.9687 N   0  0  0  0  0  0
   -0.6260   -9.0536    7.3861 N   0  3  0  0  0  0
    0.4007  -10.5790    8.7266 N   0  0  0  0  0  0
    8.5046   -4.5648   10.1589 C   0  0  0  0  0  0
    5.8948   -5.2104   11.6593 H   0  0  0  0  0  0
    5.1683   -4.9790   10.0390 H   0  0  0  0  0  0
    7.6145   -6.4151    8.4504 H   0  0  0  0  0  0
    9.8220   -6.2278    9.6652 H   0  0  0  0  0  0
    8.9601   -6.3923   11.2269 H   0  0  0  0  0  0
   10.5371   -3.8706    9.9327 H   0  0  0  0  0  0
    3.5942   -4.1690   15.9710 H   0  0  0  0  0  0
    5.9345   -3.3399   15.9878 H   0  0  0  0  0  0
    7.7299   -4.6738   14.9379 H   0  0  0  0  0  0
    8.4519   -6.6967   13.7379 H   0  0  0  0  0  0
    7.9261   -8.8967   12.7550 H   0  0  0  0  0  0
    3.8019   -8.4158   13.8359 H   0  0  0  0  0  0
    9.8995   -1.4836    9.7498 H   0  0  0  0  0  0
    7.5036   -0.8299    9.8119 H   0  0  0  0  0  0
    5.7597   -2.5491   10.1810 H   0  0  0  0  0  0
    8.0582   -7.8755    9.3541 H   0  0  0  0  0  0
  1  2  1  0  0  0
  1 33  2  0  0  0
  1 35  1  0  0  0
  2  3  2  0  0  0
  2 57  1  0  0  0
  3  4  1  0  0  0
  3 58  1  0  0  0
  4 34  2  0  0  0
  4 59  1  0  0  0
  5 37  1  0  0  0
  6 38  1  0  0  0
  7 38  1  0  0  0
  8 40  1  0  0  0
  9 41  1  0  0  0
 10 43  1  0  0  0
 11 44  1  0  0  0
 12 47  1  0  0  0
 13 48  1  0  0  0
 14 48  1  0  0  0
 15 49  1  0  0  0
 16 49  1  0  0  0
 17 18  1  0  0  0
 17 25  1  0  0  0
 17 51  1  0  0  0
 17 52  1  0  0  0
 18 19  1  0  0  0
 18 36  1  0  0  0
 19 20  1  0  0  0
 19 53  1  0  0  0
 19 66  1  0  0  0
 20 50  1  0  0  0
 20 54  1  0  0  0
 20 55  1  0  0  0
 21 22  1  0  0  0
 21 50  2  0  0  0
 21 56  1  0  0  0
 22 23  2  0  0  0
 22 63  1  0  0  0
 23 24  1  0  0  0
 23 64  1  0  0  0
 24 25  2  0  0  0
 24 65  1  0  0  0
 25 50  1  0  0  0
 26 27  2  0  0  0
 26 28  2  0  0  0
 26 31  1  0  0  0
 26 47  1  0  0  0
 29 30  2  0  0  0
 29 34  1  0  0  0
 29 60  1  0  0  0
 30 31  1  0  0  0
 30 61  1  0  0  0
 31 32  2  0  0  0
 32 33  1  0  0  0
 32 62  1  0  0  0
 33 34  1  0  0  0
 36 37  1  0  0  0
 36 46  2  0  0  0
 37 38  1  0  0  0
 37 47  1  0  0  0
 38 39  1  0  0  0
 39 40  2  0  0  0
 39 41  1  0  0  0
 40 42  1  0  0  0
 41 43  2  0  0  0
 42 44  2  0  0  0
 42 45  1  0  0  0
 43 44  1  0  0  0
 45 48  2  0  0  0
 45 49  1  0  0  0
M  CHG  1  48   1
M  END
>  <ACTIVITY>
7.43

>  <SET>
1

>  <Min_dist>
999.9

>  <Avg_dist>
999.9

$$$$
19
  Cerius2 12110214423D 1   1.00000                          
Structure written by Cerius2 SD Exporter
 63 66  0  0  0  0  0  0  0  0999 V2000
    3.8979   -6.3618   15.2931 C   0  0  0  0  0  0
    4.0694   -5.1468   15.9627 C   0  0  0  0  0  0
    5.3389   -4.5699   16.0428 C   0  0  0  0  0  0
    6.4340   -5.2079   15.4544 C   0  0  0  0  0  0
    6.7635   -9.3096   10.4041 H   0  0  0  0  0  0
    5.2569  -10.4949    8.6517 H   0  0  0  0  0  0
    6.1721   -9.1128    8.0408 H   0  0  0  0  0  0
    2.8047  -10.3941    8.5086 H   0  0  0  0  0  0
    5.1151   -6.8602    7.7431 H   0  0  0  0  0  0
    3.0653   -5.6584    7.0764 H   0  0  0  0  0  0
    0.8699   -6.7622    7.2332 H   0  0  0  0  0  0
    3.9522   -9.9202   10.9745 H   0  0  0  0  0  0
   -1.5688   -9.3629    7.0724 H   0  0  0  0  0  0
   -0.5153   -8.0499    6.5300 H   0  0  0  0  0  0
    0.9190  -10.8736    9.0818 H   0  0  0  0  0  0
   -0.7396  -10.9928    8.4778 H   0  0  0  0  0  0
    7.6851   -6.1752    8.5389 H   0  0  0  0  0  0
    7.8267   -7.8275    9.1446 H   0  0  0  0  0  0
    9.6666   -6.4673   10.0953 H   0  0  0  0  0  0
    8.5333   -6.9001   11.3982 H   0  0  0  0  0  0
    9.2329   -3.9647   10.3549 C   0  0  0  0  0  0
    9.0878   -2.7675   10.5379 O   0  0  0  0  0  0
    6.8971   -3.4481   11.3908 H   0  0  0  0  0  0
    6.9806   -4.9570   12.3308 H   0  0  0  0  0  0
    4.9683   -5.0303   10.9012 H   0  0  0  0  0  0
    5.9203   -4.5966    9.4677 H   0  0  0  0  0  0
    5.6616  -10.4222   12.6266 S   0  0  0  0  0  0
    6.9460  -11.0215   12.3177 O   0  0  0  0  0  0
    4.6682  -11.1910   13.3501 O   0  0  0  0  0  0
    7.3595   -7.0772   14.2002 C   0  0  0  0  0  0
    7.1865   -8.2996   13.5434 C   0  0  0  0  0  0
    5.9176   -8.8793   13.4685 C   0  0  0  0  0  0
    4.8237   -8.2234   14.0368 C   0  0  0  0  0  0
    4.9924   -7.0049   14.7052 C   0  0  0  0  0  0
    6.2675   -6.4280   14.7865 C   0  0  0  0  0  0
    2.9055   -6.7989   15.2368 H   0  0  0  0  0  0
    5.4780   -7.5586   10.4819 C   0  0  0  0  0  0
    5.7218   -9.0267   10.1945 C   0  0  0  0  0  0
    5.3619   -9.4012    8.7269 C   0  0  0  0  0  0
    4.0839   -8.6930    8.2439 C   0  0  0  0  0  0
    2.8461   -9.3484    8.2267 C   0  0  0  0  0  0
    4.1586   -7.3689    7.7979 C   0  0  0  0  0  0
    1.6769   -8.6792    7.8392 C   0  0  0  0  0  0
    3.0014   -6.6879    7.4159 C   0  0  0  0  0  0
    1.7625   -7.3303    7.4724 C   0  0  0  0  0  0
    0.3350   -9.3917    7.8097 C   0  0  0  0  0  0
    4.4456   -7.3277   11.0919 O   0  0  0  0  0  0
    4.9340   -9.8130   11.1350 N   0  0  0  0  0  0
   -0.6471   -8.9006    7.0952 N   0  3  0  0  0  0
    0.1622  -10.4927    8.4971 N   0  0  0  0  0  0
    6.3116   -6.5465   10.1014 N   0  0  0  0  0  0
    7.5987   -6.7977    9.4438 C   0  0  0  0  0  0
    8.6433   -6.3166   10.4714 C   0  0  0  0  0  0
    8.3363   -4.9130   10.7278 N   0  0  0  0  0  0
    7.0497   -4.5374   11.3150 C   0  0  0  0  0  0
    5.9492   -5.1577   10.4152 C   0  0  0  0  0  0
   10.1621   -4.2367    9.8527 H   0  0  0  0  0  0
    3.2175   -4.6530   16.4198 H   0  0  0  0  0  0
    5.4733   -3.6260   16.5627 H   0  0  0  0  0  0
    7.4144   -4.7463   15.5224 H   0  0  0  0  0  0
    8.3518   -6.6386   14.2494 H   0  0  0  0  0  0
    8.0394   -8.7964   13.0943 H   0  0  0  0  0  0
    3.8400   -8.6730   13.9532 H   0  0  0  0  0  0
  1  2  1  0  0  0
  1 34  2  0  0  0
  1 36  1  0  0  0
  2  3  2  0  0  0
  2 58  1  0  0  0
  3  4  1  0  0  0
  3 59  1  0  0  0
  4 35  2  0  0  0
  4 60  1  0  0  0
  5 38  1  0  0  0
  6 39  1  0  0  0
  7 39  1  0  0  0
  8 41  1  0  0  0
  9 42  1  0  0  0
 10 44  1  0  0  0
 11 45  1  0  0  0
 12 48  1  0  0  0
 13 49  1  0  0  0
 14 49  1  0  0  0
 15 50  1  0  0  0
 16 50  1  0  0  0
 17 52  1  0  0  0
 18 52  1  0  0  0
 19 53  1  0  0  0
 20 53  1  0  0  0
 21 22  2  0  0  0
 21 54  1  0  0  0
 21 57  1  0  0  0
 23 55  1  0  0  0
 24 55  1  0  0  0
 25 56  1  0  0  0
 26 56  1  0  0  0
 27 28  2  0  0  0
 27 29  2  0  0  0
 27 32  1  0  0  0
 27 48  1  0  0  0
 30 31  2  0  0  0
 30 35  1  0  0  0
 30 61  1  0  0  0
 31 32  1  0  0  0
 31 62  1  0  0  0
 32 33  2  0  0  0
 33 34  1  0  0  0
 33 63  1  0  0  0
 34 35  1  0  0  0
 37 38  1  0  0  0
 37 47  2  0  0  0
 37 51  1  0  0  0
 38 39  1  0  0  0
 38 48  1  0  0  0
 39 40  1  0  0  0
 40 41  2  0  0  0
 40 42  1  0  0  0
 41 43  1  0  0  0
 42 44  2  0  0  0
 43 45  2  0  0  0
 43 46  1  0  0  0
 44 45  1  0  0  0
 46 49  2  0  0  0
 46 50  1  0  0  0
 51 52  1  0  0  0
 51 56  1  0  0  0
 52 53  1  0  0  0
 53 54  1  0  0  0
 54 55  1  0  0  0
 55 56  1  0  0  0
M  CHG  1  49   1
M  END
>  <ACTIVITY>
7.43

>  <SET>
1

>  <Min_dist>
999.9

>  <Avg_dist>
999.9

$$$$
20
  Cerius2 12110214423D 1   1.00000                          
Structure written by Cerius2 SD Exporter
 61 64  0  0  0  0  0  0  0  0999 V2000
    3.8980   -6.3621   15.2928 C   0  0  0  0  0  0
    4.0694   -5.1465   15.9628 C   0  0  0  0  0  0
    5.3389   -4.5699   16.0427 C   0  0  0  0  0  0
    6.4339   -5.2076   15.4543 C   0  0  0  0  0  0
    6.7814   -9.2897   10.3883 H   0  0  0  0  0  0
    5.2578  -10.4950    8.6501 H   0  0  0  0  0  0
    6.1792   -9.1071    8.0457 H   0  0  0  0  0  0
    2.8048  -10.3941    8.5086 H   0  0  0  0  0  0
    5.1163   -6.8600    7.7458 H   0  0  0  0  0  0
    3.0653   -5.6584    7.0766 H   0  0  0  0  0  0
    0.8699   -6.7622    7.2333 H   0  0  0  0  0  0
    3.9538   -9.9196   10.9741 H   0  0  0  0  0  0
   -1.5688   -9.3628    7.0725 H   0  0  0  0  0  0
   -0.5153   -8.0497    6.5302 H   0  0  0  0  0  0
    0.9191  -10.8738    9.0817 H   0  0  0  0  0  0
   -0.7395  -10.9929    8.4777 H   0  0  0  0  0  0
    6.3756   -6.6500   10.2665 O   0  0  0  0  0  0
    5.8741   -5.3439   10.6253 C   0  0  0  0  0  0
    6.9194   -4.2635   10.3675 C   0  0  0  0  0  0
    6.9473   -3.1121   11.1612 C   0  0  0  0  0  0
    7.9086   -2.1260   10.9256 C   0  0  0  0  0  0
    8.8403   -2.2911    9.8969 C   0  0  0  0  0  0
    8.8117   -3.4415    9.1036 C   0  0  0  0  0  0
    7.8506   -4.4277    9.3381 C   0  0  0  0  0  0
    4.9773   -5.1069   10.0255 H   0  0  0  0  0  0
    5.6081   -5.3379   11.6973 H   0  0  0  0  0  0
    5.6619  -10.4223   12.6266 S   0  0  0  0  0  0
    6.9460  -11.0216   12.3178 O   0  0  0  0  0  0
    4.6680  -11.1908   13.3499 O   0  0  0  0  0  0
    7.3590   -7.0761   14.1994 C   0  0  0  0  0  0
    7.1864   -8.2990   13.5423 C   0  0  0  0  0  0
    5.9176   -8.8790   13.4682 C   0  0  0  0  0  0
    4.8237   -8.2235   14.0364 C   0  0  0  0  0  0
    4.9919   -7.0045   14.7051 C   0  0  0  0  0  0
    6.2676   -6.4277   14.7856 C   0  0  0  0  0  0
    2.9055   -6.7989   15.2369 H   0  0  0  0  0  0
    5.4455   -7.5903   10.4945 C   0  0  0  0  0  0
    5.7289   -9.0368   10.1911 C   0  0  0  0  0  0
    5.3639   -9.4014    8.7243 C   0  0  0  0  0  0
    4.0844   -8.6932    8.2431 C   0  0  0  0  0  0
    2.8461   -9.3484    8.2265 C   0  0  0  0  0  0
    4.1590   -7.3688    7.7981 C   0  0  0  0  0  0
    1.6771   -8.6792    7.8393 C   0  0  0  0  0  0
    3.0015   -6.6879    7.4159 C   0  0  0  0  0  0
    1.7626   -7.3302    7.4725 C   0  0  0  0  0  0
    0.3350   -9.3917    7.8098 C   0  0  0  0  0  0
    4.3457   -7.3184   10.9481 O   0  0  0  0  0  0
    4.9369   -9.8153   11.1338 N   0  0  0  0  0  0
   -0.6471   -8.9006    7.0953 N   0  3  0  0  0  0
    0.1623  -10.4928    8.4970 N   0  0  0  0  0  0
    6.2239   -2.9818   11.9605 H   0  0  0  0  0  0
    7.9305   -1.2330   11.5417 H   0  0  0  0  0  0
    9.5867   -1.5253    9.7137 H   0  0  0  0  0  0
    9.5348   -3.5703    8.3049 H   0  0  0  0  0  0
    7.8299   -5.3190    8.7192 H   0  0  0  0  0  0
    3.2175   -4.6530   16.4198 H   0  0  0  0  0  0
    5.4733   -3.6259   16.5627 H   0  0  0  0  0  0
    7.4144   -4.7463   15.5225 H   0  0  0  0  0  0
    8.3517   -6.6383   14.2490 H   0  0  0  0  0  0
    8.0397   -8.7947   13.0928 H   0  0  0  0  0  0
    3.8399   -8.6729   13.9531 H   0  0  0  0  0  0
  1  2  1  0  0  0
  1 34  2  0  0  0
  1 36  1  0  0  0
  2  3  2  0  0  0
  2 56  1  0  0  0
  3  4  1  0  0  0
  3 57  1  0  0  0
  4 35  2  0  0  0
  4 58  1  0  0  0
  5 38  1  0  0  0
  6 39  1  0  0  0
  7 39  1  0  0  0
  8 41  1  0  0  0
  9 42  1  0  0  0
 10 44  1  0  0  0
 11 45  1  0  0  0
 12 48  1  0  0  0
 13 49  1  0  0  0
 14 49  1  0  0  0
 15 50  1  0  0  0
 16 50  1  0  0  0
 17 18  1  0  0  0
 17 37  1  0  0  0
 18 19  1  0  0  0
 18 25  1  0  0  0
 18 26  1  0  0  0
 19 20  1  0  0  0
 19 24  2  0  0  0
 20 21  2  0  0  0
 20 51  1  0  0  0
 21 22  1  0  0  0
 21 52  1  0  0  0
 22 23  2  0  0  0
 22 53  1  0  0  0
 23 24  1  0  0  0
 23 54  1  0  0  0
 24 55  1  0  0  0
 27 28  2  0  0  0
 27 29  2  0  0  0
 27 32  1  0  0  0
 27 48  1  0  0  0
 30 31  2  0  0  0
 30 35  1  0  0  0
 30 59  1  0  0  0
 31 32  1  0  0  0
 31 60  1  0  0  0
 32 33  2  0  0  0
 33 34  1  0  0  0
 33 61  1  0  0  0
 34 35  1  0  0  0
 37 38  1  0  0  0
 37 47  2  0  0  0
 38 39  1  0  0  0
 38 48  1  0  0  0
 39 40  1  0  0  0
 40 41  2  0  0  0
 40 42  1  0  0  0
 41 43  1  0  0  0
 42 44  2  0  0  0
 43 45  2  0  0  0
 43 46  1  0  0  0
 44 45  1  0  0  0
 46 49  2  0  0  0
 46 50  1  0  0  0
M  CHG  1  49   1
M  END
>  <ACTIVITY>
7.38

>  <SET>
2

>  <Min_dist>
0.04

>  <Avg_dist>
0.41

$$$$
21
  Cerius2 12110214423D 1   1.00000                          
Structure written by Cerius2 SD Exporter
 60 63  0  0  0  0  0  0  0  0999 V2000
    3.8871   -6.3493   15.2785 C   0  0  0  0  0  0
    4.0740   -5.1368   15.9468 C   0  0  0  0  0  0
    5.3493   -4.5716   16.0206 C   0  0  0  0  0  0
    6.4361   -5.2224   15.4297 C   0  0  0  0  0  0
    6.7478   -9.3129   10.4237 H   0  0  0  0  0  0
    5.2819  -10.4914    8.6338 H   0  0  0  0  0  0
    6.1941   -9.0918    8.0495 H   0  0  0  0  0  0
    2.8166  -10.4027    8.5103 H   0  0  0  0  0  0
    5.1155   -6.8605    7.7295 H   0  0  0  0  0  0
    3.0510   -5.6444    7.1368 H   0  0  0  0  0  0
    0.8595   -6.7715    7.2770 H   0  0  0  0  0  0
    3.9196   -9.9098   10.9407 H   0  0  0  0  0  0
   -1.5543   -9.3660    7.0985 H   0  0  0  0  0  0
   -0.5018   -8.0417    6.5751 H   0  0  0  0  0  0
    0.9598  -10.8893    9.0816 H   0  0  0  0  0  0
   -0.7072  -11.0143    8.4962 H   0  0  0  0  0  0
    7.6618   -6.2137    8.5338 H   0  0  0  0  0  0
    7.8698   -7.8244    9.2268 H   0  0  0  0  0  0
    9.6659   -6.2808   10.0255 H   0  0  0  0  0  0
    8.6482   -6.7987   11.3962 H   0  0  0  0  0  0
    6.9452   -3.5331   11.4745 H   0  0  0  0  0  0
    7.0277   -5.1071   12.3056 H   0  0  0  0  0  0
    4.9793   -5.0270   10.8946 H   0  0  0  0  0  0
    5.9426   -4.5898    9.4661 H   0  0  0  0  0  0
    5.6031  -10.4373   12.6250 S   0  0  0  0  0  0
    6.8789  -11.0612   12.3302 O   0  0  0  0  0  0
    4.5869  -11.1836   13.3405 O   0  0  0  0  0  0
    7.3412   -7.1100   14.1880 C   0  0  0  0  0  0
    7.1535   -8.3299   13.5326 C   0  0  0  0  0  0
    5.8776   -8.8944   13.4590 C   0  0  0  0  0  0
    4.7902   -8.2218   14.0212 C   0  0  0  0  0  0
    4.9742   -7.0060   14.6889 C   0  0  0  0  0  0
    6.2552   -6.4437   14.7694 C   0  0  0  0  0  0
    2.8901   -6.7756   15.2238 H   0  0  0  0  0  0
    5.4682   -7.5577   10.4667 C   0  0  0  0  0  0
    5.7116   -9.0279   10.1929 C   0  0  0  0  0  0
    5.3766   -9.3973    8.7196 C   0  0  0  0  0  0
    4.0937   -8.6949    8.2429 C   0  0  0  0  0  0
    2.8590   -9.3553    8.2333 C   0  0  0  0  0  0
    4.1597   -7.3683    7.8019 C   0  0  0  0  0  0
    1.6873   -8.6840    7.8597 C   0  0  0  0  0  0
    2.9954   -6.6823    7.4509 C   0  0  0  0  0  0
    1.7601   -7.3316    7.5062 C   0  0  0  0  0  0
    0.3501   -9.4015    7.8314 C   0  0  0  0  0  0
    4.4184   -7.3205   11.0439 O   0  0  0  0  0  0
    4.8996   -9.8104   11.1162 N   0  0  0  0  0  0
   -0.6339   -8.9020    7.1267 N   0  3  0  0  0  0
    0.1919  -10.5095    8.5097 N   0  0  0  0  0  0
    6.3159   -6.5496   10.1066 N   0  0  0  0  0  0
    7.6130   -6.7877    9.4726 C   0  0  0  0  0  0
    8.6563   -6.2152   10.4615 C   0  0  0  0  0  0
    8.3760   -4.8261   10.7284 O   0  0  0  0  0  0
    7.0788   -4.6158   11.3221 C   0  0  0  0  0  0
    5.9576   -5.1634   10.4066 C   0  0  0  0  0  0
    3.2292   -4.6347   16.4086 H   0  0  0  0  0  0
    5.4949   -3.6279   16.5372 H   0  0  0  0  0  0
    7.4205   -4.7686   15.4904 H   0  0  0  0  0  0
    8.3389   -6.6848   14.2401 H   0  0  0  0  0  0
    8.0005   -8.8368   13.0828 H   0  0  0  0  0  0
    3.8004   -8.6568   13.9327 H   0  0  0  0  0  0
  1  2  1  0  0  0
  1 32  2  0  0  0
  1 34  1  0  0  0
  2  3  2  0  0  0
  2 55  1  0  0  0
  3  4  1  0  0  0
  3 56  1  0  0  0
  4 33  2  0  0  0
  4 57  1  0  0  0
  5 36  1  0  0  0
  6 37  1  0  0  0
  7 37  1  0  0  0
  8 39  1  0  0  0
  9 40  1  0  0  0
 10 42  1  0  0  0
 11 43  1  0  0  0
 12 46  1  0  0  0
 13 47  1  0  0  0
 14 47  1  0  0  0
 15 48  1  0  0  0
 16 48  1  0  0  0
 17 50  1  0  0  0
 18 50  1  0  0  0
 19 51  1  0  0  0
 20 51  1  0  0  0
 21 53  1  0  0  0
 22 53  1  0  0  0
 23 54  1  0  0  0
 24 54  1  0  0  0
 25 26  2  0  0  0
 25 27  2  0  0  0
 25 30  1  0  0  0
 25 46  1  0  0  0
 28 29  2  0  0  0
 28 33  1  0  0  0
 28 58  1  0  0  0
 29 30  1  0  0  0
 29 59  1  0  0  0
 30 31  2  0  0  0
 31 32  1  0  0  0
 31 60  1  0  0  0
 32 33  1  0  0  0
 35 36  1  0  0  0
 35 45  2  0  0  0
 35 49  1  0  0  0
 36 37  1  0  0  0
 36 46  1  0  0  0
 37 38  1  0  0  0
 38 39  2  0  0  0
 38 40  1  0  0  0
 39 41  1  0  0  0
 40 42  2  0  0  0
 41 43  2  0  0  0
 41 44  1  0  0  0
 42 43  1  0  0  0
 44 47  2  0  0  0
 44 48  1  0  0  0
 49 50  1  0  0  0
 49 54  1  0  0  0
 50 51  1  0  0  0
 51 52  1  0  0  0
 52 53  1  0  0  0
 53 54  1  0  0  0
M  CHG  1  47   1
M  END
>  <ACTIVITY>
7.38

>  <SET>
2

>  <Min_dist>
0.06

>  <Avg_dist>
0.23

$$$$
22
  Cerius2 12110214423D 1   1.00000                          
Structure written by Cerius2 SD Exporter
 67 70  0  0  0  0  0  0  0  0999 V2000
    3.8978   -6.3617   15.2928 C   0  0  0  0  0  0
    4.0696   -5.1465   15.9626 C   0  0  0  0  0  0
    5.3391   -4.5699   16.0424 C   0  0  0  0  0  0
    6.4340   -5.2079   15.4541 C   0  0  0  0  0  0
    6.7627   -9.3090   10.4045 H   0  0  0  0  0  0
    5.2571  -10.4947    8.6520 H   0  0  0  0  0  0
    6.1720   -9.1128    8.0405 H   0  0  0  0  0  0
    2.8049  -10.3942    8.5085 H   0  0  0  0  0  0
    5.1153   -6.8602    7.7431 H   0  0  0  0  0  0
    3.0652   -5.6581    7.0774 H   0  0  0  0  0  0
    0.8698   -6.7623    7.2339 H   0  0  0  0  0  0
    3.9521   -9.9197   10.9743 H   0  0  0  0  0  0
   -1.5685   -9.3629    7.0727 H   0  0  0  0  0  0
   -0.5150   -8.0497    6.5306 H   0  0  0  0  0  0
    0.9196  -10.8739    9.0818 H   0  0  0  0  0  0
   -0.7391  -10.9931    8.4780 H   0  0  0  0  0  0
    7.7102   -6.1777    8.5538 H   0  0  0  0  0  0
    7.8303   -7.8331    9.1444 H   0  0  0  0  0  0
    9.6894   -6.5890   10.2806 H   0  0  0  0  0  0
    8.4067   -6.8775   11.4432 H   0  0  0  0  0  0
    9.2100   -3.9415   10.2747 C   0  0  0  0  0  0
    9.0370   -2.7888   10.6380 O   0  0  0  0  0  0
    6.9052   -3.4611   11.3849 H   0  0  0  0  0  0
    7.0154   -4.9660   12.3219 H   0  0  0  0  0  0
    4.9927   -5.0275   10.9090 H   0  0  0  0  0  0
    5.9302   -4.5973    9.4666 H   0  0  0  0  0  0
    5.6605  -10.4219   12.6259 S   0  0  0  0  0  0
    6.9449  -11.0215   12.3173 O   0  0  0  0  0  0
    4.6670  -11.1906   13.3493 O   0  0  0  0  0  0
    7.3592   -7.0778   14.2007 C   0  0  0  0  0  0
    7.1860   -8.3009   13.5446 C   0  0  0  0  0  0
    5.9170   -8.8796   13.4686 C   0  0  0  0  0  0
    4.8232   -8.2235   14.0365 C   0  0  0  0  0  0
    4.9921   -7.0047   14.7051 C   0  0  0  0  0  0
    6.2673   -6.4284   14.7862 C   0  0  0  0  0  0
    2.9054   -6.7986   15.2367 H   0  0  0  0  0  0
    5.4830   -7.5559   10.4790 C   0  0  0  0  0  0
    5.7217   -9.0253   10.1943 C   0  0  0  0  0  0
    5.3620   -9.4009    8.7269 C   0  0  0  0  0  0
    4.0840   -8.6930    8.2440 C   0  0  0  0  0  0
    2.8462   -9.3485    8.2268 C   0  0  0  0  0  0
    4.1587   -7.3688    7.7980 C   0  0  0  0  0  0
    1.6772   -8.6793    7.8395 C   0  0  0  0  0  0
    3.0014   -6.6877    7.4165 C   0  0  0  0  0  0
    1.7625   -7.3302    7.4730 C   0  0  0  0  0  0
    0.3352   -9.3918    7.8100 C   0  0  0  0  0  0
    4.4500   -7.3219   11.0871 O   0  0  0  0  0  0
    4.9337   -9.8114   11.1351 N   0  0  0  0  0  0
   -0.6469   -8.9006    7.0956 N   0  3  0  0  0  0
    0.1627  -10.4929    8.4972 N   0  0  0  0  0  0
    6.3228   -6.5478   10.0985 N   0  0  0  0  0  0
    7.6170   -6.8047    9.4540 C   0  0  0  0  0  0
    8.6446   -6.3430   10.5106 C   0  0  0  0  0  0
    8.3657   -4.9227   10.7080 N   0  0  0  0  0  0
    7.0809   -4.5464   11.3076 C   0  0  0  0  0  0
    5.9689   -5.1582   10.4142 C   0  0  0  0  0  0
   10.3982   -4.1151    9.3467 C   0  0  0  0  0  0
   10.3648   -5.2938    8.5213 O   0  0  0  0  0  0
   11.3216   -4.0571    9.9442 H   0  0  0  0  0  0
    3.2177   -4.6528   16.4197 H   0  0  0  0  0  0
    5.4736   -3.6260   16.5623 H   0  0  0  0  0  0
    7.4145   -4.7464   15.5218 H   0  0  0  0  0  0
    8.3516   -6.6393   14.2496 H   0  0  0  0  0  0
    8.0389   -8.7985   13.0964 H   0  0  0  0  0  0
    3.8394   -8.6727   13.9528 H   0  0  0  0  0  0
   10.3921   -3.2521    8.6578 H   0  0  0  0  0  0
   11.1340   -5.3908    7.9674 H   0  0  0  0  0  0
  1  2  1  0  0  0
  1 34  2  0  0  0
  1 36  1  0  0  0
  2  3  2  0  0  0
  2 60  1  0  0  0
  3  4  1  0  0  0
  3 61  1  0  0  0
  4 35  2  0  0  0
  4 62  1  0  0  0
  5 38  1  0  0  0
  6 39  1  0  0  0
  7 39  1  0  0  0
  8 41  1  0  0  0
  9 42  1  0  0  0
 10 44  1  0  0  0
 11 45  1  0  0  0
 12 48  1  0  0  0
 13 49  1  0  0  0
 14 49  1  0  0  0
 15 50  1  0  0  0
 16 50  1  0  0  0
 17 52  1  0  0  0
 18 52  1  0  0  0
 19 53  1  0  0  0
 20 53  1  0  0  0
 21 22  2  0  0  0
 21 54  1  0  0  0
 21 57  1  0  0  0
 23 55  1  0  0  0
 24 55  1  0  0  0
 25 56  1  0  0  0
 26 56  1  0  0  0
 27 28  2  0  0  0
 27 29  2  0  0  0
 27 32  1  0  0  0
 27 48  1  0  0  0
 30 31  2  0  0  0
 30 35  1  0  0  0
 30 63  1  0  0  0
 31 32  1  0  0  0
 31 64  1  0  0  0
 32 33  2  0  0  0
 33 34  1  0  0  0
 33 65  1  0  0  0
 34 35  1  0  0  0
 37 38  1  0  0  0
 37 47  2  0  0  0
 37 51  1  0  0  0
 38 39  1  0  0  0
 38 48  1  0  0  0
 39 40  1  0  0  0
 40 41  2  0  0  0
 40 42  1  0  0  0
 41 43  1  0  0  0
 42 44  2  0  0  0
 43 45  2  0  0  0
 43 46  1  0  0  0
 44 45  1  0  0  0
 46 49  2  0  0  0
 46 50  1  0  0  0
 51 52  1  0  0  0
 51 56  1  0  0  0
 52 53  1  0  0  0
 53 54  1  0  0  0
 54 55  1  0  0  0
 55 56  1  0  0  0
 57 58  1  0  0  0
 57 59  1  0  0  0
 57 66  1  0  0  0
 58 67  1  0  0  0
M  CHG  1  49   1
M  END
>  <ACTIVITY>
7.24

>  <SET>
1

>  <Min_dist>
999.9

>  <Avg_dist>
999.9

$$$$
23
  Cerius2 12110214423D 1   1.00000                          
Structure written by Cerius2 SD Exporter
 68 70  0  0  0  0  0  0  0  0999 V2000
    3.5966   -8.4094   13.6775 C   0  0  0  0  0  0
    4.5035   -6.1572   14.6110 H   0  0  0  0  0  0
    6.9241   -4.9579   15.1516 C   0  0  0  0  0  0
    8.7686   -9.2750   13.4929 C   0  0  0  0  0  0
    8.7112   -6.8235   14.3641 H   0  0  0  0  0  0
    5.9934   -4.4033   15.3420 H   0  0  0  0  0  0
    7.5472   -4.3712   14.4609 H   0  0  0  0  0  0
    6.7546   -9.2895   10.3964 H   0  0  0  0  0  0
    5.2426  -10.4803    8.6375 H   0  0  0  0  0  0
    6.1620   -9.0908    8.0506 H   0  0  0  0  0  0
    2.7966  -10.3631    8.5197 H   0  0  0  0  0  0
    5.1038   -6.8434    7.7293 H   0  0  0  0  0  0
    3.0753   -5.6791    6.9543 H   0  0  0  0  0  0
    0.8816   -6.7542    7.1305 H   0  0  0  0  0  0
    3.9868  -10.0319   10.9513 H   0  0  0  0  0  0
   -1.5926   -9.3840    7.0427 H   0  0  0  0  0  0
   -0.5495   -8.0906    6.4505 H   0  0  0  0  0  0
    0.8618  -10.8374    9.1031 H   0  0  0  0  0  0
   -0.7807  -10.9616    8.4713 H   0  0  0  0  0  0
    7.5554   -6.2421    8.4151 H   0  0  0  0  0  0
    7.8318   -7.8164    9.1571 H   0  0  0  0  0  0
    9.6720   -6.2649    9.7419 H   0  0  0  0  0  0
    8.7665   -6.7695   11.2015 H   0  0  0  0  0  0
    8.4431   -4.1194    9.6705 H   0  0  0  0  0  0
    9.5283   -4.1484   11.5557 C   0  0  0  0  0  0
    6.8197   -3.5077   11.4782 H   0  0  0  0  0  0
    7.0357   -5.1335   12.1950 H   0  0  0  0  0  0
    4.9545   -5.0342   10.8339 H   0  0  0  0  0  0
    5.8895   -4.5983    9.3905 H   0  0  0  0  0  0
    5.7388  -10.4446   12.5792 S   0  0  0  0  0  0
    6.8976  -11.1647   12.1055 O   0  0  0  0  0  0
    4.7836  -11.1756   13.3895 O   0  0  0  0  0  0
    6.1580   -8.8921   13.4077 C   0  0  0  0  0  0
    5.0921   -8.0575   13.7940 C   0  0  0  0  0  0
    5.3394   -6.7947   14.3430 C   0  0  0  0  0  0
    6.6406   -6.3421   14.5548 C   0  0  0  0  0  0
    7.6976   -7.1844   14.2111 C   0  0  0  0  0  0
    7.4735   -8.4649   13.6876 C   0  0  0  0  0  0
    7.4660   -5.0768   16.1014 H   0  0  0  0  0  0
    5.4695   -7.5510   10.4497 C   0  0  0  0  0  0
    5.7083   -9.0227   10.1926 C   0  0  0  0  0  0
    5.3449   -9.3874    8.7242 C   0  0  0  0  0  0
    4.0706   -8.6760    8.2295 C   0  0  0  0  0  0
    2.8291   -9.3251    8.2139 C   0  0  0  0  0  0
    4.1513   -7.3593    7.7648 C   0  0  0  0  0  0
    1.6591   -8.6699    7.8001 C   0  0  0  0  0  0
    3.0016   -6.6937    7.3351 C   0  0  0  0  0  0
    1.7610   -7.3297    7.3965 C   0  0  0  0  0  0
    0.3137   -9.3807    7.7804 C   0  0  0  0  0  0
    4.4259   -7.3152   11.0361 O   0  0  0  0  0  0
    4.9480   -9.8287   11.1431 N   0  0  0  0  0  0
   -0.6720   -8.9190    7.0479 N   0  3  0  0  0  0
    0.1224  -10.4641    8.4942 N   0  0  0  0  0  0
    6.3049   -6.5408   10.0618 N   0  0  0  0  0  0
    7.5788   -6.7753    9.3788 C   0  0  0  0  0  0
    8.7058   -6.1899   10.2665 C   0  0  0  0  0  0
    8.4309   -4.7029   10.6068 C   0  0  0  0  0  0
    7.0314   -4.5658   11.2556 C   0  0  0  0  0  0
    5.9311   -5.1545   10.3409 C   0  0  0  0  0  0
   10.5182   -4.2567   11.0874 H   0  0  0  0  0  0
    9.5365   -4.6848   12.5180 H   0  0  0  0  0  0
    9.3500   -3.0803   11.7522 H   0  0  0  0  0  0
    3.3621   -9.3132   13.1127 H   0  0  0  0  0  0
    3.0570   -7.5815   13.1931 H   0  0  0  0  0  0
    3.1933   -8.5328   14.6936 H   0  0  0  0  0  0
    8.6677  -10.3132   13.1771 H   0  0  0  0  0  0
    9.2991   -9.3010   14.4572 H   0  0  0  0  0  0
    9.4026   -8.7535   12.7599 H   0  0  0  0  0  0
  1 34  1  0  0  0
  1 63  1  0  0  0
  1 64  1  0  0  0
  1 65  1  0  0  0
  2 35  1  0  0  0
  3  6  1  0  0  0
  3  7  1  0  0  0
  3 36  1  0  0  0
  3 39  1  0  0  0
  4 38  1  0  0  0
  4 66  1  0  0  0
  4 67  1  0  0  0
  4 68  1  0  0  0
  5 37  1  0  0  0
  8 41  1  0  0  0
  9 42  1  0  0  0
 10 42  1  0  0  0
 11 44  1  0  0  0
 12 45  1  0  0  0
 13 47  1  0  0  0
 14 48  1  0  0  0
 15 51  1  0  0  0
 16 52  1  0  0  0
 17 52  1  0  0  0
 18 53  1  0  0  0
 19 53  1  0  0  0
 20 55  1  0  0  0
 21 55  1  0  0  0
 22 56  1  0  0  0
 23 56  1  0  0  0
 24 57  1  0  0  0
 25 57  1  0  0  0
 25 60  1  0  0  0
 25 61  1  0  0  0
 25 62  1  0  0  0
 26 58  1  0  0  0
 27 58  1  0  0  0
 28 59  1  0  0  0
 29 59  1  0  0  0
 30 31  2  0  0  0
 30 32  2  0  0  0
 30 33  1  0  0  0
 30 51  1  0  0  0
 33 34  1  0  0  0
 33 38  2  0  0  0
 34 35  2  0  0  0
 35 36  1  0  0  0
 36 37  2  0  0  0
 37 38  1  0  0  0
 40 41  1  0  0  0
 40 50  2  0  0  0
 40 54  1  0  0  0
 41 42  1  0  0  0
 41 51  1  0  0  0
 42 43  1  0  0  0
 43 44  2  0  0  0
 43 45  1  0  0  0
 44 46  1  0  0  0
 45 47  2  0  0  0
 46 48  2  0  0  0
 46 49  1  0  0  0
 47 48  1  0  0  0
 49 52  2  0  0  0
 49 53  1  0  0  0
 54 55  1  0  0  0
 54 59  1  0  0  0
 55 56  1  0  0  0
 56 57  1  0  0  0
 57 58  1  0  0  0
 58 59  1  0  0  0
M  CHG  1  52   1
M  END
>  <ACTIVITY>
7.23

>  <SET>
1

>  <Min_dist>
999.9

>  <Avg_dist>
999.9

$$$$
24
  Cerius2 12110214423D 1   1.00000                          
Structure written by Cerius2 SD Exporter
 62 65  0  0  0  0  0  0  0  0999 V2000
    3.9000   -6.3674   15.3069 C   0  0  0  0  0  0
    4.0662   -5.1507   15.9735 C   0  0  0  0  0  0
    5.3336   -4.5693   16.0578 C   0  0  0  0  0  0
    6.4329   -5.2056   15.4751 C   0  0  0  0  0  0
    6.7750   -9.3075   10.3984 H   0  0  0  0  0  0
    5.2373  -10.4871    8.6672 H   0  0  0  0  0  0
    6.1576   -9.1096    8.0573 H   0  0  0  0  0  0
    2.7957  -10.3745    8.5182 H   0  0  0  0  0  0
    5.1083   -6.8513    7.7478 H   0  0  0  0  0  0
    3.0770   -5.6775    6.9894 H   0  0  0  0  0  0
    0.8806   -6.7558    7.1638 H   0  0  0  0  0  0
    3.9869   -9.9570   11.0161 H   0  0  0  0  0  0
   -1.5871   -9.3774    7.0476 H   0  0  0  0  0  0
   -0.5399   -8.0778    6.4718 H   0  0  0  0  0  0
    0.8713  -10.8477    9.0977 H   0  0  0  0  0  0
   -0.7747  -10.9689    8.4701 H   0  0  0  0  0  0
    7.5571   -6.2292    8.4365 H   0  0  0  0  0  0
    7.8223   -7.8190    9.1453 H   0  0  0  0  0  0
    9.6731   -6.3098    9.7842 H   0  0  0  0  0  0
    8.7341   -6.7895   11.2278 H   0  0  0  0  0  0
    8.4407   -4.1350    9.6734 H   0  0  0  0  0  0
    9.2077   -4.3277   11.2726 H   0  0  0  0  0  0
    6.8294   -3.4907   11.4751 H   0  0  0  0  0  0
    7.0359   -5.0835   12.2562 H   0  0  0  0  0  0
    4.9542   -5.0488   10.8964 H   0  0  0  0  0  0
    5.8694   -4.6012    9.4463 H   0  0  0  0  0  0
    5.7111  -10.4153   12.6343 S   0  0  0  0  0  0
    7.0086  -10.9820   12.3173 O   0  0  0  0  0  0
    4.7464  -11.2109   13.3675 O   0  0  0  0  0  0
    7.3697   -7.0655   14.2223 C   0  0  0  0  0  0
    7.2038   -8.2818   13.5563 C   0  0  0  0  0  0
    5.9398   -8.8724   13.4822 C   0  0  0  0  0  0
    4.8397   -8.2285   14.0546 C   0  0  0  0  0  0
    4.9995   -7.0087   14.7221 C   0  0  0  0  0  0
    6.2704   -6.4248   14.8071 C   0  0  0  0  0  0
    2.9094   -6.8082   15.2491 H   0  0  0  0  0  0
    5.4908   -7.5645   10.5028 C   0  0  0  0  0  0
    5.7278   -9.0312   10.2103 C   0  0  0  0  0  0
    5.3467   -9.3941    8.7441 C   0  0  0  0  0  0
    4.0728   -8.6826    8.2478 C   0  0  0  0  0  0
    2.8324   -9.3330    8.2239 C   0  0  0  0  0  0
    4.1539   -7.3641    7.7864 C   0  0  0  0  0  0
    1.6630   -8.6729    7.8146 C   0  0  0  0  0  0
    3.0045   -6.6947    7.3634 C   0  0  0  0  0  0
    1.7627   -7.3311    7.4224 C   0  0  0  0  0  0
    0.3176   -9.3833    7.7885 C   0  0  0  0  0  0
    4.4772   -7.3396   11.1459 O   0  0  0  0  0  0
    4.9676   -9.8285   11.1667 N   0  0  0  0  0  0
   -0.6660   -8.9129    7.0594 N   0  3  0  0  0  0
    0.1286  -10.4716    8.4940 N   0  0  0  0  0  0
    6.3063   -6.5477   10.0932 N   0  0  0  0  0  0
    7.5724   -6.7808    9.3898 C   0  0  0  0  0  0
    8.6974   -6.2116   10.2894 C   0  0  0  0  0  0
    8.4196   -4.7192   10.6084 C   0  0  0  0  0  0
    7.0347   -4.5580   11.2881 C   0  0  0  0  0  0
    5.9271   -5.1638   10.3921 C   0  0  0  0  0  0
    3.2116   -4.6571   16.4264 H   0  0  0  0  0  0
    5.4645   -3.6243   16.5757 H   0  0  0  0  0  0
    7.4126   -4.7430   15.5475 H   0  0  0  0  0  0
    8.3603   -6.6244   14.2796 H   0  0  0  0  0  0
    8.0601   -8.7652   13.0991 H   0  0  0  0  0  0
    3.8599   -8.6878   13.9741 H   0  0  0  0  0  0
  1  2  1  0  0  0
  1 34  2  0  0  0
  1 36  1  0  0  0
  2  3  2  0  0  0
  2 57  1  0  0  0
  3  4  1  0  0  0
  3 58  1  0  0  0
  4 35  2  0  0  0
  4 59  1  0  0  0
  5 38  1  0  0  0
  6 39  1  0  0  0
  7 39  1  0  0  0
  8 41  1  0  0  0
  9 42  1  0  0  0
 10 44  1  0  0  0
 11 45  1  0  0  0
 12 48  1  0  0  0
 13 49  1  0  0  0
 14 49  1  0  0  0
 15 50  1  0  0  0
 16 50  1  0  0  0
 17 52  1  0  0  0
 18 52  1  0  0  0
 19 53  1  0  0  0
 20 53  1  0  0  0
 21 54  1  0  0  0
 22 54  1  0  0  0
 23 55  1  0  0  0
 24 55  1  0  0  0
 25 56  1  0  0  0
 26 56  1  0  0  0
 27 28  2  0  0  0
 27 29  2  0  0  0
 27 32  1  0  0  0
 27 48  1  0  0  0
 30 31  2  0  0  0
 30 35  1  0  0  0
 30 60  1  0  0  0
 31 32  1  0  0  0
 31 61  1  0  0  0
 32 33  2  0  0  0
 33 34  1  0  0  0
 33 62  1  0  0  0
 34 35  1  0  0  0
 37 38  1  0  0  0
 37 47  2  0  0  0
 37 51  1  0  0  0
 38 39  1  0  0  0
 38 48  1  0  0  0
 39 40  1  0  0  0
 40 41  2  0  0  0
 40 42  1  0  0  0
 41 43  1  0  0  0
 42 44  2  0  0  0
 43 45  2  0  0  0
 43 46  1  0  0  0
 44 45  1  0  0  0
 46 49  2  0  0  0
 46 50  1  0  0  0
 51 52  1  0  0  0
 51 56  1  0  0  0
 52 53  1  0  0  0
 53 54  1  0  0  0
 54 55  1  0  0  0
 55 56  1  0  0  0
M  CHG  1  49   1
M  END
>  <ACTIVITY>
7.19

>  <SET>
1

>  <Min_dist>
999.9

>  <Avg_dist>
999.9

$$$$
25
  Cerius2 12110214423D 1   1.00000                          
Structure written by Cerius2 SD Exporter
 86 88  0  0  0  0  0  0  0  0999 V2000
    3.8806   -7.9814   13.7068 C   0  0  0  0  0  0
    5.2138   -5.8399   14.5238 H   0  0  0  0  0  0
    7.7216   -4.9586   14.9674 C   0  0  0  0  0  0
    8.9171   -9.5960   13.3522 C   0  0  0  0  0  0
    9.2209   -7.0197   13.8521 H   0  0  0  0  0  0
    3.5721   -8.8728   13.1480 H   0  0  0  0  0  0
    8.6495   -4.0682   14.1183 C   0  0  0  0  0  0
    6.8073   -9.3094   10.2595 H   0  0  0  0  0  0
    5.2529  -10.5642    8.5576 H   0  0  0  0  0  0
    6.1823   -9.2008    7.9003 H   0  0  0  0  0  0
    2.7919  -10.4203    8.4506 H   0  0  0  0  0  0
    5.1273   -6.9522    7.5052 H   0  0  0  0  0  0
    3.0710   -5.6978    6.9813 H   0  0  0  0  0  0
    0.8676   -6.7654    7.2179 H   0  0  0  0  0  0
    3.9843   -9.8538   10.8977 H   0  0  0  0  0  0
   -1.6039   -9.3462    7.0872 H   0  0  0  0  0  0
   -0.5499   -8.0432    6.5254 H   0  0  0  0  0  0
    0.8997  -10.8914    9.0424 H   0  0  0  0  0  0
   -0.7676  -10.9883    8.4626 H   0  0  0  0  0  0
    7.6674   -6.2742    8.2475 H   0  0  0  0  0  0
    7.9295   -7.8308    9.0439 H   0  0  0  0  0  0
    9.7408   -6.2867    9.6628 H   0  0  0  0  0  0
    8.7296   -6.7044   11.0801 H   0  0  0  0  0  0
    8.3970   -4.0873    9.4392 H   0  0  0  0  0  0
    9.7088   -4.0940   11.1310 C   0  0  0  0  0  0
    6.7962   -3.5062   11.2917 H   0  0  0  0  0  0
    7.0209   -5.1557   11.9774 H   0  0  0  0  0  0
    5.0026   -5.0879   10.6985 H   0  0  0  0  0  0
    5.8718   -4.5988    9.2264 H   0  0  0  0  0  0
    5.7347  -10.3248   12.5354 S   0  0  0  0  0  0
    6.7696  -11.2093   12.0519 O   0  0  0  0  0  0
    4.7329  -10.9004   13.4139 O   0  0  0  0  0  0
    6.3736   -8.7961   13.2883 C   0  0  0  0  0  0
    5.4381   -7.8151   13.6992 C   0  0  0  0  0  0
    5.9129   -6.5940   14.1966 C   0  0  0  0  0  0
    7.2721   -6.3008   14.3211 C   0  0  0  0  0  0
    8.1706   -7.2740   13.8767 C   0  0  0  0  0  0
    7.7565   -8.5580   13.4878 C   0  0  0  0  0  0
    8.4781   -5.2354   16.2841 C   0  0  0  0  0  0
    5.5114   -7.5636   10.1194 C   0  0  0  0  0  0
    5.7652   -9.0443   10.0322 C   0  0  0  0  0  0
    5.3685   -9.4704    8.5902 C   0  0  0  0  0  0
    4.0870   -8.7534    8.1080 C   0  0  0  0  0  0
    2.8393   -9.3821    8.1448 C   0  0  0  0  0  0
    4.1657   -7.4384    7.6266 C   0  0  0  0  0  0
    1.6640   -8.7012    7.7854 C   0  0  0  0  0  0
    3.0041   -6.7317    7.3097 C   0  0  0  0  0  0
    1.7592   -7.3502    7.4181 C   0  0  0  0  0  0
    0.3169   -9.3961    7.7838 C   0  0  0  0  0  0
    4.3581   -7.3286   10.4109 O   0  0  0  0  0  0
    4.9630   -9.7161   11.0554 N   0  0  0  0  0  0
   -0.6778   -8.8938    7.0912 N   0  3  0  0  0  0
    0.1396  -10.4991    8.4705 N   0  0  0  0  0  0
    6.3745   -6.5462    9.8618 N   0  0  0  0  0  0
    7.6650   -6.7826    9.2233 C   0  0  0  0  0  0
    8.7474   -6.1614   10.1208 C   0  0  0  0  0  0
    8.4648   -4.6591   10.3792 C   0  0  0  0  0  0
    7.0636   -4.5520   11.0606 C   0  0  0  0  0  0
    5.9646   -5.1698   10.1623 C   0  0  0  0  0  0
   10.5344   -3.8892   10.4366 H   0  0  0  0  0  0
   10.1100   -4.8595   11.8049 H   0  0  0  0  0  0
    9.5163   -3.1525   11.6631 H   0  0  0  0  0  0
    6.8431   -4.3290   15.1877 H   0  0  0  0  0  0
    2.9992   -6.8267   13.1171 C   0  0  0  0  0  0
    3.4114   -8.1700   15.1777 C   0  0  0  0  0  0
    8.5599  -10.6177   13.2017 H   0  0  0  0  0  0
    9.7249   -9.7516   14.6773 C   0  0  0  0  0  0
    9.8800   -9.2883   12.1656 C   0  0  0  0  0  0
    9.5096   -4.6801   13.8436 H   0  0  0  0  0  0
    9.0396   -3.1778   14.6310 H   0  0  0  0  0  0
    8.0826   -3.6960   13.2680 H   0  0  0  0  0  0
    7.8148   -5.7696   16.9759 H   0  0  0  0  0  0
    8.7893   -4.2848   16.7464 H   0  0  0  0  0  0
    9.3773   -5.8419   16.0938 H   0  0  0  0  0  0
    3.1864   -5.8469   13.5690 H   0  0  0  0  0  0
    1.9334   -7.0570   13.2651 H   0  0  0  0  0  0
    3.0866   -6.6853   12.0475 H   0  0  0  0  0  0
    3.9253   -9.0216   15.6452 H   0  0  0  0  0  0
    2.3263   -8.3578   15.2265 H   0  0  0  0  0  0
    3.6205   -7.2650   15.7688 H   0  0  0  0  0  0
   10.1674   -8.8070   15.0210 H   0  0  0  0  0  0
   10.5506  -10.4719   14.5488 H   0  0  0  0  0  0
    9.0682  -10.1347   15.4744 H   0  0  0  0  0  0
    9.3325   -9.3294   11.2123 H   0  0  0  0  0  0
   10.6928  -10.0321   12.1194 H   0  0  0  0  0  0
   10.3518   -8.2999   12.2561 H   0  0  0  0  0  0
  1  6  1  0  0  0
  1 34  1  0  0  0
  1 64  1  0  0  0
  1 65  1  0  0  0
  2 35  1  0  0  0
  3  7  1  0  0  0
  3 36  1  0  0  0
  3 39  1  0  0  0
  3 63  1  0  0  0
  4 38  1  0  0  0
  4 66  1  0  0  0
  4 67  1  0  0  0
  4 68  1  0  0  0
  5 37  1  0  0  0
  7 69  1  0  0  0
  7 70  1  0  0  0
  7 71  1  0  0  0
  8 41  1  0  0  0
  9 42  1  0  0  0
 10 42  1  0  0  0
 11 44  1  0  0  0
 12 45  1  0  0  0
 13 47  1  0  0  0
 14 48  1  0  0  0
 15 51  1  0  0  0
 16 52  1  0  0  0
 17 52  1  0  0  0
 18 53  1  0  0  0
 19 53  1  0  0  0
 20 55  1  0  0  0
 21 55  1  0  0  0
 22 56  1  0  0  0
 23 56  1  0  0  0
 24 57  1  0  0  0
 25 57  1  0  0  0
 25 60  1  0  0  0
 25 61  1  0  0  0
 25 62  1  0  0  0
 26 58  1  0  0  0
 27 58  1  0  0  0
 28 59  1  0  0  0
 29 59  1  0  0  0
 30 31  2  0  0  0
 30 32  2  0  0  0
 30 33  1  0  0  0
 30 51  1  0  0  0
 33 34  1  0  0  0
 33 38  2  0  0  0
 34 35  2  0  0  0
 35 36  1  0  0  0
 36 37  2  0  0  0
 37 38  1  0  0  0
 39 72  1  0  0  0
 39 73  1  0  0  0
 39 74  1  0  0  0
 40 41  1  0  0  0
 40 50  2  0  0  0
 40 54  1  0  0  0
 41 42  1  0  0  0
 41 51  1  0  0  0
 42 43  1  0  0  0
 43 44  2  0  0  0
 43 45  1  0  0  0
 44 46  1  0  0  0
 45 47  2  0  0  0
 46 48  2  0  0  0
 46 49  1  0  0  0
 47 48  1  0  0  0
 49 52  2  0  0  0
 49 53  1  0  0  0
 54 55  1  0  0  0
 54 59  1  0  0  0
 55 56  1  0  0  0
 56 57  1  0  0  0
 57 58  1  0  0  0
 58 59  1  0  0  0
 64 75  1  0  0  0
 64 76  1  0  0  0
 64 77  1  0  0  0
 65 78  1  0  0  0
 65 79  1  0  0  0
 65 80  1  0  0  0
 67 81  1  0  0  0
 67 82  1  0  0  0
 67 83  1  0  0  0
 68 84  1  0  0  0
 68 85  1  0  0  0
 68 86  1  0  0  0
M  CHG  1  52   1
M  END
>  <ACTIVITY>
7.12

>  <SET>
1

>  <Min_dist>
999.9

>  <Avg_dist>
999.9

$$$$
26
  Cerius2 12110214423D 1   1.00000                          
Structure written by Cerius2 SD Exporter
 72 74  0  0  0  0  0  0  0  0999 V2000
    3.6202   -8.4185   13.6434 C   0  0  0  0  0  0
    4.4852   -6.2168   14.6091 H   0  0  0  0  0  0
    9.1558   -6.6486   14.5225 C   0  0  0  0  0  0
    8.7819   -9.3014   13.4748 C   0  0  0  0  0  0
    6.8692   -5.0523   15.0720 O   0  0  0  0  0  0
    5.7800   -4.1716   15.4043 C   0  0  0  0  0  0
    6.1959   -3.2248   15.7767 H   0  0  0  0  0  0
    6.7461   -9.2805   10.4257 H   0  0  0  0  0  0
    5.2286  -10.4596    8.6727 H   0  0  0  0  0  0
    6.1518   -9.0752    8.0829 H   0  0  0  0  0  0
    2.7960  -10.3269    8.5640 H   0  0  0  0  0  0
    5.1022   -6.8205    7.7475 H   0  0  0  0  0  0
    3.0862   -5.6822    6.9037 H   0  0  0  0  0  0
    0.9001   -6.7529    7.0531 H   0  0  0  0  0  0
    4.0088  -10.0837   10.9713 H   0  0  0  0  0  0
   -1.5952   -9.4185    7.0200 H   0  0  0  0  0  0
   -0.5645   -8.1326    6.4000 H   0  0  0  0  0  0
    0.8269  -10.8033    9.1405 H   0  0  0  0  0  0
   -0.7976  -10.9455    8.4772 H   0  0  0  0  0  0
    7.5501   -6.2980    8.4213 H   0  0  0  0  0  0
    7.8431   -7.8426    9.2004 H   0  0  0  0  0  0
    9.6689   -6.2645    9.6900 H   0  0  0  0  0  0
    8.8180   -6.7722   11.1705 H   0  0  0  0  0  0
    8.4231   -4.1083    9.6598 H   0  0  0  0  0  0
    9.5237   -4.1121   11.5240 C   0  0  0  0  0  0
    6.8025   -3.5016   11.4827 H   0  0  0  0  0  0
    7.0080   -5.1033   12.2285 H   0  0  0  0  0  0
    4.9499   -5.0210   10.8490 H   0  0  0  0  0  0
    5.8978   -4.5980    9.4149 H   0  0  0  0  0  0
    5.7572  -10.4511   12.5989 S   0  0  0  0  0  0
    6.8853  -11.2012   12.0984 O   0  0  0  0  0  0
    4.8114  -11.1613   13.4388 O   0  0  0  0  0  0
    6.1993   -8.8921   13.4114 C   0  0  0  0  0  0
    5.1179   -8.0714   13.7813 C   0  0  0  0  0  0
    5.3474   -6.8144   14.3413 C   0  0  0  0  0  0
    6.6425   -6.3395   14.5557 C   0  0  0  0  0  0
    7.7267   -7.1701   14.2457 C   0  0  0  0  0  0
    7.5108   -8.4519   13.7004 C   0  0  0  0  0  0
    5.1539   -4.6051   16.2000 H   0  0  0  0  0  0
    5.4607   -7.5447   10.4804 C   0  0  0  0  0  0
    5.6985   -9.0156   10.2281 C   0  0  0  0  0  0
    5.3334   -9.3671    8.7569 C   0  0  0  0  0  0
    4.0642   -8.6521    8.2496 C   0  0  0  0  0  0
    2.8226   -9.2975    8.2334 C   0  0  0  0  0  0
    4.1513   -7.3403    7.7693 C   0  0  0  0  0  0
    1.6514   -8.6579    7.7895 C   0  0  0  0  0  0
    3.0084   -6.6893    7.3047 C   0  0  0  0  0  0
    1.7672   -7.3280    7.3552 C   0  0  0  0  0  0
    0.3077   -9.3755    7.7717 C   0  0  0  0  0  0
    4.4145   -7.2977   11.0569 O   0  0  0  0  0  0
    4.9557   -9.8372   11.1798 N   0  0  0  0  0  0
   -0.6788   -8.9445    7.0190 N   0  3  0  0  0  0
    0.1031  -10.4438    8.5071 N   0  0  0  0  0  0
    6.3055   -6.5448   10.0904 N   0  0  0  0  0  0
    7.5778   -6.7982    9.4009 C   0  0  0  0  0  0
    8.7196   -6.1819   10.2470 C   0  0  0  0  0  0
    8.4230   -4.6940   10.5961 C   0  0  0  0  0  0
    7.0287   -4.5594   11.2729 C   0  0  0  0  0  0
    5.9306   -5.1551   10.3638 C   0  0  0  0  0  0
   10.5264   -4.2627   11.0956 H   0  0  0  0  0  0
    9.4844   -4.6118   12.4983 H   0  0  0  0  0  0
    9.3734   -3.0349   11.6927 H   0  0  0  0  0  0
    5.1682   -3.9504   14.5154 H   0  0  0  0  0  0
    3.3672   -9.3332   13.1044 H   0  0  0  0  0  0
    3.0964   -7.5951   13.1344 H   0  0  0  0  0  0
    3.2035   -8.5050   14.6575 H   0  0  0  0  0  0
    9.1757   -5.6160   14.8984 H   0  0  0  0  0  0
    9.7577   -6.6681   13.6044 H   0  0  0  0  0  0
    9.6555   -7.2694   15.2792 H   0  0  0  0  0  0
    8.6346  -10.3143   13.1118 H   0  0  0  0  0  0
    9.3066   -9.4210   14.4330 H   0  0  0  0  0  0
    9.4534   -8.8093   12.7565 H   0  0  0  0  0  0
  1 34  1  0  0  0
  1 64  1  0  0  0
  1 65  1  0  0  0
  1 66  1  0  0  0
  2 35  1  0  0  0
  3 37  1  0  0  0
  3 67  1  0  0  0
  3 68  1  0  0  0
  3 69  1  0  0  0
  4 38  1  0  0  0
  4 70  1  0  0  0
  4 71  1  0  0  0
  4 72  1  0  0  0
  5  6  1  0  0  0
  5 36  1  0  0  0
  6  7  1  0  0  0
  6 39  1  0  0  0
  6 63  1  0  0  0
  8 41  1  0  0  0
  9 42  1  0  0  0
 10 42  1  0  0  0
 11 44  1  0  0  0
 12 45  1  0  0  0
 13 47  1  0  0  0
 14 48  1  0  0  0
 15 51  1  0  0  0
 16 52  1  0  0  0
 17 52  1  0  0  0
 18 53  1  0  0  0
 19 53  1  0  0  0
 20 55  1  0  0  0
 21 55  1  0  0  0
 22 56  1  0  0  0
 23 56  1  0  0  0
 24 57  1  0  0  0
 25 57  1  0  0  0
 25 60  1  0  0  0
 25 61  1  0  0  0
 25 62  1  0  0  0
 26 58  1  0  0  0
 27 58  1  0  0  0
 28 59  1  0  0  0
 29 59  1  0  0  0
 30 31  2  0  0  0
 30 32  2  0  0  0
 30 33  1  0  0  0
 30 51  1  0  0  0
 33 34  1  0  0  0
 33 38  2  0  0  0
 34 35  2  0  0  0
 35 36  1  0  0  0
 36 37  2  0  0  0
 37 38  1  0  0  0
 40 41  1  0  0  0
 40 50  2  0  0  0
 40 54  1  0  0  0
 41 42  1  0  0  0
 41 51  1  0  0  0
 42 43  1  0  0  0
 43 44  2  0  0  0
 43 45  1  0  0  0
 44 46  1  0  0  0
 45 47  2  0  0  0
 46 48  2  0  0  0
 46 49  1  0  0  0
 47 48  1  0  0  0
 49 52  2  0  0  0
 49 53  1  0  0  0
 54 55  1  0  0  0
 54 59  1  0  0  0
 55 56  1  0  0  0
 56 57  1  0  0  0
 57 58  1  0  0  0
 58 59  1  0  0  0
M  CHG  1  52   1
M  END
>  <ACTIVITY>
7.05

>  <SET>
1

>  <Min_dist>
999.9

>  <Avg_dist>
999.9

$$$$
27
  Cerius2 12110214423D 1   1.00000                          
Structure written by Cerius2 SD Exporter
 71 74  0  0  0  0  0  0  0  0999 V2000
    3.9035   -6.3638   15.2920 C   0  0  0  0  0  0
    4.0721   -5.1491   15.9622 C   0  0  0  0  0  0
    5.3405   -4.5695   16.0436 C   0  0  0  0  0  0
    6.4374   -5.2053   15.4558 C   0  0  0  0  0  0
    6.7535   -9.2879   10.3891 H   0  0  0  0  0  0
    5.2557  -10.5038    8.6599 H   0  0  0  0  0  0
    6.1538   -9.1146    8.0317 H   0  0  0  0  0  0
    2.7740  -10.4287    8.5216 H   0  0  0  0  0  0
    5.0682   -6.9182    7.6931 H   0  0  0  0  0  0
    3.0235   -5.6922    7.0704 H   0  0  0  0  0  0
    0.8257   -6.7936    7.2572 H   0  0  0  0  0  0
    3.9543   -9.9100   10.9671 H   0  0  0  0  0  0
   -1.6029   -9.3766    7.0766 H   0  0  0  0  0  0
   -0.5409   -8.0684    6.5389 H   0  0  0  0  0  0
    0.8820  -10.9067    9.0812 H   0  0  0  0  0  0
   -0.7785  -11.0190    8.4800 H   0  0  0  0  0  0
    7.5848   -6.0584    8.0406 C   0  0  0  0  0  0
    7.7954   -7.7596    9.2153 H   0  0  0  0  0  0
    9.6525   -6.2477    9.7835 H   0  0  0  0  0  0
    8.7264   -6.7411   11.2281 H   0  0  0  0  0  0
    8.3853   -4.0663    9.7287 H   0  0  0  0  0  0
    9.5649   -4.1077   11.5483 C   0  0  0  0  0  0
    6.8406   -3.4714   11.6072 H   0  0  0  0  0  0
    7.1010   -5.0738   12.3439 H   0  0  0  0  0  0
    4.9868   -5.0788   11.1463 H   0  0  0  0  0  0
    5.7294   -4.4940    9.6680 H   0  0  0  0  0  0
    5.6737  -10.4101   12.6091 S   0  0  0  0  0  0
    6.9587  -11.0048   12.2937 O   0  0  0  0  0  0
    4.6849  -11.1841   13.3333 O   0  0  0  0  0  0
    7.3674   -7.0701   14.1979 C   0  0  0  0  0  0
    7.1947   -8.2826   13.5240 C   0  0  0  0  0  0
    5.9283   -8.8691   13.4547 C   0  0  0  0  0  0
    4.8341   -8.2212   14.0319 C   0  0  0  0  0  0
    5.0000   -7.0039   14.7031 C   0  0  0  0  0  0
    6.2734   -6.4246   14.7861 C   0  0  0  0  0  0
    2.9123   -6.8034   15.2354 H   0  0  0  0  0  0
    5.4613   -7.5372   10.4752 C   0  0  0  0  0  0
    5.7124   -9.0052   10.1777 C   0  0  0  0  0  0
    5.3457   -9.4076    8.7196 C   0  0  0  0  0  0
    4.0507   -8.7286    8.2381 C   0  0  0  0  0  0
    2.8136   -9.3847    8.2331 C   0  0  0  0  0  0
    4.1138   -7.4121    7.7744 C   0  0  0  0  0  0
    1.6436   -8.7133    7.8472 C   0  0  0  0  0  0
    2.9581   -6.7219    7.4088 C   0  0  0  0  0  0
    1.7210   -7.3634    7.4824 C   0  0  0  0  0  0
    0.3002   -9.4204    7.8148 C   0  0  0  0  0  0
    4.4211   -7.3376   11.0834 O   0  0  0  0  0  0
    4.9362   -9.7980   11.1224 N   0  0  0  0  0  0
   -0.6786   -8.9205    7.1012 N   0  3  0  0  0  0
    0.1249  -10.5223    8.4990 N   0  0  0  0  0  0
    6.2809   -6.4966   10.1268 N   0  0  0  0  0  0
    7.5476   -6.7087    9.4065 C   0  0  0  0  0  0
    8.6831   -6.1482   10.2996 C   0  0  0  0  0  0
    8.4185   -4.6609   10.6582 C   0  0  0  0  0  0
    7.0543   -4.5312   11.3882 C   0  0  0  0  0  0
    5.9062   -5.1348   10.5422 C   0  0  0  0  0  0
   10.5319   -4.2006   11.0300 H   0  0  0  0  0  0
    9.6212   -4.6651   12.4961 H   0  0  0  0  0  0
    9.3942   -3.0442   11.7764 H   0  0  0  0  0  0
    3.2189   -4.6569   16.4189 H   0  0  0  0  0  0
    5.4724   -3.6256   16.5640 H   0  0  0  0  0  0
    7.4168   -4.7420   15.5253 H   0  0  0  0  0  0
    8.3605   -6.6347   14.2578 H   0  0  0  0  0  0
    8.0461   -8.7660   13.0574 H   0  0  0  0  0  0
    3.8524   -8.6759   13.9525 H   0  0  0  0  0  0
    6.7699   -5.2174    7.6978 O   0  0  0  0  0  0
    8.5827   -6.4881    7.2502 O   0  0  0  0  0  0
    8.6194   -5.9411    5.9130 C   0  0  0  0  0  0
    9.5962   -5.4524    5.7866 H   0  0  0  0  0  0
    7.8355   -5.2209    5.6299 H   0  0  0  0  0  0
    8.5674   -6.7891    5.2145 H   0  0  0  0  0  0
  1  2  1  0  0  0
  1 34  2  0  0  0
  1 36  1  0  0  0
  2  3  2  0  0  0
  2 60  1  0  0  0
  3  4  1  0  0  0
  3 61  1  0  0  0
  4 35  2  0  0  0
  4 62  1  0  0  0
  5 38  1  0  0  0
  6 39  1  0  0  0
  7 39  1  0  0  0
  8 41  1  0  0  0
  9 42  1  0  0  0
 10 44  1  0  0  0
 11 45  1  0  0  0
 12 48  1  0  0  0
 13 49  1  0  0  0
 14 49  1  0  0  0
 15 50  1  0  0  0
 16 50  1  0  0  0
 17 52  1  0  0  0
 17 66  2  0  0  0
 17 67  1  0  0  0
 18 52  1  0  0  0
 19 53  1  0  0  0
 20 53  1  0  0  0
 21 54  1  0  0  0
 22 54  1  0  0  0
 22 57  1  0  0  0
 22 58  1  0  0  0
 22 59  1  0  0  0
 23 55  1  0  0  0
 24 55  1  0  0  0
 25 56  1  0  0  0
 26 56  1  0  0  0
 27 28  2  0  0  0
 27 29  2  0  0  0
 27 32  1  0  0  0
 27 48  1  0  0  0
 30 31  2  0  0  0
 30 35  1  0  0  0
 30 63  1  0  0  0
 31 32  1  0  0  0
 31 64  1  0  0  0
 32 33  2  0  0  0
 33 34  1  0  0  0
 33 65  1  0  0  0
 34 35  1  0  0  0
 37 38  1  0  0  0
 37 47  2  0  0  0
 37 51  1  0  0  0
 38 39  1  0  0  0
 38 48  1  0  0  0
 39 40  1  0  0  0
 40 41  2  0  0  0
 40 42  1  0  0  0
 41 43  1  0  0  0
 42 44  2  0  0  0
 43 45  2  0  0  0
 43 46  1  0  0  0
 44 45  1  0  0  0
 46 49  2  0  0  0
 46 50  1  0  0  0
 51 52  1  0  0  0
 51 56  1  0  0  0
 52 53  1  0  0  0
 53 54  1  0  0  0
 54 55  1  0  0  0
 55 56  1  0  0  0
 67 68  1  0  0  0
 68 69  1  0  0  0
 68 70  1  0  0  0
 68 71  1  0  0  0
M  CHG  1  49   1
M  END
>  <ACTIVITY>
7.02

>  <SET>
1

>  <Min_dist>
999.9

>  <Avg_dist>
999.9

$$$$
28
  Cerius2 12110214423D 1   1.00000                          
Structure written by Cerius2 SD Exporter
 57 59  0  0  0  0  0  0  0  0999 V2000
    3.8944   -6.3679   15.2707 C   0  0  0  0  0  0
    4.0700   -5.1540   15.9425 C   0  0  0  0  0  0
    5.3420   -4.5831   16.0289 C   0  0  0  0  0  0
    6.4356   -5.2307   15.4491 C   0  0  0  0  0  0
    6.7856   -9.1845   10.3654 H   0  0  0  0  0  0
    5.3375  -10.5061    8.5786 H   0  0  0  0  0  0
    6.2362   -9.0707    8.0539 H   0  0  0  0  0  0
    2.8418  -10.4328    8.4959 H   0  0  0  0  0  0
    5.1529   -6.9127    7.6545 H   0  0  0  0  0  0
    3.0878   -5.6907    7.0615 H   0  0  0  0  0  0
    0.8913   -6.7929    7.2776 H   0  0  0  0  0  0
    4.0209  -10.1372   10.9024 H   0  0  0  0  0  0
   -1.5483   -9.3520    7.1074 H   0  0  0  0  0  0
   -0.4813   -8.0472    6.5672 H   0  0  0  0  0  0
    0.9540  -10.9061    9.0762 H   0  0  0  0  0  0
   -0.7186  -11.0040    8.5031 H   0  0  0  0  0  0
    6.1924   -6.7538   10.7536 O   0  0  0  0  0  0
    5.7833   -5.4546   11.2603 C   0  0  0  0  0  0
    4.2981   -4.9999   11.1610 C   0  0  0  0  0  0
    4.2262   -3.9440   11.4596 H   0  0  0  0  0  0
    3.6524   -5.5551   11.8588 H   0  0  0  0  0  0
    3.9143   -5.1065   10.1337 H   0  0  0  0  0  0
    6.4612   -3.4133   10.7647 H   0  0  0  0  0  0
    6.4718   -4.5713    9.4011 H   0  0  0  0  0  0
    6.0579   -5.3868   12.3253 H   0  0  0  0  0  0
    6.6698   -4.4549   10.4776 C   0  0  0  0  0  0
    5.6839  -10.4625   12.6342 S   0  0  0  0  0  0
    6.9803  -11.0610   12.3830 O   0  0  0  0  0  0
    4.6777  -11.2202   13.3518 O   0  0  0  0  0  0
    7.3561   -7.1007   14.1961 C   0  0  0  0  0  0
    7.1806   -8.3142   13.5260 C   0  0  0  0  0  0
    5.9128   -8.8995   13.4544 C   0  0  0  0  0  0
    4.8174   -8.2355   14.0104 C   0  0  0  0  0  0
    4.9865   -7.0193   14.6870 C   0  0  0  0  0  0
    6.2637   -6.4495   14.7800 C   0  0  0  0  0  0
    2.8988   -6.7971   15.2100 H   0  0  0  0  0  0
    5.2437   -7.6835   10.5622 C   0  0  0  0  0  0
    5.7058   -9.0645   10.1829 C   0  0  0  0  0  0
    5.4074   -9.4132    8.6948 C   0  0  0  0  0  0
    4.1209   -8.7304    8.2022 C   0  0  0  0  0  0
    2.8843   -9.3883    8.2082 C   0  0  0  0  0  0
    4.1932   -7.4120    7.7403 C   0  0  0  0  0  0
    1.7116   -8.7136    7.8404 C   0  0  0  0  0  0
    3.0294   -6.7228    7.3937 C   0  0  0  0  0  0
    1.7917   -7.3624    7.4822 C   0  0  0  0  0  0
    0.3634   -9.4122    7.8242 C   0  0  0  0  0  0
    4.0415   -7.5132   10.6667 O   0  0  0  0  0  0
    4.9827   -9.9384   11.0939 N   0  0  0  0  0  0
   -0.6203   -8.9020    7.1252 N   0  3  0  0  0  0
    0.1896  -10.5147    8.5082 N   0  0  0  0  0  0
    7.7342   -4.6623   10.6659 H   0  0  0  0  0  0
    3.2199   -4.6547   16.3971 H   0  0  0  0  0  0
    5.4795   -3.6379   16.5460 H   0  0  0  0  0  0
    7.4188   -4.7760   15.5231 H   0  0  0  0  0  0
    8.3506   -6.6684   14.2563 H   0  0  0  0  0  0
    8.0322   -8.8008   13.0636 H   0  0  0  0  0  0
    3.8312   -8.6767   13.9133 H   0  0  0  0  0  0
  1  2  1  0  0  0
  1 34  2  0  0  0
  1 36  1  0  0  0
  2  3  2  0  0  0
  2 52  1  0  0  0
  3  4  1  0  0  0
  3 53  1  0  0  0
  4 35  2  0  0  0
  4 54  1  0  0  0
  5 38  1  0  0  0
  6 39  1  0  0  0
  7 39  1  0  0  0
  8 41  1  0  0  0
  9 42  1  0  0  0
 10 44  1  0  0  0
 11 45  1  0  0  0
 12 48  1  0  0  0
 13 49  1  0  0  0
 14 49  1  0  0  0
 15 50  1  0  0  0
 16 50  1  0  0  0
 17 18  1  0  0  0
 17 37  1  0  0  0
 18 19  1  0  0  0
 18 25  1  0  0  0
 18 26  1  0  0  0
 19 20  1  0  0  0
 19 21  1  0  0  0
 19 22  1  0  0  0
 23 26  1  0  0  0
 24 26  1  0  0  0
 26 51  1  0  0  0
 27 28  2  0  0  0
 27 29  2  0  0  0
 27 32  1  0  0  0
 27 48  1  0  0  0
 30 31  2  0  0  0
 30 35  1  0  0  0
 30 55  1  0  0  0
 31 32  1  0  0  0
 31 56  1  0  0  0
 32 33  2  0  0  0
 33 34  1  0  0  0
 33 57  1  0  0  0
 34 35  1  0  0  0
 37 38  1  0  0  0
 37 47  2  0  0  0
 38 39  1  0  0  0
 38 48  1  0  0  0
 39 40  1  0  0  0
 40 41  2  0  0  0
 40 42  1  0  0  0
 41 43  1  0  0  0
 42 44  2  0  0  0
 43 45  2  0  0  0
 43 46  1  0  0  0
 44 45  1  0  0  0
 46 49  2  0  0  0
 46 50  1  0  0  0
M  CHG  1  49   1
M  END
>  <ACTIVITY>
6.96

>  <SET>
1

>  <Min_dist>
999.9

>  <Avg_dist>
999.9

$$$$
29
  Cerius2 12110214423D 1   1.00000                          
Structure written by Cerius2 SD Exporter
 66 70  0  0  0  0  0  0  0  0999 V2000
    3.8887   -6.3616   15.2996 C   0  0  0  0  0  0
    4.0564   -5.1458   15.9681 C   0  0  0  0  0  0
    5.3270   -4.5704   16.0564 C   0  0  0  0  0  0
    6.4273   -5.2189   15.4925 C   0  0  0  0  0  0
    6.5931   -9.5184   10.3683 H   0  0  0  0  0  0
    5.1414  -10.5292    8.6120 H   0  0  0  0  0  0
    6.0650   -9.1441    8.0314 H   0  0  0  0  0  0
    2.7561  -10.3879    8.4389 H   0  0  0  0  0  0
    5.1014   -6.8573    7.7537 H   0  0  0  0  0  0
    3.0624   -5.6631    7.0230 H   0  0  0  0  0  0
    0.8496   -6.7158    7.2587 H   0  0  0  0  0  0
    3.8437   -9.9930   11.0425 H   0  0  0  0  0  0
   -1.6542   -9.4005    7.1001 H   0  0  0  0  0  0
   -0.6352   -8.0881    6.5360 H   0  0  0  0  0  0
    0.8074  -10.9085    9.0455 H   0  0  0  0  0  0
   -0.8230  -11.0110    8.4181 H   0  0  0  0  0  0
    9.4758   -6.1170    8.8537 H   0  0  0  0  0  0
    6.0898   -5.3174   10.6830 C   0  0  0  0  0  0
    6.4634   -6.6887   10.2724 N   0  0  0  0  0  0
    7.6849   -6.8977    9.6837 C   0  0  0  0  0  0
    8.5177   -5.9110    9.3352 C   0  0  0  0  0  0
    9.0674   -3.4604    9.1710 C   0  0  0  0  0  0
    8.7619   -2.1257    9.4402 C   0  0  0  0  0  0
    5.6363  -10.4365   12.6599 S   0  0  0  0  0  0
    6.9192  -11.0109   12.3054 O   0  0  0  0  0  0
    4.7017  -11.2240   13.4388 O   0  0  0  0  0  0
    7.3640   -7.1170   14.2863 C   0  0  0  0  0  0
    7.1850   -8.3168   13.5885 C   0  0  0  0  0  0
    5.9119   -8.8869   13.4925 C   0  0  0  0  0  0
    4.8181   -8.2247   14.0507 C   0  0  0  0  0  0
    4.9880   -7.0112   14.7290 C   0  0  0  0  0  0
    6.2661   -6.4474   14.8346 C   0  0  0  0  0  0
    2.8955   -6.7952   15.2321 H   0  0  0  0  0  0
    5.5180   -7.6419   10.5436 C   0  0  0  0  0  0
    5.5996   -9.1159   10.1989 C   0  0  0  0  0  0
    5.2578   -9.4376    8.7166 C   0  0  0  0  0  0
    4.0217   -8.6810    8.2224 C   0  0  0  0  0  0
    2.7845   -9.3332    8.1854 C   0  0  0  0  0  0
    4.1386   -7.3575    7.7890 C   0  0  0  0  0  0
    1.6072   -8.6660    7.8182 C   0  0  0  0  0  0
    2.9839   -6.6825    7.3909 C   0  0  0  0  0  0
    1.7348   -7.3105    7.4716 C   0  0  0  0  0  0
    0.2676   -9.3969    7.7956 C   0  0  0  0  0  0
    4.4795   -7.3323   11.1099 O   0  0  0  0  0  0
    4.8252   -9.8698   11.1756 N   0  0  0  0  0  0
   -0.7401   -8.9290    7.1027 N   0  3  0  0  0  0
    0.0749  -10.5118    8.4591 N   0  0  0  0  0  0
    7.5860   -1.8119   10.1284 C   0  0  0  0  0  0
    6.7165   -2.8271   10.5440 C   0  0  0  0  0  0
    7.0137   -4.1670   10.2668 C   0  0  0  0  0  0
    8.1939   -4.4658    9.5922 C   0  0  0  0  0  0
    6.0291   -5.2852   11.7837 H   0  0  0  0  0  0
    5.0946   -5.0622   10.2805 H   0  0  0  0  0  0
    9.9794   -3.7137    8.6395 H   0  0  0  0  0  0
    3.2015   -4.6490   16.4164 H   0  0  0  0  0  0
    5.4559   -3.6196   16.5660 H   0  0  0  0  0  0
    7.4080   -4.7580   15.5659 H   0  0  0  0  0  0
    8.3655   -6.7126   14.3982 H   0  0  0  0  0  0
    8.0381   -8.7993   13.1248 H   0  0  0  0  0  0
    3.8329   -8.6654   13.9496 H   0  0  0  0  0  0
    9.4382   -1.3409    9.1157 H   0  0  0  0  0  0
    7.3513   -0.7735   10.3384 H   0  0  0  0  0  0
    5.8108   -2.5709   11.0842 H   0  0  0  0  0  0
    8.3006   -8.1957    9.3522 C   0  0  0  0  0  0
    8.8221   -8.8636   10.2870 O   0  5  0  0  0  0
    8.3482   -8.5627    8.1480 O   0  0  0  0  0  0
  1  2  1  0  0  0
  1 31  2  0  0  0
  1 33  1  0  0  0
  2  3  2  0  0  0
  2 55  1  0  0  0
  3  4  1  0  0  0
  3 56  1  0  0  0
  4 32  2  0  0  0
  4 57  1  0  0  0
  5 35  1  0  0  0
  6 36  1  0  0  0
  7 36  1  0  0  0
  8 38  1  0  0  0
  9 39  1  0  0  0
 10 41  1  0  0  0
 11 42  1  0  0  0
 12 45  1  0  0  0
 13 46  1  0  0  0
 14 46  1  0  0  0
 15 47  1  0  0  0
 16 47  1  0  0  0
 17 21  1  0  0  0
 18 19  1  0  0  0
 18 50  1  0  0  0
 18 52  1  0  0  0
 18 53  1  0  0  0
 19 20  1  0  0  0
 19 34  1  0  0  0
 20 21  2  0  0  0
 20 64  1  0  0  0
 21 51  1  0  0  0
 22 23  1  0  0  0
 22 51  2  0  0  0
 22 54  1  0  0  0
 23 48  2  0  0  0
 23 61  1  0  0  0
 24 25  2  0  0  0
 24 26  2  0  0  0
 24 29  1  0  0  0
 24 45  1  0  0  0
 27 28  2  0  0  0
 27 32  1  0  0  0
 27 58  1  0  0  0
 28 29  1  0  0  0
 28 59  1  0  0  0
 29 30  2  0  0  0
 30 31  1  0  0  0
 30 60  1  0  0  0
 31 32  1  0  0  0
 34 35  1  0  0  0
 34 44  2  0  0  0
 35 36  1  0  0  0
 35 45  1  0  0  0
 36 37  1  0  0  0
 37 38  2  0  0  0
 37 39  1  0  0  0
 38 40  1  0  0  0
 39 41  2  0  0  0
 40 42  2  0  0  0
 40 43  1  0  0  0
 41 42  1  0  0  0
 43 46  2  0  0  0
 43 47  1  0  0  0
 48 49  1  0  0  0
 48 62  1  0  0  0
 49 50  2  0  0  0
 49 63  1  0  0  0
 50 51  1  0  0  0
 64 65  1  0  0  0
 64 66  2  0  0  0
M  CHG  2  46   1  65  -1
M  END
>  <ACTIVITY>
6.92

>  <SET>
2

>  <Min_dist>
0.18

>  <Avg_dist>
0.33

$$$$
30
  Cerius2 12110214423D 1   1.00000                          
Structure written by Cerius2 SD Exporter
 66 70  0  0  0  0  0  0  0  0999 V2000
    3.8361   -6.3364   15.2124 C   0  0  0  0  0  0
    4.0187   -5.1269   15.8884 C   0  0  0  0  0  0
    5.2962   -4.5721   15.9952 C   0  0  0  0  0  0
    6.3940   -5.2494   15.4568 C   0  0  0  0  0  0
    6.7717   -9.6892   10.2084 H   0  0  0  0  0  0
    5.1840  -10.6149    8.4626 H   0  0  0  0  0  0
    6.1070   -9.2056    7.8955 H   0  0  0  0  0  0
    2.7183  -10.4493    8.5537 H   0  0  0  0  0  0
    5.0511   -6.9373    7.7208 H   0  0  0  0  0  0
    2.9886   -5.6892    7.1924 H   0  0  0  0  0  0
    0.7896   -6.8034    7.3274 H   0  0  0  0  0  0
    3.9650  -10.0077   10.8846 H   0  0  0  0  0  0
   -1.6407   -9.3624    7.1182 H   0  0  0  0  0  0
   -0.5714   -8.0437    6.6139 H   0  0  0  0  0  0
    0.8572  -10.9404    9.0820 H   0  0  0  0  0  0
   -0.8125  -11.0391    8.4978 H   0  0  0  0  0  0
    6.5108   -6.7898   10.1295 N   0  0  0  0  0  0
    7.7728   -7.1257    9.4475 C   0  0  0  0  0  0
    8.9463   -6.2509    9.9324 C   0  0  0  0  0  0
    8.6159   -4.7846    9.6071 C   0  0  0  0  0  0
    7.0088   -3.0688   10.4713 C   0  0  0  0  0  0
    5.7959   -2.6430   11.0127 C   0  0  0  0  0  0
    5.6413  -10.4925   12.6484 S   0  0  0  0  0  0
    6.9410  -11.0923   12.4146 O   0  0  0  0  0  0
    4.6205  -11.2647   13.3267 O   0  0  0  0  0  0
    7.3276   -7.2255   14.3926 C   0  0  0  0  0  0
    7.1513   -8.4871   13.8195 C   0  0  0  0  0  0
    5.8662   -8.9615   13.5406 C   0  0  0  0  0  0
    4.7599   -8.2177   13.9651 C   0  0  0  0  0  0
    4.9330   -7.0189   14.6686 C   0  0  0  0  0  0
    6.2207   -6.4928   14.8382 C   0  0  0  0  0  0
    2.8338   -6.7427   15.1182 H   0  0  0  0  0  0
    5.6065   -7.7935   10.3736 C   0  0  0  0  0  0
    5.7715   -9.2635   10.0530 C   0  0  0  0  0  0
    5.3158   -9.5293    8.5905 C   0  0  0  0  0  0
    4.0244   -8.7770    8.2096 C   0  0  0  0  0  0
    2.7754   -9.4103    8.2494 C   0  0  0  0  0  0
    4.0927   -7.4397    7.7995 C   0  0  0  0  0  0
    1.6071   -8.7263    7.8869 C   0  0  0  0  0  0
    2.9292   -6.7337    7.4844 C   0  0  0  0  0  0
    1.6884   -7.3719    7.5446 C   0  0  0  0  0  0
    0.2628   -9.4302    7.8525 C   0  0  0  0  0  0
    4.5113   -7.6269   10.8776 O   0  0  0  0  0  0
    4.9526   -9.9643   11.0351 N   0  0  0  0  0  0
   -0.7148   -8.9097    7.1539 N   0  3  0  0  0  0
    0.0925  -10.5448    8.5166 N   0  0  0  0  0  0
    4.8115   -3.5916   11.2720 C   0  0  0  0  0  0
    5.0463   -4.9361   10.9887 C   0  0  0  0  0  0
    6.2606   -5.4004   10.4381 C   0  0  0  0  0  0
    7.2432   -4.4234   10.1915 C   0  0  0  0  0  0
    7.6363   -7.0229    8.3588 H   0  0  0  0  0  0
    8.1485   -8.1364    9.6417 H   0  0  0  0  0  0
    3.1689   -4.6159   16.3317 H   0  0  0  0  0  0
    5.4367   -3.6194   16.4969 H   0  0  0  0  0  0
    7.3800   -4.8001   15.5291 H   0  0  0  0  0  0
    8.3309   -6.8227   14.4942 H   0  0  0  0  0  0
    8.0194   -9.0981   13.5970 H   0  0  0  0  0  0
    3.7638   -8.5876   13.7466 H   0  0  0  0  0  0
    9.8869   -6.5504    9.4358 H   0  0  0  0  0  0
    9.0698   -6.3789   11.0211 H   0  0  0  0  0  0
    8.5865   -4.6384    8.5156 H   0  0  0  0  0  0
    9.4166   -4.1478   10.0194 H   0  0  0  0  0  0
    7.7718   -2.3244   10.2688 H   0  0  0  0  0  0
    5.6111   -1.5960   11.2313 H   0  0  0  0  0  0
    3.8580   -3.2837   11.6946 H   0  0  0  0  0  0
    4.2010   -5.5479   11.2371 H   0  0  0  0  0  0
  1  2  1  0  0  0
  1 30  2  0  0  0
  1 32  1  0  0  0
  2  3  2  0  0  0
  2 53  1  0  0  0
  3  4  1  0  0  0
  3 54  1  0  0  0
  4 31  2  0  0  0
  4 55  1  0  0  0
  5 34  1  0  0  0
  6 35  1  0  0  0
  7 35  1  0  0  0
  8 37  1  0  0  0
  9 38  1  0  0  0
 10 40  1  0  0  0
 11 41  1  0  0  0
 12 44  1  0  0  0
 13 45  1  0  0  0
 14 45  1  0  0  0
 15 46  1  0  0  0
 16 46  1  0  0  0
 17 18  1  0  0  0
 17 33  1  0  0  0
 17 49  1  0  0  0
 18 19  1  0  0  0
 18 51  1  0  0  0
 18 52  1  0  0  0
 19 20  1  0  0  0
 19 59  1  0  0  0
 19 60  1  0  0  0
 20 50  1  0  0  0
 20 61  1  0  0  0
 20 62  1  0  0  0
 21 22  1  0  0  0
 21 50  2  0  0  0
 21 63  1  0  0  0
 22 47  2  0  0  0
 22 64  1  0  0  0
 23 24  2  0  0  0
 23 25  2  0  0  0
 23 28  1  0  0  0
 23 44  1  0  0  0
 26 27  2  0  0  0
 26 31  1  0  0  0
 26 56  1  0  0  0
 27 28  1  0  0  0
 27 57  1  0  0  0
 28 29  2  0  0  0
 29 30  1  0  0  0
 29 58  1  0  0  0
 30 31  1  0  0  0
 33 34  1  0  0  0
 33 43  2  0  0  0
 34 35  1  0  0  0
 34 44  1  0  0  0
 35 36  1  0  0  0
 36 37  2  0  0  0
 36 38  1  0  0  0
 37 39  1  0  0  0
 38 40  2  0  0  0
 39 41  2  0  0  0
 39 42  1  0  0  0
 40 41  1  0  0  0
 42 45  2  0  0  0
 42 46  1  0  0  0
 47 48  1  0  0  0
 47 65  1  0  0  0
 48 49  2  0  0  0
 48 66  1  0  0  0
 49 50  1  0  0  0
M  CHG  1  45   1
M  END
>  <ACTIVITY>
6.92

>  <SET>
2

>  <Min_dist>
0.08

>  <Avg_dist>
0.24

$$$$
31
  Cerius2 12110214423D 1   1.00000                          
Structure written by Cerius2 SD Exporter
 61 63  0  0  0  0  0  0  0  0999 V2000
    3.9004   -6.3681   15.3029 C   0  0  0  0  0  0
    4.0654   -5.1524   15.9713 C   0  0  0  0  0  0
    5.3322   -4.5703   16.0569 C   0  0  0  0  0  0
    6.4316   -5.2066   15.4723 C   0  0  0  0  0  0
    6.7563   -9.3111   10.3338 H   0  0  0  0  0  0
    5.1382  -10.5488    8.7061 H   0  0  0  0  0  0
    6.1046   -9.2541    8.0144 H   0  0  0  0  0  0
    2.7552  -10.3980    8.4944 H   0  0  0  0  0  0
    5.0976   -6.8857    7.7407 H   0  0  0  0  0  0
    3.0671   -5.6784    7.0286 H   0  0  0  0  0  0
    0.8598   -6.7523    7.1964 H   0  0  0  0  0  0
    3.9573   -9.9684   11.0201 H   0  0  0  0  0  0
   -1.6025   -9.3670    7.0563 H   0  0  0  0  0  0
   -0.5490   -8.0604    6.5011 H   0  0  0  0  0  0
    0.8770  -10.8636    9.0829 H   0  0  0  0  0  0
   -0.7748  -10.9888    8.4673 H   0  0  0  0  0  0
    6.3276   -6.6245   10.1194 N   0  0  0  0  0  0
    6.0819   -5.2129   10.4414 C   0  0  0  0  0  0
    7.2327   -4.2834    9.9716 C   0  0  0  0  0  0
    6.9675   -2.8115   10.3916 C   0  0  0  0  0  0
    8.0996   -1.8752    9.9006 C   0  0  0  0  0  0
    7.1465   -6.8578    9.5956 H   0  0  0  0  0  0
    5.1412   -4.8806    9.9691 H   0  0  0  0  0  0
    5.9979   -5.0744   11.5315 H   0  0  0  0  0  0
    7.3158   -4.3488    8.8747 H   0  0  0  0  0  0
    8.1827   -4.6248   10.4175 H   0  0  0  0  0  0
    5.6925  -10.4195   12.6275 S   0  0  0  0  0  0
    6.9821  -10.9970   12.2998 O   0  0  0  0  0  0
    4.7251  -11.2061   13.3679 O   0  0  0  0  0  0
    7.3657   -7.0650   14.2083 C   0  0  0  0  0  0
    7.1983   -8.2812   13.5406 C   0  0  0  0  0  0
    5.9349   -8.8738   13.4709 C   0  0  0  0  0  0
    4.8380   -8.2276   14.0476 C   0  0  0  0  0  0
    4.9991   -7.0088   14.7156 C   0  0  0  0  0  0
    6.2699   -6.4233   14.7997 C   0  0  0  0  0  0
    2.9104   -6.8097   15.2452 H   0  0  0  0  0  0
    5.4573   -7.5891   10.5127 C   0  0  0  0  0  0
    5.6936   -9.0543   10.1876 C   0  0  0  0  0  0
    5.2972   -9.4580    8.7342 C   0  0  0  0  0  0
    4.0469   -8.7110    8.2387 C   0  0  0  0  0  0
    2.8027   -9.3528    8.2142 C   0  0  0  0  0  0
    4.1377   -7.3894    7.7876 C   0  0  0  0  0  0
    1.6425   -8.6752    7.8199 C   0  0  0  0  0  0
    2.9906   -6.7016    7.3855 C   0  0  0  0  0  0
    1.7435   -7.3306    7.4434 C   0  0  0  0  0  0
    0.2997   -9.3895    7.7952 C   0  0  0  0  0  0
    4.4497   -7.3192   11.1465 O   0  0  0  0  0  0
    4.9413   -9.8432   11.1582 N   0  0  0  0  0  0
   -0.6807   -8.9050    7.0749 N   0  3  0  0  0  0
    0.1254  -10.4860    8.4896 N   0  0  0  0  0  0
    6.9008   -2.7458   11.4909 H   0  0  0  0  0  0
    6.0089   -2.4725    9.9646 H   0  0  0  0  0  0
    7.8883   -0.8368   10.2014 H   0  0  0  0  0  0
    8.1778   -1.9156    8.8030 H   0  0  0  0  0  0
    9.0624   -2.1809   10.3386 H   0  0  0  0  0  0
    3.2102   -4.6599   16.4245 H   0  0  0  0  0  0
    5.4619   -3.6259   16.5767 H   0  0  0  0  0  0
    7.4106   -4.7431   15.5486 H   0  0  0  0  0  0
    8.3561   -6.6235   14.2640 H   0  0  0  0  0  0
    8.0524   -8.7643   13.0781 H   0  0  0  0  0  0
    3.8585   -8.6872   13.9687 H   0  0  0  0  0  0
  1  2  1  0  0  0
  1 34  2  0  0  0
  1 36  1  0  0  0
  2  3  2  0  0  0
  2 56  1  0  0  0
  3  4  1  0  0  0
  3 57  1  0  0  0
  4 35  2  0  0  0
  4 58  1  0  0  0
  5 38  1  0  0  0
  6 39  1  0  0  0
  7 39  1  0  0  0
  8 41  1  0  0  0
  9 42  1  0  0  0
 10 44  1  0  0  0
 11 45  1  0  0  0
 12 48  1  0  0  0
 13 49  1  0  0  0
 14 49  1  0  0  0
 15 50  1  0  0  0
 16 50  1  0  0  0
 17 18  1  0  0  0
 17 22  1  0  0  0
 17 37  1  0  0  0
 18 19  1  0  0  0
 18 23  1  0  0  0
 18 24  1  0  0  0
 19 20  1  0  0  0
 19 25  1  0  0  0
 19 26  1  0  0  0
 20 21  1  0  0  0
 20 51  1  0  0  0
 20 52  1  0  0  0
 21 53  1  0  0  0
 21 54  1  0  0  0
 21 55  1  0  0  0
 27 28  2  0  0  0
 27 29  2  0  0  0
 27 32  1  0  0  0
 27 48  1  0  0  0
 30 31  2  0  0  0
 30 35  1  0  0  0
 30 59  1  0  0  0
 31 32  1  0  0  0
 31 60  1  0  0  0
 32 33  2  0  0  0
 33 34  1  0  0  0
 33 61  1  0  0  0
 34 35  1  0  0  0
 37 38  1  0  0  0
 37 47  2  0  0  0
 38 39  1  0  0  0
 38 48  1  0  0  0
 39 40  1  0  0  0
 40 41  2  0  0  0
 40 42  1  0  0  0
 41 43  1  0  0  0
 42 44  2  0  0  0
 43 45  2  0  0  0
 43 46  1  0  0  0
 44 45  1  0  0  0
 46 49  2  0  0  0
 46 50  1  0  0  0
M  CHG  1  49   1
M  END
>  <ACTIVITY>
6.92

>  <SET>
2

>  <Min_dist>
0.02

>  <Avg_dist>
0.33

$$$$
32
  Cerius2 12110214423D 1   1.00000                          
Structure written by Cerius2 SD Exporter
 68 71  0  0  0  0  0  0  0  0999 V2000
    3.3996   -6.2086   14.8607 C   0  0  0  0  0  0
    3.4413   -4.9326   15.4298 C   0  0  0  0  0  0
    4.6615   -4.2632   15.5491 C   0  0  0  0  0  0
    5.8374   -4.8722   15.1033 C   0  0  0  0  0  0
    6.7676   -9.3598   10.3548 H   0  0  0  0  0  0
    5.2449  -10.4980    8.5848 H   0  0  0  0  0  0
    6.1500   -9.0982    8.0072 H   0  0  0  0  0  0
    2.8410  -10.3953    8.4276 H   0  0  0  0  0  0
    5.0897   -6.8347    7.7747 H   0  0  0  0  0  0
    3.0365   -5.6437    7.1055 H   0  0  0  0  0  0
    0.8721   -6.7072    7.3057 H   0  0  0  0  0  0
    4.0139  -10.1429   10.8790 H   0  0  0  0  0  0
   -1.6309   -9.3907    7.1053 H   0  0  0  0  0  0
   -0.6299   -8.0629    6.5483 H   0  0  0  0  0  0
    0.8421  -10.9491    9.0212 H   0  0  0  0  0  0
   -0.7934  -11.0267    8.3926 H   0  0  0  0  0  0
    7.5163   -6.2075    8.4762 H   0  0  0  0  0  0
    7.7860   -7.8214    9.1270 H   0  0  0  0  0  0
    9.1816   -4.3937   11.3495 H   0  0  0  0  0  0
    8.6803   -6.8446   11.2509 H   0  0  0  0  0  0
    8.4111   -4.1512    9.7553 H   0  0  0  0  0  0
   11.7775   -7.7957    8.9323 C   0  0  0  0  0  0
    6.8002   -3.5403   11.5611 H   0  0  0  0  0  0
    7.0183   -5.1360   12.2923 H   0  0  0  0  0  0
    4.9295   -5.1200   10.9891 H   0  0  0  0  0  0
    5.8135   -4.6269    9.5313 H   0  0  0  0  0  0
    5.6303  -10.3302   12.6695 S   0  0  0  0  0  0
    6.9749  -10.8430   12.4859 O   0  0  0  0  0  0
    4.6554  -11.1214   13.3940 O   0  0  0  0  0  0
    6.9783   -6.7841   14.1187 C   0  0  0  0  0  0
    6.9324   -8.0459   13.5205 C   0  0  0  0  0  0
    5.7131   -8.7174   13.4059 C   0  0  0  0  0  0
    4.5392   -8.1014   13.8459 C   0  0  0  0  0  0
    4.5761   -6.8237   14.4179 C   0  0  0  0  0  0
    5.8022   -6.1583   14.5483 C   0  0  0  0  0  0
    2.4438   -6.7154   14.7689 H   0  0  0  0  0  0
    5.4685   -7.6201   10.4949 C   0  0  0  0  0  0
    5.7210   -9.0782   10.1670 C   0  0  0  0  0  0
    5.3460   -9.4065    8.6910 C   0  0  0  0  0  0
    4.0669   -8.6852    8.2257 C   0  0  0  0  0  0
    2.8314   -9.3427    8.1851 C   0  0  0  0  0  0
    4.1385   -7.3518    7.8136 C   0  0  0  0  0  0
    1.6418   -8.6819    7.8315 C   0  0  0  0  0  0
    2.9780   -6.6745    7.4426 C   0  0  0  0  0  0
    1.7412   -7.3190    7.5084 C   0  0  0  0  0  0
    0.2964   -9.4027    7.7933 C   0  0  0  0  0  0
    4.4441   -7.4179   11.1277 O   0  0  0  0  0  0
    4.9586   -9.8991   11.1007 N   0  0  0  0  0  0
   -0.7153   -8.9174    7.1090 N   0  3  0  0  0  0
    0.1084  -10.5298    8.4411 N   0  0  0  0  0  0
    6.2792   -6.5855   10.1238 N   0  0  0  0  0  0
    7.5414   -6.7920    9.4094 C   0  0  0  0  0  0
    8.6694   -6.2504   10.3208 C   0  0  0  0  0  0
    8.3932   -4.7626   10.6715 C   0  0  0  0  0  0
    7.0070   -4.6004   11.3420 C   0  0  0  0  0  0
    5.8923   -5.2117   10.4609 C   0  0  0  0  0  0
   12.5161   -8.1371    9.6725 H   0  0  0  0  0  0
   12.1926   -6.9167    8.4146 H   0  0  0  0  0  0
   11.6464   -8.5932    8.1864 H   0  0  0  0  0  0
    2.5271   -4.4626   15.7792 H   0  0  0  0  0  0
    4.6947   -3.2708   15.9888 H   0  0  0  0  0  0
    6.7772   -4.3358   15.1925 H   0  0  0  0  0  0
    7.9391   -6.2900   14.2329 H   0  0  0  0  0  0
    7.8439   -8.4991   13.1467 H   0  0  0  0  0  0
    3.5966   -8.6264   13.7340 H   0  0  0  0  0  0
    9.9943   -6.3941    9.6109 C   0  0  0  0  0  0
   10.5200   -5.4257    9.0845 O   0  0  0  0  0  0
   10.5090   -7.6357    9.6082 O   0  0  0  0  0  0
  1  2  1  0  0  0
  1 34  2  0  0  0
  1 36  1  0  0  0
  2  3  2  0  0  0
  2 60  1  0  0  0
  3  4  1  0  0  0
  3 61  1  0  0  0
  4 35  2  0  0  0
  4 62  1  0  0  0
  5 38  1  0  0  0
  6 39  1  0  0  0
  7 39  1  0  0  0
  8 41  1  0  0  0
  9 42  1  0  0  0
 10 44  1  0  0  0
 11 45  1  0  0  0
 12 48  1  0  0  0
 13 49  1  0  0  0
 14 49  1  0  0  0
 15 50  1  0  0  0
 16 50  1  0  0  0
 17 52  1  0  0  0
 18 52  1  0  0  0
 19 54  1  0  0  0
 20 53  1  0  0  0
 21 54  1  0  0  0
 22 57  1  0  0  0
 22 58  1  0  0  0
 22 59  1  0  0  0
 22 68  1  0  0  0
 23 55  1  0  0  0
 24 55  1  0  0  0
 25 56  1  0  0  0
 26 56  1  0  0  0
 27 28  2  0  0  0
 27 29  2  0  0  0
 27 32  1  0  0  0
 27 48  1  0  0  0
 30 31  2  0  0  0
 30 35  1  0  0  0
 30 63  1  0  0  0
 31 32  1  0  0  0
 31 64  1  0  0  0
 32 33  2  0  0  0
 33 34  1  0  0  0
 33 65  1  0  0  0
 34 35  1  0  0  0
 37 38  1  0  0  0
 37 47  2  0  0  0
 37 51  1  0  0  0
 38 39  1  0  0  0
 38 48  1  0  0  0
 39 40  1  0  0  0
 40 41  2  0  0  0
 40 42  1  0  0  0
 41 43  1  0  0  0
 42 44  2  0  0  0
 43 45  2  0  0  0
 43 46  1  0  0  0
 44 45  1  0  0  0
 46 49  2  0  0  0
 46 50  1  0  0  0
 51 52  1  0  0  0
 51 56  1  0  0  0
 52 53  1  0  0  0
 53 54  1  0  0  0
 53 66  1  0  0  0
 54 55  1  0  0  0
 55 56  1  0  0  0
 66 67  2  0  0  0
 66 68  1  0  0  0
M  CHG  1  49   1
M  END
>  <ACTIVITY>
6.82

>  <SET>
1

>  <Min_dist>
999.9

>  <Avg_dist>
999.9

$$$$
33
  Cerius2 12110214423D 1   1.00000                          
Structure written by Cerius2 SD Exporter
 89 91  0  0  0  0  0  0  0  0999 V2000
    3.8472   -8.0047   13.7901 C   0  0  0  0  0  0
    5.1195   -5.7535   14.5175 H   0  0  0  0  0  0
    7.6389   -4.9849   15.1782 C   0  0  0  0  0  0
    8.8075   -9.5147   13.4018 C   0  0  0  0  0  0
    9.1336   -6.9215   13.8975 H   0  0  0  0  0  0
    3.5640   -8.8128   13.1047 H   0  0  0  0  0  0
    8.4804   -4.0242   14.3002 C   0  0  0  0  0  0
    6.7820   -9.3112   10.1264 H   0  0  0  0  0  0
    5.2482  -10.6100    8.4982 H   0  0  0  0  0  0
    6.1795   -9.2876    7.7681 H   0  0  0  0  0  0
    2.8058  -10.5378    8.2156 H   0  0  0  0  0  0
    5.1224   -7.0584    7.3175 H   0  0  0  0  0  0
    3.0501   -5.7321    7.0260 H   0  0  0  0  0  0
    0.8546   -6.7585    7.5050 H   0  0  0  0  0  0
    3.9422   -9.6848   10.8133 H   0  0  0  0  0  0
   -1.6464   -9.2806    7.2208 H   0  0  0  0  0  0
   -0.5897   -7.9462    6.7307 H   0  0  0  0  0  0
    0.9439  -11.0384    8.8848 H   0  0  0  0  0  0
   -0.7634  -11.0607    8.4134 H   0  0  0  0  0  0
    7.6641   -6.3760    8.0396 H   0  0  0  0  0  0
    7.9571   -7.8807    8.9154 H   0  0  0  0  0  0
    9.8014   -6.2473    9.3141 H   0  0  0  0  0  0
    8.9291   -6.6375   10.8255 H   0  0  0  0  0  0
    8.3979   -4.1605    9.0859 H   0  0  0  0  0  0
    9.6485   -3.9081   10.7558 C   0  0  0  0  0  0
    6.9409   -3.4651   11.0491 H   0  0  0  0  0  0
    7.2264   -5.0798   11.7843 H   0  0  0  0  0  0
    5.0971   -5.0152   10.5241 H   0  0  0  0  0  0
    5.9515   -4.6125    9.0183 H   0  0  0  0  0  0
    5.7202  -10.2286   12.4353 S   0  0  0  0  0  0
    6.7974  -11.0460   11.9382 O   0  0  0  0  0  0
    4.7294  -10.8711   13.2707 O   0  0  0  0  0  0
    6.3074   -8.7123   13.2794 C   0  0  0  0  0  0
    5.3760   -7.7557   13.7366 C   0  0  0  0  0  0
    5.8208   -6.5243   14.2368 C   0  0  0  0  0  0
    7.1782   -6.2531   14.4215 C   0  0  0  0  0  0
    8.0894   -7.1917   13.9360 C   0  0  0  0  0  0
    7.6767   -8.4647   13.5209 C   0  0  0  0  0  0
    8.4272   -5.4075   16.4459 C   0  0  0  0  0  0
    5.5404   -7.5240   10.0575 C   0  0  0  0  0  0
    5.7509   -9.0127    9.9023 C   0  0  0  0  0  0
    5.3720   -9.5171    8.4793 C   0  0  0  0  0  0
    4.0871   -8.8284    7.9960 C   0  0  0  0  0  0
    2.8441   -9.4730    8.0219 C   0  0  0  0  0  0
    4.1595   -7.5141    7.5257 C   0  0  0  0  0  0
    1.6594   -8.7520    7.7924 C   0  0  0  0  0  0
    2.9908   -6.7730    7.3316 C   0  0  0  0  0  0
    1.7477   -7.3746    7.5404 C   0  0  0  0  0  0
    0.3046   -9.4308    7.8072 C   0  0  0  0  0  0
    4.4536   -7.2485   10.5368 O   0  0  0  0  0  0
    4.9364   -9.6327   10.9437 N   0  0  0  0  0  0
   -0.7105   -8.8462    7.2200 N   0  3  0  0  0  0
    0.1530  -10.5865    8.4025 N   0  0  0  0  0  0
    6.4180   -6.5446    9.7102 N   0  0  0  0  0  0
    7.6983   -6.8220    9.0473 C   0  0  0  0  0  0
    8.8407   -6.1432    9.8463 C   0  0  0  0  0  0
    8.5176   -4.6420   10.0732 C   0  0  0  0  0  0
    7.1717   -4.5239   10.8348 C   0  0  0  0  0  0
    6.0456   -5.1496    9.9774 C   0  0  0  0  0  0
    9.8674   -2.7380   10.4773 O   0  0  0  0  0  0
   10.3685   -4.6032   11.6481 O   0  0  0  0  0  0
   11.6097   -3.9931   12.0623 C   0  0  0  0  0  0
    6.7619   -4.4127   15.5250 H   0  0  0  0  0  0
    2.9201   -6.8127   13.3954 C   0  0  0  0  0  0
    3.5267   -8.4375   15.2466 C   0  0  0  0  0  0
    8.4033  -10.5311   13.3663 H   0  0  0  0  0  0
    9.6889   -9.5905   14.6828 C   0  0  0  0  0  0
    9.6765   -9.2509   12.1418 C   0  0  0  0  0  0
    9.3140   -4.5603   13.8272 H   0  0  0  0  0  0
    8.9052   -3.2050   14.8959 H   0  0  0  0  0  0
    7.8404   -3.5859   13.5258 H   0  0  0  0  0  0
    7.8063   -6.0771   17.0596 H   0  0  0  0  0  0
    8.6866   -4.5221   17.0443 H   0  0  0  0  0  0
    9.3564   -5.9321   16.1796 H   0  0  0  0  0  0
    2.9313   -5.9856   14.1189 H   0  0  0  0  0  0
    1.8751   -7.1644   13.3472 H   0  0  0  0  0  0
    3.1846   -6.4083   12.4094 H   0  0  0  0  0  0
    4.1574   -9.2909   15.5427 H   0  0  0  0  0  0
    2.4695   -8.7307   15.3484 H   0  0  0  0  0  0
    3.7256   -7.6049   15.9409 H   0  0  0  0  0  0
   10.2758   -8.6786   14.8563 H   0  0  0  0  0  0
   10.4027  -10.4278   14.6030 H   0  0  0  0  0  0
    9.0487   -9.7661   15.5621 H   0  0  0  0  0  0
    9.0390   -9.1957   11.2458 H   0  0  0  0  0  0
   10.4085  -10.0627   11.9977 H   0  0  0  0  0  0
   10.2329   -8.3052   12.2358 H   0  0  0  0  0  0
   12.3969   -4.2517   11.3399 H   0  0  0  0  0  0
   11.8770   -4.4355   13.0283 H   0  0  0  0  0  0
   11.5817   -2.9001   12.1851 H   0  0  0  0  0  0
  1  6  1  0  0  0
  1 34  1  0  0  0
  1 64  1  0  0  0
  1 65  1  0  0  0
  2 35  1  0  0  0
  3  7  1  0  0  0
  3 36  1  0  0  0
  3 39  1  0  0  0
  3 63  1  0  0  0
  4 38  1  0  0  0
  4 66  1  0  0  0
  4 67  1  0  0  0
  4 68  1  0  0  0
  5 37  1  0  0  0
  7 69  1  0  0  0
  7 70  1  0  0  0
  7 71  1  0  0  0
  8 41  1  0  0  0
  9 42  1  0  0  0
 10 42  1  0  0  0
 11 44  1  0  0  0
 12 45  1  0  0  0
 13 47  1  0  0  0
 14 48  1  0  0  0
 15 51  1  0  0  0
 16 52  1  0  0  0
 17 52  1  0  0  0
 18 53  1  0  0  0
 19 53  1  0  0  0
 20 55  1  0  0  0
 21 55  1  0  0  0
 22 56  1  0  0  0
 23 56  1  0  0  0
 24 57  1  0  0  0
 25 57  1  0  0  0
 25 60  2  0  0  0
 25 61  1  0  0  0
 26 58  1  0  0  0
 27 58  1  0  0  0
 28 59  1  0  0  0
 29 59  1  0  0  0
 30 31  2  0  0  0
 30 32  2  0  0  0
 30 33  1  0  0  0
 30 51  1  0  0  0
 33 34  1  0  0  0
 33 38  2  0  0  0
 34 35  2  0  0  0
 35 36  1  0  0  0
 36 37  2  0  0  0
 37 38  1  0  0  0
 39 72  1  0  0  0
 39 73  1  0  0  0
 39 74  1  0  0  0
 40 41  1  0  0  0
 40 50  2  0  0  0
 40 54  1  0  0  0
 41 42  1  0  0  0
 41 51  1  0  0  0
 42 43  1  0  0  0
 43 44  2  0  0  0
 43 45  1  0  0  0
 44 46  1  0  0  0
 45 47  2  0  0  0
 46 48  2  0  0  0
 46 49  1  0  0  0
 47 48  1  0  0  0
 49 52  2  0  0  0
 49 53  1  0  0  0
 54 55  1  0  0  0
 54 59  1  0  0  0
 55 56  1  0  0  0
 56 57  1  0  0  0
 57 58  1  0  0  0
 58 59  1  0  0  0
 61 62  1  0  0  0
 62 87  1  0  0  0
 62 88  1  0  0  0
 62 89  1  0  0  0
 64 75  1  0  0  0
 64 76  1  0  0  0
 64 77  1  0  0  0
 65 78  1  0  0  0
 65 79  1  0  0  0
 65 80  1  0  0  0
 67 81  1  0  0  0
 67 82  1  0  0  0
 67 83  1  0  0  0
 68 84  1  0  0  0
 68 85  1  0  0  0
 68 86  1  0  0  0
M  CHG  1  52   1
M  END
>  <ACTIVITY>
6.82

>  <SET>
1

>  <Min_dist>
999.9

>  <Avg_dist>
999.9

$$$$
34
  Cerius2 12110214423D 1   1.00000                          
Structure written by Cerius2 SD Exporter
 69 72  0  0  0  0  0  0  0  0999 V2000
    3.8883   -6.3660   15.3010 C   0  0  0  0  0  0
    4.0586   -5.1493   15.9683 C   0  0  0  0  0  0
    5.3273   -4.5717   16.0532 C   0  0  0  0  0  0
    6.4270   -5.2184   15.4827 C   0  0  0  0  0  0
    6.7708   -9.3104   10.3982 H   0  0  0  0  0  0
    5.2425  -10.4915    8.6599 H   0  0  0  0  0  0
    6.1607   -9.1135    8.0480 H   0  0  0  0  0  0
    2.8375  -10.3750    8.5023 H   0  0  0  0  0  0
    5.1118   -6.8540    7.7440 H   0  0  0  0  0  0
    3.0761   -5.6719    7.0104 H   0  0  0  0  0  0
    0.9059   -6.7243    7.1993 H   0  0  0  0  0  0
    3.9716   -9.9459   10.9966 H   0  0  0  0  0  0
   -1.5927   -9.3772    7.0694 H   0  0  0  0  0  0
   -0.5703   -8.0823    6.4840 H   0  0  0  0  0  0
    0.8531  -10.8788    9.0907 H   0  0  0  0  0  0
   -0.7755  -10.9794    8.4547 H   0  0  0  0  0  0
    7.5445   -6.2353    8.4236 H   0  0  0  0  0  0
    7.8144   -7.8218    9.1372 H   0  0  0  0  0  0
    9.6636   -6.3065    9.7694 H   0  0  0  0  0  0
    8.7217   -6.7949   11.2048 H   0  0  0  0  0  0
    8.3584   -4.1751    9.6183 H   0  0  0  0  0  0
    9.5034   -4.1269   11.4336 C   0  0  0  0  0  0
    6.8205   -3.4930   11.4680 H   0  0  0  0  0  0
    7.0209   -5.0875   12.2433 H   0  0  0  0  0  0
    4.9454   -5.0544   10.8975 H   0  0  0  0  0  0
    5.8516   -4.6040    9.4433 H   0  0  0  0  0  0
    5.6913  -10.4223   12.6297 S   0  0  0  0  0  0
    6.9866  -10.9951   12.3150 O   0  0  0  0  0  0
    4.7174  -11.2158   13.3528 O   0  0  0  0  0  0
    7.3642   -7.1329   14.3143 C   0  0  0  0  0  0
    7.1924   -8.3093   13.5816 C   0  0  0  0  0  0
    5.9240   -8.8844   13.4858 C   0  0  0  0  0  0
    4.8242   -8.2317   14.0496 C   0  0  0  0  0  0
    4.9864   -7.0183   14.7288 C   0  0  0  0  0  0
    6.2628   -6.4519   14.8414 C   0  0  0  0  0  0
    2.8947   -6.7978   15.2333 H   0  0  0  0  0  0
    5.4855   -7.5675   10.4968 C   0  0  0  0  0  0
    5.7253   -9.0328   10.2021 C   0  0  0  0  0  0
    5.3514   -9.3981    8.7357 C   0  0  0  0  0  0
    4.0793   -8.6836    8.2428 C   0  0  0  0  0  0
    2.8425   -9.3334    8.2167 C   0  0  0  0  0  0
    4.1593   -7.3645    7.7874 C   0  0  0  0  0  0
    1.6641   -8.6756    7.8204 C   0  0  0  0  0  0
    3.0085   -6.6917    7.3773 C   0  0  0  0  0  0
    1.7704   -7.3268    7.4432 C   0  0  0  0  0  0
    0.3198   -9.3856    7.7934 C   0  0  0  0  0  0
    4.4731   -7.3444   11.1423 O   0  0  0  0  0  0
    4.9528   -9.8256   11.1507 N   0  0  0  0  0  0
   -0.6747   -8.9141    7.0743 N   0  3  0  0  0  0
    0.1251  -10.4844    8.4869 N   0  0  0  0  0  0
    6.2981   -6.5500   10.0861 N   0  0  0  0  0  0
    7.5622   -6.7835    9.3784 C   0  0  0  0  0  0
    8.6874   -6.2101   10.2728 C   0  0  0  0  0  0
    8.4018   -4.7171   10.5806 C   0  0  0  0  0  0
    7.0251   -4.5595   11.2780 C   0  0  0  0  0  0
    5.9155   -5.1674   10.3877 C   0  0  0  0  0  0
   10.1525   -3.1990   10.9798 O   0  0  0  0  0  0
    9.7288   -4.6455   12.6627 N   0  0  0  0  0  0
   10.7567   -4.1197   13.5529 C   0  0  0  0  0  0
    3.2051   -4.6528   16.4196 H   0  0  0  0  0  0
    5.4592   -3.6217   16.5619 H   0  0  0  0  0  0
    7.4064   -4.7532   15.5430 H   0  0  0  0  0  0
    8.3645   -6.7618   14.4829 H   0  0  0  0  0  0
    8.0452   -8.7742   13.0991 H   0  0  0  0  0  0
    3.8413   -8.6799   13.9523 H   0  0  0  0  0  0
   11.4735   -4.9195   13.7958 H   0  0  0  0  0  0
   10.2865   -3.7758   14.4874 H   0  0  0  0  0  0
   11.3122   -3.2784   13.1160 H   0  0  0  0  0  0
    9.1981   -5.4084   13.0027 H   0  0  0  0  0  0
  1  2  1  0  0  0
  1 34  2  0  0  0
  1 36  1  0  0  0
  2  3  2  0  0  0
  2 60  1  0  0  0
  3  4  1  0  0  0
  3 61  1  0  0  0
  4 35  2  0  0  0
  4 62  1  0  0  0
  5 38  1  0  0  0
  6 39  1  0  0  0
  7 39  1  0  0  0
  8 41  1  0  0  0
  9 42  1  0  0  0
 10 44  1  0  0  0
 11 45  1  0  0  0
 12 48  1  0  0  0
 13 49  1  0  0  0
 14 49  1  0  0  0
 15 50  1  0  0  0
 16 50  1  0  0  0
 17 52  1  0  0  0
 18 52  1  0  0  0
 19 53  1  0  0  0
 20 53  1  0  0  0
 21 54  1  0  0  0
 22 54  1  0  0  0
 22 57  2  0  0  0
 22 58  1  0  0  0
 23 55  1  0  0  0
 24 55  1  0  0  0
 25 56  1  0  0  0
 26 56  1  0  0  0
 27 28  2  0  0  0
 27 29  2  0  0  0
 27 32  1  0  0  0
 27 48  1  0  0  0
 30 31  2  0  0  0
 30 35  1  0  0  0
 30 63  1  0  0  0
 31 32  1  0  0  0
 31 64  1  0  0  0
 32 33  2  0  0  0
 33 34  1  0  0  0
 33 65  1  0  0  0
 34 35  1  0  0  0
 37 38  1  0  0  0
 37 47  2  0  0  0
 37 51  1  0  0  0
 38 39  1  0  0  0
 38 48  1  0  0  0
 39 40  1  0  0  0
 40 41  2  0  0  0
 40 42  1  0  0  0
 41 43  1  0  0  0
 42 44  2  0  0  0
 43 45  2  0  0  0
 43 46  1  0  0  0
 44 45  1  0  0  0
 46 49  2  0  0  0
 46 50  1  0  0  0
 51 52  1  0  0  0
 51 56  1  0  0  0
 52 53  1  0  0  0
 53 54  1  0  0  0
 54 55  1  0  0  0
 55 56  1  0  0  0
 58 59  1  0  0  0
 58 69  1  0  0  0
 59 66  1  0  0  0
 59 67  1  0  0  0
 59 68  1  0  0  0
M  CHG  1  49   1
M  END
>  <ACTIVITY>
6.8

>  <SET>
1

>  <Min_dist>
999.9

>  <Avg_dist>
999.9

$$$$
35
  Cerius2 12110214423D 1   1.00000                          
Structure written by Cerius2 SD Exporter
 71 73  0  0  0  0  0  0  0  0999 V2000
    3.5926   -8.4099   13.6817 C   0  0  0  0  0  0
    4.5061   -6.1469   14.6160 H   0  0  0  0  0  0
    6.9262   -4.9572   15.1585 C   0  0  0  0  0  0
    8.7617   -9.2805   13.4973 C   0  0  0  0  0  0
    8.7084   -6.8299   14.3571 H   0  0  0  0  0  0
    6.0015   -4.3921   15.3474 H   0  0  0  0  0  0
    7.5550   -4.3702   14.4748 H   0  0  0  0  0  0
    6.7592   -9.2863   10.3807 H   0  0  0  0  0  0
    5.2500  -10.4846    8.6321 H   0  0  0  0  0  0
    6.1649   -9.0984    8.0291 H   0  0  0  0  0  0
    2.8366  -10.3695    8.4916 H   0  0  0  0  0  0
    5.1092   -6.8498    7.7149 H   0  0  0  0  0  0
    3.0714   -5.6719    6.9810 H   0  0  0  0  0  0
    0.9018   -6.7247    7.1779 H   0  0  0  0  0  0
    3.9818  -10.0118   10.9321 H   0  0  0  0  0  0
   -1.5993   -9.3799    7.0688 H   0  0  0  0  0  0
   -0.5794   -8.0868    6.4742 H   0  0  0  0  0  0
    0.8515  -10.8730    9.0870 H   0  0  0  0  0  0
   -0.7788  -10.9755    8.4544 H   0  0  0  0  0  0
    7.5663   -6.2400    8.4063 H   0  0  0  0  0  0
    7.8351   -7.8177    9.1399 H   0  0  0  0  0  0
    9.6786   -6.2785    9.7457 H   0  0  0  0  0  0
    8.7481   -6.7697   11.1907 H   0  0  0  0  0  0
    8.4170   -4.1229    9.6375 H   0  0  0  0  0  0
   10.5739   -4.2999   13.6046 C   0  0  0  0  0  0
    6.8140   -3.5013   11.4726 H   0  0  0  0  0  0
    7.0177   -5.1264   12.1886 H   0  0  0  0  0  0
    4.9485   -5.0338   10.8405 H   0  0  0  0  0  0
    5.8775   -4.5888    9.3957 H   0  0  0  0  0  0
    5.7395  -10.4438   12.5784 S   0  0  0  0  0  0
    6.8998  -11.1600   12.1001 O   0  0  0  0  0  0
    4.7825  -11.1762   13.3854 O   0  0  0  0  0  0
    6.1518   -8.8902   13.4085 C   0  0  0  0  0  0
    5.0874   -8.0530   13.7966 C   0  0  0  0  0  0
    5.3373   -6.7898   14.3450 C   0  0  0  0  0  0
    6.6400   -6.3396   14.5562 C   0  0  0  0  0  0
    7.6931   -7.1850   14.2088 C   0  0  0  0  0  0
    7.4678   -8.4663   13.6880 C   0  0  0  0  0  0
    7.4615   -5.0848   16.1110 H   0  0  0  0  0  0
    5.4698   -7.5493   10.4394 C   0  0  0  0  0  0
    5.7131   -9.0187   10.1760 C   0  0  0  0  0  0
    5.3521   -9.3908    8.7094 C   0  0  0  0  0  0
    4.0778   -8.6795    8.2182 C   0  0  0  0  0  0
    2.8404   -9.3296    8.2002 C   0  0  0  0  0  0
    4.1567   -7.3614    7.7600 C   0  0  0  0  0  0
    1.6611   -8.6733    7.8054 C   0  0  0  0  0  0
    3.0048   -6.6905    7.3512 C   0  0  0  0  0  0
    1.7665   -7.3265    7.4226 C   0  0  0  0  0  0
    0.3157   -9.3843    7.7857 C   0  0  0  0  0  0
    4.4276   -7.3158   11.0299 O   0  0  0  0  0  0
    4.9446   -9.8183   11.1241 N   0  0  0  0  0  0
   -0.6812   -8.9163    7.0682 N   0  3  0  0  0  0
    0.1223  -10.4803    8.4835 N   0  0  0  0  0  0
    6.3036   -6.5386   10.0525 N   0  0  0  0  0  0
    7.5792   -6.7770    9.3673 C   0  0  0  0  0  0
    8.7041   -6.1903   10.2549 C   0  0  0  0  0  0
    8.4156   -4.7015   10.5790 C   0  0  0  0  0  0
    7.0246   -4.5600   11.2476 C   0  0  0  0  0  0
    5.9230   -5.1533   10.3402 C   0  0  0  0  0  0
    9.4798   -4.1666   11.5067 C   0  0  0  0  0  0
   10.1822   -3.2285   11.1644 O   0  0  0  0  0  0
    9.5704   -4.7972   12.6909 O   0  0  0  0  0  0
    3.3547   -9.3082   13.1077 H   0  0  0  0  0  0
    3.0486   -7.5772   13.2106 H   0  0  0  0  0  0
    3.1980   -8.5467   14.6994 H   0  0  0  0  0  0
    8.6484  -10.3298   13.2245 H   0  0  0  0  0  0
    9.3129   -9.2754   14.4503 H   0  0  0  0  0  0
    9.3853   -8.7877   12.7357 H   0  0  0  0  0  0
   11.2519   -5.1338   13.8377 H   0  0  0  0  0  0
   10.0636   -4.0076   14.5336 H   0  0  0  0  0  0
   11.1842   -3.4463   13.2717 H   0  0  0  0  0  0
  1 34  1  0  0  0
  1 63  1  0  0  0
  1 64  1  0  0  0
  1 65  1  0  0  0
  2 35  1  0  0  0
  3  6  1  0  0  0
  3  7  1  0  0  0
  3 36  1  0  0  0
  3 39  1  0  0  0
  4 38  1  0  0  0
  4 66  1  0  0  0
  4 67  1  0  0  0
  4 68  1  0  0  0
  5 37  1  0  0  0
  8 41  1  0  0  0
  9 42  1  0  0  0
 10 42  1  0  0  0
 11 44  1  0  0  0
 12 45  1  0  0  0
 13 47  1  0  0  0
 14 48  1  0  0  0
 15 51  1  0  0  0
 16 52  1  0  0  0
 17 52  1  0  0  0
 18 53  1  0  0  0
 19 53  1  0  0  0
 20 55  1  0  0  0
 21 55  1  0  0  0
 22 56  1  0  0  0
 23 56  1  0  0  0
 24 57  1  0  0  0
 25 62  1  0  0  0
 25 69  1  0  0  0
 25 70  1  0  0  0
 25 71  1  0  0  0
 26 58  1  0  0  0
 27 58  1  0  0  0
 28 59  1  0  0  0
 29 59  1  0  0  0
 30 31  2  0  0  0
 30 32  2  0  0  0
 30 33  1  0  0  0
 30 51  1  0  0  0
 33 34  1  0  0  0
 33 38  2  0  0  0
 34 35  2  0  0  0
 35 36  1  0  0  0
 36 37  2  0  0  0
 37 38  1  0  0  0
 40 41  1  0  0  0
 40 50  2  0  0  0
 40 54  1  0  0  0
 41 42  1  0  0  0
 41 51  1  0  0  0
 42 43  1  0  0  0
 43 44  2  0  0  0
 43 45  1  0  0  0
 44 46  1  0  0  0
 45 47  2  0  0  0
 46 48  2  0  0  0
 46 49  1  0  0  0
 47 48  1  0  0  0
 49 52  2  0  0  0
 49 53  1  0  0  0
 54 55  1  0  0  0
 54 59  1  0  0  0
 55 56  1  0  0  0
 56 57  1  0  0  0
 57 58  1  0  0  0
 57 60  1  0  0  0
 58 59  1  0  0  0
 60 61  2  0  0  0
 60 62  1  0  0  0
M  CHG  1  52   1
M  END
>  <ACTIVITY>
6.74

>  <SET>
2

>  <Min_dist>
0.04

>  <Avg_dist>
0.25

$$$$
36
  Cerius2 12110214423D 1   1.00000                          
Structure written by Cerius2 SD Exporter
 72 76  0  0  0  0  0  0  0  0999 V2000
    4.0884   -6.0048   14.9500 C   0  0  0  0  0  0
    4.3848   -4.7648   15.5265 C   0  0  0  0  0  0
    5.7004   -4.2964   15.5292 C   0  0  0  0  0  0
    6.7138   -5.0563   14.9413 C   0  0  0  0  0  0
    6.7787   -9.4179   10.3580 H   0  0  0  0  0  0
    5.4430  -10.4011    8.4173 H   0  0  0  0  0  0
    6.3000   -8.9087    7.9852 H   0  0  0  0  0  0
    2.9598  -10.4162    8.4403 H   0  0  0  0  0  0
    5.0282   -6.8269    7.6482 H   0  0  0  0  0  0
    2.9771   -5.6289    7.0891 H   0  0  0  0  0  0
    0.8231   -6.8630    7.2333 H   0  0  0  0  0  0
    3.9269   -9.9685   10.7091 H   0  0  0  0  0  0
   -1.4948   -9.5501    7.4304 H   0  0  0  0  0  0
   -0.5456   -8.2013    6.7767 H   0  0  0  0  0  0
    1.2713  -10.8660    9.2479 H   0  0  0  0  0  0
   -0.4375  -11.1050    8.8372 H   0  0  0  0  0  0
    6.0907   -5.2502   10.5708 C   0  0  0  0  0  0
    6.4855   -6.6098   10.1865 N   0  0  0  0  0  0
    7.7484   -6.8400    9.4658 C   0  0  0  0  0  0
    8.8664   -6.0538   10.1799 C   0  0  0  0  0  0
    9.4896   -3.5888    9.9834 C   0  0  0  0  0  0
    9.1313   -2.2415    9.8754 C   0  0  0  0  0  0
    7.7859   -1.8718    9.9272 C   0  0  0  0  0  0
    6.8021   -2.8446   10.1325 C   0  0  0  0  0  0
    7.1608   -4.1880   10.2808 C   0  0  0  0  0  0
    5.4361  -10.3865   12.5514 S   0  0  0  0  0  0
    6.6534  -11.1560   12.3825 O   0  0  0  0  0  0
    4.3142  -10.9615   13.2679 O   0  0  0  0  0  0
    7.4308   -7.0634   13.7715 C   0  0  0  0  0  0
    7.1378   -8.3139   13.2181 C   0  0  0  0  0  0
    5.8313   -8.8077   13.2627 C   0  0  0  0  0  0
    4.8173   -8.0343   13.8295 C   0  0  0  0  0  0
    5.1039   -6.7783   14.3818 C   0  0  0  0  0  0
    6.4214   -6.2993   14.3632 C   0  0  0  0  0  0
    3.0607   -6.3556   14.9523 H   0  0  0  0  0  0
    5.5852   -7.6013   10.4465 C   0  0  0  0  0  0
    5.7685   -9.0645   10.1082 C   0  0  0  0  0  0
    5.4841   -9.3170    8.6027 C   0  0  0  0  0  0
    4.1591   -8.6635    8.1767 C   0  0  0  0  0  0
    2.9519   -9.3624    8.1945 C   0  0  0  0  0  0
    4.1188   -7.3421    7.7421 C   0  0  0  0  0  0
    1.7550   -8.7106    7.8881 C   0  0  0  0  0  0
    2.9466   -6.6690    7.4056 C   0  0  0  0  0  0
    1.7465   -7.3704    7.4835 C   0  0  0  0  0  0
    0.4555   -9.4774    8.0035 C   0  0  0  0  0  0
    4.5231   -7.3322   10.9881 O   0  0  0  0  0  0
    4.8825   -9.8379   10.9706 N   0  0  0  0  0  0
   -0.5990   -9.0456    7.3661 N   0  3  0  0  0  0
    0.4285  -10.5560    8.7404 N   0  0  0  0  0  0
    8.5041   -4.5641   10.1554 C   0  0  0  0  0  0
    5.8958   -5.2095   11.6513 H   0  0  0  0  0  0
    5.1645   -4.9790   10.0346 H   0  0  0  0  0  0
    7.6254   -6.0907    8.1658 C   0  0  0  0  0  0
    9.8214   -6.2289    9.6559 H   0  0  0  0  0  0
    8.9590   -6.3896   11.2195 H   0  0  0  0  0  0
   10.5355   -3.8721    9.9317 H   0  0  0  0  0  0
    3.5940   -4.1690   15.9709 H   0  0  0  0  0  0
    5.9346   -3.3408   15.9892 H   0  0  0  0  0  0
    7.7300   -4.6743   14.9387 H   0  0  0  0  0  0
    8.4520   -6.6961   13.7372 H   0  0  0  0  0  0
    7.9265   -8.8968   12.7558 H   0  0  0  0  0  0
    3.8019   -8.4159   13.8362 H   0  0  0  0  0  0
    9.8994   -1.4846    9.7522 H   0  0  0  0  0  0
    7.5039   -0.8297    9.8119 H   0  0  0  0  0  0
    5.7588   -2.5486   10.1781 H   0  0  0  0  0  0
    8.0635   -7.8896    9.3586 H   0  0  0  0  0  0
    6.6096   -5.4579    7.9549 O   0  0  0  0  0  0
    8.6500   -6.0140    7.3138 O   0  0  0  0  0  0
    8.2190   -5.4643    6.0492 C   0  0  0  0  0  0
    8.8131   -4.5604    5.8494 H   0  0  0  0  0  0
    8.4394   -6.2331    5.2943 H   0  0  0  0  0  0
    7.1514   -5.1927    5.9563 H   0  0  0  0  0  0
  1  2  1  0  0  0
  1 33  2  0  0  0
  1 35  1  0  0  0
  2  3  2  0  0  0
  2 57  1  0  0  0
  3  4  1  0  0  0
  3 58  1  0  0  0
  4 34  2  0  0  0
  4 59  1  0  0  0
  5 37  1  0  0  0
  6 38  1  0  0  0
  7 38  1  0  0  0
  8 40  1  0  0  0
  9 41  1  0  0  0
 10 43  1  0  0  0
 11 44  1  0  0  0
 12 47  1  0  0  0
 13 48  1  0  0  0
 14 48  1  0  0  0
 15 49  1  0  0  0
 16 49  1  0  0  0
 17 18  1  0  0  0
 17 25  1  0  0  0
 17 51  1  0  0  0
 17 52  1  0  0  0
 18 19  1  0  0  0
 18 36  1  0  0  0
 19 20  1  0  0  0
 19 53  1  0  0  0
 19 66  1  0  0  0
 20 50  1  0  0  0
 20 54  1  0  0  0
 20 55  1  0  0  0
 21 22  1  0  0  0
 21 50  2  0  0  0
 21 56  1  0  0  0
 22 23  2  0  0  0
 22 63  1  0  0  0
 23 24  1  0  0  0
 23 64  1  0  0  0
 24 25  2  0  0  0
 24 65  1  0  0  0
 25 50  1  0  0  0
 26 27  2  0  0  0
 26 28  2  0  0  0
 26 31  1  0  0  0
 26 47  1  0  0  0
 29 30  2  0  0  0
 29 34  1  0  0  0
 29 60  1  0  0  0
 30 31  1  0  0  0
 30 61  1  0  0  0
 31 32  2  0  0  0
 32 33  1  0  0  0
 32 62  1  0  0  0
 33 34  1  0  0  0
 36 37  1  0  0  0
 36 46  2  0  0  0
 37 38  1  0  0  0
 37 47  1  0  0  0
 38 39  1  0  0  0
 39 40  2  0  0  0
 39 41  1  0  0  0
 40 42  1  0  0  0
 41 43  2  0  0  0
 42 44  2  0  0  0
 42 45  1  0  0  0
 43 44  1  0  0  0
 45 48  2  0  0  0
 45 49  1  0  0  0
 53 67  2  0  0  0
 53 68  1  0  0  0
 68 69  1  0  0  0
 69 70  1  0  0  0
 69 71  1  0  0  0
 69 72  1  0  0  0
M  CHG  1  48   1
M  END
>  <ACTIVITY>
6.7

>  <SET>
1

>  <Min_dist>
999.9

>  <Avg_dist>
999.9

$$$$
37
  Cerius2 12110214423D 1   1.00000                          
Structure written by Cerius2 SD Exporter
 78 82  0  0  0  0  0  0  0  0999 V2000
    3.9013   -6.3654   15.2979 C   0  0  0  0  0  0
    4.0675   -5.1505   15.9666 C   0  0  0  0  0  0
    5.3334   -4.5686   16.0500 C   0  0  0  0  0  0
    6.4248   -5.2096   15.4597 C   0  0  0  0  0  0
    6.7768   -9.3030   10.3912 H   0  0  0  0  0  0
    5.2470  -10.4954    8.6581 H   0  0  0  0  0  0
    6.1638   -9.1194    8.0388 H   0  0  0  0  0  0
    2.7987  -10.3899    8.5107 H   0  0  0  0  0  0
    5.1108   -6.8622    7.7379 H   0  0  0  0  0  0
    3.0683   -5.6670    7.0450 H   0  0  0  0  0  0
    0.8717   -6.7602    7.2112 H   0  0  0  0  0  0
    3.9729   -9.9344   10.9849 H   0  0  0  0  0  0
   -1.5776   -9.3653    7.0629 H   0  0  0  0  0  0
   -0.5248   -8.0577    6.5095 H   0  0  0  0  0  0
    0.8993  -10.8663    9.0853 H   0  0  0  0  0  0
   -0.7552  -10.9844    8.4731 H   0  0  0  0  0  0
    7.5548   -6.1973    8.4253 H   0  0  0  0  0  0
    7.8092   -7.8007    9.1136 H   0  0  0  0  0  0
    9.6670   -6.3020    9.7762 H   0  0  0  0  0  0
    8.7155   -6.8109   11.2027 H   0  0  0  0  0  0
    8.4699   -4.1181    9.7188 H   0  0  0  0  0  0
    9.4898   -4.2513   11.6092 C   0  0  0  0  0  0
    6.8222   -3.4878   11.4737 H   0  0  0  0  0  0
    6.9954   -5.0894   12.2467 H   0  0  0  0  0  0
    4.9467   -5.0433   10.8758 H   0  0  0  0  0  0
    5.8737   -4.5878    9.4346 H   0  0  0  0  0  0
    5.6847  -10.4166   12.6250 S   0  0  0  0  0  0
    6.9727  -11.0074   12.3153 O   0  0  0  0  0  0
    4.6999  -11.1930   13.3528 O   0  0  0  0  0  0
    7.3686   -7.0725   14.2102 C   0  0  0  0  0  0
    7.1980   -8.2844   13.5379 C   0  0  0  0  0  0
    5.9328   -8.8732   13.4677 C   0  0  0  0  0  0
    4.8361   -8.2253   14.0425 C   0  0  0  0  0  0
    4.9990   -7.0081   14.7106 C   0  0  0  0  0  0
    6.2703   -6.4280   14.7941 C   0  0  0  0  0  0
    2.9111   -6.8058   15.2397 H   0  0  0  0  0  0
    5.4912   -7.5590   10.4857 C   0  0  0  0  0  0
    5.7309   -9.0267   10.1942 C   0  0  0  0  0  0
    5.3558   -9.4017    8.7297 C   0  0  0  0  0  0
    4.0783   -8.6928    8.2432 C   0  0  0  0  0  0
    2.8394   -9.3456    8.2247 C   0  0  0  0  0  0
    4.1552   -7.3711    7.7904 C   0  0  0  0  0  0
    1.6699   -8.6785    7.8301 C   0  0  0  0  0  0
    3.0007   -6.6924    7.3962 C   0  0  0  0  0  0
    1.7607   -7.3317    7.4553 C   0  0  0  0  0  0
    0.3268   -9.3889    7.8014 C   0  0  0  0  0  0
    4.4776   -7.3370   11.1298 O   0  0  0  0  0  0
    4.9545   -9.8181   11.1419 N   0  0  0  0  0  0
   -0.6557   -8.9034    7.0820 N   0  3  0  0  0  0
    0.1474  -10.4860    8.4943 N   0  0  0  0  0  0
    6.3021   -6.5379   10.0757 N   0  0  0  0  0  0
    7.5668   -6.7633    9.3701 C   0  0  0  0  0  0
    8.6901   -6.2091   10.2807 C   0  0  0  0  0  0
    8.4266   -4.7239   10.6439 C   0  0  0  0  0  0
    7.0237   -4.5554   11.2850 C   0  0  0  0  0  0
    5.9230   -5.1553   10.3774 C   0  0  0  0  0  0
   10.3427   -3.4573   11.2434 O   0  0  0  0  0  0
    9.4381   -4.7519   12.8597 O   0  0  0  0  0  0
   10.4858   -4.2561   13.7224 C   0  0  0  0  0  0
    3.2144   -4.6577   16.4216 H   0  0  0  0  0  0
    5.4685   -3.6247   16.5686 H   0  0  0  0  0  0
    7.3927   -4.7483   15.5219 H   0  0  0  0  0  0
    8.3601   -6.6384   14.2748 H   0  0  0  0  0  0
    8.0510   -8.7669   13.0733 H   0  0  0  0  0  0
    3.8552   -8.6810   13.9629 H   0  0  0  0  0  0
   10.4056   -3.1604   13.8206 H   0  0  0  0  0  0
   11.4689   -4.4875   13.2835 H   0  0  0  0  0  0
   11.6529   -6.5962   14.6207 H   0  0  0  0  0  0
   10.4308   -4.8879   15.1242 C   0  0  0  0  0  0
   11.1074   -6.0814   15.4044 C   0  0  0  0  0  0
   11.0959   -6.6203   16.6954 C   0  0  0  0  0  0
   10.3836   -5.9844   17.7154 C   0  0  0  0  0  0
    9.6875   -4.8049   17.4406 C   0  0  0  0  0  0
    9.7145   -4.2636   16.1518 C   0  0  0  0  0  0
   11.6437   -7.5329   16.9099 H   0  0  0  0  0  0
   10.3733   -6.4025   18.7175 H   0  0  0  0  0  0
    9.1297   -4.3093   18.2298 H   0  0  0  0  0  0
    9.1659   -3.3494   15.9482 H   0  0  0  0  0  0
  1  2  1  0  0  0
  1 34  2  0  0  0
  1 36  1  0  0  0
  2  3  2  0  0  0
  2 60  1  0  0  0
  3  4  1  0  0  0
  3 61  1  0  0  0
  4 35  2  0  0  0
  4 62  1  0  0  0
  5 38  1  0  0  0
  6 39  1  0  0  0
  7 39  1  0  0  0
  8 41  1  0  0  0
  9 42  1  0  0  0
 10 44  1  0  0  0
 11 45  1  0  0  0
 12 48  1  0  0  0
 13 49  1  0  0  0
 14 49  1  0  0  0
 15 50  1  0  0  0
 16 50  1  0  0  0
 17 52  1  0  0  0
 18 52  1  0  0  0
 19 53  1  0  0  0
 20 53  1  0  0  0
 21 54  1  0  0  0
 22 54  1  0  0  0
 22 57  2  0  0  0
 22 58  1  0  0  0
 23 55  1  0  0  0
 24 55  1  0  0  0
 25 56  1  0  0  0
 26 56  1  0  0  0
 27 28  2  0  0  0
 27 29  2  0  0  0
 27 32  1  0  0  0
 27 48  1  0  0  0
 30 31  2  0  0  0
 30 35  1  0  0  0
 30 63  1  0  0  0
 31 32  1  0  0  0
 31 64  1  0  0  0
 32 33  2  0  0  0
 33 34  1  0  0  0
 33 65  1  0  0  0
 34 35  1  0  0  0
 37 38  1  0  0  0
 37 47  2  0  0  0
 37 51  1  0  0  0
 38 39  1  0  0  0
 38 48  1  0  0  0
 39 40  1  0  0  0
 40 41  2  0  0  0
 40 42  1  0  0  0
 41 43  1  0  0  0
 42 44  2  0  0  0
 43 45  2  0  0  0
 43 46  1  0  0  0
 44 45  1  0  0  0
 46 49  2  0  0  0
 46 50  1  0  0  0
 51 52  1  0  0  0
 51 56  1  0  0  0
 52 53  1  0  0  0
 53 54  1  0  0  0
 54 55  1  0  0  0
 55 56  1  0  0  0
 58 59  1  0  0  0
 59 66  1  0  0  0
 59 67  1  0  0  0
 59 69  1  0  0  0
 68 70  1  0  0  0
 69 70  1  0  0  0
 69 74  2  0  0  0
 70 71  2  0  0  0
 71 72  1  0  0  0
 71 75  1  0  0  0
 72 73  2  0  0  0
 72 76  1  0  0  0
 73 74  1  0  0  0
 73 77  1  0  0  0
 74 78  1  0  0  0
M  CHG  1  49   1
M  END
>  <ACTIVITY>
6.68

>  <SET>
1

>  <Min_dist>
999.9

>  <Avg_dist>
999.9

$$$$
38
  Cerius2 12110214423D 1   1.00000                          
Structure written by Cerius2 SD Exporter
 62 65  0  0  0  0  0  0  0  0999 V2000
    4.5932   -7.8706   13.8584 C   0  0  0  0  0  0
    6.1246   -5.8192   14.9485 C   0  0  0  0  0  0
    9.8636   -7.9255   13.3770 H   0  0  0  0  0  0
    8.5434   -9.8085   12.4907 H   0  0  0  0  0  0
    3.9693   -6.8174   14.5324 C   0  0  0  0  0  0
    4.7360   -5.7919   15.0870 C   0  0  0  0  0  0
    3.9567   -8.6240   13.4141 H   0  0  0  0  0  0
    6.8094   -9.2280   10.3504 H   0  0  0  0  0  0
    5.2917  -10.4118    8.6314 H   0  0  0  0  0  0
    6.1438   -8.9972    8.0014 H   0  0  0  0  0  0
    2.8222  -10.3647    8.6666 H   0  0  0  0  0  0
    5.0047   -6.7714    7.7673 H   0  0  0  0  0  0
    2.8968   -5.6322    7.1791 H   0  0  0  0  0  0
    0.7485   -6.8488    7.3039 H   0  0  0  0  0  0
    3.9951   -9.7985   11.0097 H   0  0  0  0  0  0
   -1.5729   -9.5027    7.2322 H   0  0  0  0  0  0
   -0.5578   -8.1623    6.6718 H   0  0  0  0  0  0
    1.0061  -10.8917    9.2443 H   0  0  0  0  0  0
   -0.6636  -11.0898    8.6823 H   0  0  0  0  0  0
    7.4678   -6.1546    8.3399 H   0  0  0  0  0  0
    7.8131   -7.7266    9.0537 H   0  0  0  0  0  0
    9.6794   -6.1590    9.4763 H   0  0  0  0  0  0
    8.9179   -6.6853   11.0019 H   0  0  0  0  0  0
    8.4002   -4.0275    9.5099 H   0  0  0  0  0  0
    9.3224   -4.2032   11.0264 H   0  0  0  0  0  0
    6.9635   -3.4046   11.4407 H   0  0  0  0  0  0
    7.2515   -4.9864   12.2126 H   0  0  0  0  0  0
    5.0717   -4.9891   11.0495 H   0  0  0  0  0  0
    5.8266   -4.5103    9.5194 H   0  0  0  0  0  0
    5.7653  -10.4503   12.5138 S   0  0  0  0  0  0
    6.7196  -11.4255   12.0234 O   0  0  0  0  0  0
    4.7652  -10.8780   13.4729 O   0  0  0  0  0  0
    6.6408   -9.0230   13.1479 C   0  0  0  0  0  0
    5.9897   -7.9376   13.7578 C   0  0  0  0  0  0
    6.7506   -6.8809   14.2826 C   0  0  0  0  0  0
    8.1428   -6.8775   14.1433 C   0  0  0  0  0  0
    8.7843   -7.9334   13.4946 C   0  0  0  0  0  0
    8.0315   -8.9982   12.9976 C   0  0  0  0  0  0
    6.7094   -5.0049   15.3656 H   0  0  0  0  0  0
    5.5230   -7.4808   10.4653 C   0  0  0  0  0  0
    5.7613   -8.9466   10.1712 C   0  0  0  0  0  0
    5.3685   -9.3162    8.7135 C   0  0  0  0  0  0
    4.0535   -8.6396    8.2946 C   0  0  0  0  0  0
    2.8372   -9.3306    8.3404 C   0  0  0  0  0  0
    4.0689   -7.3130    7.8481 C   0  0  0  0  0  0
    1.6450   -8.7047    7.9559 C   0  0  0  0  0  0
    2.8797   -6.6698    7.4985 C   0  0  0  0  0  0
    1.6690   -7.3630    7.5605 C   0  0  0  0  0  0
    0.3329   -9.4647    7.9588 C   0  0  0  0  0  0
    4.4960   -7.2575   11.0868 O   0  0  0  0  0  0
    4.9857   -9.7254   11.1302 N   0  0  0  0  0  0
   -0.6663   -9.0120    7.2453 N   0  3  0  0  0  0
    0.2185  -10.5559    8.6708 N   0  0  0  0  0  0
    6.3460   -6.4620   10.0815 N   0  0  0  0  0  0
    7.5669   -6.6873    9.2988 C   0  0  0  0  0  0
    8.7616   -6.0949   10.0849 C   0  0  0  0  0  0
    8.4823   -4.6117   10.4411 C   0  0  0  0  0  0
    7.1627   -4.4711   11.2430 C   0  0  0  0  0  0
    5.9877   -5.0865   10.4442 C   0  0  0  0  0  0
    2.8877   -6.7946   14.6246 H   0  0  0  0  0  0
    4.2552   -4.9782   15.6213 H   0  0  0  0  0  0
    8.7391   -6.0579   14.5329 H   0  0  0  0  0  0
  1  5  1  0  0  0
  1  7  1  0  0  0
  1 34  2  0  0  0
  2  6  1  0  0  0
  2 35  2  0  0  0
  2 39  1  0  0  0
  3 37  1  0  0  0
  4 38  1  0  0  0
  5  6  2  0  0  0
  5 60  1  0  0  0
  6 61  1  0  0  0
  8 41  1  0  0  0
  9 42  1  0  0  0
 10 42  1  0  0  0
 11 44  1  0  0  0
 12 45  1  0  0  0
 13 47  1  0  0  0
 14 48  1  0  0  0
 15 51  1  0  0  0
 16 52  1  0  0  0
 17 52  1  0  0  0
 18 53  1  0  0  0
 19 53  1  0  0  0
 20 55  1  0  0  0
 21 55  1  0  0  0
 22 56  1  0  0  0
 23 56  1  0  0  0
 24 57  1  0  0  0
 25 57  1  0  0  0
 26 58  1  0  0  0
 27 58  1  0  0  0
 28 59  1  0  0  0
 29 59  1  0  0  0
 30 31  2  0  0  0
 30 32  2  0  0  0
 30 33  1  0  0  0
 30 51  1  0  0  0
 33 34  1  0  0  0
 33 38  2  0  0  0
 34 35  1  0  0  0
 35 36  1  0  0  0
 36 37  2  0  0  0
 36 62  1  0  0  0
 37 38  1  0  0  0
 40 41  1  0  0  0
 40 50  2  0  0  0
 40 54  1  0  0  0
 41 42  1  0  0  0
 41 51  1  0  0  0
 42 43  1  0  0  0
 43 44  2  0  0  0
 43 45  1  0  0  0
 44 46  1  0  0  0
 45 47  2  0  0  0
 46 48  2  0  0  0
 46 49  1  0  0  0
 47 48  1  0  0  0
 49 52  2  0  0  0
 49 53  1  0  0  0
 54 55  1  0  0  0
 54 59  1  0  0  0
 55 56  1  0  0  0
 56 57  1  0  0  0
 57 58  1  0  0  0
 58 59  1  0  0  0
M  CHG  1  52   1
M  END
>  <ACTIVITY>
6.64

>  <SET>
1

>  <Min_dist>
999.9

>  <Avg_dist>
999.9

$$$$
39
  Cerius2 12110214423D 1   1.00000                          
Structure written by Cerius2 SD Exporter
 90 92  0  0  0  0  0  0  0  0999 V2000
    3.6351   -8.3522   13.9872 C   0  0  0  0  0  0
    4.8118   -6.1642   14.9678 H   0  0  0  0  0  0
    7.2470   -5.3944   15.8600 C   0  0  0  0  0  0
    8.6485   -9.7685   13.7895 C   0  0  0  0  0  0
    8.8809   -7.1711   14.5116 H   0  0  0  0  0  0
    3.4070   -9.1569   13.2783 H   0  0  0  0  0  0
    8.0730   -4.3041   15.1271 C   0  0  0  0  0  0
    6.7511   -9.3071   10.4449 H   0  0  0  0  0  0
    5.3298  -10.4662    8.6276 H   0  0  0  0  0  0
    6.2341   -9.0404    8.0746 H   0  0  0  0  0  0
    2.9277  -10.3989    8.4066 H   0  0  0  0  0  0
    5.1325   -6.8093    7.7881 H   0  0  0  0  0  0
    3.0359   -5.5646    7.3816 H   0  0  0  0  0  0
    0.8893   -6.6629    7.5997 H   0  0  0  0  0  0
    3.9029   -9.8250   10.9708 H   0  0  0  0  0  0
   -1.5672   -9.3429    7.1804 H   0  0  0  0  0  0
   -0.5771   -7.9688    6.7213 H   0  0  0  0  0  0
    0.9466  -11.0246    8.9499 H   0  0  0  0  0  0
   -0.6973  -11.0743    8.3388 H   0  0  0  0  0  0
    7.7477   -6.2097    8.7656 H   0  0  0  0  0  0
    7.9990   -7.7449    9.5875 H   0  0  0  0  0  0
   10.4257   -8.0279   10.6821 H   0  0  0  0  0  0
    8.6168   -6.5700   11.6950 H   0  0  0  0  0  0
    8.3111   -3.9963   10.0181 H   0  0  0  0  0  0
    8.9756   -4.1232   11.6760 H   0  0  0  0  0  0
    6.5389   -3.4464   11.7053 H   0  0  0  0  0  0
    6.7527   -5.0652   12.4515 H   0  0  0  0  0  0
    4.8305   -5.0848   10.9482 H   0  0  0  0  0  0
    5.8281   -4.5872    9.5660 H   0  0  0  0  0  0
    5.6423  -10.4485   12.6173 S   0  0  0  0  0  0
    6.7566  -11.1985   12.0805 O   0  0  0  0  0  0
    4.6431  -11.1857   13.3658 O   0  0  0  0  0  0
    6.1496   -8.9897   13.5906 C   0  0  0  0  0  0
    5.1643   -8.0860   14.0510 C   0  0  0  0  0  0
    5.5509   -6.8938   14.6741 C   0  0  0  0  0  0
    6.8843   -6.6100   14.9709 C   0  0  0  0  0  0
    7.8465   -7.4841   14.4661 C   0  0  0  0  0  0
    7.4958   -8.7357   13.9317 C   0  0  0  0  0  0
    7.9851   -5.8662   17.1417 C   0  0  0  0  0  0
    5.4486   -7.5478   10.4374 C   0  0  0  0  0  0
    5.7227   -9.0115   10.2045 C   0  0  0  0  0  0
    5.4102   -9.3720    8.7255 C   0  0  0  0  0  0
    4.1256   -8.6639    8.2600 C   0  0  0  0  0  0
    2.9009   -9.3356    8.2153 C   0  0  0  0  0  0
    4.1805   -7.3193    7.8803 C   0  0  0  0  0  0
    1.6985   -8.6647    7.9275 C   0  0  0  0  0  0
    3.0002   -6.6212    7.6304 C   0  0  0  0  0  0
    1.7726   -7.2792    7.7085 C   0  0  0  0  0  0
    0.3647   -9.3963    7.8511 C   0  0  0  0  0  0
    4.3042   -7.3445   10.8013 O   0  0  0  0  0  0
    4.8841   -9.7409   11.1480 N   0  0  0  0  0  0
   -0.6554   -8.8653    7.2147 N   0  3  0  0  0  0
    0.1988  -10.5720    8.4135 N   0  0  0  0  0  0
    6.3143   -6.5137   10.2494 N   0  0  0  0  0  0
    7.6768   -6.7098    9.7434 C   0  0  0  0  0  0
    8.6679   -6.0397   10.7274 C   0  0  0  0  0  0
    8.2608   -4.5651   10.9621 C   0  0  0  0  0  0
    6.8183   -4.4959   11.5125 C   0  0  0  0  0  0
    5.8409   -5.1503   10.5120 C   0  0  0  0  0  0
    6.3212   -4.9027   16.2070 H   0  0  0  0  0  0
    2.7051   -7.1704   13.5611 C   0  0  0  0  0  0
    3.2121   -8.8104   15.4091 C   0  0  0  0  0  0
    8.2868  -10.7858   13.6160 H   0  0  0  0  0  0
    9.4908   -9.9330   15.0820 C   0  0  0  0  0  0
    9.5902   -9.3768   12.6361 C   0  0  0  0  0  0
    9.0178   -4.7098   14.7380 H   0  0  0  0  0  0
    8.3072   -3.4790   15.8184 H   0  0  0  0  0  0
    7.4942   -3.8788   14.2975 H   0  0  0  0  0  0
    7.3603   -6.5822   17.6984 H   0  0  0  0  0  0
    8.1969   -5.0087   17.8007 H   0  0  0  0  0  0
    8.9389   -6.3515   16.8884 H   0  0  0  0  0  0
    2.7039   -6.3278   14.2642 H   0  0  0  0  0  0
    1.6655   -7.5313   13.5080 H   0  0  0  0  0  0
    2.9583   -6.7731   12.5748 H   0  0  0  0  0  0
    3.8179   -9.6706   15.7327 H   0  0  0  0  0  0
    2.1507   -9.1018   15.4297 H   0  0  0  0  0  0
    3.3592   -7.9913   16.1310 H   0  0  0  0  0  0
    9.9918   -9.0044   15.3873 H   0  0  0  0  0  0
   10.2747  -10.6919   14.9212 H   0  0  0  0  0  0
    8.8371  -10.2686   15.8995 H   0  0  0  0  0  0
    8.9721   -9.2408   11.7366 H   0  0  0  0  0  0
   10.3687  -10.1294   12.4280 H   0  0  0  0  0  0
   10.0919   -8.4414   12.9249 H   0  0  0  0  0  0
   10.0759   -6.0726   10.1727 C   0  0  0  0  0  0
   10.5305   -5.0655    9.6549 O   0  0  0  0  0  0
   10.7891   -7.2141   10.2678 N   0  0  0  0  0  0
   12.1402   -7.3311    9.7517 C   0  0  0  0  0  0
   12.1603   -8.1232    8.9867 H   0  0  0  0  0  0
   12.8134   -7.6123   10.5766 H   0  0  0  0  0  0
   12.4994   -6.3959    9.3037 H   0  0  0  0  0  0
  1  6  1  0  0  0
  1 34  1  0  0  0
  1 61  1  0  0  0
  1 62  1  0  0  0
  2 35  1  0  0  0
  3  7  1  0  0  0
  3 36  1  0  0  0
  3 39  1  0  0  0
  3 60  1  0  0  0
  4 38  1  0  0  0
  4 63  1  0  0  0
  4 64  1  0  0  0
  4 65  1  0  0  0
  5 37  1  0  0  0
  7 66  1  0  0  0
  7 67  1  0  0  0
  7 68  1  0  0  0
  8 41  1  0  0  0
  9 42  1  0  0  0
 10 42  1  0  0  0
 11 44  1  0  0  0
 12 45  1  0  0  0
 13 47  1  0  0  0
 14 48  1  0  0  0
 15 51  1  0  0  0
 16 52  1  0  0  0
 17 52  1  0  0  0
 18 53  1  0  0  0
 19 53  1  0  0  0
 20 55  1  0  0  0
 21 55  1  0  0  0
 22 86  1  0  0  0
 23 56  1  0  0  0
 24 57  1  0  0  0
 25 57  1  0  0  0
 26 58  1  0  0  0
 27 58  1  0  0  0
 28 59  1  0  0  0
 29 59  1  0  0  0
 30 31  2  0  0  0
 30 32  2  0  0  0
 30 33  1  0  0  0
 30 51  1  0  0  0
 33 34  1  0  0  0
 33 38  2  0  0  0
 34 35  2  0  0  0
 35 36  1  0  0  0
 36 37  2  0  0  0
 37 38  1  0  0  0
 39 69  1  0  0  0
 39 70  1  0  0  0
 39 71  1  0  0  0
 40 41  1  0  0  0
 40 50  2  0  0  0
 40 54  1  0  0  0
 41 42  1  0  0  0
 41 51  1  0  0  0
 42 43  1  0  0  0
 43 44  2  0  0  0
 43 45  1  0  0  0
 44 46  1  0  0  0
 45 47  2  0  0  0
 46 48  2  0  0  0
 46 49  1  0  0  0
 47 48  1  0  0  0
 49 52  2  0  0  0
 49 53  1  0  0  0
 54 55  1  0  0  0
 54 59  1  0  0  0
 55 56  1  0  0  0
 56 57  1  0  0  0
 56 84  1  0  0  0
 57 58  1  0  0  0
 58 59  1  0  0  0
 61 72  1  0  0  0
 61 73  1  0  0  0
 61 74  1  0  0  0
 62 75  1  0  0  0
 62 76  1  0  0  0
 62 77  1  0  0  0
 64 78  1  0  0  0
 64 79  1  0  0  0
 64 80  1  0  0  0
 65 81  1  0  0  0
 65 82  1  0  0  0
 65 83  1  0  0  0
 84 85  2  0  0  0
 84 86  1  0  0  0
 86 87  1  0  0  0
 87 88  1  0  0  0
 87 89  1  0  0  0
 87 90  1  0  0  0
M  CHG  1  52   1
M  END
>  <ACTIVITY>
6.64

>  <SET>
2

>  <Min_dist>
0.04

>  <Avg_dist>
0.31

$$$$
40
  Cerius2 12110214423D 1   1.00000                          
Structure written by Cerius2 SD Exporter
 64 67  0  0  0  0  0  0  0  0999 V2000
    3.9022   -6.3617   15.2893 C   0  0  0  0  0  0
    4.0735   -5.1479   15.9597 C   0  0  0  0  0  0
    5.3433   -4.5703   16.0401 C   0  0  0  0  0  0
    6.4383   -5.2071   15.4520 C   0  0  0  0  0  0
    6.7453   -9.2904   10.3914 H   0  0  0  0  0  0
    5.2578  -10.5010    8.6524 H   0  0  0  0  0  0
    6.1562   -9.1086    8.0313 H   0  0  0  0  0  0
    2.8308  -10.4200    8.5071 H   0  0  0  0  0  0
    5.0716   -6.9064    7.6921 H   0  0  0  0  0  0
    3.0181   -5.6874    7.0783 H   0  0  0  0  0  0
    0.8606   -6.7498    7.2960 H   0  0  0  0  0  0
    3.9423   -9.9083   10.9624 H   0  0  0  0  0  0
   -1.6168   -9.3942    7.1067 H   0  0  0  0  0  0
   -0.5947   -8.0927    6.5408 H   0  0  0  0  0  0
    0.8488  -10.9452    9.0797 H   0  0  0  0  0  0
   -0.7869  -11.0334    8.4605 H   0  0  0  0  0  0
    7.6270   -6.0669    8.0346 C   0  0  0  0  0  0
    7.7975   -7.7596    9.2261 H   0  0  0  0  0  0
    9.6559   -6.2364    9.7945 H   0  0  0  0  0  0
    8.7283   -6.7348   11.2352 H   0  0  0  0  0  0
    8.3914   -4.0530    9.7369 H   0  0  0  0  0  0
    9.2170   -4.2810   11.3018 H   0  0  0  0  0  0
    6.8459   -3.4717   11.6177 H   0  0  0  0  0  0
    7.1127   -5.0743   12.3515 H   0  0  0  0  0  0
    4.9890   -5.0862   11.1642 H   0  0  0  0  0  0
    5.7183   -4.4967    9.6785 H   0  0  0  0  0  0
    5.6642  -10.4141   12.6108 S   0  0  0  0  0  0
    6.9480  -11.0114   12.2952 O   0  0  0  0  0  0
    4.6748  -11.1850   13.3377 O   0  0  0  0  0  0
    7.3647   -7.0744   14.1930 C   0  0  0  0  0  0
    7.1893   -8.2862   13.5191 C   0  0  0  0  0  0
    5.9217   -8.8713   13.4523 C   0  0  0  0  0  0
    4.8291   -8.2210   14.0280 C   0  0  0  0  0  0
    4.9985   -7.0030   14.6997 C   0  0  0  0  0  0
    6.2711   -6.4274   14.7817 C   0  0  0  0  0  0
    2.9105   -6.7998   15.2329 H   0  0  0  0  0  0
    5.4576   -7.5369   10.4695 C   0  0  0  0  0  0
    5.7059   -9.0059   10.1759 C   0  0  0  0  0  0
    5.3476   -9.4048    8.7160 C   0  0  0  0  0  0
    4.0581   -8.7195    8.2341 C   0  0  0  0  0  0
    2.8240   -9.3772    8.2254 C   0  0  0  0  0  0
    4.1202   -7.4033    7.7746 C   0  0  0  0  0  0
    1.6427   -8.7145    7.8521 C   0  0  0  0  0  0
    2.9633   -6.7169    7.4169 C   0  0  0  0  0  0
    1.7293   -7.3595    7.5026 C   0  0  0  0  0  0
    0.2969   -9.4266    7.8201 C   0  0  0  0  0  0
    4.4150   -7.3380   11.0739 O   0  0  0  0  0  0
    4.9247   -9.7981   11.1179 N   0  0  0  0  0  0
   -0.6976   -8.9352    7.1165 N   0  3  0  0  0  0
    0.1135  -10.5383    8.4926 N   0  0  0  0  0  0
    6.2789   -6.4956   10.1238 N   0  0  0  0  0  0
    7.5502   -6.7073    9.4061 C   0  0  0  0  0  0
    8.6818   -6.1455   10.3040 C   0  0  0  0  0  0
    8.4080   -4.6613   10.6557 C   0  0  0  0  0  0
    7.0529   -4.5323   11.3955 C   0  0  0  0  0  0
    5.9035   -5.1372   10.5512 C   0  0  0  0  0  0
    3.2215   -4.6546   16.4175 H   0  0  0  0  0  0
    5.4767   -3.6264   16.5603 H   0  0  0  0  0  0
    7.4185   -4.7459   15.5204 H   0  0  0  0  0  0
    8.3584   -6.6407   14.2524 H   0  0  0  0  0  0
    8.0391   -8.7703   13.0503 H   0  0  0  0  0  0
    3.8462   -8.6725   13.9481 H   0  0  0  0  0  0
    6.7910   -5.1929    7.6878 O   0  5  0  0  0  0
    8.5520   -6.4421    7.2629 O   0  0  0  0  0  0
  1  2  1  0  0  0
  1 34  2  0  0  0
  1 36  1  0  0  0
  2  3  2  0  0  0
  2 57  1  0  0  0
  3  4  1  0  0  0
  3 58  1  0  0  0
  4 35  2  0  0  0
  4 59  1  0  0  0
  5 38  1  0  0  0
  6 39  1  0  0  0
  7 39  1  0  0  0
  8 41  1  0  0  0
  9 42  1  0  0  0
 10 44  1  0  0  0
 11 45  1  0  0  0
 12 48  1  0  0  0
 13 49  1  0  0  0
 14 49  1  0  0  0
 15 50  1  0  0  0
 16 50  1  0  0  0
 17 52  1  0  0  0
 17 63  1  0  0  0
 17 64  2  0  0  0
 18 52  1  0  0  0
 19 53  1  0  0  0
 20 53  1  0  0  0
 21 54  1  0  0  0
 22 54  1  0  0  0
 23 55  1  0  0  0
 24 55  1  0  0  0
 25 56  1  0  0  0
 26 56  1  0  0  0
 27 28  2  0  0  0
 27 29  2  0  0  0
 27 32  1  0  0  0
 27 48  1  0  0  0
 30 31  2  0  0  0
 30 35  1  0  0  0
 30 60  1  0  0  0
 31 32  1  0  0  0
 31 61  1  0  0  0
 32 33  2  0  0  0
 33 34  1  0  0  0
 33 62  1  0  0  0
 34 35  1  0  0  0
 37 38  1  0  0  0
 37 47  2  0  0  0
 37 51  1  0  0  0
 38 39  1  0  0  0
 38 48  1  0  0  0
 39 40  1  0  0  0
 40 41  2  0  0  0
 40 42  1  0  0  0
 41 43  1  0  0  0
 42 44  2  0  0  0
 43 45  2  0  0  0
 43 46  1  0  0  0
 44 45  1  0  0  0
 46 49  2  0  0  0
 46 50  1  0  0  0
 51 52  1  0  0  0
 51 56  1  0  0  0
 52 53  1  0  0  0
 53 54  1  0  0  0
 54 55  1  0  0  0
 55 56  1  0  0  0
M  CHG  2  49   1  63  -1
M  END
>  <ACTIVITY>
6.59

>  <SET>
1

>  <Min_dist>
999.9

>  <Avg_dist>
999.9

$$$$
41
  Cerius2 12110214423D 1   1.00000                          
Structure written by Cerius2 SD Exporter
 51 53  0  0  0  0  0  0  0  0999 V2000
    3.8943   -6.3666   15.2842 C   0  0  0  0  0  0
    4.0710   -5.1520   15.9520 C   0  0  0  0  0  0
    5.3429   -4.5812   16.0361 C   0  0  0  0  0  0
    6.4381   -5.2299   15.4587 C   0  0  0  0  0  0
    6.7442   -9.1646   10.3878 H   0  0  0  0  0  0
    5.3176  -10.4802    8.6348 H   0  0  0  0  0  0
    6.2239   -9.0597    8.0881 H   0  0  0  0  0  0
    2.8261  -10.4132    8.5011 H   0  0  0  0  0  0
    5.1300   -6.8949    7.6233 H   0  0  0  0  0  0
    3.0618   -5.6803    7.0469 H   0  0  0  0  0  0
    0.8666   -6.7824    7.2732 H   0  0  0  0  0  0
    3.9667  -10.0381   10.9239 H   0  0  0  0  0  0
   -1.5610   -9.3547    7.1022 H   0  0  0  0  0  0
   -0.4971   -8.0475    6.5622 H   0  0  0  0  0  0
    0.9378  -10.8999    9.0794 H   0  0  0  0  0  0
   -0.7322  -11.0011    8.4993 H   0  0  0  0  0  0
    6.2769   -6.7683   10.8863 O   0  0  0  0  0  0
    5.9036   -5.4415   11.3189 C   0  0  0  0  0  0
    6.1231   -5.3258   12.3886 H   0  0  0  0  0  0
    6.5734   -4.7715   10.7638 H   0  0  0  0  0  0
    4.8685   -5.1096   11.1374 H   0  0  0  0  0  0
    5.6621  -10.4383   12.6252 S   0  0  0  0  0  0
    6.9488  -11.0315   12.3173 O   0  0  0  0  0  0
    4.6722  -11.2073   13.3536 O   0  0  0  0  0  0
    7.3591   -7.1021   14.2104 C   0  0  0  0  0  0
    7.1804   -8.3140   13.5379 C   0  0  0  0  0  0
    5.9109   -8.8915   13.4623 C   0  0  0  0  0  0
    4.8156   -8.2315   14.0263 C   0  0  0  0  0  0
    4.9886   -7.0184   14.7017 C   0  0  0  0  0  0
    6.2661   -6.4498   14.7939 C   0  0  0  0  0  0
    2.8996   -6.7975   15.2227 H   0  0  0  0  0  0
    5.2657   -7.5965   10.5851 C   0  0  0  0  0  0
    5.6677   -9.0029   10.2062 C   0  0  0  0  0  0
    5.3830   -9.3831    8.7231 C   0  0  0  0  0  0
    4.1015   -8.7087    8.2065 C   0  0  0  0  0  0
    2.8677   -9.3695    8.2107 C   0  0  0  0  0  0
    4.1720   -7.3951    7.7251 C   0  0  0  0  0  0
    1.6918   -8.7010    7.8391 C   0  0  0  0  0  0
    3.0060   -6.7113    7.3822 C   0  0  0  0  0  0
    1.7675   -7.3514    7.4773 C   0  0  0  0  0  0
    0.3486   -9.4083    7.8226 C   0  0  0  0  0  0
    4.0858   -7.2804   10.6133 O   0  0  0  0  0  0
    4.9306   -9.8590   11.1180 N   0  0  0  0  0  0
   -0.6346   -8.9023    7.1204 N   0  3  0  0  0  0
    0.1753  -10.5108    8.5070 N   0  0  0  0  0  0
    3.2203   -4.6519   16.4050 H   0  0  0  0  0  0
    5.4806   -3.6343   16.5490 H   0  0  0  0  0  0
    7.4211   -4.7745   15.5304 H   0  0  0  0  0  0
    8.3540   -6.6718   14.2713 H   0  0  0  0  0  0
    8.0307   -8.8035   13.0754 H   0  0  0  0  0  0
    3.8294   -8.6739   13.9322 H   0  0  0  0  0  0
  1  2  1  0  0  0
  1 29  2  0  0  0
  1 31  1  0  0  0
  2  3  2  0  0  0
  2 46  1  0  0  0
  3  4  1  0  0  0
  3 47  1  0  0  0
  4 30  2  0  0  0
  4 48  1  0  0  0
  5 33  1  0  0  0
  6 34  1  0  0  0
  7 34  1  0  0  0
  8 36  1  0  0  0
  9 37  1  0  0  0
 10 39  1  0  0  0
 11 40  1  0  0  0
 12 43  1  0  0  0
 13 44  1  0  0  0
 14 44  1  0  0  0
 15 45  1  0  0  0
 16 45  1  0  0  0
 17 18  1  0  0  0
 17 32  1  0  0  0
 18 19  1  0  0  0
 18 20  1  0  0  0
 18 21  1  0  0  0
 22 23  2  0  0  0
 22 24  2  0  0  0
 22 27  1  0  0  0
 22 43  1  0  0  0
 25 26  2  0  0  0
 25 30  1  0  0  0
 25 49  1  0  0  0
 26 27  1  0  0  0
 26 50  1  0  0  0
 27 28  2  0  0  0
 28 29  1  0  0  0
 28 51  1  0  0  0
 29 30  1  0  0  0
 32 33  1  0  0  0
 32 42  2  0  0  0
 33 34  1  0  0  0
 33 43  1  0  0  0
 34 35  1  0  0  0
 35 36  2  0  0  0
 35 37  1  0  0  0
 36 38  1  0  0  0
 37 39  2  0  0  0
 38 40  2  0  0  0
 38 41  1  0  0  0
 39 40  1  0  0  0
 41 44  2  0  0  0
 41 45  1  0  0  0
M  CHG  1  44   1
M  END
>  <ACTIVITY>
6.55

>  <SET>
1

>  <Min_dist>
999.9

>  <Avg_dist>
999.9

$$$$
42
  Cerius2 12110214423D 1   1.00000                          
Structure written by Cerius2 SD Exporter
 79 83  0  0  0  0  0  0  0  0999 V2000
    3.9018   -6.3661   15.2985 C   0  0  0  0  0  0
    4.0688   -5.1510   15.9670 C   0  0  0  0  0  0
    5.3364   -4.5701   16.0505 C   0  0  0  0  0  0
    6.4348   -5.2063   15.4645 C   0  0  0  0  0  0
    6.7671   -9.2962   10.4006 H   0  0  0  0  0  0
    5.2471  -10.4923    8.6610 H   0  0  0  0  0  0
    6.1632   -9.1152    8.0450 H   0  0  0  0  0  0
    2.7989  -10.3885    8.5112 H   0  0  0  0  0  0
    5.1094   -6.8600    7.7387 H   0  0  0  0  0  0
    3.0682   -5.6668    7.0411 H   0  0  0  0  0  0
    0.8717   -6.7599    7.2077 H   0  0  0  0  0  0
    3.9681   -9.9418   10.9893 H   0  0  0  0  0  0
   -1.5777   -9.3665    7.0619 H   0  0  0  0  0  0
   -0.5254   -8.0594    6.5068 H   0  0  0  0  0  0
    0.8982  -10.8647    9.0865 H   0  0  0  0  0  0
   -0.7557  -10.9834    8.4735 H   0  0  0  0  0  0
    7.5160   -6.2003    8.4275 H   0  0  0  0  0  0
    7.7771   -7.7934    9.1263 H   0  0  0  0  0  0
    9.1806   -4.3256   11.2825 H   0  0  0  0  0  0
    8.6350   -6.7701   11.2391 H   0  0  0  0  0  0
    8.4111   -4.1077    9.6871 H   0  0  0  0  0  0
   11.7911   -7.7902    8.7689 C   0  0  0  0  0  0
    6.8037   -3.4712   11.4819 H   0  0  0  0  0  0
    7.0140   -5.0609   12.2656 H   0  0  0  0  0  0
    4.9276   -5.0427   10.9135 H   0  0  0  0  0  0
    5.8359   -4.5812    9.4630 H   0  0  0  0  0  0
    5.6860  -10.4186   12.6276 S   0  0  0  0  0  0
    6.9745  -11.0064   12.3141 O   0  0  0  0  0  0
    4.7043  -11.1967   13.3573 O   0  0  0  0  0  0
    7.3675   -7.0682   14.2052 C   0  0  0  0  0  0
    7.1980   -8.2838   13.5377 C   0  0  0  0  0  0
    5.9332   -8.8739   13.4690 C   0  0  0  0  0  0
    4.8368   -8.2258   14.0437 C   0  0  0  0  0  0
    5.0002   -7.0073   14.7114 C   0  0  0  0  0  0
    6.2718   -6.4244   14.7947 C   0  0  0  0  0  0
    2.9112   -6.8068   15.2408 H   0  0  0  0  0  0
    5.4709   -7.5574   10.4973 C   0  0  0  0  0  0
    5.7209   -9.0229   10.2002 C   0  0  0  0  0  0
    5.3537   -9.3985    8.7338 C   0  0  0  0  0  0
    4.0772   -8.6907    8.2443 C   0  0  0  0  0  0
    2.8387   -9.3442    8.2248 C   0  0  0  0  0  0
    4.1542   -7.3695    7.7904 C   0  0  0  0  0  0
    1.6696   -8.6777    7.8290 C   0  0  0  0  0  0
    3.0003   -6.6916    7.3939 C   0  0  0  0  0  0
    1.7603   -7.3314    7.4529 C   0  0  0  0  0  0
    0.3263   -9.3886    7.8007 C   0  0  0  0  0  0
    4.4575   -7.3418   11.1437 O   0  0  0  0  0  0
    4.9491   -9.8208   11.1455 N   0  0  0  0  0  0
   -0.6560   -8.9043    7.0805 N   0  3  0  0  0  0
    0.1469  -10.4849    8.4947 N   0  0  0  0  0  0
    6.2764   -6.5317   10.0902 N   0  0  0  0  0  0
    7.5363   -6.7565    9.3780 C   0  0  0  0  0  0
    8.6574   -6.2048   10.2924 C   0  0  0  0  0  0
    8.3898   -4.7062   10.6138 C   0  0  0  0  0  0
    7.0076   -4.5393   11.2959 C   0  0  0  0  0  0
    5.8983   -5.1503   10.4043 C   0  0  0  0  0  0
   11.7166   -7.3724    7.7522 H   0  0  0  0  0  0
   10.0317   -8.4625    9.7632 H   0  0  0  0  0  0
   12.5453   -7.2031    9.3154 H   0  0  0  0  0  0
    3.2144   -4.6583   16.4216 H   0  0  0  0  0  0
    5.4673   -3.6259   16.5702 H   0  0  0  0  0  0
    7.4139   -4.7425   15.5366 H   0  0  0  0  0  0
    8.3586   -6.6281   14.2610 H   0  0  0  0  0  0
    8.0513   -8.7678   13.0748 H   0  0  0  0  0  0
    3.8560   -8.6827   13.9639 H   0  0  0  0  0  0
   10.0018   -6.3926    9.6249 C   0  0  0  0  0  0
   10.6042   -5.3967    9.2561 O   0  0  0  0  0  0
   10.5067   -7.6388    9.4465 N   0  0  0  0  0  0
   12.2741   -9.2489    8.6939 C   0  0  0  0  0  0
   13.0424   -9.7830    9.7339 C   0  0  0  0  0  0
   13.5308  -11.0909    9.6605 C   0  0  0  0  0  0
   13.2363  -11.8852    8.5503 C   0  0  0  0  0  0
   12.4536  -11.3655    7.5150 C   0  0  0  0  0  0
   11.9693  -10.0553    7.5902 C   0  0  0  0  0  0
   13.2676   -9.1808   10.6072 H   0  0  0  0  0  0
   14.1404  -11.4882   10.4659 H   0  0  0  0  0  0
   13.6154  -12.9012    8.4941 H   0  0  0  0  0  0
   12.2262  -11.9848    6.6526 H   0  0  0  0  0  0
   11.3559   -9.6620    6.7859 H   0  0  0  0  0  0
  1  2  1  0  0  0
  1 34  2  0  0  0
  1 36  1  0  0  0
  2  3  2  0  0  0
  2 60  1  0  0  0
  3  4  1  0  0  0
  3 61  1  0  0  0
  4 35  2  0  0  0
  4 62  1  0  0  0
  5 38  1  0  0  0
  6 39  1  0  0  0
  7 39  1  0  0  0
  8 41  1  0  0  0
  9 42  1  0  0  0
 10 44  1  0  0  0
 11 45  1  0  0  0
 12 48  1  0  0  0
 13 49  1  0  0  0
 14 49  1  0  0  0
 15 50  1  0  0  0
 16 50  1  0  0  0
 17 52  1  0  0  0
 18 52  1  0  0  0
 19 54  1  0  0  0
 20 53  1  0  0  0
 21 54  1  0  0  0
 22 57  1  0  0  0
 22 59  1  0  0  0
 22 68  1  0  0  0
 22 69  1  0  0  0
 23 55  1  0  0  0
 24 55  1  0  0  0
 25 56  1  0  0  0
 26 56  1  0  0  0
 27 28  2  0  0  0
 27 29  2  0  0  0
 27 32  1  0  0  0
 27 48  1  0  0  0
 30 31  2  0  0  0
 30 35  1  0  0  0
 30 63  1  0  0  0
 31 32  1  0  0  0
 31 64  1  0  0  0
 32 33  2  0  0  0
 33 34  1  0  0  0
 33 65  1  0  0  0
 34 35  1  0  0  0
 37 38  1  0  0  0
 37 47  2  0  0  0
 37 51  1  0  0  0
 38 39  1  0  0  0
 38 48  1  0  0  0
 39 40  1  0  0  0
 40 41  2  0  0  0
 40 42  1  0  0  0
 41 43  1  0  0  0
 42 44  2  0  0  0
 43 45  2  0  0  0
 43 46  1  0  0  0
 44 45  1  0  0  0
 46 49  2  0  0  0
 46 50  1  0  0  0
 51 52  1  0  0  0
 51 56  1  0  0  0
 52 53  1  0  0  0
 53 54  1  0  0  0
 53 66  1  0  0  0
 54 55  1  0  0  0
 55 56  1  0  0  0
 58 68  1  0  0  0
 66 67  2  0  0  0
 66 68  1  0  0  0
 69 70  1  0  0  0
 69 74  2  0  0  0
 70 71  2  0  0  0
 70 75  1  0  0  0
 71 72  1  0  0  0
 71 76  1  0  0  0
 72 73  2  0  0  0
 72 77  1  0  0  0
 73 74  1  0  0  0
 73 78  1  0  0  0
 74 79  1  0  0  0
M  CHG  1  49   1
M  END
>  <ACTIVITY>
6.55

>  <SET>
1

>  <Min_dist>
999.9

>  <Avg_dist>
999.9

$$$$
43
  Cerius2 12110214423D 1   1.00000                          
Structure written by Cerius2 SD Exporter
 69 73  0  0  0  0  0  0  0  0999 V2000
    3.8456   -6.3317   15.2603 C   0  0  0  0  0  0
    4.0351   -5.1197   15.9313 C   0  0  0  0  0  0
    5.3164   -4.5709   16.0240 C   0  0  0  0  0  0
    6.4067   -5.2421   15.4659 C   0  0  0  0  0  0
    6.5124   -9.6649   10.4532 H   0  0  0  0  0  0
    5.1467  -10.5759    8.5413 H   0  0  0  0  0  0
    6.0719   -9.1458    8.0833 H   0  0  0  0  0  0
    2.7645  -10.4234    8.4766 H   0  0  0  0  0  0
    5.0513   -6.9104    7.7632 H   0  0  0  0  0  0
    3.0112   -5.6735    7.1336 H   0  0  0  0  0  0
    0.8369   -6.7253    7.2929 H   0  0  0  0  0  0
    3.7264  -10.0273   11.0242 H   0  0  0  0  0  0
   -1.6581   -9.3787    7.1089 H   0  0  0  0  0  0
   -0.6389   -8.0643    6.5642 H   0  0  0  0  0  0
    0.8144  -10.9365    9.0760 H   0  0  0  0  0  0
   -0.8163  -11.0315    8.4554 H   0  0  0  0  0  0
    8.5680   -8.4829    9.4440 C   0  0  0  0  0  0
    7.6837   -7.2075    9.3118 C   0  0  0  0  0  0
    8.5409   -5.9980    9.7645 C   0  0  0  0  0  0
    9.8001   -5.8200    8.8806 C   0  0  0  0  0  0
   10.6903   -7.0810    9.0381 C   0  0  0  0  0  0
    9.8949   -8.3507    8.6480 C   0  0  0  0  0  0
    8.1093   -9.3688    8.9862 H   0  0  0  0  0  0
    5.5169  -10.5025   12.7382 S   0  0  0  0  0  0
    6.7854  -11.1278   12.4099 O   0  0  0  0  0  0
    4.5452  -11.2419   13.5165 O   0  0  0  0  0  0
    7.3154   -7.1898   14.3128 C   0  0  0  0  0  0
    7.1243   -8.4423   13.7166 C   0  0  0  0  0  0
    5.8311   -8.9486   13.5504 C   0  0  0  0  0  0
    4.7420   -8.2153   14.0210 C   0  0  0  0  0  0
    4.9349   -7.0055   14.7010 C   0  0  0  0  0  0
    6.2265   -6.4766   14.8240 C   0  0  0  0  0  0
    2.8436   -6.7429   15.1841 H   0  0  0  0  0  0
    5.5458   -7.7551   10.5290 C   0  0  0  0  0  0
    5.5448   -9.2289   10.2145 C   0  0  0  0  0  0
    5.2452   -9.4935    8.7146 C   0  0  0  0  0  0
    4.0023   -8.7345    8.2416 C   0  0  0  0  0  0
    2.7647   -9.3762    8.2160 C   0  0  0  0  0  0
    4.0930   -7.4069    7.8167 C   0  0  0  0  0  0
    1.5939   -8.6953    7.8525 C   0  0  0  0  0  0
    2.9426   -6.7080    7.4548 C   0  0  0  0  0  0
    1.7002   -7.3383    7.5126 C   0  0  0  0  0  0
    0.2536   -9.4118    7.8237 C   0  0  0  0  0  0
    4.5982   -7.3660   11.1947 O   0  0  0  0  0  0
    4.7104   -9.9274   11.1800 N   0  0  0  0  0  0
   -0.7417   -8.9156    7.1265 N   0  3  0  0  0  0
    0.0788  -10.5303    8.4895 N   0  0  0  0  0  0
    8.7707   -8.6865   10.5066 H   0  0  0  0  0  0
    6.5011   -6.8744   10.1230 N   0  0  0  0  0  0
    7.4150   -7.0822    8.2507 H   0  0  0  0  0  0
    8.8672   -6.1504   10.8094 H   0  0  0  0  0  0
    7.5406   -4.8208    9.7689 C   0  0  0  0  0  0
   10.3633   -4.9269    9.1960 H   0  0  0  0  0  0
    3.1886   -4.6087   16.3786 H   0  0  0  0  0  0
    5.4616   -3.6221   16.5328 H   0  0  0  0  0  0
    7.3948   -4.7982   15.5384 H   0  0  0  0  0  0
    8.3200   -6.7815   14.3787 H   0  0  0  0  0  0
    7.9831   -9.0180   13.3895 H   0  0  0  0  0  0
    3.7415   -8.5993   13.8559 H   0  0  0  0  0  0
    9.5081   -5.6925    7.8259 H   0  0  0  0  0  0
   11.0343   -7.1733   10.0818 H   0  0  0  0  0  0
   11.5802   -6.9989    8.3920 H   0  0  0  0  0  0
    9.6711   -8.3093    7.5682 H   0  0  0  0  0  0
   10.5174   -9.2443    8.8309 H   0  0  0  0  0  0
    7.9138   -3.9254   10.2924 H   0  0  0  0  0  0
    6.3258   -5.4675   10.4764 C   0  0  0  0  0  0
    7.2823   -4.5490    8.7320 H   0  0  0  0  0  0
    5.3707   -5.0499   10.1163 H   0  0  0  0  0  0
    6.3943   -5.3495   11.5706 H   0  0  0  0  0  0
  1  2  1  0  0  0
  1 31  2  0  0  0
  1 33  1  0  0  0
  2  3  2  0  0  0
  2 54  1  0  0  0
  3  4  1  0  0  0
  3 55  1  0  0  0
  4 32  2  0  0  0
  4 56  1  0  0  0
  5 35  1  0  0  0
  6 36  1  0  0  0
  7 36  1  0  0  0
  8 38  1  0  0  0
  9 39  1  0  0  0
 10 41  1  0  0  0
 11 42  1  0  0  0
 12 45  1  0  0  0
 13 46  1  0  0  0
 14 46  1  0  0  0
 15 47  1  0  0  0
 16 47  1  0  0  0
 17 18  1  0  0  0
 17 22  1  0  0  0
 17 23  1  0  0  0
 17 48  1  0  0  0
 18 19  1  0  0  0
 18 49  1  0  0  0
 18 50  1  0  0  0
 19 20  1  0  0  0
 19 51  1  0  0  0
 19 52  1  0  0  0
 20 21  1  0  0  0
 20 53  1  0  0  0
 20 60  1  0  0  0
 21 22  1  0  0  0
 21 61  1  0  0  0
 21 62  1  0  0  0
 22 63  1  0  0  0
 22 64  1  0  0  0
 24 25  2  0  0  0
 24 26  2  0  0  0
 24 29  1  0  0  0
 24 45  1  0  0  0
 27 28  2  0  0  0
 27 32  1  0  0  0
 27 57  1  0  0  0
 28 29  1  0  0  0
 28 58  1  0  0  0
 29 30  2  0  0  0
 30 31  1  0  0  0
 30 59  1  0  0  0
 31 32  1  0  0  0
 34 35  1  0  0  0
 34 44  2  0  0  0
 34 49  1  0  0  0
 35 36  1  0  0  0
 35 45  1  0  0  0
 36 37  1  0  0  0
 37 38  2  0  0  0
 37 39  1  0  0  0
 38 40  1  0  0  0
 39 41  2  0  0  0
 40 42  2  0  0  0
 40 43  1  0  0  0
 41 42  1  0  0  0
 43 46  2  0  0  0
 43 47  1  0  0  0
 49 66  1  0  0  0
 52 65  1  0  0  0
 52 66  1  0  0  0
 52 67  1  0  0  0
 66 68  1  0  0  0
 66 69  1  0  0  0
M  CHG  1  46   1
M  END
>  <ACTIVITY>
6.49

>  <SET>
1

>  <Min_dist>
999.9

>  <Avg_dist>
999.9

$$$$
44
  Cerius2 12110214423D 1   1.00000                          
Structure written by Cerius2 SD Exporter
 64 67  0  0  0  0  0  0  0  0999 V2000
    4.6509   -7.8890   13.8798 N   0  0  0  0  0  0
    6.1280   -5.8118   14.9487 C   0  0  0  0  0  0
    9.8599   -7.9295   13.3728 H   0  0  0  0  0  0
    8.5250   -9.8068   12.4909 H   0  0  0  0  0  0
    4.0163   -6.8723   14.5053 C   0  0  0  0  0  0
    4.7371   -5.8175   15.0695 C   0  0  0  0  0  0
    6.8065   -9.2294   10.3523 H   0  0  0  0  0  0
    5.2909  -10.4119    8.6315 H   0  0  0  0  0  0
    6.1420   -8.9982    7.9997 H   0  0  0  0  0  0
    2.8220  -10.3647    8.6666 H   0  0  0  0  0  0
    5.0047   -6.7716    7.7672 H   0  0  0  0  0  0
    2.8972   -5.6322    7.1789 H   0  0  0  0  0  0
    0.7484   -6.8487    7.3044 H   0  0  0  0  0  0
    3.9877   -9.7917   11.0068 H   0  0  0  0  0  0
   -1.5731   -9.5034    7.2324 H   0  0  0  0  0  0
   -0.5585   -8.1626    6.6721 H   0  0  0  0  0  0
    1.0067  -10.8920    9.2439 H   0  0  0  0  0  0
   -0.6633  -11.0900    8.6829 H   0  0  0  0  0  0
    7.4586   -6.1602    8.3305 H   0  0  0  0  0  0
    7.8006   -7.7336    9.0441 H   0  0  0  0  0  0
    9.6574   -6.1878    9.4636 H   0  0  0  0  0  0
    8.8972   -6.7113   10.9876 H   0  0  0  0  0  0
    8.4042   -4.0371    9.5139 H   0  0  0  0  0  0
    9.6509   -4.0785   11.2995 C   0  0  0  0  0  0
    6.9368   -3.4152   11.4357 H   0  0  0  0  0  0
    7.2093   -4.9979   12.2040 H   0  0  0  0  0  0
    5.0566   -4.9930   11.0394 H   0  0  0  0  0  0
    5.8140   -4.5122    9.5100 H   0  0  0  0  0  0
    5.7399  -10.4189   12.5249 S   0  0  0  0  0  0
    6.6878  -11.4122   12.0537 O   0  0  0  0  0  0
    4.7222  -10.8043   13.4815 O   0  0  0  0  0  0
    6.6341   -9.0095   13.1544 C   0  0  0  0  0  0
    5.9957   -7.9255   13.7722 C   0  0  0  0  0  0
    6.7601   -6.8680   14.2875 C   0  0  0  0  0  0
    8.1507   -6.8693   14.1437 C   0  0  0  0  0  0
    8.7819   -7.9300   13.4934 C   0  0  0  0  0  0
    8.0229   -8.9918   12.9986 C   0  0  0  0  0  0
    6.7025   -4.9912   15.3692 H   0  0  0  0  0  0
    5.5169   -7.4839   10.4701 C   0  0  0  0  0  0
    5.7588   -8.9467   10.1708 C   0  0  0  0  0  0
    5.3675   -9.3164    8.7128 C   0  0  0  0  0  0
    4.0529   -8.6395    8.2942 C   0  0  0  0  0  0
    2.8369   -9.3306    8.3403 C   0  0  0  0  0  0
    4.0688   -7.3129    7.8479 C   0  0  0  0  0  0
    1.6446   -8.7047    7.9559 C   0  0  0  0  0  0
    2.8797   -6.6697    7.4985 C   0  0  0  0  0  0
    1.6690   -7.3629    7.5606 C   0  0  0  0  0  0
    0.3328   -9.4648    7.9588 C   0  0  0  0  0  0
    4.4986   -7.2638   11.1075 O   0  0  0  0  0  0
    4.9773   -9.7162   11.1305 N   0  0  0  0  0  0
   -0.6667   -9.0124    7.2454 N   0  3  0  0  0  0
    0.2187  -10.5562    8.6709 N   0  0  0  0  0  0
    6.3327   -6.4658   10.0735 N   0  0  0  0  0  0
    7.5512   -6.6945    9.2885 C   0  0  0  0  0  0
    8.7444   -6.1101   10.0778 C   0  0  0  0  0  0
    8.4763   -4.6250   10.4476 C   0  0  0  0  0  0
    7.1438   -4.4795   11.2347 C   0  0  0  0  0  0
    5.9722   -5.0909   10.4329 C   0  0  0  0  0  0
   10.6096   -4.2167   10.7771 H   0  0  0  0  0  0
    9.6970   -4.6146   12.2594 H   0  0  0  0  0  0
    9.5110   -3.0058   11.5017 H   0  0  0  0  0  0
    2.9342   -6.8786   14.5697 H   0  0  0  0  0  0
    4.2322   -5.0121   15.5953 H   0  0  0  0  0  0
    8.7475   -6.0510   14.5335 H   0  0  0  0  0  0
  1  5  1  0  0  0
  1 33  2  0  0  0
  2  6  1  0  0  0
  2 34  2  0  0  0
  2 38  1  0  0  0
  3 36  1  0  0  0
  4 37  1  0  0  0
  5  6  2  0  0  0
  5 62  1  0  0  0
  6 63  1  0  0  0
  7 40  1  0  0  0
  8 41  1  0  0  0
  9 41  1  0  0  0
 10 43  1  0  0  0
 11 44  1  0  0  0
 12 46  1  0  0  0
 13 47  1  0  0  0
 14 50  1  0  0  0
 15 51  1  0  0  0
 16 51  1  0  0  0
 17 52  1  0  0  0
 18 52  1  0  0  0
 19 54  1  0  0  0
 20 54  1  0  0  0
 21 55  1  0  0  0
 22 55  1  0  0  0
 23 56  1  0  0  0
 24 56  1  0  0  0
 24 59  1  0  0  0
 24 60  1  0  0  0
 24 61  1  0  0  0
 25 57  1  0  0  0
 26 57  1  0  0  0
 27 58  1  0  0  0
 28 58  1  0  0  0
 29 30  2  0  0  0
 29 31  2  0  0  0
 29 32  1  0  0  0
 29 50  1  0  0  0
 32 33  1  0  0  0
 32 37  2  0  0  0
 33 34  1  0  0  0
 34 35  1  0  0  0
 35 36  2  0  0  0
 35 64  1  0  0  0
 36 37  1  0  0  0
 39 40  1  0  0  0
 39 49  2  0  0  0
 39 53  1  0  0  0
 40 41  1  0  0  0
 40 50  1  0  0  0
 41 42  1  0  0  0
 42 43  2  0  0  0
 42 44  1  0  0  0
 43 45  1  0  0  0
 44 46  2  0  0  0
 45 47  2  0  0  0
 45 48  1  0  0  0
 46 47  1  0  0  0
 48 51  2  0  0  0
 48 52  1  0  0  0
 53 54  1  0  0  0
 53 58  1  0  0  0
 54 55  1  0  0  0
 55 56  1  0  0  0
 56 57  1  0  0  0
 57 58  1  0  0  0
M  CHG  1  51   1
M  END
>  <ACTIVITY>
6.47

>  <SET>
2

>  <Min_dist>
0.09

>  <Avg_dist>
0.24

$$$$
45
  Cerius2 12110214423D 1   1.00000                          
Structure written by Cerius2 SD Exporter
 59 61  0  0  0  0  0  0  0  0999 V2000
    3.8687   -8.6942   14.0663 H   0  0  0  0  0  0
    4.0667   -6.5336   15.2425 H   0  0  0  0  0  0
    8.2821   -6.4675   14.3964 H   0  0  0  0  0  0
    8.0766   -8.6311   13.2164 H   0  0  0  0  0  0
    6.3176   -4.9502   15.5437 C   0  0  0  0  0  0
    5.3531   -4.5845   15.9276 H   0  0  0  0  0  0
    6.6976   -4.2190   14.8145 H   0  0  0  0  0  0
    6.7599   -9.2903   10.4289 H   0  0  0  0  0  0
    5.2292  -10.4568    8.6706 H   0  0  0  0  0  0
    6.1532   -9.0729    8.0970 H   0  0  0  0  0  0
    2.7891  -10.3162    8.5662 H   0  0  0  0  0  0
    5.1072   -6.8190    7.7478 H   0  0  0  0  0  0
    3.0972   -5.6842    6.8929 H   0  0  0  0  0  0
    0.9029   -6.7490    7.0416 H   0  0  0  0  0  0
    4.0299  -10.0652   11.0537 H   0  0  0  0  0  0
   -1.6051   -9.4348    7.0200 H   0  0  0  0  0  0
   -0.5850   -8.1442    6.3926 H   0  0  0  0  0  0
    0.8087  -10.7970    9.1444 H   0  0  0  0  0  0
   -0.8092  -10.9444    8.4679 H   0  0  0  0  0  0
    7.5685   -6.2704    8.4362 H   0  0  0  0  0  0
    7.8288   -7.8391    9.1874 H   0  0  0  0  0  0
    9.6802   -6.3105    9.7771 H   0  0  0  0  0  0
    8.7582   -6.7803   11.2310 H   0  0  0  0  0  0
    8.4502   -4.1367    9.6625 H   0  0  0  0  0  0
    9.2209   -4.3193   11.2639 H   0  0  0  0  0  0
    6.8379   -3.5017   11.4790 H   0  0  0  0  0  0
    7.0325   -5.1091   12.2299 H   0  0  0  0  0  0
    4.9528   -5.0365   10.8595 H   0  0  0  0  0  0
    5.8890   -4.5975    9.4223 H   0  0  0  0  0  0
    5.7523  -10.3471   12.6866 S   0  0  0  0  0  0
    7.0619  -10.8851   12.3706 O   0  0  0  0  0  0
    4.8230  -11.1682   13.4383 O   0  0  0  0  0  0
    5.9528   -8.8041   13.5521 C   0  0  0  0  0  0
    4.8331   -8.2022   14.1300 C   0  0  0  0  0  0
    4.9481   -6.9751   14.7900 C   0  0  0  0  0  0
    6.1842   -6.3238   14.8675 C   0  0  0  0  0  0
    7.3103   -6.9437   14.3130 C   0  0  0  0  0  0
    7.1959   -8.1705   13.6507 C   0  0  0  0  0  0
    7.0246   -5.0140   16.3848 H   0  0  0  0  0  0
    5.4767   -7.5557   10.5144 C   0  0  0  0  0  0
    5.7101   -9.0256   10.2443 C   0  0  0  0  0  0
    5.3323   -9.3655    8.7691 C   0  0  0  0  0  0
    4.0642   -8.6477    8.2548 C   0  0  0  0  0  0
    2.8178   -9.2882    8.2338 C   0  0  0  0  0  0
    4.1546   -7.3381    7.7694 C   0  0  0  0  0  0
    1.6465   -8.6520    7.7855 C   0  0  0  0  0  0
    3.0135   -6.6888    7.2986 C   0  0  0  0  0  0
    1.7679   -7.3251    7.3480 C   0  0  0  0  0  0
    0.2999   -9.3740    7.7674 C   0  0  0  0  0  0
    4.4568   -7.3233   11.1446 O   0  0  0  0  0  0
    4.9896   -9.8360   11.2247 N   0  0  0  0  0  0
   -0.6907   -8.9541    7.0145 N   0  3  0  0  0  0
    0.0909  -10.4399    8.5039 N   0  0  0  0  0  0
    6.3029   -6.5490   10.0931 N   0  0  0  0  0  0
    7.5767   -6.7961    9.4044 C   0  0  0  0  0  0
    8.7080   -6.2105   10.2885 C   0  0  0  0  0  0
    8.4320   -4.7164   10.6008 C   0  0  0  0  0  0
    7.0414   -4.5650   11.2731 C   0  0  0  0  0  0
    5.9321   -5.1587   10.3698 C   0  0  0  0  0  0
  1 34  1  0  0  0
  2 35  1  0  0  0
  3 37  1  0  0  0
  4 38  1  0  0  0
  5  6  1  0  0  0
  5  7  1  0  0  0
  5 36  1  0  0  0
  5 39  1  0  0  0
  8 41  1  0  0  0
  9 42  1  0  0  0
 10 42  1  0  0  0
 11 44  1  0  0  0
 12 45  1  0  0  0
 13 47  1  0  0  0
 14 48  1  0  0  0
 15 51  1  0  0  0
 16 52  1  0  0  0
 17 52  1  0  0  0
 18 53  1  0  0  0
 19 53  1  0  0  0
 20 55  1  0  0  0
 21 55  1  0  0  0
 22 56  1  0  0  0
 23 56  1  0  0  0
 24 57  1  0  0  0
 25 57  1  0  0  0
 26 58  1  0  0  0
 27 58  1  0  0  0
 28 59  1  0  0  0
 29 59  1  0  0  0
 30 31  2  0  0  0
 30 32  2  0  0  0
 30 33  1  0  0  0
 30 51  1  0  0  0
 33 34  1  0  0  0
 33 38  2  0  0  0
 34 35  2  0  0  0
 35 36  1  0  0  0
 36 37  2  0  0  0
 37 38  1  0  0  0
 40 41  1  0  0  0
 40 50  2  0  0  0
 40 54  1  0  0  0
 41 42  1  0  0  0
 41 51  1  0  0  0
 42 43  1  0  0  0
 43 44  2  0  0  0
 43 45  1  0  0  0
 44 46  1  0  0  0
 45 47  2  0  0  0
 46 48  2  0  0  0
 46 49  1  0  0  0
 47 48  1  0  0  0
 49 52  2  0  0  0
 49 53  1  0  0  0
 54 55  1  0  0  0
 54 59  1  0  0  0
 55 56  1  0  0  0
 56 57  1  0  0  0
 57 58  1  0  0  0
 58 59  1  0  0  0
M  CHG  1  52   1
M  END
>  <ACTIVITY>
6.47

>  <SET>
1

>  <Min_dist>
999.9

>  <Avg_dist>
999.9

$$$$
46
  Cerius2 12110214423D 1   1.00000                          
Structure written by Cerius2 SD Exporter
 56 58  0  0  0  0  0  0  0  0999 V2000
    3.8575   -8.6866   14.0584 H   0  0  0  0  0  0
    4.0610   -6.5265   15.2359 H   0  0  0  0  0  0
    8.2772   -6.4643   14.3812 H   0  0  0  0  0  0
    8.0673   -8.6280   13.2004 H   0  0  0  0  0  0
    6.3192   -4.9574   15.5392 C   0  0  0  0  0  0
    5.3565   -4.5901   15.9259 H   0  0  0  0  0  0
    6.7022   -4.2295   14.8081 H   0  0  0  0  0  0
    6.7730   -9.2508   10.3444 H   0  0  0  0  0  0
    5.1476  -10.5102    8.7301 H   0  0  0  0  0  0
    6.0857   -9.2089    8.0323 H   0  0  0  0  0  0
    2.7739  -10.3412    8.5525 H   0  0  0  0  0  0
    5.1017   -6.8444    7.7527 H   0  0  0  0  0  0
    3.0888   -5.6890    6.9181 H   0  0  0  0  0  0
    0.8949   -6.7490    7.0693 H   0  0  0  0  0  0
    4.0281  -10.0336   11.0600 H   0  0  0  0  0  0
   -1.6005   -9.4100    7.0192 H   0  0  0  0  0  0
   -0.5663   -8.1200    6.4102 H   0  0  0  0  0  0
    0.8287  -10.8088    9.1320 H   0  0  0  0  0  0
   -0.7986  -10.9497    8.4752 H   0  0  0  0  0  0
    6.3253   -6.6007   10.1056 N   0  0  0  0  0  0
    6.0420   -5.2019   10.3929 C   0  0  0  0  0  0
    7.4080   -4.5730   10.0257 C   0  0  0  0  0  0
    7.9243   -5.4800    8.8888 C   0  0  0  0  0  0
    7.5605   -6.8953    9.3855 C   0  0  0  0  0  0
    5.7680   -5.0098   11.4436 H   0  0  0  0  0  0
    5.2428   -4.8435    9.7241 H   0  0  0  0  0  0
    8.0983   -4.6640   10.8806 H   0  0  0  0  0  0
    5.7529  -10.3454   12.6822 S   0  0  0  0  0  0
    7.0624  -10.8836   12.3699 O   0  0  0  0  0  0
    4.8114  -11.1653   13.4210 O   0  0  0  0  0  0
    5.9446   -8.8014   13.5462 C   0  0  0  0  0  0
    4.8240   -8.1986   14.1231 C   0  0  0  0  0  0
    4.9409   -6.9721   14.7833 C   0  0  0  0  0  0
    6.1797   -6.3258   14.8591 C   0  0  0  0  0  0
    7.3054   -6.9418   14.3007 C   0  0  0  0  0  0
    7.1883   -8.1684   13.6392 C   0  0  0  0  0  0
    7.0281   -5.0320   16.3774 H   0  0  0  0  0  0
    5.4632   -7.5653   10.5179 C   0  0  0  0  0  0
    5.7036   -9.0266   10.2161 C   0  0  0  0  0  0
    5.2945   -9.4192    8.7631 C   0  0  0  0  0  0
    4.0500   -8.6713    8.2519 C   0  0  0  0  0  0
    2.8066   -9.3095    8.2307 C   0  0  0  0  0  0
    4.1478   -7.3585    7.7761 C   0  0  0  0  0  0
    1.6422   -8.6588    7.7917 C   0  0  0  0  0  0
    3.0074   -6.6971    7.3157 C   0  0  0  0  0  0
    1.7623   -7.3273    7.3653 C   0  0  0  0  0  0
    0.2999   -9.3755    7.7726 C   0  0  0  0  0  0
    4.4563   -7.2860   11.1507 O   0  0  0  0  0  0
    4.9963   -9.8294   11.2106 N   0  0  0  0  0  0
   -0.6842   -8.9369    7.0226 N   0  3  0  0  0  0
    0.1011  -10.4475    8.5034 N   0  0  0  0  0  0
    7.3356   -3.5145    9.7285 H   0  0  0  0  0  0
    9.0009   -5.3727    8.6812 H   0  0  0  0  0  0
    7.3592   -5.2481    7.9693 H   0  0  0  0  0  0
    7.4840   -7.5431    8.5049 H   0  0  0  0  0  0
    8.3172   -7.2892   10.0826 H   0  0  0  0  0  0
  1 32  1  0  0  0
  2 33  1  0  0  0
  3 35  1  0  0  0
  4 36  1  0  0  0
  5  6  1  0  0  0
  5  7  1  0  0  0
  5 34  1  0  0  0
  5 37  1  0  0  0
  8 39  1  0  0  0
  9 40  1  0  0  0
 10 40  1  0  0  0
 11 42  1  0  0  0
 12 43  1  0  0  0
 13 45  1  0  0  0
 14 46  1  0  0  0
 15 49  1  0  0  0
 16 50  1  0  0  0
 17 50  1  0  0  0
 18 51  1  0  0  0
 19 51  1  0  0  0
 20 21  1  0  0  0
 20 24  1  0  0  0
 20 38  1  0  0  0
 21 22  1  0  0  0
 21 25  1  0  0  0
 21 26  1  0  0  0
 22 23  1  0  0  0
 22 27  1  0  0  0
 22 52  1  0  0  0
 23 24  1  0  0  0
 23 53  1  0  0  0
 23 54  1  0  0  0
 24 55  1  0  0  0
 24 56  1  0  0  0
 28 29  2  0  0  0
 28 30  2  0  0  0
 28 31  1  0  0  0
 28 49  1  0  0  0
 31 32  1  0  0  0
 31 36  2  0  0  0
 32 33  2  0  0  0
 33 34  1  0  0  0
 34 35  2  0  0  0
 35 36  1  0  0  0
 38 39  1  0  0  0
 38 48  2  0  0  0
 39 40  1  0  0  0
 39 49  1  0  0  0
 40 41  1  0  0  0
 41 42  2  0  0  0
 41 43  1  0  0  0
 42 44  1  0  0  0
 43 45  2  0  0  0
 44 46  2  0  0  0
 44 47  1  0  0  0
 45 46  1  0  0  0
 47 50  2  0  0  0
 47 51  1  0  0  0
M  CHG  1  50   1
M  END
>  <ACTIVITY>
6.46

>  <SET>
2

>  <Min_dist>
0.02

>  <Avg_dist>
0.2

$$$$
47
  Cerius2 12110214423D 1   1.00000                          
Structure written by Cerius2 SD Exporter
 71 74  0  0  0  0  0  0  0  0999 V2000
    3.9030   -6.3636   15.2904 C   0  0  0  0  0  0
    4.0732   -5.1488   15.9596 C   0  0  0  0  0  0
    5.3422   -4.5703   16.0402 C   0  0  0  0  0  0
    6.4378   -5.2076   15.4524 C   0  0  0  0  0  0
    6.7877   -9.3344   10.3663 H   0  0  0  0  0  0
    5.2596  -10.5196    8.6221 H   0  0  0  0  0  0
    6.1605   -9.1227    8.0109 H   0  0  0  0  0  0
    2.7752  -10.4280    8.5259 H   0  0  0  0  0  0
    5.0669   -6.9131    7.6953 H   0  0  0  0  0  0
    3.0172   -5.6915    7.0820 H   0  0  0  0  0  0
    0.8215   -6.7972    7.2668 H   0  0  0  0  0  0
    3.9710   -9.9242   10.9533 H   0  0  0  0  0  0
   -1.6024   -9.3819    7.0825 H   0  0  0  0  0  0
   -0.5427   -8.0699    6.5486 H   0  0  0  0  0  0
    0.8862  -10.9136    9.0808 H   0  0  0  0  0  0
   -0.7753  -11.0258    8.4812 H   0  0  0  0  0  0
    7.5876   -6.0503    8.0446 C   0  0  0  0  0  0
    7.7942   -7.7535    9.2118 H   0  0  0  0  0  0
    9.6551   -6.2413    9.7839 H   0  0  0  0  0  0
    8.7326   -6.7386   11.2281 H   0  0  0  0  0  0
    8.3960   -4.0560    9.7264 H   0  0  0  0  0  0
    9.2218   -4.2860   11.2902 H   0  0  0  0  0  0
    6.8732   -3.4785   11.6032 H   0  0  0  0  0  0
    7.1417   -5.0733   12.3502 H   0  0  0  0  0  0
    4.5782   -4.9483   11.4072 C   0  0  0  0  0  0
    5.7434   -4.5297    9.6898 H   0  0  0  0  0  0
    5.6756  -10.4234   12.6111 S   0  0  0  0  0  0
    6.9628  -11.0220   12.3153 O   0  0  0  0  0  0
    4.6804  -11.1902   13.3351 O   0  0  0  0  0  0
    7.3644   -7.0741   14.1933 C   0  0  0  0  0  0
    7.1893   -8.2855   13.5185 C   0  0  0  0  0  0
    5.9235   -8.8743   13.4512 C   0  0  0  0  0  0
    4.8310   -8.2230   14.0281 C   0  0  0  0  0  0
    4.9989   -7.0060   14.7012 C   0  0  0  0  0  0
    6.2714   -6.4276   14.7834 C   0  0  0  0  0  0
    2.9112   -6.8014   15.2338 H   0  0  0  0  0  0
    5.4721   -7.5919   10.4609 C   0  0  0  0  0  0
    5.7450   -9.0518   10.1572 C   0  0  0  0  0  0
    5.3553   -9.4248    8.6977 C   0  0  0  0  0  0
    4.0572   -8.7331    8.2333 C   0  0  0  0  0  0
    2.8170   -9.3851    8.2348 C   0  0  0  0  0  0
    4.1144   -7.4127    7.7766 C   0  0  0  0  0  0
    1.6450   -8.7154    7.8524 C   0  0  0  0  0  0
    2.9561   -6.7229    7.4169 C   0  0  0  0  0  0
    1.7188   -7.3652    7.4902 C   0  0  0  0  0  0
    0.3015   -9.4243    7.8196 C   0  0  0  0  0  0
    4.4088   -7.4736   11.0448 O   0  0  0  0  0  0
    4.9578   -9.8407   11.1001 N   0  0  0  0  0  0
   -0.6786   -8.9240    7.1083 N   0  3  0  0  0  0
    0.1279  -10.5282    8.5008 N   0  0  0  0  0  0
    6.2695   -6.5191   10.1443 N   0  0  0  0  0  0
    7.5391   -6.7058    9.4110 C   0  0  0  0  0  0
    8.6830   -6.1507   10.2964 C   0  0  0  0  0  0
    8.4128   -4.6669   10.6437 C   0  0  0  0  0  0
    7.0618   -4.5440   11.3899 C   0  0  0  0  0  0
    5.8840   -5.1567   10.5819 C   0  0  0  0  0  0
    4.4292   -3.8887   11.6655 H   0  0  0  0  0  0
    4.6361   -5.5091   12.3521 H   0  0  0  0  0  0
    3.6923   -5.2643   10.8333 H   0  0  0  0  0  0
    3.2208   -4.6551   16.4165 H   0  0  0  0  0  0
    5.4754   -3.6260   16.5598 H   0  0  0  0  0  0
    7.4177   -4.7450   15.5207 H   0  0  0  0  0  0
    8.3579   -6.6396   14.2528 H   0  0  0  0  0  0
    8.0401   -8.7679   13.0499 H   0  0  0  0  0  0
    3.8479   -8.6741   13.9485 H   0  0  0  0  0  0
    6.7902   -5.1921    7.7031 O   0  0  0  0  0  0
    8.5778   -6.4950    7.2499 O   0  0  0  0  0  0
    8.6274   -5.9432    5.9136 C   0  0  0  0  0  0
    9.6034   -5.4520    5.7881 H   0  0  0  0  0  0
    7.8443   -5.2251    5.6242 H   0  0  0  0  0  0
    8.5782   -6.7909    5.2142 H   0  0  0  0  0  0
  1  2  1  0  0  0
  1 34  2  0  0  0
  1 36  1  0  0  0
  2  3  2  0  0  0
  2 60  1  0  0  0
  3  4  1  0  0  0
  3 61  1  0  0  0
  4 35  2  0  0  0
  4 62  1  0  0  0
  5 38  1  0  0  0
  6 39  1  0  0  0
  7 39  1  0  0  0
  8 41  1  0  0  0
  9 42  1  0  0  0
 10 44  1  0  0  0
 11 45  1  0  0  0
 12 48  1  0  0  0
 13 49  1  0  0  0
 14 49  1  0  0  0
 15 50  1  0  0  0
 16 50  1  0  0  0
 17 52  1  0  0  0
 17 66  2  0  0  0
 17 67  1  0  0  0
 18 52  1  0  0  0
 19 53  1  0  0  0
 20 53  1  0  0  0
 21 54  1  0  0  0
 22 54  1  0  0  0
 23 55  1  0  0  0
 24 55  1  0  0  0
 25 56  1  0  0  0
 25 57  1  0  0  0
 25 58  1  0  0  0
 25 59  1  0  0  0
 26 56  1  0  0  0
 27 28  2  0  0  0
 27 29  2  0  0  0
 27 32  1  0  0  0
 27 48  1  0  0  0
 30 31  2  0  0  0
 30 35  1  0  0  0
 30 63  1  0  0  0
 31 32  1  0  0  0
 31 64  1  0  0  0
 32 33  2  0  0  0
 33 34  1  0  0  0
 33 65  1  0  0  0
 34 35  1  0  0  0
 37 38  1  0  0  0
 37 47  2  0  0  0
 37 51  1  0  0  0
 38 39  1  0  0  0
 38 48  1  0  0  0
 39 40  1  0  0  0
 40 41  2  0  0  0
 40 42  1  0  0  0
 41 43  1  0  0  0
 42 44  2  0  0  0
 43 45  2  0  0  0
 43 46  1  0  0  0
 44 45  1  0  0  0
 46 49  2  0  0  0
 46 50  1  0  0  0
 51 52  1  0  0  0
 51 56  1  0  0  0
 52 53  1  0  0  0
 53 54  1  0  0  0
 54 55  1  0  0  0
 55 56  1  0  0  0
 67 68  1  0  0  0
 68 69  1  0  0  0
 68 70  1  0  0  0
 68 71  1  0  0  0
M  CHG  1  49   1
M  END
>  <ACTIVITY>
6.38

>  <SET>
1

>  <Min_dist>
999.9

>  <Avg_dist>
999.9

$$$$
48
  Cerius2 12110214423D 1   1.00000                          
Structure written by Cerius2 SD Exporter
 62 65  0  0  0  0  0  0  0  0999 V2000
    3.9001   -6.3645   15.2968 C   0  0  0  0  0  0
    4.0679   -5.1488   15.9664 C   0  0  0  0  0  0
    5.3365   -4.5696   16.0483 C   0  0  0  0  0  0
    6.4334   -5.2045   15.4615 C   0  0  0  0  0  0
    6.7192   -9.3800   10.4295 H   0  0  0  0  0  0
    5.2457  -10.5040    8.6437 H   0  0  0  0  0  0
    6.1694   -9.1125    8.0649 H   0  0  0  0  0  0
    2.7983  -10.3928    8.5095 H   0  0  0  0  0  0
    5.0989   -6.8607    7.7310 H   0  0  0  0  0  0
    3.0633   -5.6639    7.0538 H   0  0  0  0  0  0
    0.8664   -6.7607    7.2174 H   0  0  0  0  0  0
    3.9211   -9.9465   11.0056 H   0  0  0  0  0  0
   -1.5755   -9.3642    7.0657 H   0  0  0  0  0  0
   -0.5221   -8.0552    6.5155 H   0  0  0  0  0  0
    0.9058  -10.8686    9.0836 H   0  0  0  0  0  0
   -0.7502  -10.9875    8.4746 H   0  0  0  0  0  0
    8.3551   -4.7047    9.9783 N   0  3  0  0  0  0
    7.1862   -4.4423   10.8440 C   0  0  0  0  0  0
    5.9616   -5.2146   10.3002 C   0  0  0  0  0  0
    6.3308   -6.6177   10.0758 N   0  0  0  0  0  0
    7.5491   -6.9266    9.3141 C   0  0  0  0  0  0
    8.7277   -6.1320    9.9135 C   0  0  0  0  0  0
    9.2017   -4.1135   10.2961 H   0  0  0  0  0  0
    6.9707   -3.3586   10.8581 H   0  0  0  0  0  0
    7.4012   -4.7665   11.8761 H   0  0  0  0  0  0
    5.6612  -10.4280   12.6403 S   0  0  0  0  0  0
    6.9473  -11.0194   12.3206 O   0  0  0  0  0  0
    4.6852  -11.2021   13.3803 O   0  0  0  0  0  0
    7.3627   -7.0687   14.2002 C   0  0  0  0  0  0
    7.1915   -8.2894   13.5385 C   0  0  0  0  0  0
    5.9247   -8.8776   13.4718 C   0  0  0  0  0  0
    4.8313   -8.2248   14.0424 C   0  0  0  0  0  0
    4.9971   -7.0040   14.7099 C   0  0  0  0  0  0
    6.2697   -6.4244   14.7897 C   0  0  0  0  0  0
    2.9090   -6.8043   15.2401 H   0  0  0  0  0  0
    5.4780   -7.5956   10.4944 C   0  0  0  0  0  0
    5.6904   -9.0663   10.2110 C   0  0  0  0  0  0
    5.3479   -9.4116    8.7336 C   0  0  0  0  0  0
    4.0761   -8.6953    8.2434 C   0  0  0  0  0  0
    2.8382   -9.3481    8.2249 C   0  0  0  0  0  0
    4.1485   -7.3731    7.7900 C   0  0  0  0  0  0
    1.6699   -8.6787    7.8323 C   0  0  0  0  0  0
    2.9953   -6.6910    7.4007 C   0  0  0  0  0  0
    1.7562   -7.3315    7.4598 C   0  0  0  0  0  0
    0.3280   -9.3903    7.8036 C   0  0  0  0  0  0
    4.4622   -7.3327   11.1198 O   0  0  0  0  0  0
    4.9043   -9.8404   11.1582 N   0  0  0  0  0  0
   -0.6538   -8.9024    7.0858 N   0  3  0  0  0  0
    0.1519  -10.4885    8.4949 N   0  0  0  0  0  0
    5.6634   -4.7794    9.3325 H   0  0  0  0  0  0
    5.1299   -5.0571   11.0056 H   0  0  0  0  0  0
    7.4060   -6.6188    8.2670 H   0  0  0  0  0  0
    7.8979   -7.9638    9.3045 H   0  0  0  0  0  0
    9.6197   -6.2658    9.2746 H   0  0  0  0  0  0
    8.9627   -6.5102   10.9230 H   0  0  0  0  0  0
    3.2143   -4.6567   16.4217 H   0  0  0  0  0  0
    5.4678   -3.6254   16.5689 H   0  0  0  0  0  0
    7.4131   -4.7423   15.5328 H   0  0  0  0  0  0
    8.3544   -6.6285   14.2521 H   0  0  0  0  0  0
    8.0456   -8.7761   13.0804 H   0  0  0  0  0  0
    3.8493   -8.6778   13.9616 H   0  0  0  0  0  0
    8.1230   -4.3704    8.9779 H   0  0  0  0  0  0
  1  2  1  0  0  0
  1 33  2  0  0  0
  1 35  1  0  0  0
  2  3  2  0  0  0
  2 56  1  0  0  0
  3  4  1  0  0  0
  3 57  1  0  0  0
  4 34  2  0  0  0
  4 58  1  0  0  0
  5 37  1  0  0  0
  6 38  1  0  0  0
  7 38  1  0  0  0
  8 40  1  0  0  0
  9 41  1  0  0  0
 10 43  1  0  0  0
 11 44  1  0  0  0
 12 47  1  0  0  0
 13 48  1  0  0  0
 14 48  1  0  0  0
 15 49  1  0  0  0
 16 49  1  0  0  0
 17 18  1  0  0  0
 17 22  1  0  0  0
 17 23  1  0  0  0
 17 62  1  0  0  0
 18 19  1  0  0  0
 18 24  1  0  0  0
 18 25  1  0  0  0
 19 20  1  0  0  0
 19 50  1  0  0  0
 19 51  1  0  0  0
 20 21  1  0  0  0
 20 36  1  0  0  0
 21 22  1  0  0  0
 21 52  1  0  0  0
 21 53  1  0  0  0
 22 54  1  0  0  0
 22 55  1  0  0  0
 26 27  2  0  0  0
 26 28  2  0  0  0
 26 31  1  0  0  0
 26 47  1  0  0  0
 29 30  2  0  0  0
 29 34  1  0  0  0
 29 59  1  0  0  0
 30 31  1  0  0  0
 30 60  1  0  0  0
 31 32  2  0  0  0
 32 33  1  0  0  0
 32 61  1  0  0  0
 33 34  1  0  0  0
 36 37  1  0  0  0
 36 46  2  0  0  0
 37 38  1  0  0  0
 37 47  1  0  0  0
 38 39  1  0  0  0
 39 40  2  0  0  0
 39 41  1  0  0  0
 40 42  1  0  0  0
 41 43  2  0  0  0
 42 44  2  0  0  0
 42 45  1  0  0  0
 43 44  1  0  0  0
 45 48  2  0  0  0
 45 49  1  0  0  0
M  CHG  2  17   1  48   1
M  END
>  <ACTIVITY>
6.3

>  <SET>
1

>  <Min_dist>
999.9

>  <Avg_dist>
999.9

$$$$
49
  Cerius2 12110214423D 1   1.00000                          
Structure written by Cerius2 SD Exporter
 74 77  0  0  0  0  0  0  0  0999 V2000
    3.9021   -6.3668   15.2984 C   0  0  0  0  0  0
    4.0684   -5.1505   15.9676 C   0  0  0  0  0  0
    5.3363   -4.5703   16.0507 C   0  0  0  0  0  0
    6.4342   -5.2053   15.4656 C   0  0  0  0  0  0
    6.7699   -9.3054   10.4005 H   0  0  0  0  0  0
    5.2488  -10.4927    8.6601 H   0  0  0  0  0  0
    6.1652   -9.1148    8.0454 H   0  0  0  0  0  0
    2.8460  -10.3813    8.4973 H   0  0  0  0  0  0
    5.1145   -6.8573    7.7425 H   0  0  0  0  0  0
    3.0725   -5.6660    7.0388 H   0  0  0  0  0  0
    0.9061   -6.7216    7.2265 H   0  0  0  0  0  0
    3.9684   -9.9400   10.9895 H   0  0  0  0  0  0
   -1.5887   -9.3735    7.0801 H   0  0  0  0  0  0
   -0.5675   -8.0751    6.5021 H   0  0  0  0  0  0
    0.8639  -10.8909    9.0854 H   0  0  0  0  0  0
   -0.7664  -10.9880    8.4543 H   0  0  0  0  0  0
    7.5471   -6.2121    8.4450 H   0  0  0  0  0  0
    7.8017   -7.8103    9.1366 H   0  0  0  0  0  0
    9.2023   -4.3389   11.2902 H   0  0  0  0  0  0
    8.7035   -6.7897   11.2363 H   0  0  0  0  0  0
    8.4320   -4.1291    9.6925 H   0  0  0  0  0  0
   11.8042   -7.8368    8.9939 C   0  0  0  0  0  0
    6.8287   -3.4867   11.4821 H   0  0  0  0  0  0
    7.0293   -5.0774   12.2688 H   0  0  0  0  0  0
    4.9489   -5.0482   10.9137 H   0  0  0  0  0  0
    5.8585   -4.5941    9.4615 H   0  0  0  0  0  0
    5.6867  -10.4191   12.6287 S   0  0  0  0  0  0
    6.9754  -11.0067   12.3149 O   0  0  0  0  0  0
    4.7043  -11.1973   13.3573 O   0  0  0  0  0  0
    7.3671   -7.0675   14.2068 C   0  0  0  0  0  0
    7.1982   -8.2841   13.5384 C   0  0  0  0  0  0
    5.9331   -8.8737   13.4701 C   0  0  0  0  0  0
    4.8371   -8.2265   14.0436 C   0  0  0  0  0  0
    4.9997   -7.0062   14.7125 C   0  0  0  0  0  0
    6.2722   -6.4253   14.7947 C   0  0  0  0  0  0
    2.9110   -6.8069   15.2411 H   0  0  0  0  0  0
    5.4817   -7.5623   10.4970 C   0  0  0  0  0  0
    5.7251   -9.0279   10.2004 C   0  0  0  0  0  0
    5.3565   -9.3990    8.7341 C   0  0  0  0  0  0
    4.0838   -8.6862    8.2434 C   0  0  0  0  0  0
    2.8473   -9.3381    8.2174 C   0  0  0  0  0  0
    4.1612   -7.3660    7.7919 C   0  0  0  0  0  0
    1.6693   -8.6775    7.8291 C   0  0  0  0  0  0
    3.0088   -6.6894    7.3952 C   0  0  0  0  0  0
    1.7709   -7.3269    7.4619 C   0  0  0  0  0  0
    0.3240   -9.3890    7.8004 C   0  0  0  0  0  0
    4.4637   -7.3418   11.1347 O   0  0  0  0  0  0
    4.9497   -9.8217   11.1456 N   0  0  0  0  0  0
   -0.6705   -8.9110    7.0868 N   0  3  0  0  0  0
    0.1338  -10.4923    8.4867 N   0  0  0  0  0  0
    6.2978   -6.5425   10.0972 N   0  0  0  0  0  0
    7.5630   -6.7728    9.3929 C   0  0  0  0  0  0
    8.6929   -6.2150   10.2944 C   0  0  0  0  0  0
    8.4139   -4.7226   10.6213 C   0  0  0  0  0  0
    7.0294   -4.5558   11.2991 C   0  0  0  0  0  0
    5.9197   -5.1603   10.4048 C   0  0  0  0  0  0
   12.8523   -8.2422   10.0636 C   0  0  0  0  0  0
   12.2030   -6.9644    8.4471 H   0  0  0  0  0  0
   11.6116   -8.9718    7.9550 C   0  0  0  0  0  0
    3.2140   -4.6584   16.4218 H   0  0  0  0  0  0
    5.4667   -3.6257   16.5706 H   0  0  0  0  0  0
    7.4136   -4.7423   15.5373 H   0  0  0  0  0  0
    8.3587   -6.6281   14.2624 H   0  0  0  0  0  0
    8.0515   -8.7677   13.0758 H   0  0  0  0  0  0
    3.8561   -8.6825   13.9640 H   0  0  0  0  0  0
   10.0251   -6.3840    9.6033 C   0  0  0  0  0  0
   10.5634   -5.4347    9.0546 O   0  0  0  0  0  0
   10.5284   -7.6308    9.6496 O   0  0  0  0  0  0
   13.8381   -8.4063    9.5998 H   0  0  0  0  0  0
   12.5441   -9.1689   10.5716 H   0  0  0  0  0  0
   12.9476   -7.4460   10.8181 H   0  0  0  0  0  0
   12.5486   -9.1651    7.4094 H   0  0  0  0  0  0
   10.8354   -8.6835    7.2287 H   0  0  0  0  0  0
   11.2941   -9.9006    8.4532 H   0  0  0  0  0  0
  1  2  1  0  0  0
  1 34  2  0  0  0
  1 36  1  0  0  0
  2  3  2  0  0  0
  2 60  1  0  0  0
  3  4  1  0  0  0
  3 61  1  0  0  0
  4 35  2  0  0  0
  4 62  1  0  0  0
  5 38  1  0  0  0
  6 39  1  0  0  0
  7 39  1  0  0  0
  8 41  1  0  0  0
  9 42  1  0  0  0
 10 44  1  0  0  0
 11 45  1  0  0  0
 12 48  1  0  0  0
 13 49  1  0  0  0
 14 49  1  0  0  0
 15 50  1  0  0  0
 16 50  1  0  0  0
 17 52  1  0  0  0
 18 52  1  0  0  0
 19 54  1  0  0  0
 20 53  1  0  0  0
 21 54  1  0  0  0
 22 57  1  0  0  0
 22 58  1  0  0  0
 22 59  1  0  0  0
 22 68  1  0  0  0
 23 55  1  0  0  0
 24 55  1  0  0  0
 25 56  1  0  0  0
 26 56  1  0  0  0
 27 28  2  0  0  0
 27 29  2  0  0  0
 27 32  1  0  0  0
 27 48  1  0  0  0
 30 31  2  0  0  0
 30 35  1  0  0  0
 30 63  1  0  0  0
 31 32  1  0  0  0
 31 64  1  0  0  0
 32 33  2  0  0  0
 33 34  1  0  0  0
 33 65  1  0  0  0
 34 35  1  0  0  0
 37 38  1  0  0  0
 37 47  2  0  0  0
 37 51  1  0  0  0
 38 39  1  0  0  0
 38 48  1  0  0  0
 39 40  1  0  0  0
 40 41  2  0  0  0
 40 42  1  0  0  0
 41 43  1  0  0  0
 42 44  2  0  0  0
 43 45  2  0  0  0
 43 46  1  0  0  0
 44 45  1  0  0  0
 46 49  2  0  0  0
 46 50  1  0  0  0
 51 52  1  0  0  0
 51 56  1  0  0  0
 52 53  1  0  0  0
 53 54  1  0  0  0
 53 66  1  0  0  0
 54 55  1  0  0  0
 55 56  1  0  0  0
 57 69  1  0  0  0
 57 70  1  0  0  0
 57 71  1  0  0  0
 59 72  1  0  0  0
 59 73  1  0  0  0
 59 74  1  0  0  0
 66 67  2  0  0  0
 66 68  1  0  0  0
M  CHG  1  49   1
M  END
>  <ACTIVITY>
6.29

>  <SET>
2

>  <Min_dist>
0.03

>  <Avg_dist>
0.23

$$$$
50
  Cerius2 12110214423D 1   1.00000                          
Structure written by Cerius2 SD Exporter
 64 67  0  0  0  0  0  0  0  0999 V2000
    3.9012   -6.3666   15.3046 C   0  0  0  0  0  0
    4.0671   -5.1504   15.9718 C   0  0  0  0  0  0
    5.3342   -4.5683   16.0560 C   0  0  0  0  0  0
    6.4334   -5.2044   15.4720 C   0  0  0  0  0  0
    6.7747   -9.3074   10.3977 H   0  0  0  0  0  0
    5.2396  -10.4903    8.6646 H   0  0  0  0  0  0
    6.1583   -9.1126    8.0527 H   0  0  0  0  0  0
    2.7961  -10.3790    8.5161 H   0  0  0  0  0  0
    5.1084   -6.8545    7.7454 H   0  0  0  0  0  0
    3.0750   -5.6751    7.0033 H   0  0  0  0  0  0
    0.8782   -6.7571    7.1756 H   0  0  0  0  0  0
    3.9814   -9.9519   11.0091 H   0  0  0  0  0  0
   -1.5844   -9.3736    7.0509 H   0  0  0  0  0  0
   -0.5354   -8.0722    6.4810 H   0  0  0  0  0  0
    0.8787  -10.8522    9.0944 H   0  0  0  0  0  0
   -0.7696  -10.9725    8.4709 H   0  0  0  0  0  0
    7.5479   -6.2257    8.4216 H   0  0  0  0  0  0
    7.8132   -7.8170    9.1314 H   0  0  0  0  0  0
    9.6640   -6.3085    9.7721 H   0  0  0  0  0  0
    8.7166   -6.8093   11.2038 H   0  0  0  0  0  0
    8.4479   -4.1331    9.6886 H   0  0  0  0  0  0
    9.4770   -4.2382   11.5776 C   0  0  0  0  0  0
    6.8205   -3.4915   11.4638 H   0  0  0  0  0  0
    7.0030   -5.0891   12.2428 H   0  0  0  0  0  0
    4.9458   -5.0507   10.8856 H   0  0  0  0  0  0
    5.8584   -4.6004    9.4333 H   0  0  0  0  0  0
    5.7044  -10.4170   12.6326 S   0  0  0  0  0  0
    6.9986  -10.9909   12.3155 O   0  0  0  0  0  0
    4.7333  -11.2073   13.3633 O   0  0  0  0  0  0
    7.3695   -7.0677   14.2210 C   0  0  0  0  0  0
    7.2031   -8.2822   13.5515 C   0  0  0  0  0  0
    5.9391   -8.8730   13.4784 C   0  0  0  0  0  0
    4.8401   -8.2275   14.0514 C   0  0  0  0  0  0
    5.0003   -7.0081   14.7191 C   0  0  0  0  0  0
    6.2712   -6.4241   14.8047 C   0  0  0  0  0  0
    2.9107   -6.8076   15.2467 H   0  0  0  0  0  0
    5.4881   -7.5652   10.4972 C   0  0  0  0  0  0
    5.7277   -9.0317   10.2063 C   0  0  0  0  0  0
    5.3484   -9.3971    8.7405 C   0  0  0  0  0  0
    4.0739   -8.6857    8.2468 C   0  0  0  0  0  0
    2.8338   -9.3367    8.2241 C   0  0  0  0  0  0
    4.1538   -7.3665    7.7876 C   0  0  0  0  0  0
    1.6650   -8.6744    7.8184 C   0  0  0  0  0  0
    3.0035   -6.6943    7.3716 C   0  0  0  0  0  0
    1.7620   -7.3314    7.4306 C   0  0  0  0  0  0
    0.3199   -9.3846    7.7916 C   0  0  0  0  0  0
    4.4768   -7.3420   11.1447 O   0  0  0  0  0  0
    4.9626   -9.8268   11.1600 N   0  0  0  0  0  0
   -0.6630   -8.9099    7.0648 N   0  3  0  0  0  0
    0.1336  -10.4750    8.4940 N   0  0  0  0  0  0
    6.2985   -6.5472   10.0811 N   0  0  0  0  0  0
    7.5627   -6.7784    9.3741 C   0  0  0  0  0  0
    8.6871   -6.2148   10.2762 C   0  0  0  0  0  0
    8.4171   -4.7260   10.6200 C   0  0  0  0  0  0
    7.0217   -4.5598   11.2775 C   0  0  0  0  0  0
    5.9173   -5.1638   10.3782 C   0  0  0  0  0  0
    9.5719   -4.8139   12.6953 O   0  5  0  0  0  0
   10.2209   -3.2826   11.2284 O   0  0  0  0  0  0
    3.2124   -4.6573   16.4252 H   0  0  0  0  0  0
    5.4645   -3.6235   16.5746 H   0  0  0  0  0  0
    7.4125   -4.7404   15.5435 H   0  0  0  0  0  0
    8.3604   -6.6296   14.2837 H   0  0  0  0  0  0
    8.0586   -8.7647   13.0914 H   0  0  0  0  0  0
    3.8604   -8.6866   13.9707 H   0  0  0  0  0  0
  1  2  1  0  0  0
  1 34  2  0  0  0
  1 36  1  0  0  0
  2  3  2  0  0  0
  2 59  1  0  0  0
  3  4  1  0  0  0
  3 60  1  0  0  0
  4 35  2  0  0  0
  4 61  1  0  0  0
  5 38  1  0  0  0
  6 39  1  0  0  0
  7 39  1  0  0  0
  8 41  1  0  0  0
  9 42  1  0  0  0
 10 44  1  0  0  0
 11 45  1  0  0  0
 12 48  1  0  0  0
 13 49  1  0  0  0
 14 49  1  0  0  0
 15 50  1  0  0  0
 16 50  1  0  0  0
 17 52  1  0  0  0
 18 52  1  0  0  0
 19 53  1  0  0  0
 20 53  1  0  0  0
 21 54  1  0  0  0
 22 54  1  0  0  0
 22 57  1  0  0  0
 22 58  2  0  0  0
 23 55  1  0  0  0
 24 55  1  0  0  0
 25 56  1  0  0  0
 26 56  1  0  0  0
 27 28  2  0  0  0
 27 29  2  0  0  0
 27 32  1  0  0  0
 27 48  1  0  0  0
 30 31  2  0  0  0
 30 35  1  0  0  0
 30 62  1  0  0  0
 31 32  1  0  0  0
 31 63  1  0  0  0
 32 33  2  0  0  0
 33 34  1  0  0  0
 33 64  1  0  0  0
 34 35  1  0  0  0
 37 38  1  0  0  0
 37 47  2  0  0  0
 37 51  1  0  0  0
 38 39  1  0  0  0
 38 48  1  0  0  0
 39 40  1  0  0  0
 40 41  2  0  0  0
 40 42  1  0  0  0
 41 43  1  0  0  0
 42 44  2  0  0  0
 43 45  2  0  0  0
 43 46  1  0  0  0
 44 45  1  0  0  0
 46 49  2  0  0  0
 46 50  1  0  0  0
 51 52  1  0  0  0
 51 56  1  0  0  0
 52 53  1  0  0  0
 53 54  1  0  0  0
 54 55  1  0  0  0
 55 56  1  0  0  0
M  CHG  2  49   1  57  -1
M  END
>  <ACTIVITY>
6.24

>  <SET>
1

>  <Min_dist>
999.9

>  <Avg_dist>
999.9

$$$$
51
  Cerius2 12110214423D 1   1.00000                          
Structure written by Cerius2 SD Exporter
 75 79  0  0  0  0  0  0  0  0999 V2000
    3.8922   -6.3556   15.3043 C   0  0  0  0  0  0
    4.0618   -5.1415   15.9733 C   0  0  0  0  0  0
    5.3300   -4.5623   16.0547 C   0  0  0  0  0  0
    6.4271   -5.2009   15.4666 C   0  0  0  0  0  0
    6.6384   -9.4786   10.2489 H   0  0  0  0  0  0
    5.0645  -10.5695    8.6212 H   0  0  0  0  0  0
    6.0423   -9.2595    7.9804 H   0  0  0  0  0  0
    2.6997  -10.3952    8.4584 H   0  0  0  0  0  0
    5.0798   -6.9022    7.7273 H   0  0  0  0  0  0
    3.0584   -5.6632    7.0307 H   0  0  0  0  0  0
    0.8378   -6.7234    7.1854 H   0  0  0  0  0  0
    3.8600   -9.9434   11.0335 H   0  0  0  0  0  0
   -1.6343   -9.3601    7.0521 H   0  0  0  0  0  0
   -0.5851   -8.0441    6.5065 H   0  0  0  0  0  0
    0.8621  -10.8562    9.0674 H   0  0  0  0  0  0
   -0.7893  -10.9925    8.4546 H   0  0  0  0  0  0
    8.6438   -7.4915   10.2763 C   0  0  0  0  0  0
    6.3751   -6.6539   10.0859 N   0  0  0  0  0  0
    6.0840   -5.2618   10.4114 C   0  0  0  0  0  0
    7.4174   -4.5761   10.0375 C   0  0  0  0  0  0
    7.9205   -5.4636    8.8761 C   0  0  0  0  0  0
    7.6060   -6.9151    9.3442 C   0  0  0  0  0  0
    8.5794   -7.2662   11.4726 O   0  0  0  0  0  0
    5.8277   -5.0998   11.4701 H   0  0  0  0  0  0
    5.2677   -4.8964    9.7660 H   0  0  0  0  0  0
    8.1263   -4.6410   10.8794 H   0  0  0  0  0  0
    5.6454  -10.4053   12.6080 S   0  0  0  0  0  0
    6.9275  -10.9757   12.2396 O   0  0  0  0  0  0
    4.7103  -11.2044   13.3748 O   0  0  0  0  0  0
    7.3565   -7.0784   14.2233 C   0  0  0  0  0  0
    7.1860   -8.3212   13.6066 C   0  0  0  0  0  0
    5.9115   -8.8780   13.4814 C   0  0  0  0  0  0
    4.8178   -8.2129   14.0419 C   0  0  0  0  0  0
    4.9884   -6.9988   14.7142 C   0  0  0  0  0  0
    6.2623   -6.4206   14.8013 C   0  0  0  0  0  0
    2.9012   -6.7950   15.2478 H   0  0  0  0  0  0
    5.4943   -7.6237   10.4620 C   0  0  0  0  0  0
    5.6138   -9.1053   10.1427 C   0  0  0  0  0  0
    5.2293   -9.4823    8.6849 C   0  0  0  0  0  0
    3.9987   -8.7131    8.2051 C   0  0  0  0  0  0
    2.7534   -9.3477    8.1860 C   0  0  0  0  0  0
    4.1110   -7.3893    7.7687 C   0  0  0  0  0  0
    1.6028   -8.6542    7.8043 C   0  0  0  0  0  0
    2.9697   -6.6886    7.3774 C   0  0  0  0  0  0
    1.7164   -7.3084    7.4325 C   0  0  0  0  0  0
    0.2662   -9.3784    7.7892 C   0  0  0  0  0  0
    4.5064   -7.3120   11.1091 O   0  0  0  0  0  0
    4.8498   -9.8389   11.1485 N   0  0  0  0  0  0
   -0.7155   -8.8933    7.0742 N   0  3  0  0  0  0
    0.1053  -10.4808    8.4785 N   0  0  0  0  0  0
    7.2918   -3.5140    9.7643 H   0  0  0  0  0  0
    8.9784   -5.2822    8.6293 H   0  0  0  0  0  0
    7.3096   -5.2180    7.9886 H   0  0  0  0  0  0
    7.4693   -7.5617    8.4706 H   0  0  0  0  0  0
   10.5098   -8.7431   10.7855 C   0  0  0  0  0  0
    9.6165   -8.2573    9.7591 O   0  0  0  0  0  0
   11.5594   -9.6483   10.1460 C   0  0  0  0  0  0
   12.7545   -9.1011    9.6688 C   0  0  0  0  0  0
   13.7425   -9.9361    9.1413 C   0  0  0  0  0  0
    3.2086   -4.6480   16.4299 H   0  0  0  0  0  0
    5.4628   -3.6185   16.5745 H   0  0  0  0  0  0
    7.4064   -4.7370   15.5368 H   0  0  0  0  0  0
    8.3455   -6.6303   14.2535 H   0  0  0  0  0  0
    8.0470   -8.8596   13.2282 H   0  0  0  0  0  0
    3.8337   -8.6587   13.9494 H   0  0  0  0  0  0
   13.5271  -11.3153    9.0660 C   0  0  0  0  0  0
   12.3195  -11.8586    9.5137 C   0  0  0  0  0  0
   11.3309  -11.0245   10.0419 C   0  0  0  0  0  0
   11.0108   -7.9029   11.2974 H   0  0  0  0  0  0
    9.9606   -9.3255   11.5451 H   0  0  0  0  0  0
   12.9166   -8.0281    9.7073 H   0  0  0  0  0  0
   14.6775   -9.5121    8.7905 H   0  0  0  0  0  0
   14.2965  -11.9639    8.6592 H   0  0  0  0  0  0
   12.1487  -12.9285    9.4517 H   0  0  0  0  0  0
   10.3867  -11.4492   10.3703 H   0  0  0  0  0  0
  1  2  1  0  0  0
  1 34  2  0  0  0
  1 36  1  0  0  0
  2  3  2  0  0  0
  2 60  1  0  0  0
  3  4  1  0  0  0
  3 61  1  0  0  0
  4 35  2  0  0  0
  4 62  1  0  0  0
  5 38  1  0  0  0
  6 39  1  0  0  0
  7 39  1  0  0  0
  8 41  1  0  0  0
  9 42  1  0  0  0
 10 44  1  0  0  0
 11 45  1  0  0  0
 12 48  1  0  0  0
 13 49  1  0  0  0
 14 49  1  0  0  0
 15 50  1  0  0  0
 16 50  1  0  0  0
 17 22  1  0  0  0
 17 23  2  0  0  0
 17 56  1  0  0  0
 18 19  1  0  0  0
 18 22  1  0  0  0
 18 37  1  0  0  0
 19 20  1  0  0  0
 19 24  1  0  0  0
 19 25  1  0  0  0
 20 21  1  0  0  0
 20 26  1  0  0  0
 20 51  1  0  0  0
 21 22  1  0  0  0
 21 52  1  0  0  0
 21 53  1  0  0  0
 22 54  1  0  0  0
 27 28  2  0  0  0
 27 29  2  0  0  0
 27 32  1  0  0  0
 27 48  1  0  0  0
 30 31  2  0  0  0
 30 35  1  0  0  0
 30 63  1  0  0  0
 31 32  1  0  0  0
 31 64  1  0  0  0
 32 33  2  0  0  0
 33 34  1  0  0  0
 33 65  1  0  0  0
 34 35  1  0  0  0
 37 38  1  0  0  0
 37 47  2  0  0  0
 38 39  1  0  0  0
 38 48  1  0  0  0
 39 40  1  0  0  0
 40 41  2  0  0  0
 40 42  1  0  0  0
 41 43  1  0  0  0
 42 44  2  0  0  0
 43 45  2  0  0  0
 43 46  1  0  0  0
 44 45  1  0  0  0
 46 49  2  0  0  0
 46 50  1  0  0  0
 55 56  1  0  0  0
 55 57  1  0  0  0
 55 69  1  0  0  0
 55 70  1  0  0  0
 57 58  1  0  0  0
 57 68  2  0  0  0
 58 59  2  0  0  0
 58 71  1  0  0  0
 59 66  1  0  0  0
 59 72  1  0  0  0
 66 67  2  0  0  0
 66 73  1  0  0  0
 67 68  1  0  0  0
 67 74  1  0  0  0
 68 75  1  0  0  0
M  CHG  1  49   1
M  END
>  <ACTIVITY>
6.2

>  <SET>
2

>  <Min_dist>
0.04

>  <Avg_dist>
0.26

$$$$
52
  Cerius2 12110214423D 1   1.00000                          
Structure written by Cerius2 SD Exporter
 65 68  0  0  0  0  0  0  0  0999 V2000
    3.8911   -6.3550   15.3042 C   0  0  0  0  0  0
    4.0609   -5.1410   15.9734 C   0  0  0  0  0  0
    5.3292   -4.5620   16.0547 C   0  0  0  0  0  0
    6.4258   -5.2010   15.4665 C   0  0  0  0  0  0
    6.6570   -9.4566   10.2559 H   0  0  0  0  0  0
    5.0603  -10.5699    8.6191 H   0  0  0  0  0  0
    6.0413   -9.2600    7.9810 H   0  0  0  0  0  0
    2.6947  -10.3961    8.4546 H   0  0  0  0  0  0
    5.0786   -6.9057    7.7267 H   0  0  0  0  0  0
    3.0574   -5.6632    7.0338 H   0  0  0  0  0  0
    0.8355   -6.7219    7.1872 H   0  0  0  0  0  0
    3.8607   -9.9389   11.0302 H   0  0  0  0  0  0
   -1.6367   -9.3593    7.0522 H   0  0  0  0  0  0
   -0.5876   -8.0424    6.5083 H   0  0  0  0  0  0
    0.8614  -10.8564    9.0661 H   0  0  0  0  0  0
   -0.7903  -10.9934    8.4539 H   0  0  0  0  0  0
    8.6775   -7.4747   10.2838 C   0  0  0  0  0  0
    6.3873   -6.6592   10.0922 N   0  0  0  0  0  0
    6.0880   -5.2673   10.4125 C   0  0  0  0  0  0
    7.4182   -4.5774   10.0385 C   0  0  0  0  0  0
    7.9239   -5.4692    8.8818 C   0  0  0  0  0  0
    7.6228   -6.9215    9.3556 C   0  0  0  0  0  0
    8.5927   -7.2067   11.4696 O   0  0  0  0  0  0
    5.8299   -5.1039   11.4703 H   0  0  0  0  0  0
    5.2706   -4.9048    9.7665 H   0  0  0  0  0  0
    8.1259   -4.6373   10.8814 H   0  0  0  0  0  0
    5.6432  -10.4058   12.6079 S   0  0  0  0  0  0
    6.9235  -10.9770   12.2369 O   0  0  0  0  0  0
    4.7067  -11.2043   13.3741 O   0  0  0  0  0  0
    7.3549   -7.0797   14.2236 C   0  0  0  0  0  0
    7.1865   -8.3222   13.6060 C   0  0  0  0  0  0
    5.9111   -8.8783   13.4811 C   0  0  0  0  0  0
    4.8171   -8.2128   14.0410 C   0  0  0  0  0  0
    4.9871   -6.9988   14.7141 C   0  0  0  0  0  0
    6.2609   -6.4212   14.8015 C   0  0  0  0  0  0
    2.8999   -6.7941   15.2477 H   0  0  0  0  0  0
    5.5021   -7.6273   10.4605 C   0  0  0  0  0  0
    5.6238   -9.1067   10.1422 C   0  0  0  0  0  0
    5.2294   -9.4835    8.6859 C   0  0  0  0  0  0
    3.9969   -8.7150    8.2057 C   0  0  0  0  0  0
    2.7508   -9.3482    8.1848 C   0  0  0  0  0  0
    4.1091   -7.3913    7.7690 C   0  0  0  0  0  0
    1.6000   -8.6535    7.8040 C   0  0  0  0  0  0
    2.9680   -6.6891    7.3790 C   0  0  0  0  0  0
    1.7141   -7.3075    7.4336 C   0  0  0  0  0  0
    0.2639   -9.3780    7.7892 C   0  0  0  0  0  0
    4.5087   -7.3168   11.0993 O   0  0  0  0  0  0
    4.8516   -9.8382   11.1448 N   0  0  0  0  0  0
   -0.7181   -8.8923    7.0749 N   0  3  0  0  0  0
    0.1039  -10.4810    8.4778 N   0  0  0  0  0  0
    7.2882   -3.5163    9.7636 H   0  0  0  0  0  0
    8.9792   -5.2794    8.6320 H   0  0  0  0  0  0
    7.3083   -5.2281    7.9968 H   0  0  0  0  0  0
    7.4825   -7.5736    8.4880 H   0  0  0  0  0  0
   10.6083   -8.7402   10.7459 C   0  0  0  0  0  0
    9.6599   -8.2388    9.7635 O   0  0  0  0  0  0
   10.5820   -9.8385   10.7553 H   0  0  0  0  0  0
    3.2079   -4.6474   16.4301 H   0  0  0  0  0  0
    5.4621   -3.6180   16.5744 H   0  0  0  0  0  0
    7.4050   -4.7369   15.5363 H   0  0  0  0  0  0
    8.3435   -6.6312   14.2544 H   0  0  0  0  0  0
    8.0496   -8.8585   13.2267 H   0  0  0  0  0  0
    3.8324   -8.6575   13.9475 H   0  0  0  0  0  0
   11.6275   -8.4168   10.4878 H   0  0  0  0  0  0
   10.4421   -8.4274   11.7845 H   0  0  0  0  0  0
  1  2  1  0  0  0
  1 34  2  0  0  0
  1 36  1  0  0  0
  2  3  2  0  0  0
  2 58  1  0  0  0
  3  4  1  0  0  0
  3 59  1  0  0  0
  4 35  2  0  0  0
  4 60  1  0  0  0
  5 38  1  0  0  0
  6 39  1  0  0  0
  7 39  1  0  0  0
  8 41  1  0  0  0
  9 42  1  0  0  0
 10 44  1  0  0  0
 11 45  1  0  0  0
 12 48  1  0  0  0
 13 49  1  0  0  0
 14 49  1  0  0  0
 15 50  1  0  0  0
 16 50  1  0  0  0
 17 22  1  0  0  0
 17 23  2  0  0  0
 17 56  1  0  0  0
 18 19  1  0  0  0
 18 22  1  0  0  0
 18 37  1  0  0  0
 19 20  1  0  0  0
 19 24  1  0  0  0
 19 25  1  0  0  0
 20 21  1  0  0  0
 20 26  1  0  0  0
 20 51  1  0  0  0
 21 22  1  0  0  0
 21 52  1  0  0  0
 21 53  1  0  0  0
 22 54  1  0  0  0
 27 28  2  0  0  0
 27 29  2  0  0  0
 27 32  1  0  0  0
 27 48  1  0  0  0
 30 31  2  0  0  0
 30 35  1  0  0  0
 30 61  1  0  0  0
 31 32  1  0  0  0
 31 62  1  0  0  0
 32 33  2  0  0  0
 33 34  1  0  0  0
 33 63  1  0  0  0
 34 35  1  0  0  0
 37 38  1  0  0  0
 37 47  2  0  0  0
 38 39  1  0  0  0
 38 48  1  0  0  0
 39 40  1  0  0  0
 40 41  2  0  0  0
 40 42  1  0  0  0
 41 43  1  0  0  0
 42 44  2  0  0  0
 43 45  2  0  0  0
 43 46  1  0  0  0
 44 45  1  0  0  0
 46 49  2  0  0  0
 46 50  1  0  0  0
 55 56  1  0  0  0
 55 57  1  0  0  0
 55 64  1  0  0  0
 55 65  1  0  0  0
M  CHG  1  49   1
M  END
>  <ACTIVITY>
6.18

>  <SET>
1

>  <Min_dist>
999.9

>  <Avg_dist>
999.9

$$$$
53
  Cerius2 12110214423D 1   1.00000                          
Structure written by Cerius2 SD Exporter
 82 87  0  0  0  0  0  0  0  0999 V2000
    4.0884   -6.0048   14.9500 C   0  0  0  0  0  0
    4.3848   -4.7648   15.5265 C   0  0  0  0  0  0
    5.7004   -4.2964   15.5292 C   0  0  0  0  0  0
    6.7138   -5.0563   14.9413 C   0  0  0  0  0  0
    6.7787   -9.4179   10.3580 H   0  0  0  0  0  0
    5.4430  -10.4011    8.4173 H   0  0  0  0  0  0
    6.3000   -8.9087    7.9852 H   0  0  0  0  0  0
    2.9598  -10.4162    8.4403 H   0  0  0  0  0  0
    5.0282   -6.8269    7.6482 H   0  0  0  0  0  0
    2.9771   -5.6289    7.0891 H   0  0  0  0  0  0
    0.8231   -6.8630    7.2333 H   0  0  0  0  0  0
    3.9269   -9.9685   10.7091 H   0  0  0  0  0  0
   -1.4948   -9.5501    7.4304 H   0  0  0  0  0  0
   -0.5456   -8.2013    6.7767 H   0  0  0  0  0  0
    1.2713  -10.8660    9.2479 H   0  0  0  0  0  0
   -0.4375  -11.1050    8.8372 H   0  0  0  0  0  0
    6.0907   -5.2502   10.5708 C   0  0  0  0  0  0
    6.4855   -6.6098   10.1865 N   0  0  0  0  0  0
    7.7484   -6.8400    9.4658 C   0  0  0  0  0  0
    8.8664   -6.0538   10.1799 C   0  0  0  0  0  0
    9.4896   -3.5888    9.9834 C   0  0  0  0  0  0
    9.1313   -2.2415    9.8754 C   0  0  0  0  0  0
    7.7859   -1.8718    9.9272 C   0  0  0  0  0  0
    6.8021   -2.8446   10.1325 C   0  0  0  0  0  0
    7.1608   -4.1880   10.2808 C   0  0  0  0  0  0
    5.4361  -10.3865   12.5514 S   0  0  0  0  0  0
    6.6534  -11.1560   12.3825 O   0  0  0  0  0  0
    4.3142  -10.9615   13.2679 O   0  0  0  0  0  0
    7.4308   -7.0634   13.7715 C   0  0  0  0  0  0
    7.1378   -8.3139   13.2181 C   0  0  0  0  0  0
    5.8313   -8.8077   13.2627 C   0  0  0  0  0  0
    4.8173   -8.0343   13.8295 C   0  0  0  0  0  0
    5.1039   -6.7783   14.3818 C   0  0  0  0  0  0
    6.4214   -6.2993   14.3632 C   0  0  0  0  0  0
    3.0607   -6.3556   14.9523 H   0  0  0  0  0  0
    5.5852   -7.6013   10.4465 C   0  0  0  0  0  0
    5.7685   -9.0645   10.1082 C   0  0  0  0  0  0
    5.4841   -9.3170    8.6027 C   0  0  0  0  0  0
    4.1591   -8.6635    8.1767 C   0  0  0  0  0  0
    2.9519   -9.3624    8.1945 C   0  0  0  0  0  0
    4.1188   -7.3421    7.7421 C   0  0  0  0  0  0
    1.7550   -8.7106    7.8881 C   0  0  0  0  0  0
    2.9466   -6.6690    7.4056 C   0  0  0  0  0  0
    1.7465   -7.3704    7.4835 C   0  0  0  0  0  0
    0.4555   -9.4774    8.0035 C   0  0  0  0  0  0
    4.5231   -7.3322   10.9881 O   0  0  0  0  0  0
    4.8825   -9.8379   10.9706 N   0  0  0  0  0  0
   -0.5990   -9.0456    7.3661 N   0  3  0  0  0  0
    0.4285  -10.5560    8.7404 N   0  0  0  0  0  0
    8.5041   -4.5641   10.1554 C   0  0  0  0  0  0
    5.8958   -5.2095   11.6513 H   0  0  0  0  0  0
    5.1645   -4.9790   10.0346 H   0  0  0  0  0  0
    7.6254   -6.0907    8.1658 C   0  0  0  0  0  0
    9.8214   -6.2289    9.6559 H   0  0  0  0  0  0
    8.9590   -6.3896   11.2195 H   0  0  0  0  0  0
   10.5355   -3.8721    9.9317 H   0  0  0  0  0  0
    3.5940   -4.1690   15.9709 H   0  0  0  0  0  0
    5.9346   -3.3408   15.9892 H   0  0  0  0  0  0
    7.7300   -4.6743   14.9387 H   0  0  0  0  0  0
    8.4520   -6.6961   13.7372 H   0  0  0  0  0  0
    7.9265   -8.8968   12.7558 H   0  0  0  0  0  0
    3.8019   -8.4159   13.8362 H   0  0  0  0  0  0
    9.8994   -1.4846    9.7522 H   0  0  0  0  0  0
    7.5039   -0.8297    9.8119 H   0  0  0  0  0  0
    5.7588   -2.5486   10.1781 H   0  0  0  0  0  0
    8.0635   -7.8896    9.3586 H   0  0  0  0  0  0
    6.6096   -5.4579    7.9549 O   0  0  0  0  0  0
    8.6500   -6.0140    7.3138 O   0  0  0  0  0  0
    8.2190   -5.4643    6.0492 C   0  0  0  0  0  0
    9.4233   -4.9244    5.2972 C   0  0  0  0  0  0
    9.7530   -3.5669    5.3799 C   0  0  0  0  0  0
   10.8546   -3.0791    4.6738 C   0  0  0  0  0  0
   11.6215   -3.9488    3.8932 C   0  0  0  0  0  0
   11.2893   -5.3044    3.8153 C   0  0  0  0  0  0
   10.1882   -5.7947    4.5192 C   0  0  0  0  0  0
    7.7448   -6.2939    5.5046 H   0  0  0  0  0  0
    7.4999   -4.6253    6.0841 H   0  0  0  0  0  0
    9.1586   -2.8893    5.9872 H   0  0  0  0  0  0
   11.1120   -2.0266    4.7332 H   0  0  0  0  0  0
   12.4780   -3.5708    3.3458 H   0  0  0  0  0  0
   11.8833   -5.9800    3.2099 H   0  0  0  0  0  0
    9.9266   -6.8466    4.4619 H   0  0  0  0  0  0
  1  2  1  0  0  0
  1 33  2  0  0  0
  1 35  1  0  0  0
  2  3  2  0  0  0
  2 57  1  0  0  0
  3  4  1  0  0  0
  3 58  1  0  0  0
  4 34  2  0  0  0
  4 59  1  0  0  0
  5 37  1  0  0  0
  6 38  1  0  0  0
  7 38  1  0  0  0
  8 40  1  0  0  0
  9 41  1  0  0  0
 10 43  1  0  0  0
 11 44  1  0  0  0
 12 47  1  0  0  0
 13 48  1  0  0  0
 14 48  1  0  0  0
 15 49  1  0  0  0
 16 49  1  0  0  0
 17 18  1  0  0  0
 17 25  1  0  0  0
 17 51  1  0  0  0
 17 52  1  0  0  0
 18 19  1  0  0  0
 18 36  1  0  0  0
 19 20  1  0  0  0
 19 53  1  0  0  0
 19 66  1  0  0  0
 20 50  1  0  0  0
 20 54  1  0  0  0
 20 55  1  0  0  0
 21 22  1  0  0  0
 21 50  2  0  0  0
 21 56  1  0  0  0
 22 23  2  0  0  0
 22 63  1  0  0  0
 23 24  1  0  0  0
 23 64  1  0  0  0
 24 25  2  0  0  0
 24 65  1  0  0  0
 25 50  1  0  0  0
 26 27  2  0  0  0
 26 28  2  0  0  0
 26 31  1  0  0  0
 26 47  1  0  0  0
 29 30  2  0  0  0
 29 34  1  0  0  0
 29 60  1  0  0  0
 30 31  1  0  0  0
 30 61  1  0  0  0
 31 32  2  0  0  0
 32 33  1  0  0  0
 32 62  1  0  0  0
 33 34  1  0  0  0
 36 37  1  0  0  0
 36 46  2  0  0  0
 37 38  1  0  0  0
 37 47  1  0  0  0
 38 39  1  0  0  0
 39 40  2  0  0  0
 39 41  1  0  0  0
 40 42  1  0  0  0
 41 43  2  0  0  0
 42 44  2  0  0  0
 42 45  1  0  0  0
 43 44  1  0  0  0
 45 48  2  0  0  0
 45 49  1  0  0  0
 53 67  2  0  0  0
 53 68  1  0  0  0
 68 69  1  0  0  0
 69 70  1  0  0  0
 69 76  1  0  0  0
 69 77  1  0  0  0
 70 71  1  0  0  0
 70 75  2  0  0  0
 71 72  2  0  0  0
 71 78  1  0  0  0
 72 73  1  0  0  0
 72 79  1  0  0  0
 73 74  2  0  0  0
 73 80  1  0  0  0
 74 75  1  0  0  0
 74 81  1  0  0  0
 75 82  1  0  0  0
M  CHG  1  48   1
M  END
>  <ACTIVITY>
6.16

>  <SET>
1

>  <Min_dist>
999.9

>  <Avg_dist>
999.9

$$$$
54
  Cerius2 12110214423D 1   1.00000                          
Structure written by Cerius2 SD Exporter
 99102  0  0  0  0  0  0  0  0999 V2000
    3.8040   -8.0084   13.7384 C   0  0  0  0  0  0
    5.0764   -5.7918   14.5114 H   0  0  0  0  0  0
    7.5599   -5.0325   15.2702 C   0  0  0  0  0  0
    8.7906   -9.5636   13.4781 C   0  0  0  0  0  0
    9.0999   -6.9678   14.0201 H   0  0  0  0  0  0
    3.5295   -8.8570   13.1003 H   0  0  0  0  0  0
    8.3938   -4.0268   14.4326 C   0  0  0  0  0  0
    6.7892   -9.3169   10.1870 H   0  0  0  0  0  0
    5.2650  -10.5860    8.5161 H   0  0  0  0  0  0
    6.1911   -9.2384    7.8217 H   0  0  0  0  0  0
    2.8018  -10.4638    8.3951 H   0  0  0  0  0  0
    5.1408   -7.0060    7.4019 H   0  0  0  0  0  0
    3.0758   -5.7261    6.9566 H   0  0  0  0  0  0
    0.8682   -6.7869    7.2614 H   0  0  0  0  0  0
    3.9407   -9.7155   10.8394 H   0  0  0  0  0  0
   -1.4729   -9.5939    6.8477 H   0  0  0  0  0  0
   -0.3101   -8.4937    6.0922 H   0  0  0  0  0  0
    0.7115  -10.4626    9.4998 H   0  0  0  0  0  0
   -0.8736  -10.7500    8.7650 H   0  0  0  0  0  0
    7.7208   -6.3424    8.1889 H   0  0  0  0  0  0
    7.9843   -7.8696    9.0235 H   0  0  0  0  0  0
   10.2122   -6.3063    9.3405 C   0  0  0  0  0  0
    8.9004   -6.6746   11.0015 H   0  0  0  0  0  0
    8.5056   -4.1295    9.3209 H   0  0  0  0  0  0
    9.3006   -4.2169   10.9208 H   0  0  0  0  0  0
    6.9111   -3.4874   11.1699 H   0  0  0  0  0  0
    7.1429   -5.1071   11.9077 H   0  0  0  0  0  0
    5.0820   -5.0426   10.6026 H   0  0  0  0  0  0
    5.9603   -4.6132    9.1190 H   0  0  0  0  0  0
    5.7047  -10.2653   12.4760 S   0  0  0  0  0  0
    6.7819  -11.0887   11.9741 O   0  0  0  0  0  0
    4.7054  -10.9117   13.3059 O   0  0  0  0  0  0
    6.2870   -8.7539   13.3193 C   0  0  0  0  0  0
    5.3428   -7.7901   13.7383 C   0  0  0  0  0  0
    5.7835   -6.5643   14.2566 C   0  0  0  0  0  0
    7.1338   -6.3018   14.4912 C   0  0  0  0  0  0
    8.0534   -7.2416   14.0270 C   0  0  0  0  0  0
    7.6525   -8.5138   13.5911 C   0  0  0  0  0  0
    8.3211   -5.4281   16.5640 C   0  0  0  0  0  0
    5.5400   -7.5372   10.0890 C   0  0  0  0  0  0
    5.7575   -9.0213    9.9564 C   0  0  0  0  0  0
    5.3808   -9.4911    8.5235 C   0  0  0  0  0  0
    4.0978   -8.7868    8.0490 C   0  0  0  0  0  0
    2.8514   -9.4210    8.1027 C   0  0  0  0  0  0
    4.1766   -7.4774    7.5594 C   0  0  0  0  0  0
    1.6782   -8.7264    7.7762 C   0  0  0  0  0  0
    3.0116   -6.7600    7.2805 C   0  0  0  0  0  0
    1.7657   -7.3748    7.4236 C   0  0  0  0  0  0
    0.3264   -9.4150    7.7952 C   0  0  0  0  0  0
    4.4168   -7.2679   10.4737 O   0  0  0  0  0  0
    4.9292   -9.6504   10.9812 N   0  0  0  0  0  0
   -0.5439   -9.1471    6.8539 N   0  3  0  0  0  0
    0.0376  -10.2684    8.7459 N   0  0  0  0  0  0
    6.4327   -6.5452    9.8039 N   0  0  0  0  0  0
    7.7315   -6.8153    9.1818 C   0  0  0  0  0  0
    8.8649   -6.1620   10.0225 C   0  0  0  0  0  0
    8.5254   -4.6687   10.2804 C   0  0  0  0  0  0
    7.1399   -4.5450   10.9609 C   0  0  0  0  0  0
    6.0406   -5.1609   10.0699 C   0  0  0  0  0  0
    6.6606   -4.4852   15.6014 H   0  0  0  0  0  0
    2.8967   -6.8335   13.2471 C   0  0  0  0  0  0
    3.4098   -8.3417   15.2028 C   0  0  0  0  0  0
    8.3877  -10.5786   13.4081 H   0  0  0  0  0  0
    9.6404   -9.6832   14.7760 C   0  0  0  0  0  0
    9.7150   -9.2677   12.2625 C   0  0  0  0  0  0
    9.3120   -4.4954   14.0508 H   0  0  0  0  0  0
    8.6761   -3.1600   15.0506 H   0  0  0  0  0  0
    7.8042   -3.6432   13.5902 H   0  0  0  0  0  0
    7.6897   -6.0782   17.1897 H   0  0  0  0  0  0
    8.5767   -4.5298   17.1486 H   0  0  0  0  0  0
    9.2524   -5.9628   16.3260 H   0  0  0  0  0  0
    2.9415   -5.9396   13.8824 H   0  0  0  0  0  0
    1.8456   -7.1640   13.2504 H   0  0  0  0  0  0
    3.1316   -6.5211   12.2262 H   0  0  0  0  0  0
    3.9995   -9.1934   15.5750 H   0  0  0  0  0  0
    2.3413   -8.5963   15.2754 H   0  0  0  0  0  0
    3.6034   -7.4743   15.8540 H   0  0  0  0  0  0
   10.1793   -8.7551   15.0020 H   0  0  0  0  0  0
   10.3940  -10.4813   14.6641 H   0  0  0  0  0  0
    9.0013   -9.9364   15.6375 H   0  0  0  0  0  0
    9.1176   -9.1924   11.3443 H   0  0  0  0  0  0
   10.4414  -10.0835   12.1339 H   0  0  0  0  0  0
   10.2837   -8.3337   12.3881 H   0  0  0  0  0  0
   10.7145   -5.3797    8.7186 O   0  0  0  0  0  0
   10.7979   -7.5094    9.4672 O   0  0  0  0  0  0
   12.5091   -9.0839    9.0320 C   0  0  0  0  0  0
   12.0372   -7.6506    8.7404 C   0  0  0  0  0  0
   13.6348   -8.5503   10.7961 H   0  0  0  0  0  0
   12.7864   -6.9137    9.0789 H   0  0  0  0  0  0
   11.8804   -7.5004    7.6556 H   0  0  0  0  0  0
   13.3202   -9.3530   10.1389 C   0  0  0  0  0  0
   13.7276  -10.6604   10.4120 C   0  0  0  0  0  0
   13.3353  -11.7088    9.5782 C   0  0  0  0  0  0
   12.5354  -11.4404    8.4665 C   0  0  0  0  0  0
   12.1263  -10.1341    8.1925 C   0  0  0  0  0  0
   14.3510  -10.8644   11.2754 H   0  0  0  0  0  0
   13.6510  -12.7243    9.7910 H   0  0  0  0  0  0
   12.2301  -12.2497    7.8132 H   0  0  0  0  0  0
   11.5051   -9.9432    7.3254 H   0  0  0  0  0  0
  1  6  1  0  0  0
  1 34  1  0  0  0
  1 61  1  0  0  0
  1 62  1  0  0  0
  2 35  1  0  0  0
  3  7  1  0  0  0
  3 36  1  0  0  0
  3 39  1  0  0  0
  3 60  1  0  0  0
  4 38  1  0  0  0
  4 63  1  0  0  0
  4 64  1  0  0  0
  4 65  1  0  0  0
  5 37  1  0  0  0
  7 66  1  0  0  0
  7 67  1  0  0  0
  7 68  1  0  0  0
  8 41  1  0  0  0
  9 42  1  0  0  0
 10 42  1  0  0  0
 11 44  1  0  0  0
 12 45  1  0  0  0
 13 47  1  0  0  0
 14 48  1  0  0  0
 15 51  1  0  0  0
 16 52  1  0  0  0
 17 52  1  0  0  0
 18 53  1  0  0  0
 19 53  1  0  0  0
 20 55  1  0  0  0
 21 55  1  0  0  0
 22 56  1  0  0  0
 22 84  2  0  0  0
 22 85  1  0  0  0
 23 56  1  0  0  0
 24 57  1  0  0  0
 25 57  1  0  0  0
 26 58  1  0  0  0
 27 58  1  0  0  0
 28 59  1  0  0  0
 29 59  1  0  0  0
 30 31  2  0  0  0
 30 32  2  0  0  0
 30 33  1  0  0  0
 30 51  1  0  0  0
 33 34  1  0  0  0
 33 38  2  0  0  0
 34 35  2  0  0  0
 35 36  1  0  0  0
 36 37  2  0  0  0
 37 38  1  0  0  0
 39 69  1  0  0  0
 39 70  1  0  0  0
 39 71  1  0  0  0
 40 41  1  0  0  0
 40 50  2  0  0  0
 40 54  1  0  0  0
 41 42  1  0  0  0
 41 51  1  0  0  0
 42 43  1  0  0  0
 43 44  2  0  0  0
 43 45  1  0  0  0
 44 46  1  0  0  0
 45 47  2  0  0  0
 46 48  2  0  0  0
 46 49  1  0  0  0
 47 48  1  0  0  0
 49 52  2  0  0  0
 49 53  1  0  0  0
 54 55  1  0  0  0
 54 59  1  0  0  0
 55 56  1  0  0  0
 56 57  1  0  0  0
 57 58  1  0  0  0
 58 59  1  0  0  0
 61 72  1  0  0  0
 61 73  1  0  0  0
 61 74  1  0  0  0
 62 75  1  0  0  0
 62 76  1  0  0  0
 62 77  1  0  0  0
 64 78  1  0  0  0
 64 79  1  0  0  0
 64 80  1  0  0  0
 65 81  1  0  0  0
 65 82  1  0  0  0
 65 83  1  0  0  0
 85 87  1  0  0  0
 86 87  1  0  0  0
 86 91  1  0  0  0
 86 95  2  0  0  0
 87 89  1  0  0  0
 87 90  1  0  0  0
 88 91  1  0  0  0
 91 92  2  0  0  0
 92 93  1  0  0  0
 92 96  1  0  0  0
 93 94  2  0  0  0
 93 97  1  0  0  0
 94 95  1  0  0  0
 94 98  1  0  0  0
 95 99  1  0  0  0
M  CHG  1  52   1
M  END
>  <ACTIVITY>
6.05

>  <SET>
2

>  <Min_dist>
0.1

>  <Avg_dist>
0.3

$$$$
55
  Cerius2 12110214423D 1   1.00000                          
Structure written by Cerius2 SD Exporter
 64 67  0  0  0  0  0  0  0  0999 V2000
    3.9019   -6.3669   15.2998 C   0  0  0  0  0  0
    4.0678   -5.1508   15.9685 C   0  0  0  0  0  0
    5.3354   -4.5698   16.0522 C   0  0  0  0  0  0
    6.4339   -5.2050   15.4674 C   0  0  0  0  0  0
    6.7690   -9.3039   10.4003 H   0  0  0  0  0  0
    5.2456  -10.4923    8.6615 H   0  0  0  0  0  0
    6.1626   -9.1148    8.0469 H   0  0  0  0  0  0
    2.7986  -10.3867    8.5120 H   0  0  0  0  0  0
    5.1102   -6.8587    7.7430 H   0  0  0  0  0  0
    3.0706   -5.6690    7.0329 H   0  0  0  0  0  0
    0.8739   -6.7593    7.2009 H   0  0  0  0  0  0
    3.9714   -9.9425   10.9944 H   0  0  0  0  0  0
   -1.5790   -9.3675    7.0594 H   0  0  0  0  0  0
   -0.5271   -8.0619    6.5011 H   0  0  0  0  0  0
    0.8939  -10.8620    9.0880 H   0  0  0  0  0  0
   -0.7589  -10.9807    8.4726 H   0  0  0  0  0  0
    7.5411   -6.2113    8.4396 H   0  0  0  0  0  0
    7.7986   -7.8074    9.1358 H   0  0  0  0  0  0
    9.2011   -4.3386   11.2868 H   0  0  0  0  0  0
    8.6702   -6.7864   11.2441 H   0  0  0  0  0  0
    8.4336   -4.1303    9.6892 H   0  0  0  0  0  0
    6.8263   -3.4837   11.4797 H   0  0  0  0  0  0
    7.0262   -5.0727   12.2666 H   0  0  0  0  0  0
    4.9449   -5.0460   10.9114 H   0  0  0  0  0  0
    5.8563   -4.5927    9.4604 H   0  0  0  0  0  0
    5.6887  -10.4174   12.6270 S   0  0  0  0  0  0
    6.9784  -11.0032   12.3138 O   0  0  0  0  0  0
    4.7092  -11.1982   13.3568 O   0  0  0  0  0  0
    7.3678   -7.0671   14.2093 C   0  0  0  0  0  0
    7.1993   -8.2834   13.5412 C   0  0  0  0  0  0
    5.9344   -8.8732   13.4709 C   0  0  0  0  0  0
    4.8380   -8.2264   14.0452 C   0  0  0  0  0  0
    5.0002   -7.0068   14.7139 C   0  0  0  0  0  0
    6.2720   -6.4247   14.7972 C   0  0  0  0  0  0
    2.9112   -6.8074   15.2422 H   0  0  0  0  0  0
    5.4794   -7.5616   10.4984 C   0  0  0  0  0  0
    5.7235   -9.0275   10.2021 C   0  0  0  0  0  0
    5.3531   -9.3988    8.7355 C   0  0  0  0  0  0
    4.0770   -8.6898    8.2454 C   0  0  0  0  0  0
    2.8382   -9.3428    8.2248 C   0  0  0  0  0  0
    4.1550   -7.3689    7.7911 C   0  0  0  0  0  0
    1.6689   -8.6771    7.8268 C   0  0  0  0  0  0
    3.0018   -6.6924    7.3895 C   0  0  0  0  0  0
    1.7615   -7.3315    7.4483 C   0  0  0  0  0  0
    0.3253   -9.3876    7.7986 C   0  0  0  0  0  0
    4.4631   -7.3420   11.1393 O   0  0  0  0  0  0
    4.9527   -9.8231   11.1500 N   0  0  0  0  0  0
   -0.6572   -8.9051    7.0770 N   0  3  0  0  0  0
    0.1440  -10.4827    8.4943 N   0  0  0  0  0  0
    6.2932   -6.5408   10.0951 N   0  0  0  0  0  0
    7.5578   -6.7698    9.3888 C   0  0  0  0  0  0
    8.6850   -6.2189   10.2974 C   0  0  0  0  0  0
    8.4124   -4.7232   10.6190 C   0  0  0  0  0  0
    7.0275   -4.5525   11.2962 C   0  0  0  0  0  0
    5.9164   -5.1584   10.4038 C   0  0  0  0  0  0
    3.2132   -4.6585   16.4224 H   0  0  0  0  0  0
    5.4656   -3.6252   16.5718 H   0  0  0  0  0  0
    7.4130   -4.7415   15.5394 H   0  0  0  0  0  0
    8.3589   -6.6271   14.2657 H   0  0  0  0  0  0
    8.0533   -8.7671   13.0798 H   0  0  0  0  0  0
    3.8574   -8.6833   13.9656 H   0  0  0  0  0  0
   10.0283   -6.4011    9.6274 C   0  0  0  0  0  0
   10.5609   -5.4011    9.0750 O   0  5  0  0  0  0
   10.5727   -7.5394    9.6562 O   0  0  0  0  0  0
  1  2  1  0  0  0
  1 33  2  0  0  0
  1 35  1  0  0  0
  2  3  2  0  0  0
  2 56  1  0  0  0
  3  4  1  0  0  0
  3 57  1  0  0  0
  4 34  2  0  0  0
  4 58  1  0  0  0
  5 37  1  0  0  0
  6 38  1  0  0  0
  7 38  1  0  0  0
  8 40  1  0  0  0
  9 41  1  0  0  0
 10 43  1  0  0  0
 11 44  1  0  0  0
 12 47  1  0  0  0
 13 48  1  0  0  0
 14 48  1  0  0  0
 15 49  1  0  0  0
 16 49  1  0  0  0
 17 51  1  0  0  0
 18 51  1  0  0  0
 19 53  1  0  0  0
 20 52  1  0  0  0
 21 53  1  0  0  0
 22 54  1  0  0  0
 23 54  1  0  0  0
 24 55  1  0  0  0
 25 55  1  0  0  0
 26 27  2  0  0  0
 26 28  2  0  0  0
 26 31  1  0  0  0
 26 47  1  0  0  0
 29 30  2  0  0  0
 29 34  1  0  0  0
 29 59  1  0  0  0
 30 31  1  0  0  0
 30 60  1  0  0  0
 31 32  2  0  0  0
 32 33  1  0  0  0
 32 61  1  0  0  0
 33 34  1  0  0  0
 36 37  1  0  0  0
 36 46  2  0  0  0
 36 50  1  0  0  0
 37 38  1  0  0  0
 37 47  1  0  0  0
 38 39  1  0  0  0
 39 40  2  0  0  0
 39 41  1  0  0  0
 40 42  1  0  0  0
 41 43  2  0  0  0
 42 44  2  0  0  0
 42 45  1  0  0  0
 43 44  1  0  0  0
 45 48  2  0  0  0
 45 49  1  0  0  0
 50 51  1  0  0  0
 50 55  1  0  0  0
 51 52  1  0  0  0
 52 53  1  0  0  0
 52 62  1  0  0  0
 53 54  1  0  0  0
 54 55  1  0  0  0
 62 63  1  0  0  0
 62 64  2  0  0  0
M  CHG  2  48   1  63  -1
M  END
>  <ACTIVITY>
5.96

>  <SET>
1

>  <Min_dist>
999.9

>  <Avg_dist>
999.9

$$$$
56
  Cerius2 12110214423D 1   1.00000                          
Structure written by Cerius2 SD Exporter
 61 62  0  0  0  0  0  0  0  0999 V2000
    5.4663  -10.0397   12.3638 C   0  0  0  0  0  0
    4.8503  -10.7114   13.1762 O   0  0  0  0  0  0
    6.6747   -9.4750   12.5947 O   0  0  0  0  0  0
    7.2932   -9.7090   13.8831 C   0  0  0  0  0  0
    6.4310   -9.0606   15.0058 C   0  0  0  0  0  0
    7.5972  -11.2245   14.0877 C   0  0  0  0  0  0
    8.6717   -8.9773   13.8932 C   0  0  0  0  0  0
    6.7606   -9.3410   10.2690 H   0  0  0  0  0  0
    5.1903  -10.4608    8.5907 H   0  0  0  0  0  0
    6.1155   -9.0867    7.9830 H   0  0  0  0  0  0
    2.7759  -10.3125    8.5491 H   0  0  0  0  0  0
    5.0850   -6.8117    7.7183 H   0  0  0  0  0  0
    3.0641   -5.6663    6.8901 H   0  0  0  0  0  0
    0.8792   -6.7407    7.0336 H   0  0  0  0  0  0
    4.0540  -10.1484   10.8758 H   0  0  0  0  0  0
   -1.6137   -9.4214    7.0195 H   0  0  0  0  0  0
   -0.5891   -8.1317    6.3973 H   0  0  0  0  0  0
    0.8190  -10.8000    9.1326 H   0  0  0  0  0  0
   -0.8051  -10.9479    8.4722 H   0  0  0  0  0  0
    7.5705   -6.2642    8.4089 H   0  0  0  0  0  0
    7.8394   -7.8323    9.1462 H   0  0  0  0  0  0
    9.6780   -6.3203    9.7519 H   0  0  0  0  0  0
    8.7546   -6.7970   11.2069 H   0  0  0  0  0  0
    8.4226   -4.1571    9.6416 H   0  0  0  0  0  0
    9.5535   -4.1358   11.4879 C   0  0  0  0  0  0
    6.8321   -3.5171   11.4820 H   0  0  0  0  0  0
    7.0365   -5.1316   12.2242 H   0  0  0  0  0  0
    4.9599   -5.0294   10.8340 H   0  0  0  0  0  0
    5.9138   -4.5927    9.4059 H   0  0  0  0  0  0
    6.9158   -9.1767   15.9859 H   0  0  0  0  0  0
    5.4201   -9.4794   15.0769 H   0  0  0  0  0  0
    6.3304   -7.9840   14.7950 H   0  0  0  0  0  0
    8.2999  -11.5617   13.3091 H   0  0  0  0  0  0
    6.7075  -11.8624   14.0260 H   0  0  0  0  0  0
    8.0674  -11.3962   15.0670 H   0  0  0  0  0  0
    8.5524   -7.8911   13.7668 H   0  0  0  0  0  0
    9.3218   -9.3393   13.0827 H   0  0  0  0  0  0
    9.1914   -9.1525   14.8492 H   0  0  0  0  0  0
    5.4810   -7.5571   10.4451 C   0  0  0  0  0  0
    5.7144   -9.0248   10.1462 C   0  0  0  0  0  0
    5.3138   -9.3702    8.6817 C   0  0  0  0  0  0
    4.0436   -8.6437    8.2077 C   0  0  0  0  0  0
    2.8018   -9.2861    8.2105 C   0  0  0  0  0  0
    4.1323   -7.3288    7.7388 C   0  0  0  0  0  0
    1.6295   -8.6456    7.7729 C   0  0  0  0  0  0
    2.9867   -6.6758    7.2845 C   0  0  0  0  0  0
    1.7457   -7.3160    7.3367 C   0  0  0  0  0  0
    0.2909   -9.3719    7.7649 C   0  0  0  0  0  0
    4.4544   -7.3243   11.0649 O   0  0  0  0  0  0
    4.9628   -9.8074   11.1259 N   0  0  0  0  0  0
   -0.6994   -8.9441    7.0159 N   0  3  0  0  0  0
    0.0931  -10.4420    8.5006 N   0  0  0  0  0  0
    6.3129   -6.5467   10.0584 N   0  0  0  0  0  0
    7.5852   -6.7927    9.3738 C   0  0  0  0  0  0
    8.7098   -6.2176   10.2695 C   0  0  0  0  0  0
    8.4326   -4.7233   10.5897 C   0  0  0  0  0  0
    7.0437   -4.5783   11.2705 C   0  0  0  0  0  0
    5.9421   -5.1591   10.3512 C   0  0  0  0  0  0
   10.5309   -4.2321   10.9898 H   0  0  0  0  0  0
    9.5946   -4.6667   12.4512 H   0  0  0  0  0  0
    9.3653   -3.0682   11.6808 H   0  0  0  0  0  0
  1  2  2  0  0  0
  1  3  1  0  0  0
  1 50  1  0  0  0
  3  4  1  0  0  0
  4  5  1  0  0  0
  4  6  1  0  0  0
  4  7  1  0  0  0
  5 30  1  0  0  0
  5 31  1  0  0  0
  5 32  1  0  0  0
  6 33  1  0  0  0
  6 34  1  0  0  0
  6 35  1  0  0  0
  7 36  1  0  0  0
  7 37  1  0  0  0
  7 38  1  0  0  0
  8 40  1  0  0  0
  9 41  1  0  0  0
 10 41  1  0  0  0
 11 43  1  0  0  0
 12 44  1  0  0  0
 13 46  1  0  0  0
 14 47  1  0  0  0
 15 50  1  0  0  0
 16 51  1  0  0  0
 17 51  1  0  0  0
 18 52  1  0  0  0
 19 52  1  0  0  0
 20 54  1  0  0  0
 21 54  1  0  0  0
 22 55  1  0  0  0
 23 55  1  0  0  0
 24 56  1  0  0  0
 25 56  1  0  0  0
 25 59  1  0  0  0
 25 60  1  0  0  0
 25 61  1  0  0  0
 26 57  1  0  0  0
 27 57  1  0  0  0
 28 58  1  0  0  0
 29 58  1  0  0  0
 39 40  1  0  0  0
 39 49  2  0  0  0
 39 53  1  0  0  0
 40 41  1  0  0  0
 40 50  1  0  0  0
 41 42  1  0  0  0
 42 43  2  0  0  0
 42 44  1  0  0  0
 43 45  1  0  0  0
 44 46  2  0  0  0
 45 47  2  0  0  0
 45 48  1  0  0  0
 46 47  1  0  0  0
 48 51  2  0  0  0
 48 52  1  0  0  0
 53 54  1  0  0  0
 53 58  1  0  0  0
 54 55  1  0  0  0
 55 56  1  0  0  0
 56 57  1  0  0  0
 57 58  1  0  0  0
M  CHG  1  51   1
M  END
>  <ACTIVITY>
5.92

>  <SET>
2

>  <Min_dist>
0.28

>  <Avg_dist>
0.45

$$$$
57
  Cerius2 12110214423D 1   1.00000                          
Structure written by Cerius2 SD Exporter
100103  0  0  0  0  0  0  0  0999 V2000
    3.8029   -8.0106   13.7430 C   0  0  0  0  0  0
    5.0727   -5.7823   14.5057 H   0  0  0  0  0  0
    7.5628   -5.0314   15.2704 C   0  0  0  0  0  0
    8.7669   -9.5875   13.5099 C   0  0  0  0  0  0
    9.0965   -6.9595   14.0246 H   0  0  0  0  0  0
    3.5324   -8.8532   13.0956 H   0  0  0  0  0  0
    8.4016   -4.0322   14.4293 C   0  0  0  0  0  0
    6.7907   -9.3115   10.1838 H   0  0  0  0  0  0
    5.2669  -10.5840    8.5153 H   0  0  0  0  0  0
    6.1923   -9.2366    7.8191 H   0  0  0  0  0  0
    2.8034  -10.4646    8.3925 H   0  0  0  0  0  0
    5.1399   -7.0061    7.3951 H   0  0  0  0  0  0
    3.0738   -5.7275    6.9504 H   0  0  0  0  0  0
    0.8667   -6.7896    7.2587 H   0  0  0  0  0  0
    3.9412   -9.7066   10.8379 H   0  0  0  0  0  0
   -1.6018   -9.3353    7.1347 H   0  0  0  0  0  0
   -0.5394   -8.0340    6.5761 H   0  0  0  0  0  0
    0.9447  -10.9245    9.0203 H   0  0  0  0  0  0
   -0.7437  -11.0076    8.4930 H   0  0  0  0  0  0
    7.7163   -6.3416    8.1650 H   0  0  0  0  0  0
    7.9798   -7.8642    9.0119 H   0  0  0  0  0  0
   10.1710   -6.2818    9.3225 C   0  0  0  0  0  0
    8.8419   -6.6626   10.9983 H   0  0  0  0  0  0
    8.5097   -4.0994    9.3241 H   0  0  0  0  0  0
    9.2954   -4.2203   10.9255 H   0  0  0  0  0  0
    6.9073   -3.4784   11.1706 H   0  0  0  0  0  0
    7.1400   -5.1016   11.9010 H   0  0  0  0  0  0
    5.0812   -5.0326   10.5830 H   0  0  0  0  0  0
    5.9727   -4.6062    9.1038 H   0  0  0  0  0  0
    5.7075  -10.2604   12.4768 S   0  0  0  0  0  0
    6.7856  -11.0812   11.9715 O   0  0  0  0  0  0
    4.7083  -10.9096   13.3038 O   0  0  0  0  0  0
    6.2832   -8.7498   13.3243 C   0  0  0  0  0  0
    5.3401   -7.7850   13.7415 C   0  0  0  0  0  0
    5.7812   -6.5574   14.2551 C   0  0  0  0  0  0
    7.1298   -6.2972   14.4912 C   0  0  0  0  0  0
    8.0517   -7.2396   14.0309 C   0  0  0  0  0  0
    7.6483   -8.5139   13.6055 C   0  0  0  0  0  0
    8.3238   -5.4382   16.5611 C   0  0  0  0  0  0
    5.5382   -7.5305   10.0848 C   0  0  0  0  0  0
    5.7586   -9.0161    9.9527 C   0  0  0  0  0  0
    5.3819   -9.4887    8.5210 C   0  0  0  0  0  0
    4.0990   -8.7857    8.0455 C   0  0  0  0  0  0
    2.8513   -9.4217    8.1004 C   0  0  0  0  0  0
    4.1758   -7.4782    7.5547 C   0  0  0  0  0  0
    1.6802   -8.7279    7.7751 C   0  0  0  0  0  0
    3.0104   -6.7613    7.2758 C   0  0  0  0  0  0
    1.7650   -7.3761    7.4206 C   0  0  0  0  0  0
    0.3265   -9.4173    7.7970 C   0  0  0  0  0  0
    4.4194   -7.2615   10.4843 O   0  0  0  0  0  0
    4.9304   -9.6436   10.9774 N   0  0  0  0  0  0
   -0.6703   -8.8928    7.1303 N   0  3  0  0  0  0
    0.1670  -10.5238    8.4768 N   0  0  0  0  0  0
    6.4263   -6.5415    9.7866 N   0  0  0  0  0  0
    7.7252   -6.8083    9.1624 C   0  0  0  0  0  0
    8.8352   -6.1502   10.0220 C   0  0  0  0  0  0
    8.5169   -4.6556   10.2759 C   0  0  0  0  0  0
    7.1340   -4.5358   10.9565 C   0  0  0  0  0  0
    6.0420   -5.1535   10.0563 C   0  0  0  0  0  0
    6.6658   -4.4817   15.6063 H   0  0  0  0  0  0
    2.8956   -6.8330   13.2619 C   0  0  0  0  0  0
    3.4079   -8.3617   15.2029 C   0  0  0  0  0  0
    8.3618  -10.6021   13.4434 H   0  0  0  0  0  0
    9.6327   -9.6766   14.7991 C   0  0  0  0  0  0
    9.6869   -9.3177   12.2953 C   0  0  0  0  0  0
    9.3119   -4.5049   14.0331 H   0  0  0  0  0  0
    8.6986   -3.1722   15.0501 H   0  0  0  0  0  0
    7.8070   -3.6395   13.5945 H   0  0  0  0  0  0
    7.6941   -6.0983   17.1782 H   0  0  0  0  0  0
    8.5760   -4.5464   17.1569 H   0  0  0  0  0  0
    9.2573   -5.9673   16.3191 H   0  0  0  0  0  0
    2.9196   -5.9573   13.9235 H   0  0  0  0  0  0
    1.8474   -7.1718   13.2326 H   0  0  0  0  0  0
    3.1553   -6.4925   12.2556 H   0  0  0  0  0  0
    3.9972   -9.2177   15.5657 H   0  0  0  0  0  0
    2.3393   -8.6176   15.2715 H   0  0  0  0  0  0
    3.6008   -7.5023   15.8646 H   0  0  0  0  0  0
   10.1833   -8.7510   15.0172 H   0  0  0  0  0  0
   10.3792  -10.4812   14.6923 H   0  0  0  0  0  0
    8.9895   -9.9103   15.6606 H   0  0  0  0  0  0
    9.0878   -9.2005   11.3820 H   0  0  0  0  0  0
   10.4171  -10.1277   12.1359 H   0  0  0  0  0  0
   10.2414   -8.3911   12.4955 H   0  0  0  0  0  0
   10.6248   -5.3204    8.7231 O   0  0  0  0  0  0
   10.8132   -7.4679    9.3787 N   0  0  0  0  0  0
   12.4556   -9.1597    8.8593 C   0  0  0  0  0  0
   12.0473   -7.6949    8.6400 C   0  0  0  0  0  0
   13.5701   -8.7379   10.6582 H   0  0  0  0  0  0
   12.8331   -7.0146    9.0022 H   0  0  0  0  0  0
   11.8876   -7.5036    7.5671 H   0  0  0  0  0  0
   13.2432   -9.5042    9.9627 C   0  0  0  0  0  0
   13.6037  -10.8364   10.1829 C   0  0  0  0  0  0
   13.1741  -11.8305    9.2996 C   0  0  0  0  0  0
   12.3820  -11.4922    8.1985 C   0  0  0  0  0  0
   12.0215  -10.1595    7.9810 C   0  0  0  0  0  0
   14.2148  -11.0980   11.0414 H   0  0  0  0  0  0
   13.4539  -12.8651    9.4699 H   0  0  0  0  0  0
   12.0447  -12.2653    7.5143 H   0  0  0  0  0  0
   11.3949   -9.9062    7.1316 H   0  0  0  0  0  0
   10.4535   -8.2208    9.9168 H   0  0  0  0  0  0
  1  6  1  0  0  0
  1 34  1  0  0  0
  1 61  1  0  0  0
  1 62  1  0  0  0
  2 35  1  0  0  0
  3  7  1  0  0  0
  3 36  1  0  0  0
  3 39  1  0  0  0
  3 60  1  0  0  0
  4 38  1  0  0  0
  4 63  1  0  0  0
  4 64  1  0  0  0
  4 65  1  0  0  0
  5 37  1  0  0  0
  7 66  1  0  0  0
  7 67  1  0  0  0
  7 68  1  0  0  0
  8 41  1  0  0  0
  9 42  1  0  0  0
 10 42  1  0  0  0
 11 44  1  0  0  0
 12 45  1  0  0  0
 13 47  1  0  0  0
 14 48  1  0  0  0
 15 51  1  0  0  0
 16 52  1  0  0  0
 17 52  1  0  0  0
 18 53  1  0  0  0
 19 53  1  0  0  0
 20 55  1  0  0  0
 21 55  1  0  0  0
 22 56  1  0  0  0
 22 84  2  0  0  0
 22 85  1  0  0  0
 23 56  1  0  0  0
 24 57  1  0  0  0
 25 57  1  0  0  0
 26 58  1  0  0  0
 27 58  1  0  0  0
 28 59  1  0  0  0
 29 59  1  0  0  0
 30 31  2  0  0  0
 30 32  2  0  0  0
 30 33  1  0  0  0
 30 51  1  0  0  0
 33 34  1  0  0  0
 33 38  2  0  0  0
 34 35  2  0  0  0
 35 36  1  0  0  0
 36 37  2  0  0  0
 37 38  1  0  0  0
 39 69  1  0  0  0
 39 70  1  0  0  0
 39 71  1  0  0  0
 40 41  1  0  0  0
 40 50  2  0  0  0
 40 54  1  0  0  0
 41 42  1  0  0  0
 41 51  1  0  0  0
 42 43  1  0  0  0
 43 44  2  0  0  0
 43 45  1  0  0  0
 44 46  1  0  0  0
 45 47  2  0  0  0
 46 48  2  0  0  0
 46 49  1  0  0  0
 47 48  1  0  0  0
 49 52  2  0  0  0
 49 53  1  0  0  0
 54 55  1  0  0  0
 54 59  1  0  0  0
 55 56  1  0  0  0
 56 57  1  0  0  0
 57 58  1  0  0  0
 58 59  1  0  0  0
 61 72  1  0  0  0
 61 73  1  0  0  0
 61 74  1  0  0  0
 62 75  1  0  0  0
 62 76  1  0  0  0
 62 77  1  0  0  0
 64 78  1  0  0  0
 64 79  1  0  0  0
 64 80  1  0  0  0
 65 81  1  0  0  0
 65 82  1  0  0  0
 65 83  1  0  0  0
 85 87  1  0  0  0
 85100  1  0  0  0
 86 87  1  0  0  0
 86 91  1  0  0  0
 86 95  2  0  0  0
 87 89  1  0  0  0
 87 90  1  0  0  0
 88 91  1  0  0  0
 91 92  2  0  0  0
 92 93  1  0  0  0
 92 96  1  0  0  0
 93 94  2  0  0  0
 93 97  1  0  0  0
 94 95  1  0  0  0
 94 98  1  0  0  0
 95 99  1  0  0  0
M  CHG  1  52   1
M  END
>  <ACTIVITY>
5.74

>  <SET>
1

>  <Min_dist>
999.9

>  <Avg_dist>
999.9

$$$$
58
  Cerius2 12110214423D 1   1.00000                          
Structure written by Cerius2 SD Exporter
 81 85  0  0  0  0  0  0  0  0999 V2000
    3.8481   -6.3786   15.2935 C   0  0  0  0  0  0
    4.0152   -5.1606   15.9653 C   0  0  0  0  0  0
    5.2834   -4.5862   16.0437 C   0  0  0  0  0  0
    6.3666   -5.2448   15.4603 C   0  0  0  0  0  0
    6.7757   -9.3013   10.3962 H   0  0  0  0  0  0
    5.2663  -10.4949    8.6489 H   0  0  0  0  0  0
    6.1807   -9.1207    8.0255 H   0  0  0  0  0  0
    2.8763  -10.3844    8.4567 H   0  0  0  0  0  0
    5.1442   -6.8475    7.7254 H   0  0  0  0  0  0
    3.0866   -5.6517    7.0737 H   0  0  0  0  0  0
    0.9177   -6.6970    7.3084 H   0  0  0  0  0  0
    3.9568   -9.9219   10.9576 H   0  0  0  0  0  0
   -1.6114   -9.3925    7.1344 H   0  0  0  0  0  0
   -0.6121   -8.0828    6.5554 H   0  0  0  0  0  0
    0.8429  -10.9366    9.0477 H   0  0  0  0  0  0
   -0.7841  -11.0108    8.4150 H   0  0  0  0  0  0
    7.5528   -6.1883    8.4182 H   0  0  0  0  0  0
    7.7891   -7.8031    9.0863 H   0  0  0  0  0  0
    9.6498   -6.3270    9.7840 H   0  0  0  0  0  0
    8.6876   -6.8579   11.1947 H   0  0  0  0  0  0
    8.4517   -4.1481    9.7392 H   0  0  0  0  0  0
    9.4787   -4.2956   11.6158 C   0  0  0  0  0  0
    6.8142   -3.5057   11.4880 H   0  0  0  0  0  0
    6.9620   -5.1112   12.2590 H   0  0  0  0  0  0
    4.9274   -5.0454   10.8566 H   0  0  0  0  0  0
    5.8764   -4.5796    9.4319 H   0  0  0  0  0  0
    5.6519  -10.4436   12.6144 S   0  0  0  0  0  0
    6.9461  -11.0295   12.3202 O   0  0  0  0  0  0
    4.6577  -11.2143   13.3340 O   0  0  0  0  0  0
    7.2942   -7.0846   14.1597 C   0  0  0  0  0  0
    7.1491   -8.3108   13.5111 C   0  0  0  0  0  0
    5.8836   -8.8961   13.4543 C   0  0  0  0  0  0
    4.7834   -8.2519   14.0286 C   0  0  0  0  0  0
    4.9347   -7.0287   14.6960 C   0  0  0  0  0  0
    6.2074   -6.4513   14.7697 C   0  0  0  0  0  0
    2.8548   -6.8200   15.2402 H   0  0  0  0  0  0
    5.4829   -7.5608   10.4771 C   0  0  0  0  0  0
    5.7303   -9.0277   10.1873 C   0  0  0  0  0  0
    5.3714   -9.3996    8.7171 C   0  0  0  0  0  0
    4.1016   -8.6782    8.2276 C   0  0  0  0  0  0
    2.8629   -9.3356    8.1991 C   0  0  0  0  0  0
    4.1877   -7.3563    7.7890 C   0  0  0  0  0  0
    1.6718   -8.6761    7.8408 C   0  0  0  0  0  0
    3.0240   -6.6776    7.4217 C   0  0  0  0  0  0
    1.7825   -7.3183    7.5079 C   0  0  0  0  0  0
    0.3207   -9.3983    7.8109 C   0  0  0  0  0  0
    4.4702   -7.3398   11.1232 O   0  0  0  0  0  0
    4.9373   -9.8199   11.1214 N   0  0  0  0  0  0
   -0.6941   -8.9222    7.1266 N   0  3  0  0  0  0
    0.1204  -10.5178    8.4639 N   0  0  0  0  0  0
    6.2886   -6.5391   10.0606 N   0  0  0  0  0  0
    7.5522   -6.7673    9.3544 C   0  0  0  0  0  0
    8.6695   -6.2399   10.2832 C   0  0  0  0  0  0
    8.4054   -4.7560   10.6582 C   0  0  0  0  0  0
    7.0029   -4.5769   11.2980 C   0  0  0  0  0  0
    5.9101   -5.1577   10.3690 C   0  0  0  0  0  0
   10.2216   -3.3737   11.3015 O   0  0  0  0  0  0
    9.5646   -4.9750   12.7742 O   0  0  0  0  0  0
   10.5554   -4.4994   13.7167 C   0  0  0  0  0  0
    3.1651   -4.6673   16.4249 H   0  0  0  0  0  0
    5.4317   -3.6437   16.5541 H   0  0  0  0  0  0
    7.3459   -4.8183   15.5514 H   0  0  0  0  0  0
    8.2656   -6.6298   14.1791 H   0  0  0  0  0  0
    8.0102   -8.7911   13.0594 H   0  0  0  0  0  0
    3.8039   -8.7120   13.9520 H   0  0  0  0  0  0
   11.1483   -5.7258   14.4636 C   0  0  0  0  0  0
   12.2436   -5.2729   15.4591 C   0  0  0  0  0  0
   11.6312   -4.2844   16.4853 C   0  0  0  0  0  0
   11.0180   -3.0502   15.7617 C   0  0  0  0  0  0
    9.9509   -3.4949   14.7347 C   0  0  0  0  0  0
   11.4177   -4.0368   13.2219 H   0  0  0  0  0  0
   11.5617   -6.4287   13.7160 H   0  0  0  0  0  0
   10.3973   -6.2650   15.0607 H   0  0  0  0  0  0
   12.6551   -6.1547   15.9805 H   0  0  0  0  0  0
   13.0676   -4.7832   14.9147 H   0  0  0  0  0  0
   10.8617   -4.8117   17.0816 H   0  0  0  0  0  0
   12.4180   -3.9496   17.1846 H   0  0  0  0  0  0
   10.5553   -2.3899   16.5125 H   0  0  0  0  0  0
   11.8006   -2.4934   15.2350 H   0  0  0  0  0  0
    9.1860   -3.9830   15.3415 H   0  0  0  0  0  0
    9.4764   -2.6485   14.2121 H   0  0  0  0  0  0
  1  2  1  0  0  0
  1 34  2  0  0  0
  1 36  1  0  0  0
  2  3  2  0  0  0
  2 60  1  0  0  0
  3  4  1  0  0  0
  3 61  1  0  0  0
  4 35  2  0  0  0
  4 62  1  0  0  0
  5 38  1  0  0  0
  6 39  1  0  0  0
  7 39  1  0  0  0
  8 41  1  0  0  0
  9 42  1  0  0  0
 10 44  1  0  0  0
 11 45  1  0  0  0
 12 48  1  0  0  0
 13 49  1  0  0  0
 14 49  1  0  0  0
 15 50  1  0  0  0
 16 50  1  0  0  0
 17 52  1  0  0  0
 18 52  1  0  0  0
 19 53  1  0  0  0
 20 53  1  0  0  0
 21 54  1  0  0  0
 22 54  1  0  0  0
 22 57  2  0  0  0
 22 58  1  0  0  0
 23 55  1  0  0  0
 24 55  1  0  0  0
 25 56  1  0  0  0
 26 56  1  0  0  0
 27 28  2  0  0  0
 27 29  2  0  0  0
 27 32  1  0  0  0
 27 48  1  0  0  0
 30 31  2  0  0  0
 30 35  1  0  0  0
 30 63  1  0  0  0
 31 32  1  0  0  0
 31 64  1  0  0  0
 32 33  2  0  0  0
 33 34  1  0  0  0
 33 65  1  0  0  0
 34 35  1  0  0  0
 37 38  1  0  0  0
 37 47  2  0  0  0
 37 51  1  0  0  0
 38 39  1  0  0  0
 38 48  1  0  0  0
 39 40  1  0  0  0
 40 41  2  0  0  0
 40 42  1  0  0  0
 41 43  1  0  0  0
 42 44  2  0  0  0
 43 45  2  0  0  0
 43 46  1  0  0  0
 44 45  1  0  0  0
 46 49  2  0  0  0
 46 50  1  0  0  0
 51 52  1  0  0  0
 51 56  1  0  0  0
 52 53  1  0  0  0
 53 54  1  0  0  0
 54 55  1  0  0  0
 55 56  1  0  0  0
 58 59  1  0  0  0
 59 66  1  0  0  0
 59 70  1  0  0  0
 59 71  1  0  0  0
 66 67  1  0  0  0
 66 72  1  0  0  0
 66 73  1  0  0  0
 67 68  1  0  0  0
 67 74  1  0  0  0
 67 75  1  0  0  0
 68 69  1  0  0  0
 68 76  1  0  0  0
 68 77  1  0  0  0
 69 70  1  0  0  0
 69 78  1  0  0  0
 69 79  1  0  0  0
 70 80  1  0  0  0
 70 81  1  0  0  0
M  CHG  1  49   1
M  END
>  <ACTIVITY>
5.68

>  <SET>
2

>  <Min_dist>
0.07

>  <Avg_dist>
0.25

$$$$
59
  Cerius2 12110214423D 1   1.00000                          
Structure written by Cerius2 SD Exporter
 69 72  0  0  0  0  0  0  0  0999 V2000
    3.9006   -6.3580   15.2842 C   0  0  0  0  0  0
    4.0762   -5.1447   15.9551 C   0  0  0  0  0  0
    5.3472   -4.5706   16.0342 C   0  0  0  0  0  0
    6.4402   -5.2114   15.4444 C   0  0  0  0  0  0
    6.7633   -9.2823   10.3604 H   0  0  0  0  0  0
    5.2501  -10.5166    8.6566 H   0  0  0  0  0  0
    6.1323   -9.1234    8.0118 H   0  0  0  0  0  0
    2.7502  -10.4625    8.5399 H   0  0  0  0  0  0
    5.0337   -6.9397    7.6841 H   0  0  0  0  0  0
    2.9697   -5.7164    7.1074 H   0  0  0  0  0  0
    0.7768   -6.8348    7.2989 H   0  0  0  0  0  0
    3.9489   -9.8798   10.9493 H   0  0  0  0  0  0
   -1.6325   -9.4095    7.0968 H   0  0  0  0  0  0
   -0.5700   -8.0949    6.5726 H   0  0  0  0  0  0
    0.8602  -10.9528    9.0864 H   0  0  0  0  0  0
   -0.8044  -11.0630    8.4918 H   0  0  0  0  0  0
    7.7085   -5.9234    8.1229 C   0  0  0  0  0  0
    7.8370   -7.7225    9.1990 H   0  0  0  0  0  0
    9.6882   -6.3136   10.0927 H   0  0  0  0  0  0
    8.5579   -6.7434   11.3978 H   0  0  0  0  0  0
    8.4585   -4.0778    9.8255 H   0  0  0  0  0  0
    9.1898   -4.2805   11.4326 H   0  0  0  0  0  0
    6.8108   -3.4301   11.5981 H   0  0  0  0  0  0
    7.0225   -5.0130   12.3890 H   0  0  0  0  0  0
    4.9664   -5.0729   11.1043 H   0  0  0  0  0  0
    5.7420   -4.4625    9.6786 H   0  0  0  0  0  0
    5.6581  -10.4144   12.6062 S   0  0  0  0  0  0
    6.9409  -11.0175   12.2993 O   0  0  0  0  0  0
    4.6578  -11.1803   13.3241 O   0  0  0  0  0  0
    7.3607   -7.0805   14.1874 C   0  0  0  0  0  0
    7.1827   -8.2938   13.5171 C   0  0  0  0  0  0
    5.9137   -8.8739   13.4489 C   0  0  0  0  0  0
    4.8213   -8.2195   14.0225 C   0  0  0  0  0  0
    4.9934   -7.0034   14.6938 C   0  0  0  0  0  0
    6.2695   -6.4300   14.7758 C   0  0  0  0  0  0
    2.9071   -6.7926   15.2283 H   0  0  0  0  0  0
    5.4777   -7.5264   10.4406 C   0  0  0  0  0  0
    5.7202   -8.9997   10.1566 C   0  0  0  0  0  0
    5.3327   -9.4193    8.7085 C   0  0  0  0  0  0
    4.0235   -8.7553    8.2416 C   0  0  0  0  0  0
    2.7875   -9.4185    8.2485 C   0  0  0  0  0  0
    4.0776   -7.4380    7.7792 C   0  0  0  0  0  0
    1.6140   -8.7504    7.8697 C   0  0  0  0  0  0
    2.9133   -6.7502    7.4343 C   0  0  0  0  0  0
    1.6791   -7.3989    7.5133 C   0  0  0  0  0  0
    0.2704   -9.4599    7.8338 C   0  0  0  0  0  0
    4.4216   -7.3268   11.0209 O   0  0  0  0  0  0
    4.9330   -9.7827   11.1034 N   0  0  0  0  0  0
   -0.7080   -8.9533    7.1257 N   0  3  0  0  0  0
    0.0994  -10.5661    8.5103 N   0  0  0  0  0  0
    6.3044   -6.4798   10.1167 N   0  0  0  0  0  0
    7.6037   -6.6776    9.4420 C   0  0  0  0  0  0
    8.6598   -6.1693   10.4609 C   0  0  0  0  0  0
    8.4103   -4.6669   10.7557 C   0  0  0  0  0  0
    7.0191   -4.4982   11.4169 C   0  0  0  0  0  0
    5.9075   -5.1214   10.5372 C   0  0  0  0  0  0
    9.3871   -6.9057    7.4263 H   0  0  0  0  0  0
    9.7131   -4.9420    5.8950 H   0  0  0  0  0  0
    3.2262   -4.6492   16.4143 H   0  0  0  0  0  0
    5.4845   -3.6273   16.5539 H   0  0  0  0  0  0
    7.4217   -4.7522   15.5115 H   0  0  0  0  0  0
    8.3553   -6.6485   14.2445 H   0  0  0  0  0  0
    8.0312   -8.7833   13.0515 H   0  0  0  0  0  0
    3.8369   -8.6679   13.9403 H   0  0  0  0  0  0
    6.8926   -5.0568    7.8650 O   0  0  0  0  0  0
    8.6935   -6.2100    7.2367 N   0  0  0  0  0  0
    8.7795   -5.5230    5.9447 C   0  0  0  0  0  0
    7.9403   -4.8393    5.7368 H   0  0  0  0  0  0
    8.8006   -6.2788    5.1448 H   0  0  0  0  0  0
  1  2  1  0  0  0
  1 34  2  0  0  0
  1 36  1  0  0  0
  2  3  2  0  0  0
  2 59  1  0  0  0
  3  4  1  0  0  0
  3 60  1  0  0  0
  4 35  2  0  0  0
  4 61  1  0  0  0
  5 38  1  0  0  0
  6 39  1  0  0  0
  7 39  1  0  0  0
  8 41  1  0  0  0
  9 42  1  0  0  0
 10 44  1  0  0  0
 11 45  1  0  0  0
 12 48  1  0  0  0
 13 49  1  0  0  0
 14 49  1  0  0  0
 15 50  1  0  0  0
 16 50  1  0  0  0
 17 52  1  0  0  0
 17 65  2  0  0  0
 17 66  1  0  0  0
 18 52  1  0  0  0
 19 53  1  0  0  0
 20 53  1  0  0  0
 21 54  1  0  0  0
 22 54  1  0  0  0
 23 55  1  0  0  0
 24 55  1  0  0  0
 25 56  1  0  0  0
 26 56  1  0  0  0
 27 28  2  0  0  0
 27 29  2  0  0  0
 27 32  1  0  0  0
 27 48  1  0  0  0
 30 31  2  0  0  0
 30 35  1  0  0  0
 30 62  1  0  0  0
 31 32  1  0  0  0
 31 63  1  0  0  0
 32 33  2  0  0  0
 33 34  1  0  0  0
 33 64  1  0  0  0
 34 35  1  0  0  0
 37 38  1  0  0  0
 37 47  2  0  0  0
 37 51  1  0  0  0
 38 39  1  0  0  0
 38 48  1  0  0  0
 39 40  1  0  0  0
 40 41  2  0  0  0
 40 42  1  0  0  0
 41 43  1  0  0  0
 42 44  2  0  0  0
 43 45  2  0  0  0
 43 46  1  0  0  0
 44 45  1  0  0  0
 46 49  2  0  0  0
 46 50  1  0  0  0
 51 52  1  0  0  0
 51 56  1  0  0  0
 52 53  1  0  0  0
 53 54  1  0  0  0
 54 55  1  0  0  0
 55 56  1  0  0  0
 57 66  1  0  0  0
 58 67  1  0  0  0
 66 67  1  0  0  0
 67 68  1  0  0  0
 67 69  1  0  0  0
M  CHG  1  49   1
M  END
>  <ACTIVITY>
5.64

>  <SET>
1

>  <Min_dist>
999.9

>  <Avg_dist>
999.9

$$$$
60
  Cerius2 12110214423D 1   1.00000                          
Structure written by Cerius2 SD Exporter
 61 64  0  0  0  0  0  0  0  0999 V2000
    3.8912   -6.3551   15.3044 C   0  0  0  0  0  0
    4.0608   -5.1410   15.9736 C   0  0  0  0  0  0
    5.3291   -4.5619   16.0549 C   0  0  0  0  0  0
    6.4258   -5.2009   15.4667 C   0  0  0  0  0  0
    6.6524   -9.4605   10.2547 H   0  0  0  0  0  0
    5.0595  -10.5696    8.6178 H   0  0  0  0  0  0
    6.0416   -9.2598    7.9820 H   0  0  0  0  0  0
    2.6946  -10.3961    8.4547 H   0  0  0  0  0  0
    5.0790   -6.9058    7.7266 H   0  0  0  0  0  0
    3.0579   -5.6631    7.0333 H   0  0  0  0  0  0
    0.8358   -6.7217    7.1868 H   0  0  0  0  0  0
    3.8600   -9.9397   11.0308 H   0  0  0  0  0  0
   -1.6363   -9.3594    7.0522 H   0  0  0  0  0  0
   -0.5869   -8.0428    6.5080 H   0  0  0  0  0  0
    0.8619  -10.8565    9.0664 H   0  0  0  0  0  0
   -0.7897  -10.9937    8.4541 H   0  0  0  0  0  0
    8.6950   -7.4871   10.2689 C   0  0  0  0  0  0
    6.3862   -6.6583   10.0975 N   0  0  0  0  0  0
    6.0870   -5.2661   10.4126 C   0  0  0  0  0  0
    7.4173   -4.5758   10.0393 C   0  0  0  0  0  0
    7.9220   -5.4674    8.8835 C   0  0  0  0  0  0
    7.6210   -6.9178    9.3664 C   0  0  0  0  0  0
    8.6694   -7.2501   11.5037 O   0  5  0  0  0  0
    5.8297   -5.1031   11.4698 H   0  0  0  0  0  0
    5.2700   -4.9036    9.7661 H   0  0  0  0  0  0
    8.1258   -4.6370   10.8814 H   0  0  0  0  0  0
    5.6430  -10.4055   12.6080 S   0  0  0  0  0  0
    6.9228  -10.9767   12.2355 O   0  0  0  0  0  0
    4.7073  -11.2040   13.3750 O   0  0  0  0  0  0
    7.3549   -7.0794   14.2237 C   0  0  0  0  0  0
    7.1864   -8.3221   13.6064 C   0  0  0  0  0  0
    5.9112   -8.8783   13.4811 C   0  0  0  0  0  0
    4.8173   -8.2128   14.0412 C   0  0  0  0  0  0
    4.9872   -6.9989   14.7143 C   0  0  0  0  0  0
    6.2610   -6.4210   14.8017 C   0  0  0  0  0  0
    2.9000   -6.7941   15.2478 H   0  0  0  0  0  0
    5.5013   -7.6275   10.4618 C   0  0  0  0  0  0
    5.6210   -9.1069   10.1422 C   0  0  0  0  0  0
    5.2286   -9.4834    8.6856 C   0  0  0  0  0  0
    3.9967   -8.7148    8.2057 C   0  0  0  0  0  0
    2.7506   -9.3481    8.1849 C   0  0  0  0  0  0
    4.1093   -7.3911    7.7689 C   0  0  0  0  0  0
    1.6003   -8.6534    7.8041 C   0  0  0  0  0  0
    2.9684   -6.6890    7.3787 C   0  0  0  0  0  0
    1.7143   -7.3074    7.4333 C   0  0  0  0  0  0
    0.2642   -9.3782    7.7893 C   0  0  0  0  0  0
    4.5081   -7.3170   11.1003 O   0  0  0  0  0  0
    4.8504   -9.8384   11.1455 N   0  0  0  0  0  0
   -0.7176   -8.8926    7.0747 N   0  3  0  0  0  0
    0.1044  -10.4812    8.4780 N   0  0  0  0  0  0
    7.2879   -3.5148    9.7642 H   0  0  0  0  0  0
    8.9772   -5.2777    8.6318 H   0  0  0  0  0  0
    7.3071   -5.2263    7.9973 H   0  0  0  0  0  0
    7.4775   -7.5672    8.4934 H   0  0  0  0  0  0
    9.5908   -8.2027    9.7488 O   0  0  0  0  0  0
    3.2078   -4.6474   16.4302 H   0  0  0  0  0  0
    5.4619   -3.6179   16.5746 H   0  0  0  0  0  0
    7.4049   -4.7367   15.5365 H   0  0  0  0  0  0
    8.3434   -6.6307   14.2544 H   0  0  0  0  0  0
    8.0494   -8.8591   13.2283 H   0  0  0  0  0  0
    3.8328   -8.6576   13.9479 H   0  0  0  0  0  0
  1  2  1  0  0  0
  1 34  2  0  0  0
  1 36  1  0  0  0
  2  3  2  0  0  0
  2 56  1  0  0  0
  3  4  1  0  0  0
  3 57  1  0  0  0
  4 35  2  0  0  0
  4 58  1  0  0  0
  5 38  1  0  0  0
  6 39  1  0  0  0
  7 39  1  0  0  0
  8 41  1  0  0  0
  9 42  1  0  0  0
 10 44  1  0  0  0
 11 45  1  0  0  0
 12 48  1  0  0  0
 13 49  1  0  0  0
 14 49  1  0  0  0
 15 50  1  0  0  0
 16 50  1  0  0  0
 17 22  1  0  0  0
 17 23  1  0  0  0
 17 55  2  0  0  0
 18 19  1  0  0  0
 18 22  1  0  0  0
 18 37  1  0  0  0
 19 20  1  0  0  0
 19 24  1  0  0  0
 19 25  1  0  0  0
 20 21  1  0  0  0
 20 26  1  0  0  0
 20 51  1  0  0  0
 21 22  1  0  0  0
 21 52  1  0  0  0
 21 53  1  0  0  0
 22 54  1  0  0  0
 27 28  2  0  0  0
 27 29  2  0  0  0
 27 32  1  0  0  0
 27 48  1  0  0  0
 30 31  2  0  0  0
 30 35  1  0  0  0
 30 59  1  0  0  0
 31 32  1  0  0  0
 31 60  1  0  0  0
 32 33  2  0  0  0
 33 34  1  0  0  0
 33 61  1  0  0  0
 34 35  1  0  0  0
 37 38  1  0  0  0
 37 47  2  0  0  0
 38 39  1  0  0  0
 38 48  1  0  0  0
 39 40  1  0  0  0
 40 41  2  0  0  0
 40 42  1  0  0  0
 41 43  1  0  0  0
 42 44  2  0  0  0
 43 45  2  0  0  0
 43 46  1  0  0  0
 44 45  1  0  0  0
 46 49  2  0  0  0
 46 50  1  0  0  0
M  CHG  2  23  -1  49   1
M  END
>  <ACTIVITY>
5.54

>  <SET>
1

>  <Min_dist>
999.9

>  <Avg_dist>
999.9

$$$$
61
  Cerius2 12110214423D 1   1.00000                          
Structure written by Cerius2 SD Exporter
 79 83  0  0  0  0  0  0  0  0999 V2000
    3.9020   -6.3647   15.2957 C   0  0  0  0  0  0
    4.0706   -5.1490   15.9649 C   0  0  0  0  0  0
    5.3385   -4.5693   16.0461 C   0  0  0  0  0  0
    6.4357   -5.2052   15.4598 C   0  0  0  0  0  0
    6.7777   -9.3015   10.3909 H   0  0  0  0  0  0
    5.2497  -10.4952    8.6568 H   0  0  0  0  0  0
    6.1655   -9.1191    8.0360 H   0  0  0  0  0  0
    2.7999  -10.3915    8.5104 H   0  0  0  0  0  0
    5.1108   -6.8627    7.7360 H   0  0  0  0  0  0
    3.0665   -5.6648    7.0543 H   0  0  0  0  0  0
    0.8699   -6.7611    7.2187 H   0  0  0  0  0  0
    3.9720   -9.9305   10.9796 H   0  0  0  0  0  0
   -1.4597   -9.5744    6.8343 H   0  0  0  0  0  0
   -0.3133   -8.4344    6.1188 H   0  0  0  0  0  0
    0.6952  -10.4906    9.4807 H   0  0  0  0  0  0
   -0.8671  -10.7783    8.7038 H   0  0  0  0  0  0
    7.5545   -6.1981    8.4195 H   0  0  0  0  0  0
    7.8063   -7.8049    9.1057 H   0  0  0  0  0  0
    9.6624   -6.3053    9.7773 H   0  0  0  0  0  0
    8.7120   -6.8254   11.1980 H   0  0  0  0  0  0
    8.4308   -4.1408    9.6944 H   0  0  0  0  0  0
    9.4611   -4.2692   11.6008 C   0  0  0  0  0  0
    6.8201   -3.4942   11.4760 H   0  0  0  0  0  0
    6.9857   -5.0928   12.2520 H   0  0  0  0  0  0
    4.9385   -5.0429   10.8738 H   0  0  0  0  0  0
    5.8693   -4.5842    9.4337 H   0  0  0  0  0  0
    5.6804  -10.4167   12.6223 S   0  0  0  0  0  0
    6.9676  -11.0099   12.3154 O   0  0  0  0  0  0
    4.6929  -11.1903   13.3486 O   0  0  0  0  0  0
    7.3673   -7.0726   14.2076 C   0  0  0  0  0  0
    7.1956   -8.2859   13.5343 C   0  0  0  0  0  0
    5.9300   -8.8732   13.4650 C   0  0  0  0  0  0
    4.8349   -8.2248   14.0401 C   0  0  0  0  0  0
    4.9997   -7.0060   14.7088 C   0  0  0  0  0  0
    6.2720   -6.4257   14.7924 C   0  0  0  0  0  0
    2.9111   -6.8040   15.2386 H   0  0  0  0  0  0
    5.4888   -7.5596   10.4820 C   0  0  0  0  0  0
    5.7319   -9.0270   10.1921 C   0  0  0  0  0  0
    5.3579   -9.4016    8.7274 C   0  0  0  0  0  0
    4.0801   -8.6935    8.2427 C   0  0  0  0  0  0
    2.8404   -9.3470    8.2254 C   0  0  0  0  0  0
    4.1555   -7.3715    7.7913 C   0  0  0  0  0  0
    1.6721   -8.6786    7.8330 C   0  0  0  0  0  0
    2.9999   -6.6913    7.4016 C   0  0  0  0  0  0
    1.7601   -7.3324    7.4610 C   0  0  0  0  0  0
    0.3282   -9.3903    7.8039 C   0  0  0  0  0  0
    4.4765   -7.3361   11.1277 O   0  0  0  0  0  0
    4.9532   -9.8162   11.1387 N   0  0  0  0  0  0
   -0.5384   -9.1114    6.8611 N   0  3  0  0  0  0
    0.0357  -10.2800    8.7192 N   0  0  0  0  0  0
    6.2975   -6.5388   10.0689 N   0  0  0  0  0  0
    7.5637   -6.7673    9.3637 C   0  0  0  0  0  0
    8.6838   -6.2185   10.2780 C   0  0  0  0  0  0
    8.4073   -4.7323   10.6242 C   0  0  0  0  0  0
    7.0154   -4.5628   11.2870 C   0  0  0  0  0  0
    5.9159   -5.1557   10.3757 C   0  0  0  0  0  0
   10.1757   -3.3391   11.2542 O   0  0  0  0  0  0
    9.5962   -4.8676   12.8070 N   0  0  0  0  0  0
   10.6333   -4.3729   13.7012 C   0  0  0  0  0  0
    3.2169   -4.6568   16.4207 H   0  0  0  0  0  0
    5.4702   -3.6249   16.5663 H   0  0  0  0  0  0
    7.4152   -4.7413   15.5282 H   0  0  0  0  0  0
    8.3601   -6.6393   14.2714 H   0  0  0  0  0  0
    8.0477   -8.7688   13.0688 H   0  0  0  0  0  0
    3.8534   -8.6799   13.9604 H   0  0  0  0  0  0
   10.4279   -3.3153   13.9354 H   0  0  0  0  0  0
   11.6104   -4.4317   13.1936 H   0  0  0  0  0  0
   12.0812   -6.6414   14.2279 H   0  0  0  0  0  0
   10.7143   -5.1641   15.0107 C   0  0  0  0  0  0
   11.5368   -6.2913   15.1000 C   0  0  0  0  0  0
   11.6688   -6.9718   16.3138 C   0  0  0  0  0  0
   10.9509   -6.5370   17.4330 C   0  0  0  0  0  0
   10.1011   -5.4328   17.3394 C   0  0  0  0  0  0
    9.9737   -4.7544   16.1247 C   0  0  0  0  0  0
   12.3283   -7.8314   16.3871 H   0  0  0  0  0  0
   11.0543   -7.0633   18.3788 H   0  0  0  0  0  0
    9.5421   -5.0978   18.2077 H   0  0  0  0  0  0
    9.3013   -3.9066   16.0528 H   0  0  0  0  0  0
    9.0121   -5.6271   13.1114 H   0  0  0  0  0  0
  1  2  1  0  0  0
  1 34  2  0  0  0
  1 36  1  0  0  0
  2  3  2  0  0  0
  2 60  1  0  0  0
  3  4  1  0  0  0
  3 61  1  0  0  0
  4 35  2  0  0  0
  4 62  1  0  0  0
  5 38  1  0  0  0
  6 39  1  0  0  0
  7 39  1  0  0  0
  8 41  1  0  0  0
  9 42  1  0  0  0
 10 44  1  0  0  0
 11 45  1  0  0  0
 12 48  1  0  0  0
 13 49  1  0  0  0
 14 49  1  0  0  0
 15 50  1  0  0  0
 16 50  1  0  0  0
 17 52  1  0  0  0
 18 52  1  0  0  0
 19 53  1  0  0  0
 20 53  1  0  0  0
 21 54  1  0  0  0
 22 54  1  0  0  0
 22 57  2  0  0  0
 22 58  1  0  0  0
 23 55  1  0  0  0
 24 55  1  0  0  0
 25 56  1  0  0  0
 26 56  1  0  0  0
 27 28  2  0  0  0
 27 29  2  0  0  0
 27 32  1  0  0  0
 27 48  1  0  0  0
 30 31  2  0  0  0
 30 35  1  0  0  0
 30 63  1  0  0  0
 31 32  1  0  0  0
 31 64  1  0  0  0
 32 33  2  0  0  0
 33 34  1  0  0  0
 33 65  1  0  0  0
 34 35  1  0  0  0
 37 38  1  0  0  0
 37 47  2  0  0  0
 37 51  1  0  0  0
 38 39  1  0  0  0
 38 48  1  0  0  0
 39 40  1  0  0  0
 40 41  2  0  0  0
 40 42  1  0  0  0
 41 43  1  0  0  0
 42 44  2  0  0  0
 43 45  2  0  0  0
 43 46  1  0  0  0
 44 45  1  0  0  0
 46 49  2  0  0  0
 46 50  1  0  0  0
 51 52  1  0  0  0
 51 56  1  0  0  0
 52 53  1  0  0  0
 53 54  1  0  0  0
 54 55  1  0  0  0
 55 56  1  0  0  0
 58 59  1  0  0  0
 58 79  1  0  0  0
 59 66  1  0  0  0
 59 67  1  0  0  0
 59 69  1  0  0  0
 68 70  1  0  0  0
 69 70  1  0  0  0
 69 74  2  0  0  0
 70 71  2  0  0  0
 71 72  1  0  0  0
 71 75  1  0  0  0
 72 73  2  0  0  0
 72 76  1  0  0  0
 73 74  1  0  0  0
 73 77  1  0  0  0
 74 78  1  0  0  0
M  CHG  1  49   1
M  END
>  <ACTIVITY>
5.51

>  <SET>
2

>  <Min_dist>
0.04

>  <Avg_dist>
0.24

$$$$
62
  Cerius2 12110214423D 1   1.00000                          
Structure written by Cerius2 SD Exporter
 60 62  0  0  0  0  0  0  0  0999 V2000
    5.2289   -5.7596   15.0921 C   0  0  0  0  0  0
    5.8692   -4.3528   15.1479 C   0  0  0  0  0  0
    7.3798   -4.4440   15.4982 C   0  0  0  0  0  0
    6.7690   -9.2221   10.3536 H   0  0  0  0  0  0
    5.3214  -10.4523    8.6045 H   0  0  0  0  0  0
    6.1961   -9.0107    8.0561 H   0  0  0  0  0  0
    2.8747  -10.4141    8.3797 H   0  0  0  0  0  0
    5.1030   -6.8228    7.6985 H   0  0  0  0  0  0
    3.0162   -5.6202    7.1448 H   0  0  0  0  0  0
    0.8461   -6.7246    7.4295 H   0  0  0  0  0  0
    3.9785   -9.9864   10.9556 H   0  0  0  0  0  0
   -1.5814   -9.3348    7.1509 H   0  0  0  0  0  0
   -0.5610   -7.9924    6.6347 H   0  0  0  0  0  0
    0.9601  -10.9581    8.9919 H   0  0  0  0  0  0
   -0.7042  -11.0417    8.4119 H   0  0  0  0  0  0
    6.3410   -6.6260   10.0699 N   0  0  0  0  0  0
    7.1540   -6.8952    9.5492 H   0  0  0  0  0  0
    6.1471   -5.1999   10.3293 C   0  0  0  0  0  0
    7.0163   -4.8039   10.8787 H   0  0  0  0  0  0
    5.2443   -4.9787   10.9200 H   0  0  0  0  0  0
    6.0646   -4.6641    9.3700 H   0  0  0  0  0  0
    5.7027  -10.3973   12.6147 S   0  0  0  0  0  0
    6.7684  -11.3127   12.2563 O   0  0  0  0  0  0
    4.6623  -10.8346   13.5256 O   0  0  0  0  0  0
    8.0313   -5.2055   14.4672 O   0  0  0  0  0  0
    8.2933   -7.3720   13.4456 C   0  0  0  0  0  0
    7.7646   -8.5912   13.0130 C   0  0  0  0  0  0
    6.4152   -8.8847   13.2293 C   0  0  0  0  0  0
    5.6125   -7.9614   13.9021 C   0  0  0  0  0  0
    6.1381   -6.7416   14.3441 C   0  0  0  0  0  0
    7.4829   -6.4363   14.0953 C   0  0  0  0  0  0
    5.4509   -7.5473   10.5060 C   0  0  0  0  0  0
    5.7014   -9.0021   10.1877 C   0  0  0  0  0  0
    5.3815   -9.3575    8.7084 C   0  0  0  0  0  0
    4.1005   -8.6686    8.2151 C   0  0  0  0  0  0
    2.8772   -9.3498    8.1722 C   0  0  0  0  0  0
    4.1529   -7.3380    7.7874 C   0  0  0  0  0  0
    1.6867   -8.6779    7.8569 C   0  0  0  0  0  0
    2.9784   -6.6552    7.4666 C   0  0  0  0  0  0
    1.7485   -7.3092    7.5710 C   0  0  0  0  0  0
    0.3469   -9.3967    7.8198 C   0  0  0  0  0  0
    4.4489   -7.2613   11.1446 O   0  0  0  0  0  0
    4.9465   -9.8108   11.1333 N   0  0  0  0  0  0
   -0.6630   -8.8711    7.1638 N   0  3  0  0  0  0
    0.1938  -10.5403    8.4449 N   0  0  0  0  0  0
    9.3399   -7.1454   13.2757 H   0  0  0  0  0  0
    8.4059   -9.3044   12.5074 H   0  0  0  0  0  0
    4.5681   -8.1960   14.0795 H   0  0  0  0  0  0
    5.0618   -6.1524   16.1084 H   0  0  0  0  0  0
    4.2483   -5.6974   14.5924 H   0  0  0  0  0  0
    5.7728   -3.8877   14.1532 H   0  0  0  0  0  0
    5.3329   -3.7223   15.8771 H   0  0  0  0  0  0
    8.0056   -3.0216   15.4809 C   0  0  0  0  0  0
    7.6345   -5.0993   16.8852 C   0  0  0  0  0  0
    7.5329   -2.3802   16.2410 H   0  0  0  0  0  0
    7.8676   -2.5556   14.4934 H   0  0  0  0  0  0
    9.0854   -3.0723   15.6858 H   0  0  0  0  0  0
    7.0982   -4.5465   17.6726 H   0  0  0  0  0  0
    8.7102   -5.0805   17.1178 H   0  0  0  0  0  0
    7.3121   -6.1497   16.9091 H   0  0  0  0  0  0
  1  2  1  0  0  0
  1 30  1  0  0  0
  1 49  1  0  0  0
  1 50  1  0  0  0
  2  3  1  0  0  0
  2 51  1  0  0  0
  2 52  1  0  0  0
  3 25  1  0  0  0
  3 53  1  0  0  0
  3 54  1  0  0  0
  4 33  1  0  0  0
  5 34  1  0  0  0
  6 34  1  0  0  0
  7 36  1  0  0  0
  8 37  1  0  0  0
  9 39  1  0  0  0
 10 40  1  0  0  0
 11 43  1  0  0  0
 12 44  1  0  0  0
 13 44  1  0  0  0
 14 45  1  0  0  0
 15 45  1  0  0  0
 16 17  1  0  0  0
 16 18  1  0  0  0
 16 32  1  0  0  0
 18 19  1  0  0  0
 18 20  1  0  0  0
 18 21  1  0  0  0
 22 23  2  0  0  0
 22 24  2  0  0  0
 22 28  1  0  0  0
 22 43  1  0  0  0
 25 31  1  0  0  0
 26 27  1  0  0  0
 26 31  2  0  0  0
 26 46  1  0  0  0
 27 28  2  0  0  0
 27 47  1  0  0  0
 28 29  1  0  0  0
 29 30  2  0  0  0
 29 48  1  0  0  0
 30 31  1  0  0  0
 32 33  1  0  0  0
 32 42  2  0  0  0
 33 34  1  0  0  0
 33 43  1  0  0  0
 34 35  1  0  0  0
 35 36  2  0  0  0
 35 37  1  0  0  0
 36 38  1  0  0  0
 37 39  2  0  0  0
 38 40  2  0  0  0
 38 41  1  0  0  0
 39 40  1  0  0  0
 41 44  2  0  0  0
 41 45  1  0  0  0
 53 55  1  0  0  0
 53 56  1  0  0  0
 53 57  1  0  0  0
 54 58  1  0  0  0
 54 59  1  0  0  0
 54 60  1  0  0  0
M  CHG  1  44   1
M  END
>  <ACTIVITY>
5.51

>  <SET>
1

>  <Min_dist>
999.9

>  <Avg_dist>
999.9

$$$$
63
  Cerius2 12110214423D 1   1.00000                          
Structure written by Cerius2 SD Exporter
 52 54  0  0  0  0  0  0  0  0999 V2000
    3.9017   -6.3689   15.3015 C   0  0  0  0  0  0
    4.0651   -5.1527   15.9702 C   0  0  0  0  0  0
    5.3309   -4.5692   16.0556 C   0  0  0  0  0  0
    6.4304   -5.2058   15.4719 C   0  0  0  0  0  0
    6.7637   -9.2323   10.3891 H   0  0  0  0  0  0
    5.2757  -10.4701    8.6344 H   0  0  0  0  0  0
    6.1774   -9.0624    8.0627 H   0  0  0  0  0  0
    2.8046  -10.3853    8.5085 H   0  0  0  0  0  0
    5.1111   -6.8505    7.7431 H   0  0  0  0  0  0
    3.0710   -5.6661    7.0268 H   0  0  0  0  0  0
    0.8737   -6.7602    7.1990 H   0  0  0  0  0  0
    3.9891   -9.9999   10.9927 H   0  0  0  0  0  0
   -1.5794   -9.3658    7.0614 H   0  0  0  0  0  0
   -0.5272   -8.0621    6.4988 H   0  0  0  0  0  0
    0.8934  -10.8628    9.0866 H   0  0  0  0  0  0
   -0.7598  -10.9792    8.4711 H   0  0  0  0  0  0
    6.2805   -6.6305   10.1234 N   0  0  0  0  0  0
    7.0990   -6.8708    9.5980 H   0  0  0  0  0  0
    6.0528   -5.2162   10.4031 C   0  0  0  0  0  0
    6.9020   -4.8071   10.9730 H   0  0  0  0  0  0
    5.1332   -5.0470   10.9859 H   0  0  0  0  0  0
    5.9665   -4.6620    9.4548 H   0  0  0  0  0  0
    5.7069  -10.4202   12.6246 S   0  0  0  0  0  0
    7.0012  -10.9965   12.3138 O   0  0  0  0  0  0
    4.7302  -11.2050   13.3489 O   0  0  0  0  0  0
    7.3654   -7.0644   14.2084 C   0  0  0  0  0  0
    7.2015   -8.2821   13.5418 C   0  0  0  0  0  0
    5.9390   -8.8758   13.4707 C   0  0  0  0  0  0
    4.8410   -8.2302   14.0457 C   0  0  0  0  0  0
    4.9995   -7.0099   14.7136 C   0  0  0  0  0  0
    6.2697   -6.4237   14.7994 C   0  0  0  0  0  0
    2.9119   -6.8096   15.2430 H   0  0  0  0  0  0
    5.4108   -7.5771   10.5503 C   0  0  0  0  0  0
    5.6976   -9.0200   10.2114 C   0  0  0  0  0  0
    5.3613   -9.3773    8.7324 C   0  0  0  0  0  0
    4.0793   -8.6834    8.2411 C   0  0  0  0  0  0
    2.8420   -9.3414    8.2207 C   0  0  0  0  0  0
    4.1560   -7.3632    7.7877 C   0  0  0  0  0  0
    1.6723   -8.6770    7.8236 C   0  0  0  0  0  0
    3.0021   -6.6894    7.3844 C   0  0  0  0  0  0
    1.7626   -7.3316    7.4451 C   0  0  0  0  0  0
    0.3268   -9.3874    7.7968 C   0  0  0  0  0  0
    4.4057   -7.3249   11.1973 O   0  0  0  0  0  0
    4.9642   -9.8449   11.1569 N   0  0  0  0  0  0
   -0.6563   -8.9044    7.0766 N   0  3  0  0  0  0
    0.1442  -10.4818    8.4928 N   0  0  0  0  0  0
    3.2106   -4.6611   16.4229 H   0  0  0  0  0  0
    5.4600   -3.6241   16.5773 H   0  0  0  0  0  0
    7.4081   -4.7406   15.5482 H   0  0  0  0  0  0
    8.3547   -6.6215   14.2647 H   0  0  0  0  0  0
    8.0569   -8.7681   13.0800 H   0  0  0  0  0  0
    3.8623   -8.6917   13.9649 H   0  0  0  0  0  0
  1  2  1  0  0  0
  1 30  2  0  0  0
  1 32  1  0  0  0
  2  3  2  0  0  0
  2 47  1  0  0  0
  3  4  1  0  0  0
  3 48  1  0  0  0
  4 31  2  0  0  0
  4 49  1  0  0  0
  5 34  1  0  0  0
  6 35  1  0  0  0
  7 35  1  0  0  0
  8 37  1  0  0  0
  9 38  1  0  0  0
 10 40  1  0  0  0
 11 41  1  0  0  0
 12 44  1  0  0  0
 13 45  1  0  0  0
 14 45  1  0  0  0
 15 46  1  0  0  0
 16 46  1  0  0  0
 17 18  1  0  0  0
 17 19  1  0  0  0
 17 33  1  0  0  0
 19 20  1  0  0  0
 19 21  1  0  0  0
 19 22  1  0  0  0
 23 24  2  0  0  0
 23 25  2  0  0  0
 23 28  1  0  0  0
 23 44  1  0  0  0
 26 27  2  0  0  0
 26 31  1  0  0  0
 26 50  1  0  0  0
 27 28  1  0  0  0
 27 51  1  0  0  0
 28 29  2  0  0  0
 29 30  1  0  0  0
 29 52  1  0  0  0
 30 31  1  0  0  0
 33 34  1  0  0  0
 33 43  2  0  0  0
 34 35  1  0  0  0
 34 44  1  0  0  0
 35 36  1  0  0  0
 36 37  2  0  0  0
 36 38  1  0  0  0
 37 39  1  0  0  0
 38 40  2  0  0  0
 39 41  2  0  0  0
 39 42  1  0  0  0
 40 41  1  0  0  0
 42 45  2  0  0  0
 42 46  1  0  0  0
M  CHG  1  45   1
M  END
>  <ACTIVITY>
5.24

>  <SET>
1

>  <Min_dist>
999.9

>  <Avg_dist>
999.9

$$$$
64
  Cerius2 12110214423D 1   1.00000                          
Structure written by Cerius2 SD Exporter
 58 60  0  0  0  0  0  0  0  0999 V2000
    4.8249   -5.2477   14.6793 C   0  0  0  0  0  0
    5.4533   -4.1942   15.3498 C   0  0  0  0  0  0
    6.7955   -4.3094   15.7227 C   0  0  0  0  0  0
    7.5057   -5.4754   15.4254 C   0  0  0  0  0  0
    7.5865   -7.7016   14.4601 C   0  0  0  0  0  0
    6.9609   -8.7529   13.7846 C   0  0  0  0  0  0
    5.6228   -8.6400   13.3971 C   0  0  0  0  0  0
    6.6192   -9.6102   10.3936 H   0  0  0  0  0  0
    5.2335  -10.4991    8.6259 H   0  0  0  0  0  0
    6.2215   -9.2096    7.9032 H   0  0  0  0  0  0
    2.8704  -10.4241    8.2572 H   0  0  0  0  0  0
    5.1526   -6.8360    7.6885 H   0  0  0  0  0  0
    3.0678   -5.5904    7.2055 H   0  0  0  0  0  0
    0.8756   -6.6981    7.4535 H   0  0  0  0  0  0
    3.8328   -8.5945   10.7639 H   0  0  0  0  0  0
   -1.5603   -9.2934    7.1797 H   0  0  0  0  0  0
   -0.5361   -7.9310    6.7033 H   0  0  0  0  0  0
    1.0409  -10.9509    8.9216 H   0  0  0  0  0  0
   -0.6510  -11.0334    8.4077 H   0  0  0  0  0  0
    7.5636   -7.3142    9.5940 N   0  0  0  0  0  0
    8.1266   -8.0675    9.2461 H   0  0  0  0  0  0
    8.1459   -5.9703    9.5602 C   0  0  0  0  0  0
    7.4252   -5.1978    9.8792 H   0  0  0  0  0  0
    8.5621   -5.6562    8.0989 C   0  0  0  0  0  0
    9.3677   -5.9131   10.5147 C   0  0  0  0  0  0
    4.8289   -9.9413   12.4839 S   0  0  0  0  0  0
    5.7408  -11.0576   12.3213 O   0  0  0  0  0  0
    3.5059  -10.1705   13.0311 O   0  0  0  0  0  0
    4.9107   -7.4776   13.7065 C   0  0  0  0  0  0
    5.5327   -6.4178   14.3774 C   0  0  0  0  0  0
    6.8777   -6.5314   14.7539 C   0  0  0  0  0  0
    3.7802   -5.1429   14.3994 H   0  0  0  0  0  0
    4.9034   -3.2864   15.5797 H   0  0  0  0  0  0
    7.2891   -3.4923   16.2407 H   0  0  0  0  0  0
    8.5478   -5.5536   15.7212 H   0  0  0  0  0  0
    6.3171   -7.5429   10.0791 C   0  0  0  0  0  0
    5.7994   -8.9621   10.0460 C   0  0  0  0  0  0
    5.4036   -9.4104    8.6132 C   0  0  0  0  0  0
    4.1332   -8.6853    8.1432 C   0  0  0  0  0  0
    2.9017   -9.3519    8.0935 C   0  0  0  0  0  0
    4.1948   -7.3402    7.7648 C   0  0  0  0  0  0
    1.7156   -8.6558    7.8288 C   0  0  0  0  0  0
    3.0198   -6.6375    7.4867 C   0  0  0  0  0  0
    1.7823   -7.2808    7.5766 C   0  0  0  0  0  0
    0.3773   -9.3740    7.8143 C   0  0  0  0  0  0
    5.5982   -6.6699   10.5380 O   0  0  0  0  0  0
    4.6741   -9.0972   10.9622 N   0  0  0  0  0  0
   -0.6403   -8.8288    7.1965 N   0  3  0  0  0  0
    0.2489  -10.5300    8.4157 N   0  0  0  0  0  0
    8.6247   -7.8062   14.7530 H   0  0  0  0  0  0
    7.5194   -9.6551   13.5580 H   0  0  0  0  0  0
    3.8673   -7.4017   13.4177 H   0  0  0  0  0  0
    8.9958   -4.6476    8.0242 H   0  0  0  0  0  0
    7.6785   -5.7104    7.4446 H   0  0  0  0  0  0
    9.3054   -6.3860    7.7434 H   0  0  0  0  0  0
    9.8309   -4.9149   10.4906 H   0  0  0  0  0  0
   10.1221   -6.6579   10.2199 H   0  0  0  0  0  0
    9.0460   -6.1281   11.5453 H   0  0  0  0  0  0
  1  2  1  0  0  0
  1 30  2  0  0  0
  1 32  1  0  0  0
  2  3  2  0  0  0
  2 33  1  0  0  0
  3  4  1  0  0  0
  3 34  1  0  0  0
  4 31  2  0  0  0
  4 35  1  0  0  0
  5  6  2  0  0  0
  5 31  1  0  0  0
  5 50  1  0  0  0
  6  7  1  0  0  0
  6 51  1  0  0  0
  7 26  1  0  0  0
  7 29  2  0  0  0
  8 37  1  0  0  0
  9 38  1  0  0  0
 10 38  1  0  0  0
 11 40  1  0  0  0
 12 41  1  0  0  0
 13 43  1  0  0  0
 14 44  1  0  0  0
 15 47  1  0  0  0
 16 48  1  0  0  0
 17 48  1  0  0  0
 18 49  1  0  0  0
 19 49  1  0  0  0
 20 21  1  0  0  0
 20 22  1  0  0  0
 20 36  1  0  0  0
 22 23  1  0  0  0
 22 24  1  0  0  0
 22 25  1  0  0  0
 24 53  1  0  0  0
 24 54  1  0  0  0
 24 55  1  0  0  0
 25 56  1  0  0  0
 25 57  1  0  0  0
 25 58  1  0  0  0
 26 27  2  0  0  0
 26 28  2  0  0  0
 26 47  1  0  0  0
 29 30  1  0  0  0
 29 52  1  0  0  0
 30 31  1  0  0  0
 36 37  1  0  0  0
 36 46  2  0  0  0
 37 38  1  0  0  0
 37 47  1  0  0  0
 38 39  1  0  0  0
 39 40  2  0  0  0
 39 41  1  0  0  0
 40 42  1  0  0  0
 41 43  2  0  0  0
 42 44  2  0  0  0
 42 45  1  0  0  0
 43 44  1  0  0  0
 45 48  2  0  0  0
 45 49  1  0  0  0
M  CHG  1  48   1
M  END
>  <ACTIVITY>
5.21

>  <SET>
1

>  <Min_dist>
999.9

>  <Avg_dist>
999.9

$$$$
65
  Cerius2 12110214423D 1   1.00000                          
Structure written by Cerius2 SD Exporter
 85 87  0  0  0  0  0  0  0  0999 V2000
    3.8030   -8.0097   13.7414 C   0  0  0  0  0  0
    5.0744   -5.7876   14.5085 H   0  0  0  0  0  0
    7.5614   -5.0308   15.2714 C   0  0  0  0  0  0
    8.7912   -9.5536   13.4852 C   0  0  0  0  0  0
    9.1016   -6.9645   14.0223 H   0  0  0  0  0  0
    3.5300   -8.8550   13.0985 H   0  0  0  0  0  0
    8.3987   -4.0297   14.4314 C   0  0  0  0  0  0
    6.7861   -9.3135   10.1873 H   0  0  0  0  0  0
    5.2654  -10.5854    8.5155 H   0  0  0  0  0  0
    6.1912   -9.2374    7.8213 H   0  0  0  0  0  0
    2.8023  -10.4645    8.3933 H   0  0  0  0  0  0
    5.1403   -7.0065    7.3976 H   0  0  0  0  0  0
    3.0747   -5.7267    6.9534 H   0  0  0  0  0  0
    0.8673   -6.7883    7.2603 H   0  0  0  0  0  0
    3.9391   -9.7118   10.8402 H   0  0  0  0  0  0
   -1.6022   -9.3335    7.1335 H   0  0  0  0  0  0
   -0.5394   -8.0321    6.5761 H   0  0  0  0  0  0
    0.9428  -10.9250    9.0186 H   0  0  0  0  0  0
   -0.7453  -11.0071    8.4902 H   0  0  0  0  0  0
    7.7119   -6.3410    8.1813 H   0  0  0  0  0  0
    7.9739   -7.8677    9.0190 H   0  0  0  0  0  0
   10.1763   -6.2988    9.3477 C   0  0  0  0  0  0
    8.8702   -6.6705   11.0051 H   0  0  0  0  0  0
    8.4969   -4.1146    9.3288 H   0  0  0  0  0  0
    9.2876   -4.2196   10.9298 H   0  0  0  0  0  0
    6.9004   -3.4817   11.1715 H   0  0  0  0  0  0
    7.1314   -5.1017   11.9089 H   0  0  0  0  0  0
    5.0724   -5.0370   10.5920 H   0  0  0  0  0  0
    5.9604   -4.6094    9.1120 H   0  0  0  0  0  0
    5.7063  -10.2628   12.4773 S   0  0  0  0  0  0
    6.7862  -11.0839   11.9773 O   0  0  0  0  0  0
    4.7061  -10.9122   13.3032 O   0  0  0  0  0  0
    6.2862   -8.7503   13.3204 C   0  0  0  0  0  0
    5.3413   -7.7867   13.7404 C   0  0  0  0  0  0
    5.7829   -6.5613   14.2559 C   0  0  0  0  0  0
    7.1321   -6.2971   14.4917 C   0  0  0  0  0  0
    8.0543   -7.2353   14.0283 C   0  0  0  0  0  0
    7.6515   -8.5061   13.5937 C   0  0  0  0  0  0
    8.3228   -5.4343   16.5627 C   0  0  0  0  0  0
    5.5323   -7.5339   10.0886 C   0  0  0  0  0  0
    5.7545   -9.0189    9.9552 C   0  0  0  0  0  0
    5.3804   -9.4901    8.5225 C   0  0  0  0  0  0
    4.0974   -8.7869    8.0467 C   0  0  0  0  0  0
    2.8520   -9.4217    8.1012 C   0  0  0  0  0  0
    4.1759   -7.4777    7.5563 C   0  0  0  0  0  0
    1.6781   -8.7273    7.7754 C   0  0  0  0  0  0
    3.0110   -6.7610    7.2780 C   0  0  0  0  0  0
    1.7654   -7.3753    7.4220 C   0  0  0  0  0  0
    0.3269   -9.4161    7.7962 C   0  0  0  0  0  0
    4.4105   -7.2665   10.4802 O   0  0  0  0  0  0
    4.9284   -9.6489   10.9796 N   0  0  0  0  0  0
   -0.6710   -8.8912    7.1295 N   0  3  0  0  0  0
    0.1654  -10.5238    8.4752 N   0  0  0  0  0  0
    6.4213   -6.5445    9.7976 N   0  0  0  0  0  0
    7.7210   -6.8124    9.1756 C   0  0  0  0  0  0
    8.8365   -6.1590   10.0299 C   0  0  0  0  0  0
    8.5114   -4.6646   10.2843 C   0  0  0  0  0  0
    7.1270   -4.5401   10.9623 C   0  0  0  0  0  0
    6.0330   -5.1568   10.0644 C   0  0  0  0  0  0
    6.6622   -4.4833   15.6045 H   0  0  0  0  0  0
    2.8951   -6.8333   13.2559 C   0  0  0  0  0  0
    3.4081   -8.3525   15.2033 C   0  0  0  0  0  0
    8.3875  -10.5662   13.4100 H   0  0  0  0  0  0
    9.6403   -9.6734   14.7852 C   0  0  0  0  0  0
    9.7041   -9.2746   12.2594 C   0  0  0  0  0  0
    9.3115   -4.5007   14.0388 H   0  0  0  0  0  0
    8.6878   -3.1660   15.0510 H   0  0  0  0  0  0
    7.8067   -3.6408   13.5936 H   0  0  0  0  0  0
    7.6915   -6.0900   17.1825 H   0  0  0  0  0  0
    8.5761   -4.5395   17.1535 H   0  0  0  0  0  0
    9.2556   -5.9661   16.3239 H   0  0  0  0  0  0
    2.9287   -5.9491   13.9054 H   0  0  0  0  0  0
    1.8454   -7.1684   13.2416 H   0  0  0  0  0  0
    3.1425   -6.5049   12.2429 H   0  0  0  0  0  0
    3.9980   -9.2063   15.5704 H   0  0  0  0  0  0
    2.3396   -8.6083   15.2743 H   0  0  0  0  0  0
    3.6012   -7.4893   15.8600 H   0  0  0  0  0  0
   10.1888   -8.7510   15.0163 H   0  0  0  0  0  0
   10.3855  -10.4796   14.6785 H   0  0  0  0  0  0
    8.9930   -9.9196   15.6423 H   0  0  0  0  0  0
    9.0967   -9.2048   11.3453 H   0  0  0  0  0  0
   10.4311  -10.0917   12.1323 H   0  0  0  0  0  0
   10.2699   -8.3384   12.3797 H   0  0  0  0  0  0
   10.6443   -5.2997    8.7378 O   0  5  0  0  0  0
   10.7830   -7.4011    9.4271 O   0  0  0  0  0  0
  1  6  1  0  0  0
  1 34  1  0  0  0
  1 61  1  0  0  0
  1 62  1  0  0  0
  2 35  1  0  0  0
  3  7  1  0  0  0
  3 36  1  0  0  0
  3 39  1  0  0  0
  3 60  1  0  0  0
  4 38  1  0  0  0
  4 63  1  0  0  0
  4 64  1  0  0  0
  4 65  1  0  0  0
  5 37  1  0  0  0
  7 66  1  0  0  0
  7 67  1  0  0  0
  7 68  1  0  0  0
  8 41  1  0  0  0
  9 42  1  0  0  0
 10 42  1  0  0  0
 11 44  1  0  0  0
 12 45  1  0  0  0
 13 47  1  0  0  0
 14 48  1  0  0  0
 15 51  1  0  0  0
 16 52  1  0  0  0
 17 52  1  0  0  0
 18 53  1  0  0  0
 19 53  1  0  0  0
 20 55  1  0  0  0
 21 55  1  0  0  0
 22 56  1  0  0  0
 22 84  1  0  0  0
 22 85  2  0  0  0
 23 56  1  0  0  0
 24 57  1  0  0  0
 25 57  1  0  0  0
 26 58  1  0  0  0
 27 58  1  0  0  0
 28 59  1  0  0  0
 29 59  1  0  0  0
 30 31  2  0  0  0
 30 32  2  0  0  0
 30 33  1  0  0  0
 30 51  1  0  0  0
 33 34  1  0  0  0
 33 38  2  0  0  0
 34 35  2  0  0  0
 35 36  1  0  0  0
 36 37  2  0  0  0
 37 38  1  0  0  0
 39 69  1  0  0  0
 39 70  1  0  0  0
 39 71  1  0  0  0
 40 41  1  0  0  0
 40 50  2  0  0  0
 40 54  1  0  0  0
 41 42  1  0  0  0
 41 51  1  0  0  0
 42 43  1  0  0  0
 43 44  2  0  0  0
 43 45  1  0  0  0
 44 46  1  0  0  0
 45 47  2  0  0  0
 46 48  2  0  0  0
 46 49  1  0  0  0
 47 48  1  0  0  0
 49 52  2  0  0  0
 49 53  1  0  0  0
 54 55  1  0  0  0
 54 59  1  0  0  0
 55 56  1  0  0  0
 56 57  1  0  0  0
 57 58  1  0  0  0
 58 59  1  0  0  0
 61 72  1  0  0  0
 61 73  1  0  0  0
 61 74  1  0  0  0
 62 75  1  0  0  0
 62 76  1  0  0  0
 62 77  1  0  0  0
 64 78  1  0  0  0
 64 79  1  0  0  0
 64 80  1  0  0  0
 65 81  1  0  0  0
 65 82  1  0  0  0
 65 83  1  0  0  0
M  CHG  2  52   1  84  -1
M  END
>  <ACTIVITY>
5.14

>  <SET>
2

>  <Min_dist>
0.08

>  <Avg_dist>
0.27

$$$$
66
  Cerius2 12110214423D 1   1.00000                          
Structure written by Cerius2 SD Exporter
 49 50  0  0  0  0  0  0  0  0999 V2000
    5.1959   -9.7485   12.1345 H   0  0  0  0  0  0
    6.7823   -9.3047   10.3955 H   0  0  0  0  0  0
    5.2855  -10.4364    8.5592 H   0  0  0  0  0  0
    6.1860   -9.0188    8.0446 H   0  0  0  0  0  0
    2.8354  -10.3379    8.5091 H   0  0  0  0  0  0
    5.1086   -6.8059    7.7354 H   0  0  0  0  0  0
    3.0768   -5.6668    6.9334 H   0  0  0  0  0  0
    0.9006   -6.7291    7.1299 H   0  0  0  0  0  0
    3.9102   -9.8574   10.9729 H   0  0  0  0  0  0
   -1.6069   -9.4039    7.0567 H   0  0  0  0  0  0
   -0.5911   -8.1065    6.4458 H   0  0  0  0  0  0
    0.8344  -10.8521    9.0944 H   0  0  0  0  0  0
   -0.7981  -10.9605    8.4496 H   0  0  0  0  0  0
    7.5874   -6.2359    8.4596 H   0  0  0  0  0  0
    7.8756   -7.8136    9.1873 H   0  0  0  0  0  0
    9.6845   -6.2024    9.7345 H   0  0  0  0  0  0
    8.8478   -6.7506   11.2155 H   0  0  0  0  0  0
   10.8730   -3.7853   10.9829 C   0  0  0  0  0  0
    9.3131   -3.5180   10.1164 S   0  0  0  0  0  0
    6.8829   -3.5038   11.4999 H   0  0  0  0  0  0
    7.0787   -5.0997   12.2754 H   0  0  0  0  0  0
    4.9843   -5.0320   10.8854 H   0  0  0  0  0  0
    5.9486   -4.5910    9.4628 H   0  0  0  0  0  0
    5.5001   -7.5767   10.4894 C   0  0  0  0  0  0
    5.7323   -9.0436   10.1852 C   0  0  0  0  0  0
    5.3714   -9.3506    8.7033 C   0  0  0  0  0  0
    4.0860   -8.6484    8.2212 C   0  0  0  0  0  0
    2.8464   -9.3015    8.2035 C   0  0  0  0  0  0
    4.1604   -7.3312    7.7619 C   0  0  0  0  0  0
    1.6611   -8.6616    7.7931 C   0  0  0  0  0  0
    3.0078   -6.6780    7.3244 C   0  0  0  0  0  0
    1.7695   -7.3202    7.3915 C   0  0  0  0  0  0
    0.3123   -9.3783    7.7745 C   0  0  0  0  0  0
    4.4725   -7.3454   11.1069 O   0  0  0  0  0  0
    4.9764   -9.9369   11.0938 N   0  3  0  0  0  0
   -0.6892   -8.9307    7.0495 N   0  3  0  0  0  0
    0.1072  -10.4650    8.4827 N   0  0  0  0  0  0
    6.3352   -6.5559   10.1098 N   0  0  0  0  0  0
    7.6097   -6.7787    9.4176 C   0  0  0  0  0  0
    8.7337   -6.1629   10.2888 C   0  0  0  0  0  0
    8.3493   -4.7986   10.6283 N   0  0  0  0  0  0
    7.0768   -4.5711   11.3061 C   0  0  0  0  0  0
    5.9658   -5.1657   10.4034 C   0  0  0  0  0  0
    8.7630   -2.2641   10.5938 O   0  0  0  0  0  0
    9.5509   -3.6710    8.6940 O   0  0  0  0  0  0
   10.7022   -3.7609   12.0673 H   0  0  0  0  0  0
   11.5688   -2.9798   10.7099 H   0  0  0  0  0  0
   11.3250   -4.7465   10.7082 H   0  0  0  0  0  0
    5.2380  -10.9760   10.9345 H   0  0  0  0  0  0
  1 35  1  0  0  0
  2 25  1  0  0  0
  3 26  1  0  0  0
  4 26  1  0  0  0
  5 28  1  0  0  0
  6 29  1  0  0  0
  7 31  1  0  0  0
  8 32  1  0  0  0
  9 35  1  0  0  0
 10 36  1  0  0  0
 11 36  1  0  0  0
 12 37  1  0  0  0
 13 37  1  0  0  0
 14 39  1  0  0  0
 15 39  1  0  0  0
 16 40  1  0  0  0
 17 40  1  0  0  0
 18 19  1  0  0  0
 18 46  1  0  0  0
 18 47  1  0  0  0
 18 48  1  0  0  0
 19 41  1  0  0  0
 19 44  2  0  0  0
 19 45  2  0  0  0
 20 42  1  0  0  0
 21 42  1  0  0  0
 22 43  1  0  0  0
 23 43  1  0  0  0
 24 25  1  0  0  0
 24 34  2  0  0  0
 24 38  1  0  0  0
 25 26  1  0  0  0
 25 35  1  0  0  0
 26 27  1  0  0  0
 27 28  2  0  0  0
 27 29  1  0  0  0
 28 30  1  0  0  0
 29 31  2  0  0  0
 30 32  2  0  0  0
 30 33  1  0  0  0
 31 32  1  0  0  0
 33 36  2  0  0  0
 33 37  1  0  0  0
 35 49  1  0  0  0
 38 39  1  0  0  0
 38 43  1  0  0  0
 39 40  1  0  0  0
 40 41  1  0  0  0
 41 42  1  0  0  0
 42 43  1  0  0  0
M  CHG  2  35   1  36   1
M  END
>  <ACTIVITY>
4.89

>  <SET>
1

>  <Min_dist>
999.9

>  <Avg_dist>
999.9

$$$$
67
  Cerius2 12110214423D 1   1.00000                          
Structure written by Cerius2 SD Exporter
 78 82  0  0  0  0  0  0  0  0999 V2000
    4.1065   -5.2126   14.8389 C   0  0  0  0  0  0
    4.4429   -3.9576   15.3533 C   0  0  0  0  0  0
    5.7754   -3.5380   15.3500 C   0  0  0  0  0  0
    6.7693   -4.3755   14.8369 C   0  0  0  0  0  0
    6.7836   -9.4607   10.4114 H   0  0  0  0  0  0
    5.3511  -10.4242    8.6322 H   0  0  0  0  0  0
    6.2431   -9.0419    7.9592 H   0  0  0  0  0  0
    2.9719  -10.4234    8.2366 H   0  0  0  0  0  0
    5.1118   -6.7429    7.8304 H   0  0  0  0  0  0
    2.9747   -5.5328    7.5090 H   0  0  0  0  0  0
    0.8269   -6.7070    7.8337 H   0  0  0  0  0  0
    3.8937   -9.3427   10.8437 H   0  0  0  0  0  0
   -1.5526   -9.3562    7.3373 H   0  0  0  0  0  0
   -0.5927   -7.9314    6.9429 H   0  0  0  0  0  0
    1.0976  -11.0931    8.8737 H   0  0  0  0  0  0
   -0.5869  -11.1559    8.3558 H   0  0  0  0  0  0
    8.0712   -5.0861   10.8451 H   0  0  0  0  0  0
    6.3191   -4.8776   10.6621 H   0  0  0  0  0  0
    7.5441   -3.5064    9.0828 H   0  0  0  0  0  0
    6.5370   -4.6935    8.2012 H   0  0  0  0  0  0
    9.5691   -4.8705    8.6420 H   0  0  0  0  0  0
    9.5130   -7.1022    7.5710 H   0  0  0  0  0  0
    7.7611   -6.9209    7.2499 H   0  0  0  0  0  0
    8.2584   -8.4324    9.1369 H   0  0  0  0  0  0
    9.1956   -7.1872    9.9668 H   0  0  0  0  0  0
    5.3209   -9.7924   12.7502 S   0  0  0  0  0  0
    6.5031  -10.6316   12.7131 O   0  0  0  0  0  0
    4.1412  -10.2515   13.4591 O   0  0  0  0  0  0
    7.4284   -6.4865   13.8231 C   0  0  0  0  0  0
    7.0934   -7.7527   13.3366 C   0  0  0  0  0  0
    5.7633   -8.1816   13.3578 C   0  0  0  0  0  0
    4.7680   -7.3203   13.8258 C   0  0  0  0  0  0
    5.1002   -6.0575   14.3308 C   0  0  0  0  0  0
    6.4374   -5.6382   14.3301 C   0  0  0  0  0  0
    3.0660   -5.5237   14.8413 H   0  0  0  0  0  0
    6.0407   -7.4328   10.2935 C   0  0  0  0  0  0
    5.8637   -8.9306   10.1281 C   0  0  0  0  0  0
    5.4606   -9.3284    8.6784 C   0  0  0  0  0  0
    4.1570   -8.6353    8.2473 C   0  0  0  0  0  0
    2.9483   -9.3416    8.1645 C   0  0  0  0  0  0
    4.1718   -7.2739    7.9284 C   0  0  0  0  0  0
    1.7284   -8.6729    7.9790 C   0  0  0  0  0  0
    2.9667   -6.5919    7.7380 C   0  0  0  0  0  0
    1.7526   -7.2784    7.8481 C   0  0  0  0  0  0
    0.4052   -9.4263    7.9176 C   0  0  0  0  0  0
    5.0791   -6.8714   10.7927 O   0  0  0  0  0  0
    4.8623   -9.3768   11.0923 N   0  0  0  0  0  0
   -0.6468   -8.8658    7.3677 N   0  3  0  0  0  0
    0.3016  -10.6369    8.4111 N   0  0  0  0  0  0
    7.1588   -6.7300    9.9327 N   0  0  0  0  0  0
    7.2186   -5.2915   10.1774 C   0  0  0  0  0  0
    7.4384   -4.5708    8.8226 C   0  0  0  0  0  0
    8.6788   -5.1021    8.0325 C   0  0  0  0  0  0
    8.5764   -6.6594    7.9431 C   0  0  0  0  0  0
    8.3247   -7.3513    9.3094 C   0  0  0  0  0  0
    8.8369   -4.4534    6.6815 N   0  3  0  0  0  0
    8.9106   -2.9621    6.7538 C   0  0  0  0  0  0
    9.0986   -2.2555    5.3841 C   0  0  0  0  0  0
    3.6698   -3.3093   15.7547 H   0  0  0  0  0  0
    6.0376   -2.5617   15.7466 H   0  0  0  0  0  0
    7.8002   -4.0347   14.8363 H   0  0  0  0  0  0
    8.4670   -6.1709   13.8054 H   0  0  0  0  0  0
    7.8681   -8.4017   12.9424 H   0  0  0  0  0  0
    3.7326   -7.6425   13.7934 H   0  0  0  0  0  0
   10.3668   -2.7848    4.6810 C   0  0  0  0  0  0
   10.2142   -4.3123    4.5198 C   0  0  0  0  0  0
   10.0022   -4.9799    5.9056 C   0  0  0  0  0  0
    9.7379   -2.6665    7.4213 H   0  0  0  0  0  0
    7.9797   -2.5214    7.1438 H   0  0  0  0  0  0
    9.1896   -1.1647    5.5287 H   0  0  0  0  0  0
    8.2177   -2.4435    4.7465 H   0  0  0  0  0  0
   11.2600   -2.5543    5.2853 H   0  0  0  0  0  0
   10.4808   -2.3074    3.6930 H   0  0  0  0  0  0
   11.1185   -4.7203    4.0348 H   0  0  0  0  0  0
    9.3501   -4.5295    3.8687 H   0  0  0  0  0  0
    9.8872   -6.0466    5.6561 H   0  0  0  0  0  0
   10.9242   -4.8627    6.5003 H   0  0  0  0  0  0
    7.9513   -4.6897    6.1011 H   0  0  0  0  0  0
  1  2  1  0  0  0
  1 33  2  0  0  0
  1 35  1  0  0  0
  2  3  2  0  0  0
  2 59  1  0  0  0
  3  4  1  0  0  0
  3 60  1  0  0  0
  4 34  2  0  0  0
  4 61  1  0  0  0
  5 37  1  0  0  0
  6 38  1  0  0  0
  7 38  1  0  0  0
  8 40  1  0  0  0
  9 41  1  0  0  0
 10 43  1  0  0  0
 11 44  1  0  0  0
 12 47  1  0  0  0
 13 48  1  0  0  0
 14 48  1  0  0  0
 15 49  1  0  0  0
 16 49  1  0  0  0
 17 51  1  0  0  0
 18 51  1  0  0  0
 19 52  1  0  0  0
 20 52  1  0  0  0
 21 53  1  0  0  0
 22 54  1  0  0  0
 23 54  1  0  0  0
 24 55  1  0  0  0
 25 55  1  0  0  0
 26 27  2  0  0  0
 26 28  2  0  0  0
 26 31  1  0  0  0
 26 47  1  0  0  0
 29 30  2  0  0  0
 29 34  1  0  0  0
 29 62  1  0  0  0
 30 31  1  0  0  0
 30 63  1  0  0  0
 31 32  2  0  0  0
 32 33  1  0  0  0
 32 64  1  0  0  0
 33 34  1  0  0  0
 36 37  1  0  0  0
 36 46  2  0  0  0
 36 50  1  0  0  0
 37 38  1  0  0  0
 37 47  1  0  0  0
 38 39  1  0  0  0
 39 40  2  0  0  0
 39 41  1  0  0  0
 40 42  1  0  0  0
 41 43  2  0  0  0
 42 44  2  0  0  0
 42 45  1  0  0  0
 43 44  1  0  0  0
 45 48  2  0  0  0
 45 49  1  0  0  0
 50 51  1  0  0  0
 50 55  1  0  0  0
 51 52  1  0  0  0
 52 53  1  0  0  0
 53 54  1  0  0  0
 53 56  1  0  0  0
 54 55  1  0  0  0
 56 57  1  0  0  0
 56 67  1  0  0  0
 56 78  1  0  0  0
 57 58  1  0  0  0
 57 68  1  0  0  0
 57 69  1  0  0  0
 58 65  1  0  0  0
 58 70  1  0  0  0
 58 71  1  0  0  0
 65 66  1  0  0  0
 65 72  1  0  0  0
 65 73  1  0  0  0
 66 67  1  0  0  0
 66 74  1  0  0  0
 66 75  1  0  0  0
 67 76  1  0  0  0
 67 77  1  0  0  0
M  CHG  2  48   1  56   1
M  END
>  <ACTIVITY>
4.82

>  <SET>
2

>  <Min_dist>
0.08

>  <Avg_dist>
0.21

$$$$
68
  Cerius2 12110214423D 1   1.00000                          
Structure written by Cerius2 SD Exporter
 59 60  0  0  0  0  0  0  0  0999 V2000
    3.6161   -8.4393   13.6670 C   0  0  0  0  0  0
    4.4818   -6.2073   14.6010 H   0  0  0  0  0  0
    9.1349   -6.6193   14.4796 C   0  0  0  0  0  0
    8.7669   -9.3029   13.4918 C   0  0  0  0  0  0
    6.8636   -5.0498   15.0518 O   0  0  0  0  0  0
    5.7962   -4.1548   15.4041 C   0  0  0  0  0  0
    6.2496   -3.2226   15.7758 H   0  0  0  0  0  0
    6.7441   -9.2096   10.3987 H   0  0  0  0  0  0
    5.2706  -10.4456    8.6339 H   0  0  0  0  0  0
    6.1753   -9.0313    8.0770 H   0  0  0  0  0  0
    2.8064  -10.3595    8.5208 H   0  0  0  0  0  0
    5.1038   -6.8284    7.7428 H   0  0  0  0  0  0
    3.0760   -5.6745    6.9482 H   0  0  0  0  0  0
    0.8839   -6.7557    7.1232 H   0  0  0  0  0  0
    4.0095  -10.0798   10.9475 H   0  0  0  0  0  0
   -1.5885   -9.3851    7.0408 H   0  0  0  0  0  0
   -0.5461   -8.0927    6.4463 H   0  0  0  0  0  0
    0.8652  -10.8351    9.1046 H   0  0  0  0  0  0
   -0.7778  -10.9590    8.4739 H   0  0  0  0  0  0
    6.3354   -6.6176   10.1483 N   0  0  0  0  0  0
    7.1945   -6.8870    9.7006 H   0  0  0  0  0  0
    6.1068   -5.2010   10.3848 C   0  0  0  0  0  0
    5.1493   -5.0177   10.8952 H   0  0  0  0  0  0
    6.0955   -4.6589    9.4265 H   0  0  0  0  0  0
    6.9129   -4.7963   11.0132 H   0  0  0  0  0  0
    5.7670  -10.4418   12.5690 S   0  0  0  0  0  0
    6.9038  -11.1734   12.0588 O   0  0  0  0  0  0
    4.8204  -11.1660   13.3866 O   0  0  0  0  0  0
    6.1887   -8.8945   13.4007 C   0  0  0  0  0  0
    5.1098   -8.0761   13.7835 C   0  0  0  0  0  0
    5.3394   -6.8120   14.3322 C   0  0  0  0  0  0
    6.6309   -6.3346   14.5396 C   0  0  0  0  0  0
    7.7136   -7.1629   14.2250 C   0  0  0  0  0  0
    7.4979   -8.4502   13.6975 C   0  0  0  0  0  0
    5.1726   -4.5783   16.2085 H   0  0  0  0  0  0
    5.4035   -7.5371   10.4903 C   0  0  0  0  0  0
    5.6804   -8.9992   10.2118 C   0  0  0  0  0  0
    5.3520   -9.3545    8.7307 C   0  0  0  0  0  0
    4.0737   -8.6638    8.2334 C   0  0  0  0  0  0
    2.8345   -9.3193    8.2145 C   0  0  0  0  0  0
    4.1535   -7.3469    7.7703 C   0  0  0  0  0  0
    1.6656   -8.6700    7.7987 C   0  0  0  0  0  0
    3.0022   -6.6889    7.3309 C   0  0  0  0  0  0
    1.7640   -7.3284    7.3914 C   0  0  0  0  0  0
    0.3199   -9.3793    7.7787 C   0  0  0  0  0  0
    4.3418   -7.2586   11.0278 O   0  0  0  0  0  0
    4.9548   -9.8322   11.1592 N   0  0  0  0  0  0
   -0.6682   -8.9196    7.0462 N   0  3  0  0  0  0
    0.1257  -10.4619    8.4958 N   0  0  0  0  0  0
    5.1718   -3.9089   14.5293 H   0  0  0  0  0  0
    3.3794   -9.3425   13.1024 H   0  0  0  0  0  0
    3.0633   -7.6168   13.1846 H   0  0  0  0  0  0
    3.2092   -8.5651   14.6838 H   0  0  0  0  0  0
    9.1352   -5.6006   14.8889 H   0  0  0  0  0  0
    9.6989   -6.5872   13.5379 H   0  0  0  0  0  0
    9.6655   -7.2474   15.2101 H   0  0  0  0  0  0
    8.6255  -10.3355   13.1776 H   0  0  0  0  0  0
    9.3106   -9.3815   14.4470 H   0  0  0  0  0  0
    9.4124   -8.8151   12.7436 H   0  0  0  0  0  0
  1 30  1  0  0  0
  1 51  1  0  0  0
  1 52  1  0  0  0
  1 53  1  0  0  0
  2 31  1  0  0  0
  3 33  1  0  0  0
  3 54  1  0  0  0
  3 55  1  0  0  0
  3 56  1  0  0  0
  4 34  1  0  0  0
  4 57  1  0  0  0
  4 58  1  0  0  0
  4 59  1  0  0  0
  5  6  1  0  0  0
  5 32  1  0  0  0
  6  7  1  0  0  0
  6 35  1  0  0  0
  6 50  1  0  0  0
  8 37  1  0  0  0
  9 38  1  0  0  0
 10 38  1  0  0  0
 11 40  1  0  0  0
 12 41  1  0  0  0
 13 43  1  0  0  0
 14 44  1  0  0  0
 15 47  1  0  0  0
 16 48  1  0  0  0
 17 48  1  0  0  0
 18 49  1  0  0  0
 19 49  1  0  0  0
 20 21  1  0  0  0
 20 22  1  0  0  0
 20 36  1  0  0  0
 22 23  1  0  0  0
 22 24  1  0  0  0
 22 25  1  0  0  0
 26 27  2  0  0  0
 26 28  2  0  0  0
 26 29  1  0  0  0
 26 47  1  0  0  0
 29 30  1  0  0  0
 29 34  2  0  0  0
 30 31  2  0  0  0
 31 32  1  0  0  0
 32 33  2  0  0  0
 33 34  1  0  0  0
 36 37  1  0  0  0
 36 46  2  0  0  0
 37 38  1  0  0  0
 37 47  1  0  0  0
 38 39  1  0  0  0
 39 40  2  0  0  0
 39 41  1  0  0  0
 40 42  1  0  0  0
 41 43  2  0  0  0
 42 44  2  0  0  0
 42 45  1  0  0  0
 43 44  1  0  0  0
 45 48  2  0  0  0
 45 49  1  0  0  0
M  CHG  1  48   1
M  END
>  <ACTIVITY>
4.77

>  <SET>
1

>  <Min_dist>
999.9

>  <Avg_dist>
999.9

$$$$
69
  Cerius2 12110214423D 1   1.00000                          
Structure written by Cerius2 SD Exporter
 47 48  0  0  0  0  0  0  0  0999 V2000
    5.2515   -9.8094   12.1117 H   0  0  0  0  0  0
    6.7901   -9.3549   10.3565 H   0  0  0  0  0  0
    5.2795  -10.4707    8.5209 H   0  0  0  0  0  0
    6.1751   -9.0471    8.0085 H   0  0  0  0  0  0
    2.8083  -10.3633    8.5170 H   0  0  0  0  0  0
    5.1001   -6.8323    7.7201 H   0  0  0  0  0  0
    3.0603   -5.6661    6.9820 H   0  0  0  0  0  0
    0.8725   -6.7553    7.1645 H   0  0  0  0  0  0
    3.8946   -9.7919   10.9991 H   0  0  0  0  0  0
   -1.5885   -9.3740    7.0531 H   0  0  0  0  0  0
   -0.5431   -8.0751    6.4756 H   0  0  0  0  0  0
    0.8781  -10.8515    9.0890 H   0  0  0  0  0  0
   -0.7708  -10.9700    8.4690 H   0  0  0  0  0  0
    7.5562   -6.2542    8.4080 H   0  0  0  0  0  0
    7.8368   -7.8382    9.1235 H   0  0  0  0  0  0
    9.6762   -6.3211    9.7348 H   0  0  0  0  0  0
    8.7515   -6.8007   11.1896 H   0  0  0  0  0  0
    8.4327   -4.1536    9.6327 H   0  0  0  0  0  0
    9.5561   -4.1433   11.4825 C   0  0  0  0  0  0
    6.8275   -3.5182   11.4439 H   0  0  0  0  0  0
    7.0464   -5.1122   12.2211 H   0  0  0  0  0  0
    4.9562   -5.0817   10.8548 H   0  0  0  0  0  0
    5.8874   -4.6337    9.4164 H   0  0  0  0  0  0
    5.5033   -7.6106   10.4697 C   0  0  0  0  0  0
    5.7429   -9.0723   10.1540 C   0  0  0  0  0  0
    5.3692   -9.3838    8.6740 C   0  0  0  0  0  0
    4.0821   -8.6734    8.2153 C   0  0  0  0  0  0
    2.8421   -9.3242    8.2113 C   0  0  0  0  0  0
    4.1492   -7.3508    7.7614 C   0  0  0  0  0  0
    1.6675   -8.6700    7.8087 C   0  0  0  0  0  0
    2.9960   -6.6852    7.3511 C   0  0  0  0  0  0
    1.7579   -7.3258    7.4160 C   0  0  0  0  0  0
    0.3221   -9.3823    7.7871 C   0  0  0  0  0  0
    4.4922   -7.3970   11.1178 O   0  0  0  0  0  0
    4.9617   -9.9345   11.0759 N   0  3  0  0  0  0
   -0.6663   -8.9103    7.0626 N   0  3  0  0  0  0
    0.1334  -10.4716    8.4901 N   0  0  0  0  0  0
    6.3161   -6.5819   10.0687 N   0  0  0  0  0  0
    7.5820   -6.8019    9.3640 C   0  0  0  0  0  0
    8.7085   -6.2193   10.2543 C   0  0  0  0  0  0
    8.4321   -4.7256   10.5782 C   0  0  0  0  0  0
    7.0406   -4.5830   11.2555 C   0  0  0  0  0  0
    5.9344   -5.1989   10.3619 C   0  0  0  0  0  0
   10.5380   -4.2341   10.9870 H   0  0  0  0  0  0
    9.5982   -4.6811   12.4442 H   0  0  0  0  0  0
    9.3698   -3.0757   11.6862 H   0  0  0  0  0  0
    5.1236  -10.9819   10.8962 H   0  0  0  0  0  0
  1 35  1  0  0  0
  2 25  1  0  0  0
  3 26  1  0  0  0
  4 26  1  0  0  0
  5 28  1  0  0  0
  6 29  1  0  0  0
  7 31  1  0  0  0
  8 32  1  0  0  0
  9 35  1  0  0  0
 10 36  1  0  0  0
 11 36  1  0  0  0
 12 37  1  0  0  0
 13 37  1  0  0  0
 14 39  1  0  0  0
 15 39  1  0  0  0
 16 40  1  0  0  0
 17 40  1  0  0  0
 18 41  1  0  0  0
 19 41  1  0  0  0
 19 44  1  0  0  0
 19 45  1  0  0  0
 19 46  1  0  0  0
 20 42  1  0  0  0
 21 42  1  0  0  0
 22 43  1  0  0  0
 23 43  1  0  0  0
 24 25  1  0  0  0
 24 34  2  0  0  0
 24 38  1  0  0  0
 25 26  1  0  0  0
 25 35  1  0  0  0
 26 27  1  0  0  0
 27 28  2  0  0  0
 27 29  1  0  0  0
 28 30  1  0  0  0
 29 31  2  0  0  0
 30 32  2  0  0  0
 30 33  1  0  0  0
 31 32  1  0  0  0
 33 36  2  0  0  0
 33 37  1  0  0  0
 35 47  1  0  0  0
 38 39  1  0  0  0
 38 43  1  0  0  0
 39 40  1  0  0  0
 40 41  1  0  0  0
 41 42  1  0  0  0
 42 43  1  0  0  0
M  CHG  2  35   1  36   1
M  END
>  <ACTIVITY>
4.57

>  <SET>
1

>  <Min_dist>
999.9

>  <Avg_dist>
999.9

$$$$
70
  Cerius2 12110214423D 1   1.00000                          
Structure written by Cerius2 SD Exporter
 47 49  0  0  0  0  0  0  0  0999 V2000
    5.4201   -4.8870   14.5879 C   0  0  0  0  0  0
    6.2278   -3.8993   15.1574 C   0  0  0  0  0  0
    7.5713   -4.1694   15.4311 C   0  0  0  0  0  0
    8.1034   -5.4286   15.1332 C   0  0  0  0  0  0
    6.4190   -9.7649   10.5777 H   0  0  0  0  0  0
    5.2204  -10.4596    8.6433 H   0  0  0  0  0  0
    6.2112   -9.1008    8.0848 H   0  0  0  0  0  0
    2.8402  -10.3606    8.4638 H   0  0  0  0  0  0
    5.1381   -6.8153    7.7621 H   0  0  0  0  0  0
    3.0828   -5.6430    7.0286 H   0  0  0  0  0  0
    0.8976   -6.7070    7.2520 H   0  0  0  0  0  0
    3.6856   -8.5855   10.7845 H   0  0  0  0  0  0
   -1.6095   -9.3698    7.1063 H   0  0  0  0  0  0
   -0.5895   -8.0637    6.5268 H   0  0  0  0  0  0
    0.8496  -10.8854    9.0597 H   0  0  0  0  0  0
   -0.7887  -10.9755    8.4335 H   0  0  0  0  0  0
    7.5906   -7.6002   10.0445 O   0  5  0  0  0  0
    4.6176   -9.6480   12.7128 S   0  0  0  0  0  0
    5.3116  -10.9206   12.6987 O   0  0  0  0  0  0
    3.3026   -9.5541   13.3150 O   0  0  0  0  0  0
    7.8236   -7.6795   14.2574 C   0  0  0  0  0  0
    7.0133   -8.6669   13.6893 C   0  0  0  0  0  0
    5.6656   -8.4055   13.4325 C   0  0  0  0  0  0
    5.1420   -7.1419   13.7196 C   0  0  0  0  0  0
    5.9486   -6.1480   14.2884 C   0  0  0  0  0  0
    7.2969   -6.4195   14.5603 C   0  0  0  0  0  0
    4.3780   -4.6625   14.3817 H   0  0  0  0  0  0
    6.3645   -7.6753   10.3308 C   0  0  0  0  0  0
    5.6923   -9.0205   10.2102 C   0  0  0  0  0  0
    5.3583   -9.3697    8.7308 C   0  0  0  0  0  0
    4.0922   -8.6522    8.2287 C   0  0  0  0  0  0
    2.8541   -9.3111    8.1950 C   0  0  0  0  0  0
    4.1796   -7.3271    7.7921 C   0  0  0  0  0  0
    1.6666   -8.6581    7.8229 C   0  0  0  0  0  0
    3.0193   -6.6643    7.3944 C   0  0  0  0  0  0
    1.7765   -7.3034    7.4703 C   0  0  0  0  0  0
    0.3172   -9.3746    7.7988 C   0  0  0  0  0  0
    5.6823   -6.6919   10.7219 O   0  0  0  0  0  0
    4.5245   -9.0411   11.0831 N   0  0  0  0  0  0
   -0.6900   -8.9030    7.1026 N   0  3  0  0  0  0
    0.1167  -10.4831    8.4712 N   0  0  0  0  0  0
    5.8137   -2.9227   15.3888 H   0  0  0  0  0  0
    8.2004   -3.4040   15.8743 H   0  0  0  0  0  0
    9.1481   -5.6248   15.3519 H   0  0  0  0  0  0
    8.8667   -7.9040   14.4607 H   0  0  0  0  0  0
    7.4351   -9.6373   13.4490 H   0  0  0  0  0  0
    4.0998   -6.9406   13.4950 H   0  0  0  0  0  0
  1  2  1  0  0  0
  1 25  2  0  0  0
  1 27  1  0  0  0
  2  3  2  0  0  0
  2 42  1  0  0  0
  3  4  1  0  0  0
  3 43  1  0  0  0
  4 26  2  0  0  0
  4 44  1  0  0  0
  5 29  1  0  0  0
  6 30  1  0  0  0
  7 30  1  0  0  0
  8 32  1  0  0  0
  9 33  1  0  0  0
 10 35  1  0  0  0
 11 36  1  0  0  0
 12 39  1  0  0  0
 13 40  1  0  0  0
 14 40  1  0  0  0
 15 41  1  0  0  0
 16 41  1  0  0  0
 17 28  1  0  0  0
 18 19  2  0  0  0
 18 20  2  0  0  0
 18 23  1  0  0  0
 18 39  1  0  0  0
 21 22  2  0  0  0
 21 26  1  0  0  0
 21 45  1  0  0  0
 22 23  1  0  0  0
 22 46  1  0  0  0
 23 24  2  0  0  0
 24 25  1  0  0  0
 24 47  1  0  0  0
 25 26  1  0  0  0
 28 29  1  0  0  0
 28 38  2  0  0  0
 29 30  1  0  0  0
 29 39  1  0  0  0
 30 31  1  0  0  0
 31 32  2  0  0  0
 31 33  1  0  0  0
 32 34  1  0  0  0
 33 35  2  0  0  0
 34 36  2  0  0  0
 34 37  1  0  0  0
 35 36  1  0  0  0
 37 40  2  0  0  0
 37 41  1  0  0  0
M  CHG  2  17  -1  40   1
M  END
>  <ACTIVITY>
4.52

>  <SET>
2

>  <Min_dist>
0.08

>  <Avg_dist>
0.37

$$$$
71
  Cerius2 12110214423D 1   1.00000                          
Structure written by Cerius2 SD Exporter
 66 70  0  0  0  0  0  0  0  0999 V2000
    3.8332   -6.3487   15.1613 C   0  0  0  0  0  0
    4.0116   -5.1397   15.8403 C   0  0  0  0  0  0
    5.2906   -4.5925   15.9670 C   0  0  0  0  0  0
    6.3921   -5.2759   15.4458 C   0  0  0  0  0  0
    6.8026   -9.6448   10.1651 H   0  0  0  0  0  0
    5.1564  -10.6731    8.4591 H   0  0  0  0  0  0
    6.0823   -9.2975    7.8584 H   0  0  0  0  0  0
    2.7064  -10.4823    8.5277 H   0  0  0  0  0  0
    5.0747   -6.9774    7.7658 H   0  0  0  0  0  0
    3.0253   -5.7091    7.2253 H   0  0  0  0  0  0
    0.8147   -6.8065    7.3346 H   0  0  0  0  0  0
    4.0037  -10.2000   10.8211 H   0  0  0  0  0  0
   -1.6400   -9.3576    7.1395 H   0  0  0  0  0  0
   -0.5691   -8.0381    6.6380 H   0  0  0  0  0  0
    0.8682  -10.9518    9.0802 H   0  0  0  0  0  0
   -0.8060  -11.0454    8.5074 H   0  0  0  0  0  0
   10.0435   -6.4716    8.7050 C   0  0  0  0  0  0
   10.2704   -7.6763    8.4157 O   0  5  0  0  0  0
    9.2439   -4.0849    9.4368 H   0  0  0  0  0  0
    6.4548   -6.8356   10.1986 N   0  0  0  0  0  0
    7.7505   -7.2060    9.6047 C   0  0  0  0  0  0
    5.6537  -10.5341   12.6558 S   0  0  0  0  0  0
    6.9534  -11.1419   12.4478 O   0  0  0  0  0  0
    4.6314  -11.2840   13.3588 O   0  0  0  0  0  0
    7.3280   -7.2345   14.3520 C   0  0  0  0  0  0
    7.1543   -8.4673   13.7175 C   0  0  0  0  0  0
    5.8704   -8.9721   13.4938 C   0  0  0  0  0  0
    4.7629   -8.2366   13.9287 C   0  0  0  0  0  0
    4.9328   -7.0347   14.6294 C   0  0  0  0  0  0
    6.2205   -6.5113   14.8087 C   0  0  0  0  0  0
    2.8303   -6.7507   15.0561 H   0  0  0  0  0  0
    5.5481   -7.8441   10.4039 C   0  0  0  0  0  0
    5.7663   -9.2991   10.0410 C   0  0  0  0  0  0
    5.3061   -9.5887    8.5809 C   0  0  0  0  0  0
    4.0275   -8.8161    8.2100 C   0  0  0  0  0  0
    2.7735   -9.4393    8.2401 C   0  0  0  0  0  0
    4.1109   -7.4734    7.8238 C   0  0  0  0  0  0
    1.6140   -8.7379    7.8895 C   0  0  0  0  0  0
    2.9550   -6.7550    7.5079 C   0  0  0  0  0  0
    1.7076   -7.3828    7.5552 C   0  0  0  0  0  0
    0.2661   -9.4356    7.8619 C   0  0  0  0  0  0
    4.4436   -7.6975   10.8939 O   0  0  0  0  0  0
    4.9762  -10.0567   11.0070 N   0  0  0  0  0  0
   -0.7128   -8.9074    7.1728 N   0  3  0  0  0  0
    0.0997  -10.5525    8.5222 N   0  0  0  0  0  0
    8.7524   -6.1203    9.3295 C   0  0  0  0  0  0
    8.4952   -4.8514    9.6401 C   0  0  0  0  0  0
    6.9750   -3.1268   10.5705 C   0  0  0  0  0  0
    5.7785   -2.7020   11.1452 C   0  0  0  0  0  0
    4.7914   -3.6468   11.4121 C   0  0  0  0  0  0
    5.0033   -4.9942   11.1090 C   0  0  0  0  0  0
    3.1581   -4.6240   16.2702 H   0  0  0  0  0  0
    5.4283   -3.6400   16.4705 H   0  0  0  0  0  0
    7.3806   -4.8373   15.5438 H   0  0  0  0  0  0
    8.3328   -6.8473   14.4913 H   0  0  0  0  0  0
    8.0245   -9.0334   13.4044 H   0  0  0  0  0  0
    3.7672   -8.6140   13.7212 H   0  0  0  0  0  0
    6.2013   -5.4542   10.5277 C   0  0  0  0  0  0
    7.1761   -4.4784   10.2677 C   0  0  0  0  0  0
    7.5934   -7.6861    8.6286 H   0  0  0  0  0  0
    8.2832   -7.8995   10.2731 H   0  0  0  0  0  0
    7.7468   -2.3932   10.3610 H   0  0  0  0  0  0
    5.6149   -1.6556   11.3813 H   0  0  0  0  0  0
    3.8524   -3.3306   11.8582 H   0  0  0  0  0  0
    4.1655   -5.6155   11.3655 H   0  0  0  0  0  0
   10.8861   -5.5622    8.4758 O   0  0  0  0  0  0
  1  2  1  0  0  0
  1 29  2  0  0  0
  1 31  1  0  0  0
  2  3  2  0  0  0
  2 52  1  0  0  0
  3  4  1  0  0  0
  3 53  1  0  0  0
  4 30  2  0  0  0
  4 54  1  0  0  0
  5 33  1  0  0  0
  6 34  1  0  0  0
  7 34  1  0  0  0
  8 36  1  0  0  0
  9 37  1  0  0  0
 10 39  1  0  0  0
 11 40  1  0  0  0
 12 43  1  0  0  0
 13 44  1  0  0  0
 14 44  1  0  0  0
 15 45  1  0  0  0
 16 45  1  0  0  0
 17 18  1  0  0  0
 17 46  1  0  0  0
 17 66  2  0  0  0
 19 47  1  0  0  0
 20 21  1  0  0  0
 20 32  1  0  0  0
 20 58  1  0  0  0
 21 46  1  0  0  0
 21 60  1  0  0  0
 21 61  1  0  0  0
 22 23  2  0  0  0
 22 24  2  0  0  0
 22 27  1  0  0  0
 22 43  1  0  0  0
 25 26  2  0  0  0
 25 30  1  0  0  0
 25 55  1  0  0  0
 26 27  1  0  0  0
 26 56  1  0  0  0
 27 28  2  0  0  0
 28 29  1  0  0  0
 28 57  1  0  0  0
 29 30  1  0  0  0
 32 33  1  0  0  0
 32 42  2  0  0  0
 33 34  1  0  0  0
 33 43  1  0  0  0
 34 35  1  0  0  0
 35 36  2  0  0  0
 35 37  1  0  0  0
 36 38  1  0  0  0
 37 39  2  0  0  0
 38 40  2  0  0  0
 38 41  1  0  0  0
 39 40  1  0  0  0
 41 44  2  0  0  0
 41 45  1  0  0  0
 46 47  2  0  0  0
 47 59  1  0  0  0
 48 49  1  0  0  0
 48 59  2  0  0  0
 48 62  1  0  0  0
 49 50  2  0  0  0
 49 63  1  0  0  0
 50 51  1  0  0  0
 50 64  1  0  0  0
 51 58  2  0  0  0
 51 65  1  0  0  0
 58 59  1  0  0  0
M  CHG  2  18  -1  44   1
M  END
>  <ACTIVITY>
4.46

>  <SET>
2

>  <Min_dist>
0.22

>  <Avg_dist>
0.34

$$$$
72
  Cerius2 12110214423D 1   1.00000                          
Structure written by Cerius2 SD Exporter
 55 56  0  0  0  0  0  0  0  0999 V2000
    3.8010   -6.8540   13.5442 C   0  0  0  0  0  0
    5.5482   -5.1711   14.5740 H   0  0  0  0  0  0
    8.2402   -5.0817   15.1271 C   0  0  0  0  0  0
    8.0903   -9.8596   13.6814 C   0  0  0  0  0  0
    9.0840   -7.5510   14.4323 H   0  0  0  0  0  0
    7.6415   -4.1679   15.2765 H   0  0  0  0  0  0
    9.0648   -4.8478   14.4307 H   0  0  0  0  0  0
    6.5992   -9.4818   10.4805 H   0  0  0  0  0  0
    5.1894  -10.4552    8.8002 H   0  0  0  0  0  0
    6.1816   -9.2189    7.9897 H   0  0  0  0  0  0
    2.8608  -10.4070    8.3034 H   0  0  0  0  0  0
    5.1470   -6.8241    7.6779 H   0  0  0  0  0  0
    3.0608   -5.6098    7.1024 H   0  0  0  0  0  0
    0.8630   -6.6935    7.4079 H   0  0  0  0  0  0
    3.7833   -8.5476   10.8142 H   0  0  0  0  0  0
   -1.5988   -9.3348    7.1678 H   0  0  0  0  0  0
   -0.5867   -7.9828    6.6367 H   0  0  0  0  0  0
    0.9674  -10.9415    8.9631 H   0  0  0  0  0  0
   -0.7061  -11.0291    8.3936 H   0  0  0  0  0  0
    7.5780   -7.2550    9.6115 N   0  0  0  0  0  0
    8.1434   -8.0212    9.3000 H   0  0  0  0  0  0
    8.1864   -5.9280    9.5639 C   0  0  0  0  0  0
    7.5016   -5.1257    9.8848 H   0  0  0  0  0  0
    8.5077   -5.7103    8.5321 H   0  0  0  0  0  0
    9.0731   -5.9052   10.2201 H   0  0  0  0  0  0
    4.9258   -9.6669   12.6554 S   0  0  0  0  0  0
    5.6824  -10.8770   12.3992 O   0  0  0  0  0  0
    3.6557   -9.8014   13.3556 O   0  0  0  0  0  0
    5.9197   -8.3849   13.4659 C   0  0  0  0  0  0
    5.2958   -7.1573   13.7663 C   0  0  0  0  0  0
    6.0369   -6.1080   14.3202 C   0  0  0  0  0  0
    7.4059   -6.2391   14.5583 C   0  0  0  0  0  0
    8.0140   -7.4594   14.2693 C   0  0  0  0  0  0
    7.2822   -8.5533   13.7893 C   0  0  0  0  0  0
    8.6643   -5.3852   16.0957 H   0  0  0  0  0  0
    6.3173   -7.4391   10.0886 C   0  0  0  0  0  0
    5.7758   -8.8458   10.1194 C   0  0  0  0  0  0
    5.3673   -9.3707    8.7156 C   0  0  0  0  0  0
    4.1079   -8.6616    8.1807 C   0  0  0  0  0  0
    2.8803   -9.3369    8.1218 C   0  0  0  0  0  0
    4.1842   -7.3308    7.7586 C   0  0  0  0  0  0
    1.6881   -8.6543    7.8232 C   0  0  0  0  0  0
    3.0069   -6.6443    7.4372 C   0  0  0  0  0  0
    1.7667   -7.2826    7.5413 C   0  0  0  0  0  0
    0.3478   -9.3795    7.8031 C   0  0  0  0  0  0
    5.6076   -6.5368   10.4838 O   0  0  0  0  0  0
    4.6691   -8.9290   11.0698 N   0  0  0  0  0  0
   -0.6797   -8.8624    7.1619 N   0  3  0  0  0  0
    0.1959  -10.5225    8.4214 N   0  0  0  0  0  0
    3.2766   -7.5180   12.8503 H   0  0  0  0  0  0
    3.6879   -5.8358   13.1458 H   0  0  0  0  0  0
    3.2990   -6.9089   14.5234 H   0  0  0  0  0  0
    7.4844  -10.7698   13.7543 H   0  0  0  0  0  0
    8.8077   -9.9244   14.5166 H   0  0  0  0  0  0
    8.6588   -9.8571   12.7403 H   0  0  0  0  0  0
  1 30  1  0  0  0
  1 50  1  0  0  0
  1 51  1  0  0  0
  1 52  1  0  0  0
  2 31  1  0  0  0
  3  6  1  0  0  0
  3  7  1  0  0  0
  3 32  1  0  0  0
  3 35  1  0  0  0
  4 34  1  0  0  0
  4 53  1  0  0  0
  4 54  1  0  0  0
  4 55  1  0  0  0
  5 33  1  0  0  0
  8 37  1  0  0  0
  9 38  1  0  0  0
 10 38  1  0  0  0
 11 40  1  0  0  0
 12 41  1  0  0  0
 13 43  1  0  0  0
 14 44  1  0  0  0
 15 47  1  0  0  0
 16 48  1  0  0  0
 17 48  1  0  0  0
 18 49  1  0  0  0
 19 49  1  0  0  0
 20 21  1  0  0  0
 20 22  1  0  0  0
 20 36  1  0  0  0
 22 23  1  0  0  0
 22 24  1  0  0  0
 22 25  1  0  0  0
 26 27  2  0  0  0
 26 28  2  0  0  0
 26 29  1  0  0  0
 26 47  1  0  0  0
 29 30  1  0  0  0
 29 34  2  0  0  0
 30 31  2  0  0  0
 31 32  1  0  0  0
 32 33  2  0  0  0
 33 34  1  0  0  0
 36 37  1  0  0  0
 36 46  2  0  0  0
 37 38  1  0  0  0
 37 47  1  0  0  0
 38 39  1  0  0  0
 39 40  2  0  0  0
 39 41  1  0  0  0
 40 42  1  0  0  0
 41 43  2  0  0  0
 42 44  2  0  0  0
 42 45  1  0  0  0
 43 44  1  0  0  0
 45 48  2  0  0  0
 45 49  1  0  0  0
M  CHG  1  48   1
M  END
>  <ACTIVITY>
4.36

>  <SET>
2

>  <Min_dist>
0.05

>  <Avg_dist>
0.37

$$$$
73
  Cerius2 12110214423D 1   1.00000                          
Structure written by Cerius2 SD Exporter
 67 70  0  0  0  0  0  0  0  0999 V2000
    3.8978   -6.3615   15.2928 C   0  0  0  0  0  0
    4.0698   -5.1468   15.9624 C   0  0  0  0  0  0
    5.3393   -4.5695   16.0418 C   0  0  0  0  0  0
    6.4342   -5.2079   15.4532 C   0  0  0  0  0  0
    6.7644   -9.3112   10.4049 H   0  0  0  0  0  0
    5.2604  -10.4920    8.6516 H   0  0  0  0  0  0
    6.1764   -9.1087    8.0440 H   0  0  0  0  0  0
    2.8060  -10.3941    8.5087 H   0  0  0  0  0  0
    5.1159   -6.8597    7.7445 H   0  0  0  0  0  0
    3.0655   -5.6581    7.0780 H   0  0  0  0  0  0
    0.8702   -6.7624    7.2343 H   0  0  0  0  0  0
    3.9552   -9.9173   10.9724 H   0  0  0  0  0  0
   -1.5681   -9.3627    7.0728 H   0  0  0  0  0  0
   -0.5145   -8.0496    6.5307 H   0  0  0  0  0  0
    0.9199  -10.8739    9.0820 H   0  0  0  0  0  0
   -0.7388  -10.9930    8.4782 H   0  0  0  0  0  0
    7.6761   -6.1867    8.5456 H   0  0  0  0  0  0
    7.8423   -7.8204    9.1655 H   0  0  0  0  0  0
    9.6916   -6.4403   10.0565 H   0  0  0  0  0  0
    8.6054   -6.8541   11.4008 H   0  0  0  0  0  0
    9.3986   -3.7285   10.1244 S   0  0  0  0  0  0
    8.8979   -2.4169   10.4842 O   0  0  0  0  0  0
    6.9009   -3.4506   11.3767 H   0  0  0  0  0  0
    6.9962   -4.9563   12.3032 H   0  0  0  0  0  0
    4.9731   -5.0233   10.8940 H   0  0  0  0  0  0
    5.9163   -4.6041    9.4561 H   0  0  0  0  0  0
    5.6608  -10.4210   12.6246 S   0  0  0  0  0  0
    6.9451  -11.0219   12.3190 O   0  0  0  0  0  0
    4.6678  -11.1893   13.3483 O   0  0  0  0  0  0
    7.3600   -7.0761   14.1973 C   0  0  0  0  0  0
    7.1865   -8.2980   13.5403 C   0  0  0  0  0  0
    5.9176   -8.8786   13.4663 C   0  0  0  0  0  0
    4.8242   -8.2230   14.0361 C   0  0  0  0  0  0
    4.9934   -7.0051   14.7041 C   0  0  0  0  0  0
    6.2672   -6.4270   14.7854 C   0  0  0  0  0  0
    2.9058   -6.7986   15.2368 H   0  0  0  0  0  0
    5.4818   -7.5527   10.4825 C   0  0  0  0  0  0
    5.7234   -9.0253   10.1972 C   0  0  0  0  0  0
    5.3647   -9.3983    8.7283 C   0  0  0  0  0  0
    4.0851   -8.6927    8.2450 C   0  0  0  0  0  0
    2.8480   -9.3483    8.2274 C   0  0  0  0  0  0
    4.1595   -7.3685    7.7991 C   0  0  0  0  0  0
    1.6777   -8.6795    7.8398 C   0  0  0  0  0  0
    3.0018   -6.6877    7.4169 C   0  0  0  0  0  0
    1.7632   -7.3304    7.4735 C   0  0  0  0  0  0
    0.3363   -9.3917    7.8102 C   0  0  0  0  0  0
    4.4437   -7.3248   11.0843 O   0  0  0  0  0  0
    4.9369   -9.8129   11.1378 N   0  0  0  0  0  0
   -0.6465   -8.9005    7.0957 N   0  3  0  0  0  0
    0.1629  -10.4929    8.4974 N   0  0  0  0  0  0
    6.3222   -6.5441   10.1108 N   0  0  0  0  0  0
    7.6146   -6.7916    9.4610 C   0  0  0  0  0  0
    8.6798   -6.2878   10.4586 C   0  0  0  0  0  0
    8.3581   -4.8855   10.6946 N   0  0  0  0  0  0
    7.0676   -4.5348   11.2891 C   0  0  0  0  0  0
    5.9538   -5.1535   10.4083 C   0  0  0  0  0  0
    9.6634   -4.0111    8.7263 O   0  0  0  0  0  0
   10.9308   -3.9903   11.0417 C   0  0  0  0  0  0
   10.7423   -3.8610   12.1155 H   0  0  0  0  0  0
    3.2179   -4.6528   16.4199 H   0  0  0  0  0  0
    5.4739   -3.6260   16.5626 H   0  0  0  0  0  0
    7.4148   -4.7459   15.5212 H   0  0  0  0  0  0
    8.3518   -6.6370   14.2462 H   0  0  0  0  0  0
    8.0393   -8.7933   13.0900 H   0  0  0  0  0  0
    3.8405   -8.6725   13.9531 H   0  0  0  0  0  0
   11.6733   -3.2488   10.7124 H   0  0  0  0  0  0
   11.3399   -4.9919   10.8610 H   0  0  0  0  0  0
  1  2  1  0  0  0
  1 34  2  0  0  0
  1 36  1  0  0  0
  2  3  2  0  0  0
  2 60  1  0  0  0
  3  4  1  0  0  0
  3 61  1  0  0  0
  4 35  2  0  0  0
  4 62  1  0  0  0
  5 38  1  0  0  0
  6 39  1  0  0  0
  7 39  1  0  0  0
  8 41  1  0  0  0
  9 42  1  0  0  0
 10 44  1  0  0  0
 11 45  1  0  0  0
 12 48  1  0  0  0
 13 49  1  0  0  0
 14 49  1  0  0  0
 15 50  1  0  0  0
 16 50  1  0  0  0
 17 52  1  0  0  0
 18 52  1  0  0  0
 19 53  1  0  0  0
 20 53  1  0  0  0
 21 22  2  0  0  0
 21 54  1  0  0  0
 21 57  2  0  0  0
 21 58  1  0  0  0
 23 55  1  0  0  0
 24 55  1  0  0  0
 25 56  1  0  0  0
 26 56  1  0  0  0
 27 28  2  0  0  0
 27 29  2  0  0  0
 27 32  1  0  0  0
 27 48  1  0  0  0
 30 31  2  0  0  0
 30 35  1  0  0  0
 30 63  1  0  0  0
 31 32  1  0  0  0
 31 64  1  0  0  0
 32 33  2  0  0  0
 33 34  1  0  0  0
 33 65  1  0  0  0
 34 35  1  0  0  0
 37 38  1  0  0  0
 37 47  2  0  0  0
 37 51  1  0  0  0
 38 39  1  0  0  0
 38 48  1  0  0  0
 39 40  1  0  0  0
 40 41  2  0  0  0
 40 42  1  0  0  0
 41 43  1  0  0  0
 42 44  2  0  0  0
 43 45  2  0  0  0
 43 46  1  0  0  0
 44 45  1  0  0  0
 46 49  2  0  0  0
 46 50  1  0  0  0
 51 52  1  0  0  0
 51 56  1  0  0  0
 52 53  1  0  0  0
 53 54  1  0  0  0
 54 55  1  0  0  0
 55 56  1  0  0  0
 58 59  1  0  0  0
 58 66  1  0  0  0
 58 67  1  0  0  0
M  CHG  1  49   1
M  END
>  <ACTIVITY>
8.48

>  <SET>
1

>  <Min_dist>
999.9

>  <Avg_dist>
999.9

$$$$
74
  Cerius2 12110214423D 1   1.00000                          
Structure written by Cerius2 SD Exporter
 60 62  0  0  0  0  0  0  0  0999 V2000
    3.8988   -6.3688   15.2982 C   0  0  0  0  0  0
    4.0658   -5.1533   15.9682 C   0  0  0  0  0  0
    5.3338   -4.5728   16.0525 C   0  0  0  0  0  0
    6.4317   -5.2084   15.4659 C   0  0  0  0  0  0
    6.7736   -9.2043   10.3118 H   0  0  0  0  0  0
    5.1702  -10.5211    8.7064 H   0  0  0  0  0  0
    6.1284   -9.1894    8.0346 H   0  0  0  0  0  0
    2.7494  -10.4094    8.4893 H   0  0  0  0  0  0
    5.1040   -6.9040    7.7499 H   0  0  0  0  0  0
    3.0645   -5.6799    7.0573 H   0  0  0  0  0  0
    0.8560   -6.7579    7.2149 H   0  0  0  0  0  0
    3.9751   -9.9401   10.9915 H   0  0  0  0  0  0
   -1.6094   -9.3617    7.0610 H   0  0  0  0  0  0
   -0.5545   -8.0505    6.5173 H   0  0  0  0  0  0
    0.8729  -10.8715    9.0771 H   0  0  0  0  0  0
   -0.7825  -10.9916    8.4674 H   0  0  0  0  0  0
    6.3218   -6.6522   10.1153 O   0  0  0  0  0  0
    5.9756   -5.2961   10.4962 C   0  0  0  0  0  0
    7.0596   -4.2730   10.0531 C   0  0  0  0  0  0
    6.7451   -2.8209   10.5218 C   0  0  0  0  0  0
    7.8317   -1.8135   10.0572 C   0  0  0  0  0  0
    5.0158   -5.0135   10.0314 H   0  0  0  0  0  0
    5.8653   -5.2377   11.5927 H   0  0  0  0  0  0
    7.1369   -4.2913    8.9529 H   0  0  0  0  0  0
    8.0277   -4.5857   10.4774 H   0  0  0  0  0  0
    5.6927  -10.4123   12.6165 S   0  0  0  0  0  0
    6.9819  -10.9973   12.3025 O   0  0  0  0  0  0
    4.7093  -11.1936   13.3416 O   0  0  0  0  0  0
    7.3626   -7.0638   14.1977 C   0  0  0  0  0  0
    7.1944   -8.2794   13.5299 C   0  0  0  0  0  0
    5.9310   -8.8710   13.4629 C   0  0  0  0  0  0
    4.8342   -8.2271   14.0404 C   0  0  0  0  0  0
    4.9963   -7.0084   14.7092 C   0  0  0  0  0  0
    6.2678   -6.4245   14.7910 C   0  0  0  0  0  0
    2.9083   -6.8093   15.2419 H   0  0  0  0  0  0
    5.4171   -7.5649   10.5232 C   0  0  0  0  0  0
    5.6965   -9.0091   10.1815 C   0  0  0  0  0  0
    5.3105   -9.4289    8.7328 C   0  0  0  0  0  0
    4.0424   -8.7162    8.2410 C   0  0  0  0  0  0
    2.8005   -9.3626    8.2147 C   0  0  0  0  0  0
    4.1374   -7.3953    7.7946 C   0  0  0  0  0  0
    1.6389   -8.6825    7.8260 C   0  0  0  0  0  0
    2.9884   -6.7059    7.4030 C   0  0  0  0  0  0
    1.7416   -7.3354    7.4572 C   0  0  0  0  0  0
    0.2944   -9.3912    7.7989 C   0  0  0  0  0  0
    4.4115   -7.2759   11.1575 O   0  0  0  0  0  0
    4.9559   -9.8161   11.1428 N   0  0  0  0  0  0
   -0.6871   -8.9003    7.0834 N   0  3  0  0  0  0
    0.1190  -10.4909    8.4884 N   0  0  0  0  0  0
    6.6878   -2.7905   11.6226 H   0  0  0  0  0  0
    5.7712   -2.4979   10.1182 H   0  0  0  0  0  0
    7.5836   -0.7959   10.3992 H   0  0  0  0  0  0
    7.9029   -1.8019    8.9587 H   0  0  0  0  0  0
    8.8143   -2.0880   10.4707 H   0  0  0  0  0  0
    3.2120   -4.6609   16.4229 H   0  0  0  0  0  0
    5.4652   -3.6297   16.5739 H   0  0  0  0  0  0
    7.4116   -4.7470   15.5412 H   0  0  0  0  0  0
    8.3533   -6.6222   14.2513 H   0  0  0  0  0  0
    8.0473   -8.7625   13.0652 H   0  0  0  0  0  0
    3.8540   -8.6861   13.9627 H   0  0  0  0  0  0
  1  2  1  0  0  0
  1 33  2  0  0  0
  1 35  1  0  0  0
  2  3  2  0  0  0
  2 55  1  0  0  0
  3  4  1  0  0  0
  3 56  1  0  0  0
  4 34  2  0  0  0
  4 57  1  0  0  0
  5 37  1  0  0  0
  6 38  1  0  0  0
  7 38  1  0  0  0
  8 40  1  0  0  0
  9 41  1  0  0  0
 10 43  1  0  0  0
 11 44  1  0  0  0
 12 47  1  0  0  0
 13 48  1  0  0  0
 14 48  1  0  0  0
 15 49  1  0  0  0
 16 49  1  0  0  0
 17 18  1  0  0  0
 17 36  1  0  0  0
 18 19  1  0  0  0
 18 22  1  0  0  0
 18 23  1  0  0  0
 19 20  1  0  0  0
 19 24  1  0  0  0
 19 25  1  0  0  0
 20 21  1  0  0  0
 20 50  1  0  0  0
 20 51  1  0  0  0
 21 52  1  0  0  0
 21 53  1  0  0  0
 21 54  1  0  0  0
 26 27  2  0  0  0
 26 28  2  0  0  0
 26 31  1  0  0  0
 26 47  1  0  0  0
 29 30  2  0  0  0
 29 34  1  0  0  0
 29 58  1  0  0  0
 30 31  1  0  0  0
 30 59  1  0  0  0
 31 32  2  0  0  0
 32 33  1  0  0  0
 32 60  1  0  0  0
 33 34  1  0  0  0
 36 37  1  0  0  0
 36 46  2  0  0  0
 37 38  1  0  0  0
 37 47  1  0  0  0
 38 39  1  0  0  0
 39 40  2  0  0  0
 39 41  1  0  0  0
 40 42  1  0  0  0
 41 43  2  0  0  0
 42 44  2  0  0  0
 42 45  1  0  0  0
 43 44  1  0  0  0
 45 48  2  0  0  0
 45 49  1  0  0  0
M  CHG  1  48   1
M  END
>  <ACTIVITY>
7.89

>  <SET>
1

>  <Min_dist>
999.9

>  <Avg_dist>
999.9

$$$$
75
  Cerius2 12110214423D 1   1.00000                          
Structure written by Cerius2 SD Exporter
 67 70  0  0  0  0  0  0  0  0999 V2000
    4.5807   -7.9053   13.8326 C   0  0  0  0  0  0
    6.0813   -5.8375   14.9373 C   0  0  0  0  0  0
    9.8525   -7.9129   13.3840 H   0  0  0  0  0  0
    8.5537   -9.8118   12.4926 H   0  0  0  0  0  0
    3.9387   -6.8632   14.5043 C   0  0  0  0  0  0
    4.6907   -5.8280   15.0656 C   0  0  0  0  0  0
    3.9554   -8.6617   13.3801 H   0  0  0  0  0  0
    6.8107   -9.2248   10.3468 H   0  0  0  0  0  0
    5.2919  -10.4102    8.6303 H   0  0  0  0  0  0
    6.1445   -8.9953    8.0003 H   0  0  0  0  0  0
    2.8220  -10.3646    8.6667 H   0  0  0  0  0  0
    5.0045   -6.7709    7.7682 H   0  0  0  0  0  0
    2.8966   -5.6320    7.1782 H   0  0  0  0  0  0
    0.7478   -6.8482    7.3054 H   0  0  0  0  0  0
    3.9960   -9.7988   11.0050 H   0  0  0  0  0  0
   -1.5733   -9.5059    7.2342 H   0  0  0  0  0  0
   -0.5604   -8.1640    6.6737 H   0  0  0  0  0  0
    1.0082  -10.8921    9.2447 H   0  0  0  0  0  0
   -0.6618  -11.0912    8.6844 H   0  0  0  0  0  0
    7.4775   -6.1407    8.3428 H   0  0  0  0  0  0
    7.8282   -7.7198    9.0548 H   0  0  0  0  0  0
    9.6771   -6.1014    9.4622 H   0  0  0  0  0  0
    8.9447   -6.6558   10.9918 H   0  0  0  0  0  0
   10.8141   -3.7262   11.1590 C   0  0  0  0  0  0
    9.4551   -3.4139   10.0198 S   0  0  0  0  0  0
    7.0117   -3.4035   11.4064 H   0  0  0  0  0  0
    7.2843   -4.9802   12.1911 H   0  0  0  0  0  0
    5.0921   -4.9768   11.0514 H   0  0  0  0  0  0
    5.8421   -4.5075    9.5109 H   0  0  0  0  0  0
    5.7723  -10.4650   12.5062 S   0  0  0  0  0  0
    6.7297  -11.4360   12.0094 O   0  0  0  0  0  0
    4.7756  -10.9004   13.4682 O   0  0  0  0  0  0
    6.6423   -9.0343   13.1407 C   0  0  0  0  0  0
    5.9784   -7.9545   13.7461 C   0  0  0  0  0  0
    6.7248   -6.8910   14.2766 C   0  0  0  0  0  0
    8.1187   -6.8785   14.1445 C   0  0  0  0  0  0
    8.7724   -7.9290   13.4978 C   0  0  0  0  0  0
    8.0332   -9.0019   12.9967 C   0  0  0  0  0  0
    6.6551   -5.0176   15.3567 H   0  0  0  0  0  0
    5.5297   -7.4751   10.4615 C   0  0  0  0  0  0
    5.7627   -8.9433   10.1694 C   0  0  0  0  0  0
    5.3695   -9.3148    8.7124 C   0  0  0  0  0  0
    4.0535   -8.6392    8.2942 C   0  0  0  0  0  0
    2.8371   -9.3303    8.3403 C   0  0  0  0  0  0
    4.0685   -7.3128    7.8480 C   0  0  0  0  0  0
    1.6449   -8.7044    7.9566 C   0  0  0  0  0  0
    2.8794   -6.6698    7.4983 C   0  0  0  0  0  0
    1.6686   -7.3627    7.5612 C   0  0  0  0  0  0
    0.3329   -9.4653    7.9600 C   0  0  0  0  0  0
    4.5023   -7.2483   11.0815 O   0  0  0  0  0  0
    4.9876   -9.7280   11.1252 N   0  0  0  0  0  0
   -0.6675   -9.0138    7.2470 N   0  3  0  0  0  0
    0.2197  -10.5570    8.6721 N   0  0  0  0  0  0
    6.3557   -6.4573   10.0785 N   0  0  0  0  0  0
    7.5778   -6.6810    9.2974 C   0  0  0  0  0  0
    8.7642   -6.0707   10.0775 C   0  0  0  0  0  0
    8.4043   -4.7105   10.4515 N   0  0  0  0  0  0
    7.1898   -4.4729   11.2192 C   0  0  0  0  0  0
    6.0017   -5.0803   10.4382 C   0  0  0  0  0  0
    8.8489   -2.1448   10.3709 O   0  0  0  0  0  0
    9.9286   -3.6184    8.6647 O   0  0  0  0  0  0
   10.4393   -3.6952   12.1924 H   0  0  0  0  0  0
   11.5842   -2.9528   11.0259 H   0  0  0  0  0  0
   11.2555   -4.7137   10.9622 H   0  0  0  0  0  0
    2.8570   -6.8547   14.5898 H   0  0  0  0  0  0
    4.1967   -5.0203   15.5967 H   0  0  0  0  0  0
    8.7065   -6.0546   14.5379 H   0  0  0  0  0  0
  1  5  1  0  0  0
  1  7  1  0  0  0
  1 34  2  0  0  0
  2  6  1  0  0  0
  2 35  2  0  0  0
  2 39  1  0  0  0
  3 37  1  0  0  0
  4 38  1  0  0  0
  5  6  2  0  0  0
  5 65  1  0  0  0
  6 66  1  0  0  0
  8 41  1  0  0  0
  9 42  1  0  0  0
 10 42  1  0  0  0
 11 44  1  0  0  0
 12 45  1  0  0  0
 13 47  1  0  0  0
 14 48  1  0  0  0
 15 51  1  0  0  0
 16 52  1  0  0  0
 17 52  1  0  0  0
 18 53  1  0  0  0
 19 53  1  0  0  0
 20 55  1  0  0  0
 21 55  1  0  0  0
 22 56  1  0  0  0
 23 56  1  0  0  0
 24 25  1  0  0  0
 24 62  1  0  0  0
 24 63  1  0  0  0
 24 64  1  0  0  0
 25 57  1  0  0  0
 25 60  2  0  0  0
 25 61  2  0  0  0
 26 58  1  0  0  0
 27 58  1  0  0  0
 28 59  1  0  0  0
 29 59  1  0  0  0
 30 31  2  0  0  0
 30 32  2  0  0  0
 30 33  1  0  0  0
 30 51  1  0  0  0
 33 34  1  0  0  0
 33 38  2  0  0  0
 34 35  1  0  0  0
 35 36  1  0  0  0
 36 37  2  0  0  0
 36 67  1  0  0  0
 37 38  1  0  0  0
 40 41  1  0  0  0
 40 50  2  0  0  0
 40 54  1  0  0  0
 41 42  1  0  0  0
 41 51  1  0  0  0
 42 43  1  0  0  0
 43 44  2  0  0  0
 43 45  1  0  0  0
 44 46  1  0  0  0
 45 47  2  0  0  0
 46 48  2  0  0  0
 46 49  1  0  0  0
 47 48  1  0  0  0
 49 52  2  0  0  0
 49 53  1  0  0  0
 54 55  1  0  0  0
 54 59  1  0  0  0
 55 56  1  0  0  0
 56 57  1  0  0  0
 57 58  1  0  0  0
 58 59  1  0  0  0
M  CHG  1  52   1
M  END
>  <ACTIVITY>
7.59

>  <SET>
1

>  <Min_dist>
999.9

>  <Avg_dist>
999.9

$$$$
76
  Cerius2 12110214423D 1   1.00000                          
Structure written by Cerius2 SD Exporter
 68 71  0  0  0  0  0  0  0  0999 V2000
    3.8910   -6.3576   15.2950 C   0  0  0  0  0  0
    4.0745   -5.1419   15.9571 C   0  0  0  0  0  0
    5.3485   -4.5758   16.0342 C   0  0  0  0  0  0
    6.4418   -5.2400   15.4663 C   0  0  0  0  0  0
    6.7364   -9.4389   10.3517 H   0  0  0  0  0  0
    5.1102  -10.6054    8.6905 H   0  0  0  0  0  0
    6.0682   -9.3172    7.9967 H   0  0  0  0  0  0
    2.7185  -10.4286    8.5004 H   0  0  0  0  0  0
    5.1065   -6.9367    7.7800 H   0  0  0  0  0  0
    3.0834   -5.6804    7.1262 H   0  0  0  0  0  0
    0.8614   -6.7517    7.2438 H   0  0  0  0  0  0
    3.9214   -9.9638   11.0047 H   0  0  0  0  0  0
   -1.6049   -9.3558    7.0659 H   0  0  0  0  0  0
   -0.5436   -8.0384    6.5421 H   0  0  0  0  0  0
    0.8819  -10.8749    9.0846 H   0  0  0  0  0  0
   -0.7751  -11.0002    8.4767 H   0  0  0  0  0  0
    9.1101   -4.5284   10.4953 C   0  0  0  0  0  0
    9.7278   -5.9519   10.5970 C   0  0  0  0  0  0
    8.7551   -7.1664   10.4994 C   0  0  0  0  0  0
    7.6506   -7.0194    9.4069 C   0  0  0  0  0  0
    6.3807   -6.6715   10.0474 N   0  0  0  0  0  0
    6.0617   -5.2785   10.3783 C   0  0  0  0  0  0
    6.7461   -4.8890   11.7204 C   0  0  0  0  0  0
    5.6203  -10.4660   12.6700 S   0  0  0  0  0  0
    6.8969  -11.0810   12.3580 O   0  0  0  0  0  0
    4.6206  -11.2320   13.3905 O   0  0  0  0  0  0
    7.3599   -7.1845   14.3250 C   0  0  0  0  0  0
    7.1763   -8.4127   13.6861 C   0  0  0  0  0  0
    5.8918   -8.9380   13.5322 C   0  0  0  0  0  0
    4.7961   -8.2401   14.0526 C   0  0  0  0  0  0
    4.9777   -7.0260   14.7285 C   0  0  0  0  0  0
    6.2684   -6.4844   14.8431 C   0  0  0  0  0  0
    2.8892   -6.7769   15.2287 H   0  0  0  0  0  0
    5.5227   -7.6434   10.4683 C   0  0  0  0  0  0
    5.6981   -9.1256   10.1809 C   0  0  0  0  0  0
    5.2788   -9.5184    8.7320 C   0  0  0  0  0  0
    4.0340   -8.7528    8.2544 C   0  0  0  0  0  0
    2.7852   -9.3816    8.2317 C   0  0  0  0  0  0
    4.1404   -7.4266    7.8285 C   0  0  0  0  0  0
    1.6348   -8.6835    7.8462 C   0  0  0  0  0  0
    2.9972   -6.7142    7.4493 C   0  0  0  0  0  0
    1.7443   -7.3349    7.4898 C   0  0  0  0  0  0
    0.2920   -9.3924    7.8156 C   0  0  0  0  0  0
    4.5232   -7.3669   11.1118 O   0  0  0  0  0  0
    4.9058   -9.8638   11.1621 N   0  0  0  0  0  0
   -0.6833   -8.8940    7.0988 N   0  3  0  0  0  0
    0.1239  -10.4955    8.4992 N   0  0  0  0  0  0
    8.1012   -4.1156   11.6077 C   0  0  0  0  0  0
    8.6691   -4.3464    9.5089 H   0  0  0  0  0  0
    9.9589   -3.8248   10.5668 H   0  0  0  0  0  0
   10.2913   -6.0383   11.5408 H   0  0  0  0  0  0
   10.4589   -6.0380    9.7755 H   0  0  0  0  0  0
    8.2894   -7.3810   11.4743 H   0  0  0  0  0  0
    9.3724   -8.0542   10.2748 H   0  0  0  0  0  0
    7.5816   -7.9461    8.8266 H   0  0  0  0  0  0
    7.9099   -6.2812    8.6409 H   0  0  0  0  0  0
    3.2270   -4.6337   16.4101 H   0  0  0  0  0  0
    5.4924   -3.6253   16.5375 H   0  0  0  0  0  0
    7.4237   -4.7820   15.5163 H   0  0  0  0  0  0
    8.3663   -6.7776   14.4080 H   0  0  0  0  0  0
    8.0368   -8.9520   13.3026 H   0  0  0  0  0  0
    3.8020   -8.6511   13.9269 H   0  0  0  0  0  0
    4.9714   -5.1616   10.4790 H   0  0  0  0  0  0
    6.3388   -4.5924    9.5647 H   0  0  0  0  0  0
    6.8685   -5.7927   12.3239 H   0  0  0  0  0  0
    6.0662   -4.2457   12.3024 H   0  0  0  0  0  0
    7.8606   -3.0522   11.4198 H   0  0  0  0  0  0
    8.6081   -4.1662   12.5891 H   0  0  0  0  0  0
  1  2  1  0  0  0
  1 31  2  0  0  0
  1 33  1  0  0  0
  2  3  2  0  0  0
  2 57  1  0  0  0
  3  4  1  0  0  0
  3 58  1  0  0  0
  4 32  2  0  0  0
  4 59  1  0  0  0
  5 35  1  0  0  0
  6 36  1  0  0  0
  7 36  1  0  0  0
  8 38  1  0  0  0
  9 39  1  0  0  0
 10 41  1  0  0  0
 11 42  1  0  0  0
 12 45  1  0  0  0
 13 46  1  0  0  0
 14 46  1  0  0  0
 15 47  1  0  0  0
 16 47  1  0  0  0
 17 18  1  0  0  0
 17 48  1  0  0  0
 17 49  1  0  0  0
 17 50  1  0  0  0
 18 19  1  0  0  0
 18 51  1  0  0  0
 18 52  1  0  0  0
 19 20  1  0  0  0
 19 53  1  0  0  0
 19 54  1  0  0  0
 20 21  1  0  0  0
 20 55  1  0  0  0
 20 56  1  0  0  0
 21 22  1  0  0  0
 21 34  1  0  0  0
 22 23  1  0  0  0
 22 63  1  0  0  0
 22 64  1  0  0  0
 23 48  1  0  0  0
 23 65  1  0  0  0
 23 66  1  0  0  0
 24 25  2  0  0  0
 24 26  2  0  0  0
 24 29  1  0  0  0
 24 45  1  0  0  0
 27 28  2  0  0  0
 27 32  1  0  0  0
 27 60  1  0  0  0
 28 29  1  0  0  0
 28 61  1  0  0  0
 29 30  2  0  0  0
 30 31  1  0  0  0
 30 62  1  0  0  0
 31 32  1  0  0  0
 34 35  1  0  0  0
 34 44  2  0  0  0
 35 36  1  0  0  0
 35 45  1  0  0  0
 36 37  1  0  0  0
 37 38  2  0  0  0
 37 39  1  0  0  0
 38 40  1  0  0  0
 39 41  2  0  0  0
 40 42  2  0  0  0
 40 43  1  0  0  0
 41 42  1  0  0  0
 43 46  2  0  0  0
 43 47  1  0  0  0
 48 67  1  0  0  0
 48 68  1  0  0  0
M  CHG  1  46   1
M  END
>  <ACTIVITY>
7.52

>  <SET>
1

>  <Min_dist>
999.9

>  <Avg_dist>
999.9

$$$$
77
  Cerius2 12110214423D 1   1.00000                          
Structure written by Cerius2 SD Exporter
 65 68  0  0  0  0  0  0  0  0999 V2000
    3.9021   -6.3663   15.2989 C   0  0  0  0  0  0
    4.0687   -5.1509   15.9674 C   0  0  0  0  0  0
    5.3362   -4.5699   16.0504 C   0  0  0  0  0  0
    6.4350   -5.2050   15.4644 C   0  0  0  0  0  0
    6.7728   -9.3108   10.3960 H   0  0  0  0  0  0
    5.2481  -10.4942    8.6562 H   0  0  0  0  0  0
    6.1667   -9.1125    8.0477 H   0  0  0  0  0  0
    2.7997  -10.3882    8.5112 H   0  0  0  0  0  0
    5.1109   -6.8593    7.7427 H   0  0  0  0  0  0
    3.0698   -5.6681    7.0389 H   0  0  0  0  0  0
    0.8735   -6.7598    7.2059 H   0  0  0  0  0  0
    3.9732   -9.9421   10.9945 H   0  0  0  0  0  0
   -1.5779   -9.3662    7.0617 H   0  0  0  0  0  0
   -0.5258   -8.0594    6.5058 H   0  0  0  0  0  0
    0.8975  -10.8644    9.0861 H   0  0  0  0  0  0
   -0.7565  -10.9825    8.4728 H   0  0  0  0  0  0
    7.5520   -6.2153    8.4412 H   0  0  0  0  0  0
    7.8309   -7.8030    9.1557 H   0  0  0  0  0  0
    9.6419   -6.2744    9.8050 H   0  0  0  0  0  0
    8.7046   -6.7789   11.2394 H   0  0  0  0  0  0
    9.4800   -4.1751   11.4779 C   0  0  0  0  0  0
    6.8642   -3.5196   11.4630 H   0  0  0  0  0  0
    7.0483   -5.1094   12.2507 H   0  0  0  0  0  0
    4.9733   -5.0466   10.9217 H   0  0  0  0  0  0
    5.8667   -4.6007    9.4553 H   0  0  0  0  0  0
    5.6848  -10.4150   12.6223 S   0  0  0  0  0  0
    6.9737  -11.0044   12.3112 O   0  0  0  0  0  0
    4.7034  -11.1941   13.3524 O   0  0  0  0  0  0
    7.3686   -7.0674   14.2069 C   0  0  0  0  0  0
    7.1985   -8.2824   13.5387 C   0  0  0  0  0  0
    5.9337   -8.8718   13.4679 C   0  0  0  0  0  0
    4.8372   -8.2247   14.0438 C   0  0  0  0  0  0
    5.0007   -7.0064   14.7118 C   0  0  0  0  0  0
    6.2725   -6.4235   14.7953 C   0  0  0  0  0  0
    2.9114   -6.8074   15.2416 H   0  0  0  0  0  0
    5.4864   -7.5648   10.4910 C   0  0  0  0  0  0
    5.7281   -9.0319   10.1997 C   0  0  0  0  0  0
    5.3559   -9.4006    8.7337 C   0  0  0  0  0  0
    4.0786   -8.6909    8.2449 C   0  0  0  0  0  0
    2.8399   -9.3442    8.2249 C   0  0  0  0  0  0
    4.1559   -7.3699    7.7921 C   0  0  0  0  0  0
    1.6699   -8.6775    7.8285 C   0  0  0  0  0  0
    3.0016   -6.6921    7.3932 C   0  0  0  0  0  0
    1.7618   -7.3317    7.4521 C   0  0  0  0  0  0
    0.3267   -9.3882    7.8000 C   0  0  0  0  0  0
    4.4689   -7.3440   11.1279 O   0  0  0  0  0  0
    4.9553   -9.8243   11.1497 N   0  0  0  0  0  0
   -0.6561   -8.9040    7.0798 N   0  3  0  0  0  0
    0.1464  -10.4844    8.4940 N   0  0  0  0  0  0
    6.3015   -6.5455   10.0886 N   0  0  0  0  0  0
    7.5682   -6.7667    9.3929 C   0  0  0  0  0  0
    8.6675   -6.1825   10.3129 C   0  0  0  0  0  0
    8.3963   -4.7576   10.6413 N   0  3  0  0  0  0
    7.0649   -4.5880   11.2812 C   0  0  0  0  0  0
    5.9337   -5.1648   10.3975 C   0  0  0  0  0  0
   10.4552   -4.2609   10.9721 H   0  0  0  0  0  0
    9.5467   -4.6906   12.4485 H   0  0  0  0  0  0
    9.2963   -3.1050   11.6655 H   0  0  0  0  0  0
    3.2140   -4.6586   16.4222 H   0  0  0  0  0  0
    5.4669   -3.6255   16.5704 H   0  0  0  0  0  0
    7.4143   -4.7410   15.5357 H   0  0  0  0  0  0
    8.3598   -6.6281   14.2641 H   0  0  0  0  0  0
    8.0524   -8.7663   13.0772 H   0  0  0  0  0  0
    3.8563   -8.6813   13.9653 H   0  0  0  0  0  0
    8.3907   -4.1982    9.7093 H   0  0  0  0  0  0
  1  2  1  0  0  0
  1 33  2  0  0  0
  1 35  1  0  0  0
  2  3  2  0  0  0
  2 59  1  0  0  0
  3  4  1  0  0  0
  3 60  1  0  0  0
  4 34  2  0  0  0
  4 61  1  0  0  0
  5 37  1  0  0  0
  6 38  1  0  0  0
  7 38  1  0  0  0
  8 40  1  0  0  0
  9 41  1  0  0  0
 10 43  1  0  0  0
 11 44  1  0  0  0
 12 47  1  0  0  0
 13 48  1  0  0  0
 14 48  1  0  0  0
 15 49  1  0  0  0
 16 49  1  0  0  0
 17 51  1  0  0  0
 18 51  1  0  0  0
 19 52  1  0  0  0
 20 52  1  0  0  0
 21 53  1  0  0  0
 21 56  1  0  0  0
 21 57  1  0  0  0
 21 58  1  0  0  0
 22 54  1  0  0  0
 23 54  1  0  0  0
 24 55  1  0  0  0
 25 55  1  0  0  0
 26 27  2  0  0  0
 26 28  2  0  0  0
 26 31  1  0  0  0
 26 47  1  0  0  0
 29 30  2  0  0  0
 29 34  1  0  0  0
 29 62  1  0  0  0
 30 31  1  0  0  0
 30 63  1  0  0  0
 31 32  2  0  0  0
 32 33  1  0  0  0
 32 64  1  0  0  0
 33 34  1  0  0  0
 36 37  1  0  0  0
 36 46  2  0  0  0
 36 50  1  0  0  0
 37 38  1  0  0  0
 37 47  1  0  0  0
 38 39  1  0  0  0
 39 40  2  0  0  0
 39 41  1  0  0  0
 40 42  1  0  0  0
 41 43  2  0  0  0
 42 44  2  0  0  0
 42 45  1  0  0  0
 43 44  1  0  0  0
 45 48  2  0  0  0
 45 49  1  0  0  0
 50 51  1  0  0  0
 50 55  1  0  0  0
 51 52  1  0  0  0
 52 53  1  0  0  0
 53 54  1  0  0  0
 53 65  1  0  0  0
 54 55  1  0  0  0
M  CHG  2  48   1  53   1
M  END
>  <ACTIVITY>
7.44

>  <SET>
1

>  <Min_dist>
999.9

>  <Avg_dist>
999.9

$$$$
78
  Cerius2 12110214423D 1   1.00000                          
Structure written by Cerius2 SD Exporter
 59 62  0  0  0  0  0  0  0  0999 V2000
    3.9009   -6.3669   15.3014 C   0  0  0  0  0  0
    4.0662   -5.1515   15.9700 C   0  0  0  0  0  0
    5.3332   -4.5690   16.0541 C   0  0  0  0  0  0
    6.4327   -5.2041   15.4697 C   0  0  0  0  0  0
    6.7857   -9.2724   10.3306 H   0  0  0  0  0  0
    5.1632  -10.5310    8.7169 H   0  0  0  0  0  0
    6.1042   -9.2493    7.9976 H   0  0  0  0  0  0
    2.7701  -10.3929    8.5036 H   0  0  0  0  0  0
    5.1076   -6.8785    7.7466 H   0  0  0  0  0  0
    3.0760   -5.6731    7.0320 H   0  0  0  0  0  0
    0.8713   -6.7519    7.1952 H   0  0  0  0  0  0
    3.9806   -9.9321   11.0017 H   0  0  0  0  0  0
   -1.5912   -9.3668    7.0550 H   0  0  0  0  0  0
   -0.5378   -8.0610    6.4987 H   0  0  0  0  0  0
    0.8829  -10.8595    9.0883 H   0  0  0  0  0  0
   -0.7681  -10.9833    8.4705 H   0  0  0  0  0  0
    6.3560   -6.5912   10.0818 N   0  0  0  0  0  0
    7.5852   -6.8739    9.3493 C   0  0  0  0  0  0
    7.9470   -5.4446    8.8803 C   0  0  0  0  0  0
    7.4447   -4.5640   10.0459 C   0  0  0  0  0  0
    6.0780   -5.1992   10.3957 C   0  0  0  0  0  0
    7.4878   -7.5271    8.4721 H   0  0  0  0  0  0
    8.3497   -7.2753   10.0340 H   0  0  0  0  0  0
    5.7015  -10.4091   12.6200 S   0  0  0  0  0  0
    6.9926  -10.9897   12.3029 O   0  0  0  0  0  0
    4.7238  -11.1961   13.3473 O   0  0  0  0  0  0
    7.3679   -7.0608   14.2065 C   0  0  0  0  0  0
    7.2018   -8.2773   13.5405 C   0  0  0  0  0  0
    5.9382   -8.8688   13.4687 C   0  0  0  0  0  0
    4.8399   -8.2260   14.0460 C   0  0  0  0  0  0
    5.0001   -7.0062   14.7141 C   0  0  0  0  0  0
    6.2706   -6.4216   14.7971 C   0  0  0  0  0  0
    2.9104   -6.8085   15.2436 H   0  0  0  0  0  0
    5.4965   -7.5617   10.4827 C   0  0  0  0  0  0
    5.7232   -9.0279   10.1796 C   0  0  0  0  0  0
    5.3131   -9.4419    8.7335 C   0  0  0  0  0  0
    4.0579   -8.7033    8.2428 C   0  0  0  0  0  0
    2.8161   -9.3476    8.2198 C   0  0  0  0  0  0
    4.1484   -7.3816    7.7920 C   0  0  0  0  0  0
    1.6535   -8.6734    7.8222 C   0  0  0  0  0  0
    3.0004   -6.6969    7.3883 C   0  0  0  0  0  0
    1.7550   -7.3284    7.4443 C   0  0  0  0  0  0
    0.3111   -9.3867    7.7965 C   0  0  0  0  0  0
    4.4896   -7.2832   11.1178 O   0  0  0  0  0  0
    4.9640   -9.8118   11.1487 N   0  0  0  0  0  0
   -0.6696   -8.9046    7.0737 N   0  3  0  0  0  0
    0.1331  -10.4822    8.4928 N   0  0  0  0  0  0
    7.3701   -5.1937    7.9700 H   0  0  0  0  0  0
    9.0220   -5.3254    8.6661 H   0  0  0  0  0  0
    7.3696   -3.4981    9.7772 H   0  0  0  0  0  0
    8.1360   -4.6744   10.8977 H   0  0  0  0  0  0
    5.8101   -5.0331   11.4510 H   0  0  0  0  0  0
    5.2785   -4.8234    9.7355 H   0  0  0  0  0  0
    3.2113   -4.6589   16.4237 H   0  0  0  0  0  0
    5.4635   -3.6251   16.5744 H   0  0  0  0  0  0
    7.4117   -4.7409   15.5434 H   0  0  0  0  0  0
    8.3582   -6.6183   14.2617 H   0  0  0  0  0  0
    8.0565   -8.7605   13.0793 H   0  0  0  0  0  0
    3.8603   -8.6853   13.9673 H   0  0  0  0  0  0
  1  2  1  0  0  0
  1 31  2  0  0  0
  1 33  1  0  0  0
  2  3  2  0  0  0
  2 54  1  0  0  0
  3  4  1  0  0  0
  3 55  1  0  0  0
  4 32  2  0  0  0
  4 56  1  0  0  0
  5 35  1  0  0  0
  6 36  1  0  0  0
  7 36  1  0  0  0
  8 38  1  0  0  0
  9 39  1  0  0  0
 10 41  1  0  0  0
 11 42  1  0  0  0
 12 45  1  0  0  0
 13 46  1  0  0  0
 14 46  1  0  0  0
 15 47  1  0  0  0
 16 47  1  0  0  0
 17 18  1  0  0  0
 17 21  1  0  0  0
 17 34  1  0  0  0
 18 19  1  0  0  0
 18 22  1  0  0  0
 18 23  1  0  0  0
 19 20  1  0  0  0
 19 48  1  0  0  0
 19 49  1  0  0  0
 20 21  1  0  0  0
 20 50  1  0  0  0
 20 51  1  0  0  0
 21 52  1  0  0  0
 21 53  1  0  0  0
 24 25  2  0  0  0
 24 26  2  0  0  0
 24 29  1  0  0  0
 24 45  1  0  0  0
 27 28  2  0  0  0
 27 32  1  0  0  0
 27 57  1  0  0  0
 28 29  1  0  0  0
 28 58  1  0  0  0
 29 30  2  0  0  0
 30 31  1  0  0  0
 30 59  1  0  0  0
 31 32  1  0  0  0
 34 35  1  0  0  0
 34 44  2  0  0  0
 35 36  1  0  0  0
 35 45  1  0  0  0
 36 37  1  0  0  0
 37 38  2  0  0  0
 37 39  1  0  0  0
 38 40  1  0  0  0
 39 41  2  0  0  0
 40 42  2  0  0  0
 40 43  1  0  0  0
 41 42  1  0  0  0
 43 46  2  0  0  0
 43 47  1  0  0  0
M  CHG  1  46   1
M  END
>  <ACTIVITY>
7.28

>  <SET>
1

>  <Min_dist>
999.9

>  <Avg_dist>
999.9

$$$$
79
  Cerius2 12110214423D 1   1.00000                          
Structure written by Cerius2 SD Exporter
 68 71  0  0  0  0  0  0  0  0999 V2000
    3.9013   -6.3598   15.2862 C   0  0  0  0  0  0
    4.0753   -5.1466   15.9570 C   0  0  0  0  0  0
    5.3457   -4.5710   16.0363 C   0  0  0  0  0  0
    6.4396   -5.2102   15.4470 C   0  0  0  0  0  0
    6.7442   -9.2884   10.3867 H   0  0  0  0  0  0
    5.2583  -10.4993    8.6425 H   0  0  0  0  0  0
    6.1562   -9.1029    8.0276 H   0  0  0  0  0  0
    2.7785  -10.4284    8.5273 H   0  0  0  0  0  0
    5.0633   -6.9030    7.6861 H   0  0  0  0  0  0
    3.0027   -5.6868    7.0910 H   0  0  0  0  0  0
    0.8112   -6.8037    7.2805 H   0  0  0  0  0  0
    3.9352   -9.9046   10.9587 H   0  0  0  0  0  0
   -1.6025   -9.3922    7.0909 H   0  0  0  0  0  0
   -0.5454   -8.0761    6.5602 H   0  0  0  0  0  0
    0.8928  -10.9224    9.0832 H   0  0  0  0  0  0
   -0.7705  -11.0367    8.4876 H   0  0  0  0  0  0
    7.6093   -6.0353    8.0402 C   0  0  0  0  0  0
    7.7906   -7.7481    9.2075 H   0  0  0  0  0  0
    9.6619   -6.2239    9.7889 H   0  0  0  0  0  0
    8.7368   -6.7336   11.2255 H   0  0  0  0  0  0
    8.3922   -4.0417    9.7332 H   0  0  0  0  0  0
    9.2170   -4.2790   11.2972 H   0  0  0  0  0  0
    6.8550   -3.4763   11.6262 H   0  0  0  0  0  0
    7.1284   -5.0776   12.3551 H   0  0  0  0  0  0
    4.9912   -5.0936   11.1808 H   0  0  0  0  0  0
    5.7110   -4.4985    9.6921 H   0  0  0  0  0  0
    5.6534  -10.4161   12.6086 S   0  0  0  0  0  0
    6.9356  -11.0168   12.2949 O   0  0  0  0  0  0
    4.6634  -11.1838   13.3388 O   0  0  0  0  0  0
    7.3615   -7.0789   14.1874 C   0  0  0  0  0  0
    7.1831   -8.2898   13.5129 C   0  0  0  0  0  0
    5.9148   -8.8729   13.4477 C   0  0  0  0  0  0
    4.8235   -8.2196   14.0238 C   0  0  0  0  0  0
    4.9955   -7.0033   14.6955 C   0  0  0  0  0  0
    6.2702   -6.4291   14.7774 C   0  0  0  0  0  0
    2.9087   -6.7961   15.2302 H   0  0  0  0  0  0
    5.4570   -7.5385   10.4646 C   0  0  0  0  0  0
    5.7034   -9.0079   10.1715 C   0  0  0  0  0  0
    5.3462   -9.4033    8.7099 C   0  0  0  0  0  0
    4.0507   -8.7228    8.2344 C   0  0  0  0  0  0
    2.8160   -9.3846    8.2372 C   0  0  0  0  0  0
    4.1099   -7.4040    7.7739 C   0  0  0  0  0  0
    1.6420   -8.7185    7.8578 C   0  0  0  0  0  0
    2.9465   -6.7194    7.4218 C   0  0  0  0  0  0
    1.7120   -7.3675    7.4986 C   0  0  0  0  0  0
    0.3014   -9.4323    7.8263 C   0  0  0  0  0  0
    4.4112   -7.3411   11.0641 O   0  0  0  0  0  0
    4.9185   -9.7991   11.1134 N   0  0  0  0  0  0
   -0.6799   -8.9323    7.1172 N   0  3  0  0  0  0
    0.1320  -10.5378    8.5057 N   0  0  0  0  0  0
    6.2791   -6.4948   10.1259 N   0  0  0  0  0  0
    7.5491   -6.6968    9.4024 C   0  0  0  0  0  0
    8.6866   -6.1401   10.2969 C   0  0  0  0  0  0
    8.4090   -4.6566   10.6491 C   0  0  0  0  0  0
    7.0587   -4.5359   11.3993 C   0  0  0  0  0  0
    5.9028   -5.1400   10.5625 C   0  0  0  0  0  0
    3.2245   -4.6522   16.4159 H   0  0  0  0  0  0
    5.4814   -3.6274   16.5562 H   0  0  0  0  0  0
    7.4206   -4.7500   15.5148 H   0  0  0  0  0  0
    8.3561   -6.6473   14.2464 H   0  0  0  0  0  0
    8.0316   -8.7747   13.0424 H   0  0  0  0  0  0
    3.8395   -8.6688   13.9434 H   0  0  0  0  0  0
    6.8355   -5.1506    7.7119 O   0  0  0  0  0  0
    8.5791   -6.5082    7.2369 O   0  0  0  0  0  0
    8.6430   -5.9454    5.9066 C   0  0  0  0  0  0
    9.6184   -5.4505    5.7879 H   0  0  0  0  0  0
    7.8573   -5.2318    5.6136 H   0  0  0  0  0  0
    8.5992   -6.7939    5.2083 H   0  0  0  0  0  0
  1  2  1  0  0  0
  1 34  2  0  0  0
  1 36  1  0  0  0
  2  3  2  0  0  0
  2 57  1  0  0  0
  3  4  1  0  0  0
  3 58  1  0  0  0
  4 35  2  0  0  0
  4 59  1  0  0  0
  5 38  1  0  0  0
  6 39  1  0  0  0
  7 39  1  0  0  0
  8 41  1  0  0  0
  9 42  1  0  0  0
 10 44  1  0  0  0
 11 45  1  0  0  0
 12 48  1  0  0  0
 13 49  1  0  0  0
 14 49  1  0  0  0
 15 50  1  0  0  0
 16 50  1  0  0  0
 17 52  1  0  0  0
 17 63  2  0  0  0
 17 64  1  0  0  0
 18 52  1  0  0  0
 19 53  1  0  0  0
 20 53  1  0  0  0
 21 54  1  0  0  0
 22 54  1  0  0  0
 23 55  1  0  0  0
 24 55  1  0  0  0
 25 56  1  0  0  0
 26 56  1  0  0  0
 27 28  2  0  0  0
 27 29  2  0  0  0
 27 32  1  0  0  0
 27 48  1  0  0  0
 30 31  2  0  0  0
 30 35  1  0  0  0
 30 60  1  0  0  0
 31 32  1  0  0  0
 31 61  1  0  0  0
 32 33  2  0  0  0
 33 34  1  0  0  0
 33 62  1  0  0  0
 34 35  1  0  0  0
 37 38  1  0  0  0
 37 47  2  0  0  0
 37 51  1  0  0  0
 38 39  1  0  0  0
 38 48  1  0  0  0
 39 40  1  0  0  0
 40 41  2  0  0  0
 40 42  1  0  0  0
 41 43  1  0  0  0
 42 44  2  0  0  0
 43 45  2  0  0  0
 43 46  1  0  0  0
 44 45  1  0  0  0
 46 49  2  0  0  0
 46 50  1  0  0  0
 51 52  1  0  0  0
 51 56  1  0  0  0
 52 53  1  0  0  0
 53 54  1  0  0  0
 54 55  1  0  0  0
 55 56  1  0  0  0
 64 65  1  0  0  0
 65 66  1  0  0  0
 65 67  1  0  0  0
 65 68  1  0  0  0
M  CHG  1  49   1
M  END
>  <ACTIVITY>
7.16

>  <SET>
1

>  <Min_dist>
999.9

>  <Avg_dist>
999.9

$$$$
80
  Cerius2 12110214423D 1   1.00000                          
Structure written by Cerius2 SD Exporter
 57 59  0  0  0  0  0  0  0  0999 V2000
    3.8480   -8.6776   14.0504 H   0  0  0  0  0  0
    4.0591   -6.5223   15.2320 H   0  0  0  0  0  0
    8.2735   -6.4754   14.3845 H   0  0  0  0  0  0
    8.0556   -8.6294   13.1922 H   0  0  0  0  0  0
    6.3228   -4.9625   15.5375 C   0  0  0  0  0  0
    5.3621   -4.5901   15.9259 H   0  0  0  0  0  0
    6.7082   -4.2337   14.8059 H   0  0  0  0  0  0
    6.7714   -9.2940   10.4061 H   0  0  0  0  0  0
    5.2367  -10.4709    8.6695 H   0  0  0  0  0  0
    6.1472   -9.0758    8.0849 H   0  0  0  0  0  0
    2.7946  -10.3540    8.5405 H   0  0  0  0  0  0
    5.1027   -6.8431    7.7423 H   0  0  0  0  0  0
    3.0805   -5.6897    6.9277 H   0  0  0  0  0  0
    0.8910   -6.7539    7.0972 H   0  0  0  0  0  0
    4.0117   -9.9906   11.0624 H   0  0  0  0  0  0
   -1.5956   -9.3956    7.0226 H   0  0  0  0  0  0
   -0.5562   -8.1040    6.4234 H   0  0  0  0  0  0
    0.8436  -10.8159    9.1226 H   0  0  0  0  0  0
   -0.7910  -10.9520    8.4761 H   0  0  0  0  0  0
    7.5729   -6.2398    8.4471 H   0  0  0  0  0  0
    7.8519   -7.8242    9.1820 H   0  0  0  0  0  0
    9.6643   -6.2371    9.8209 H   0  0  0  0  0  0
    8.7303   -6.7527   11.2559 H   0  0  0  0  0  0
    6.9087   -3.5173   11.4676 H   0  0  0  0  0  0
    7.0753   -5.1168   12.2368 H   0  0  0  0  0  0
    4.9693   -5.0289   10.8894 H   0  0  0  0  0  0
    5.8956   -4.6011    9.4379 H   0  0  0  0  0  0
    5.7426  -10.3424   12.6810 S   0  0  0  0  0  0
    7.0522  -10.8808   12.3707 O   0  0  0  0  0  0
    4.8035  -11.1697   13.4124 O   0  0  0  0  0  0
    5.9354   -8.7989   13.5390 C   0  0  0  0  0  0
    4.8142   -8.1948   14.1171 C   0  0  0  0  0  0
    4.9357   -6.9714   14.7800 C   0  0  0  0  0  0
    6.1789   -6.3313   14.8583 C   0  0  0  0  0  0
    7.3008   -6.9501   14.3008 C   0  0  0  0  0  0
    7.1776   -8.1718   13.6343 C   0  0  0  0  0  0
    7.0332   -5.0398   16.3737 H   0  0  0  0  0  0
    5.4875   -7.5588   10.5126 C   0  0  0  0  0  0
    5.7240   -9.0233   10.2357 C   0  0  0  0  0  0
    5.3346   -9.3764    8.7647 C   0  0  0  0  0  0
    4.0655   -8.6678    8.2513 C   0  0  0  0  0  0
    2.8192   -9.3196    8.2285 C   0  0  0  0  0  0
    4.1478   -7.3575    7.7740 C   0  0  0  0  0  0
    1.6538   -8.6673    7.7963 C   0  0  0  0  0  0
    3.0073   -6.6962    7.3220 C   0  0  0  0  0  0
    1.7591   -7.3339    7.3798 C   0  0  0  0  0  0
    0.3057   -9.3779    7.7740 C   0  0  0  0  0  0
    4.4672   -7.3191   11.1467 O   0  0  0  0  0  0
    4.9912   -9.8212   11.2146 N   0  0  0  0  0  0
   -0.6751   -8.9274    7.0294 N   0  3  0  0  0  0
    0.1109  -10.4505    8.5001 N   0  0  0  0  0  0
    6.3128   -6.5440   10.0972 N   0  0  0  0  0  0
    7.5864   -6.7837    9.4026 C   0  0  0  0  0  0
    8.6762   -6.1624   10.3176 C   0  0  0  0  0  0
    8.3689   -4.7651   10.6015 O   0  0  0  0  0  0
    7.0830   -4.5901   11.2633 C   0  0  0  0  0  0
    5.9405   -5.1585   10.3830 C   0  0  0  0  0  0
  1 32  1  0  0  0
  2 33  1  0  0  0
  3 35  1  0  0  0
  4 36  1  0  0  0
  5  6  1  0  0  0
  5  7  1  0  0  0
  5 34  1  0  0  0
  5 37  1  0  0  0
  8 39  1  0  0  0
  9 40  1  0  0  0
 10 40  1  0  0  0
 11 42  1  0  0  0
 12 43  1  0  0  0
 13 45  1  0  0  0
 14 46  1  0  0  0
 15 49  1  0  0  0
 16 50  1  0  0  0
 17 50  1  0  0  0
 18 51  1  0  0  0
 19 51  1  0  0  0
 20 53  1  0  0  0
 21 53  1  0  0  0
 22 54  1  0  0  0
 23 54  1  0  0  0
 24 56  1  0  0  0
 25 56  1  0  0  0
 26 57  1  0  0  0
 27 57  1  0  0  0
 28 29  2  0  0  0
 28 30  2  0  0  0
 28 31  1  0  0  0
 28 49  1  0  0  0
 31 32  1  0  0  0
 31 36  2  0  0  0
 32 33  2  0  0  0
 33 34  1  0  0  0
 34 35  2  0  0  0
 35 36  1  0  0  0
 38 39  1  0  0  0
 38 48  2  0  0  0
 38 52  1  0  0  0
 39 40  1  0  0  0
 39 49  1  0  0  0
 40 41  1  0  0  0
 41 42  2  0  0  0
 41 43  1  0  0  0
 42 44  1  0  0  0
 43 45  2  0  0  0
 44 46  2  0  0  0
 44 47  1  0  0  0
 45 46  1  0  0  0
 47 50  2  0  0  0
 47 51  1  0  0  0
 52 53  1  0  0  0
 52 57  1  0  0  0
 53 54  1  0  0  0
 54 55  1  0  0  0
 55 56  1  0  0  0
 56 57  1  0  0  0
M  CHG  1  50   1
M  END
>  <ACTIVITY>
6.77

>  <SET>
1

>  <Min_dist>
999.9

>  <Avg_dist>
999.9

$$$$
81
  Cerius2 12110214423D 1   1.00000                          
Structure written by Cerius2 SD Exporter
 69 72  0  0  0  0  0  0  0  0999 V2000
    3.8001   -6.5950   15.4656 C   0  0  0  0  0  0
    3.9248   -5.4067   16.1911 C   0  0  0  0  0  0
    5.1755   -4.7982   16.3203 C   0  0  0  0  0  0
    6.2982   -5.3781   15.7245 C   0  0  0  0  0  0
    6.8114   -9.2311   10.4802 H   0  0  0  0  0  0
    5.3412  -10.3761    8.6679 H   0  0  0  0  0  0
    6.2311   -8.9492    8.1309 H   0  0  0  0  0  0
    2.8953  -10.3242    8.4864 H   0  0  0  0  0  0
    5.1254   -6.7084    7.9128 H   0  0  0  0  0  0
    3.0677   -5.5416    7.2179 H   0  0  0  0  0  0
    0.8978   -6.6914    7.3044 H   0  0  0  0  0  0
    4.0249   -9.9690   11.0062 H   0  0  0  0  0  0
   -1.4872   -9.3538    7.0120 H   0  0  0  0  0  0
   -0.4625   -7.9989    6.5263 H   0  0  0  0  0  0
    0.9922  -10.8728    9.0119 H   0  0  0  0  0  0
   -0.6470  -11.0051    8.3647 H   0  0  0  0  0  0
    7.5242   -6.0347    8.6707 H   0  0  0  0  0  0
    7.8155   -7.6525    9.3031 H   0  0  0  0  0  0
    9.0947   -4.2468   11.6253 H   0  0  0  0  0  0
    8.5914   -6.6930   11.4786 H   0  0  0  0  0  0
    8.3415   -3.9819   10.0283 H   0  0  0  0  0  0
   11.8773   -7.5863    9.1951 C   0  0  0  0  0  0
    6.6949   -3.4611   11.8272 H   0  0  0  0  0  0
    6.9287   -5.0809   12.5410 H   0  0  0  0  0  0
    4.8658   -5.0472   11.1538 H   0  0  0  0  0  0
    5.7889   -4.5053    9.7398 H   0  0  0  0  0  0
    5.7330  -10.4721   12.6395 S   0  0  0  0  0  0
    7.0427  -11.0070   12.3183 O   0  0  0  0  0  0
    4.7657  -11.3123   13.3178 O   0  0  0  0  0  0
    7.2983   -7.1561   14.3982 C   0  0  0  0  0  0
    7.1716   -8.3445   13.6732 C   0  0  0  0  0  0
    5.9237   -8.9624   13.5567 C   0  0  0  0  0  0
    4.8024   -8.3712   14.1426 C   0  0  0  0  0  0
    4.9227   -7.1794   14.8683 C   0  0  0  0  0  0
    6.1777   -6.5696   14.9973 C   0  0  0  0  0  0
    2.8220   -7.0574   15.3731 H   0  0  0  0  0  0
    5.4719   -7.5287   10.6395 C   0  0  0  0  0  0
    5.7613   -8.9724   10.2805 C   0  0  0  0  0  0
    5.4195   -9.2848    8.7934 C   0  0  0  0  0  0
    4.1328   -8.5861    8.3157 C   0  0  0  0  0  0
    2.9115   -9.2680    8.2462 C   0  0  0  0  0  0
    4.1835   -7.2446    7.9217 C   0  0  0  0  0  0
    1.7310   -8.6153    7.8591 C   0  0  0  0  0  0
    3.0196   -6.5807    7.5299 C   0  0  0  0  0  0
    1.7954   -7.2523    7.5410 C   0  0  0  0  0  0
    0.4065   -9.3573    7.7787 C   0  0  0  0  0  0
    4.4437   -7.3651   11.2778 O   0  0  0  0  0  0
    5.0004   -9.8306   11.1804 N   0  0  0  0  0  0
   -0.5781   -8.8693    7.0635 N   0  3  0  0  0  0
    0.2424  -10.4862    8.4230 N   0  0  0  0  0  0
    6.2605   -6.4692   10.2915 N   0  0  0  0  0  0
    7.5379   -6.6342    9.5947 C   0  0  0  0  0  0
    8.6228   -6.0899   10.5549 C   0  0  0  0  0  0
    8.3199   -4.6148   10.9313 C   0  0  0  0  0  0
    6.9248   -4.5146   11.5966 C   0  0  0  0  0  0
    5.8469   -5.1115   10.6580 C   0  0  0  0  0  0
   12.6156   -7.9249    9.9380 H   0  0  0  0  0  0
   12.2569   -6.6650    8.7270 H   0  0  0  0  0  0
   11.7912   -8.3562    8.4129 H   0  0  0  0  0  0
    3.0514   -4.9574   16.6536 H   0  0  0  0  0  0
    5.2737   -3.8752   16.8840 H   0  0  0  0  0  0
    7.2639   -4.8939   15.8325 H   0  0  0  0  0  0
    8.2767   -6.6940   14.4897 H   0  0  0  0  0  0
    8.0445   -8.7846   13.2037 H   0  0  0  0  0  0
    3.8354   -8.8491   14.0272 H   0  0  0  0  0  0
    9.9724   -6.2017    9.8846 C   0  0  0  0  0  0
   10.4566   -5.1920    9.3980 O   0  0  0  0  0  0
   10.5811   -7.4123    9.8463 N   0  0  0  0  0  0
   10.1655   -8.2245   10.2637 H   0  0  0  0  0  0
  1  2  1  0  0  0
  1 34  2  0  0  0
  1 36  1  0  0  0
  2  3  2  0  0  0
  2 60  1  0  0  0
  3  4  1  0  0  0
  3 61  1  0  0  0
  4 35  2  0  0  0
  4 62  1  0  0  0
  5 38  1  0  0  0
  6 39  1  0  0  0
  7 39  1  0  0  0
  8 41  1  0  0  0
  9 42  1  0  0  0
 10 44  1  0  0  0
 11 45  1  0  0  0
 12 48  1  0  0  0
 13 49  1  0  0  0
 14 49  1  0  0  0
 15 50  1  0  0  0
 16 50  1  0  0  0
 17 52  1  0  0  0
 18 52  1  0  0  0
 19 54  1  0  0  0
 20 53  1  0  0  0
 21 54  1  0  0  0
 22 57  1  0  0  0
 22 58  1  0  0  0
 22 59  1  0  0  0
 22 68  1  0  0  0
 23 55  1  0  0  0
 24 55  1  0  0  0
 25 56  1  0  0  0
 26 56  1  0  0  0
 27 28  2  0  0  0
 27 29  2  0  0  0
 27 32  1  0  0  0
 27 48  1  0  0  0
 30 31  2  0  0  0
 30 35  1  0  0  0
 30 63  1  0  0  0
 31 32  1  0  0  0
 31 64  1  0  0  0
 32 33  2  0  0  0
 33 34  1  0  0  0
 33 65  1  0  0  0
 34 35  1  0  0  0
 37 38  1  0  0  0
 37 47  2  0  0  0
 37 51  1  0  0  0
 38 39  1  0  0  0
 38 48  1  0  0  0
 39 40  1  0  0  0
 40 41  2  0  0  0
 40 42  1  0  0  0
 41 43  1  0  0  0
 42 44  2  0  0  0
 43 45  2  0  0  0
 43 46  1  0  0  0
 44 45  1  0  0  0
 46 49  2  0  0  0
 46 50  1  0  0  0
 51 52  1  0  0  0
 51 56  1  0  0  0
 52 53  1  0  0  0
 53 54  1  0  0  0
 53 66  1  0  0  0
 54 55  1  0  0  0
 55 56  1  0  0  0
 66 67  2  0  0  0
 66 68  1  0  0  0
 68 69  1  0  0  0
M  CHG  1  49   1
M  END
>  <ACTIVITY>
6.59

>  <SET>
2

>  <Min_dist>
0.04

>  <Avg_dist>
0.24

$$$$
82
  Cerius2 12110214423D 1   1.00000                          
Structure written by Cerius2 SD Exporter
 88 90  0  0  0  0  0  0  0  0999 V2000
    3.8821   -7.9585   13.7340 C   0  0  0  0  0  0
    5.2178   -5.7816   14.5298 H   0  0  0  0  0  0
    7.7569   -4.9464   14.9981 C   0  0  0  0  0  0
    8.8740   -9.5746   13.3789 C   0  0  0  0  0  0
    9.2163   -6.9999   13.8658 H   0  0  0  0  0  0
    3.5835   -8.8153   13.1250 H   0  0  0  0  0  0
    8.7063   -4.0783   14.1386 C   0  0  0  0  0  0
    6.8155   -9.3005   10.1936 H   0  0  0  0  0  0
    5.2622  -10.5825    8.5361 H   0  0  0  0  0  0
    6.1901   -9.2331    7.8371 H   0  0  0  0  0  0
    2.7987  -10.4525    8.4150 H   0  0  0  0  0  0
    5.1411   -6.9947    7.4314 H   0  0  0  0  0  0
    3.0776   -5.7183    6.9725 H   0  0  0  0  0  0
    0.8709   -6.7795    7.2563 H   0  0  0  0  0  0
    3.9751   -9.7443   10.8636 H   0  0  0  0  0  0
   -1.6016   -9.3315    7.1123 H   0  0  0  0  0  0
   -0.5388   -8.0302    6.5586 H   0  0  0  0  0  0
    0.9214  -10.9166    9.0233 H   0  0  0  0  0  0
   -0.7585  -10.9987    8.4731 H   0  0  0  0  0  0
    7.7691   -6.2514    8.2754 H   0  0  0  0  0  0
    7.9979   -7.8171    9.0379 H   0  0  0  0  0  0
    9.7723   -6.1777    9.6307 H   0  0  0  0  0  0
    8.8806   -6.6907   11.0902 H   0  0  0  0  0  0
   10.9039   -3.6977   10.8659 C   0  0  0  0  0  0
    9.3487   -3.4631    9.9823 S   0  0  0  0  0  0
    6.7945   -3.4956   11.2061 H   0  0  0  0  0  0
    6.9580   -5.1025   11.9696 H   0  0  0  0  0  0
    5.0025   -5.0575   10.5642 H   0  0  0  0  0  0
    5.9547   -4.6084    9.1342 H   0  0  0  0  0  0
    5.7342  -10.2662   12.4911 S   0  0  0  0  0  0
    6.7781  -11.1331   11.9931 O   0  0  0  0  0  0
    4.7273  -10.8692   13.3499 O   0  0  0  0  0  0
    6.3585   -8.7463   13.2807 C   0  0  0  0  0  0
    5.4328   -7.7634   13.7079 C   0  0  0  0  0  0
    5.9169   -6.5490   14.2081 C   0  0  0  0  0  0
    7.2708   -6.2687   14.3344 C   0  0  0  0  0  0
    8.1619   -7.2461   13.8908 C   0  0  0  0  0  0
    7.7325   -8.5169   13.4971 C   0  0  0  0  0  0
    8.4672   -5.2961   16.3263 C   0  0  0  0  0  0
    5.5378   -7.5391   10.0944 C   0  0  0  0  0  0
    5.7813   -9.0270    9.9740 C   0  0  0  0  0  0
    5.3833   -9.4847    8.5485 C   0  0  0  0  0  0
    4.0950   -8.7763    8.0680 C   0  0  0  0  0  0
    2.8457   -9.4101    8.1169 C   0  0  0  0  0  0
    4.1729   -7.4684    7.5809 C   0  0  0  0  0  0
    1.6764   -8.7214    7.7821 C   0  0  0  0  0  0
    3.0125   -6.7535    7.2947 C   0  0  0  0  0  0
    1.7662   -7.3641    7.4280 C   0  0  0  0  0  0
    0.3223   -9.4089    7.7915 C   0  0  0  0  0  0
    4.4046   -7.2986   10.4464 O   0  0  0  0  0  0
    4.9627   -9.6607   11.0009 N   0  0  0  0  0  0
   -0.6715   -8.8871    7.1138 N   0  3  0  0  0  0
    0.1526  -10.5146    8.4688 N   0  0  0  0  0  0
    6.4103   -6.5319    9.8204 N   0  0  0  0  0  0
    7.7372   -6.7734    9.2339 C   0  0  0  0  0  0
    8.7992   -6.1253   10.1476 C   0  0  0  0  0  0
    8.3780   -4.7525   10.4326 N   0  0  0  0  0  0
    7.0444   -4.5488   11.0204 C   0  0  0  0  0  0
    5.9883   -5.1564   10.0785 C   0  0  0  0  0  0
    8.7649   -2.2241   10.4632 O   0  0  0  0  0  0
    9.6274   -3.5879    8.5626 O   0  0  0  0  0  0
   10.7263   -3.6333   11.9524 H   0  0  0  0  0  0
    6.8906   -4.3074   15.2250 H   0  0  0  0  0  0
    2.9845   -6.7878   13.2173 C   0  0  0  0  0  0
    3.4694   -8.2444   15.2016 C   0  0  0  0  0  0
    8.4920  -10.5882   13.2716 H   0  0  0  0  0  0
    9.6906   -9.7009   14.6953 C   0  0  0  0  0  0
    9.8110   -9.2843   12.1723 C   0  0  0  0  0  0
    9.5378   -4.6897   13.7702 H   0  0  0  0  0  0
    9.1248   -3.2271   14.7034 H   0  0  0  0  0  0
    8.1616   -3.6538   13.2903 H   0  0  0  0  0  0
    7.7782   -5.8721   16.9626 H   0  0  0  0  0  0
    8.7510   -4.3712   16.8545 H   0  0  0  0  0  0
    9.3802   -5.8916   16.1581 H   0  0  0  0  0  0
    3.1157   -5.8462   13.7642 H   0  0  0  0  0  0
    1.9230   -7.0659   13.3226 H   0  0  0  0  0  0
    3.1306   -6.5625   12.1613 H   0  0  0  0  0  0
    4.0402   -9.0936   15.6095 H   0  0  0  0  0  0
    2.3950   -8.4862   15.2743 H   0  0  0  0  0  0
    3.6611   -7.3602   15.8330 H   0  0  0  0  0  0
   10.1938   -8.7685   14.9888 H   0  0  0  0  0  0
   10.4732  -10.4719   14.5879 H   0  0  0  0  0  0
    9.0263  -10.0058   15.5213 H   0  0  0  0  0  0
    9.2319   -9.2683   11.2385 H   0  0  0  0  0  0
   10.5817  -10.0658   12.0840 H   0  0  0  0  0  0
   10.3331   -8.3237   12.2794 H   0  0  0  0  0  0
   11.5983   -2.8899   10.5718 H   0  0  0  0  0  0
   11.3684   -4.6693   10.6191 H   0  0  0  0  0  0
  1  6  1  0  0  0
  1 34  1  0  0  0
  1 64  1  0  0  0
  1 65  1  0  0  0
  2 35  1  0  0  0
  3  7  1  0  0  0
  3 36  1  0  0  0
  3 39  1  0  0  0
  3 63  1  0  0  0
  4 38  1  0  0  0
  4 66  1  0  0  0
  4 67  1  0  0  0
  4 68  1  0  0  0
  5 37  1  0  0  0
  7 69  1  0  0  0
  7 70  1  0  0  0
  7 71  1  0  0  0
  8 41  1  0  0  0
  9 42  1  0  0  0
 10 42  1  0  0  0
 11 44  1  0  0  0
 12 45  1  0  0  0
 13 47  1  0  0  0
 14 48  1  0  0  0
 15 51  1  0  0  0
 16 52  1  0  0  0
 17 52  1  0  0  0
 18 53  1  0  0  0
 19 53  1  0  0  0
 20 55  1  0  0  0
 21 55  1  0  0  0
 22 56  1  0  0  0
 23 56  1  0  0  0
 24 25  1  0  0  0
 24 62  1  0  0  0
 24 87  1  0  0  0
 24 88  1  0  0  0
 25 57  1  0  0  0
 25 60  2  0  0  0
 25 61  2  0  0  0
 26 58  1  0  0  0
 27 58  1  0  0  0
 28 59  1  0  0  0
 29 59  1  0  0  0
 30 31  2  0  0  0
 30 32  2  0  0  0
 30 33  1  0  0  0
 30 51  1  0  0  0
 33 34  1  0  0  0
 33 38  2  0  0  0
 34 35  2  0  0  0
 35 36  1  0  0  0
 36 37  2  0  0  0
 37 38  1  0  0  0
 39 72  1  0  0  0
 39 73  1  0  0  0
 39 74  1  0  0  0
 40 41  1  0  0  0
 40 50  2  0  0  0
 40 54  1  0  0  0
 41 42  1  0  0  0
 41 51  1  0  0  0
 42 43  1  0  0  0
 43 44  2  0  0  0
 43 45  1  0  0  0
 44 46  1  0  0  0
 45 47  2  0  0  0
 46 48  2  0  0  0
 46 49  1  0  0  0
 47 48  1  0  0  0
 49 52  2  0  0  0
 49 53  1  0  0  0
 54 55  1  0  0  0
 54 59  1  0  0  0
 55 56  1  0  0  0
 56 57  1  0  0  0
 57 58  1  0  0  0
 58 59  1  0  0  0
 64 75  1  0  0  0
 64 76  1  0  0  0
 64 77  1  0  0  0
 65 78  1  0  0  0
 65 79  1  0  0  0
 65 80  1  0  0  0
 67 81  1  0  0  0
 67 82  1  0  0  0
 67 83  1  0  0  0
 68 84  1  0  0  0
 68 85  1  0  0  0
 68 86  1  0  0  0
M  CHG  1  52   1
M  END
>  <ACTIVITY>
6.55

>  <SET>
2

>  <Min_dist>
0.11

>  <Avg_dist>
0.3

$$$$
83
  Cerius2 12110214423D 1   1.00000                          
Structure written by Cerius2 SD Exporter
 78 82  0  0  0  0  0  0  0  0999 V2000
    3.9016   -6.3654   15.2962 C   0  0  0  0  0  0
    4.0697   -5.1504   15.9651 C   0  0  0  0  0  0
    5.3379   -4.5706   16.0477 C   0  0  0  0  0  0
    6.4354   -5.2070   15.4607 C   0  0  0  0  0  0
    6.7667   -9.2945   10.4017 H   0  0  0  0  0  0
    5.2494  -10.4920    8.6603 H   0  0  0  0  0  0
    6.1648   -9.1147    8.0425 H   0  0  0  0  0  0
    2.7999  -10.3908    8.5101 H   0  0  0  0  0  0
    5.1098   -6.8611    7.7361 H   0  0  0  0  0  0
    3.0648   -5.6638    7.0537 H   0  0  0  0  0  0
    0.8688   -6.7610    7.2182 H   0  0  0  0  0  0
    3.9642   -9.9379   10.9812 H   0  0  0  0  0  0
   -1.5757   -9.3654    7.0658 H   0  0  0  0  0  0
   -0.5229   -8.0560    6.5157 H   0  0  0  0  0  0
    0.9050  -10.8685    9.0845 H   0  0  0  0  0  0
   -0.7507  -10.9875    8.4750 H   0  0  0  0  0  0
    7.5308   -6.1924    8.4449 H   0  0  0  0  0  0
    7.7866   -7.7953    9.1260 H   0  0  0  0  0  0
    9.1873   -4.3305   11.2862 H   0  0  0  0  0  0
    8.6796   -6.7858   11.2349 H   0  0  0  0  0  0
    8.4191   -4.1272    9.6877 H   0  0  0  0  0  0
   11.8126   -7.7411    8.9472 C   0  0  0  0  0  0
    6.8110   -3.4788   11.4769 H   0  0  0  0  0  0
    7.0133   -5.0670   12.2658 H   0  0  0  0  0  0
    4.9318   -5.0446   10.9185 H   0  0  0  0  0  0
    5.8327   -4.5834    9.4638 H   0  0  0  0  0  0
    5.6799  -10.4198   12.6267 S   0  0  0  0  0  0
    6.9672  -11.0113   12.3146 O   0  0  0  0  0  0
    4.6946  -11.1943   13.3555 O   0  0  0  0  0  0
    7.3659   -7.0693   14.2000 C   0  0  0  0  0  0
    7.1950   -8.2852   13.5328 C   0  0  0  0  0  0
    5.9298   -8.8745   13.4662 C   0  0  0  0  0  0
    4.8343   -8.2255   14.0409 C   0  0  0  0  0  0
    4.9991   -7.0067   14.7085 C   0  0  0  0  0  0
    6.2714   -6.4252   14.7905 C   0  0  0  0  0  0
    2.9106   -6.8053   15.2390 H   0  0  0  0  0  0
    5.4724   -7.5568   10.4957 C   0  0  0  0  0  0
    5.7212   -9.0218   10.1981 C   0  0  0  0  0  0
    5.3557   -9.3981    8.7318 C   0  0  0  0  0  0
    4.0783   -8.6913    8.2438 C   0  0  0  0  0  0
    2.8401   -9.3460    8.2255 C   0  0  0  0  0  0
    4.1540   -7.3697    7.7913 C   0  0  0  0  0  0
    1.6710   -8.6784    7.8329 C   0  0  0  0  0  0
    2.9987   -6.6903    7.4014 C   0  0  0  0  0  0
    1.7591   -7.3313    7.4605 C   0  0  0  0  0  0
    0.3281   -9.3903    7.8041 C   0  0  0  0  0  0
    4.4550   -7.3403   11.1357 O   0  0  0  0  0  0
    4.9450   -9.8185   11.1403 N   0  0  0  0  0  0
   -0.6539   -8.9032    7.0861 N   0  3  0  0  0  0
    0.1515  -10.4883    8.4954 N   0  0  0  0  0  0
    6.2834   -6.5333   10.0949 N   0  0  0  0  0  0
    7.5487   -6.7597    9.3889 C   0  0  0  0  0  0
    8.6821   -6.2126   10.2923 C   0  0  0  0  0  0
    8.4005   -4.7186   10.6179 C   0  0  0  0  0  0
    7.0143   -4.5477   11.2949 C   0  0  0  0  0  0
    5.9010   -5.1525   10.4050 C   0  0  0  0  0  0
   11.6738   -7.5122    7.8782 H   0  0  0  0  0  0
   12.5424   -7.0231    9.3565 H   0  0  0  0  0  0
    3.2161   -4.6575   16.4205 H   0  0  0  0  0  0
    5.4697   -3.6267   16.5678 H   0  0  0  0  0  0
    7.4149   -4.7440   15.5322 H   0  0  0  0  0  0
    8.3574   -6.6298   14.2544 H   0  0  0  0  0  0
    8.0473   -8.7698   13.0687 H   0  0  0  0  0  0
    3.8530   -8.6811   13.9615 H   0  0  0  0  0  0
   10.0194   -6.3904    9.6056 C   0  0  0  0  0  0
   10.5672   -5.4467    9.0556 O   0  0  0  0  0  0
   10.5505   -7.6284    9.6444 O   0  0  0  0  0  0
   12.4062   -9.1541    9.0830 C   0  0  0  0  0  0
   13.2444   -9.4634   10.1613 C   0  0  0  0  0  0
   13.8297  -10.7283   10.2705 C   0  0  0  0  0  0
   13.5681  -11.7075    9.3081 C   0  0  0  0  0  0
   12.7188  -11.4132    8.2390 C   0  0  0  0  0  0
   12.1373  -10.1455    8.1307 C   0  0  0  0  0  0
   13.4497   -8.7174   10.9223 H   0  0  0  0  0  0
   14.4897  -10.9522   11.1026 H   0  0  0  0  0  0
   14.0222  -12.6907    9.3916 H   0  0  0  0  0  0
   12.5119  -12.1719    7.4904 H   0  0  0  0  0  0
   11.4765   -9.9382    7.2956 H   0  0  0  0  0  0
  1  2  1  0  0  0
  1 34  2  0  0  0
  1 36  1  0  0  0
  2  3  2  0  0  0
  2 59  1  0  0  0
  3  4  1  0  0  0
  3 60  1  0  0  0
  4 35  2  0  0  0
  4 61  1  0  0  0
  5 38  1  0  0  0
  6 39  1  0  0  0
  7 39  1  0  0  0
  8 41  1  0  0  0
  9 42  1  0  0  0
 10 44  1  0  0  0
 11 45  1  0  0  0
 12 48  1  0  0  0
 13 49  1  0  0  0
 14 49  1  0  0  0
 15 50  1  0  0  0
 16 50  1  0  0  0
 17 52  1  0  0  0
 18 52  1  0  0  0
 19 54  1  0  0  0
 20 53  1  0  0  0
 21 54  1  0  0  0
 22 57  1  0  0  0
 22 58  1  0  0  0
 22 67  1  0  0  0
 22 68  1  0  0  0
 23 55  1  0  0  0
 24 55  1  0  0  0
 25 56  1  0  0  0
 26 56  1  0  0  0
 27 28  2  0  0  0
 27 29  2  0  0  0
 27 32  1  0  0  0
 27 48  1  0  0  0
 30 31  2  0  0  0
 30 35  1  0  0  0
 30 62  1  0  0  0
 31 32  1  0  0  0
 31 63  1  0  0  0
 32 33  2  0  0  0
 33 34  1  0  0  0
 33 64  1  0  0  0
 34 35  1  0  0  0
 37 38  1  0  0  0
 37 47  2  0  0  0
 37 51  1  0  0  0
 38 39  1  0  0  0
 38 48  1  0  0  0
 39 40  1  0  0  0
 40 41  2  0  0  0
 40 42  1  0  0  0
 41 43  1  0  0  0
 42 44  2  0  0  0
 43 45  2  0  0  0
 43 46  1  0  0  0
 44 45  1  0  0  0
 46 49  2  0  0  0
 46 50  1  0  0  0
 51 52  1  0  0  0
 51 56  1  0  0  0
 52 53  1  0  0  0
 53 54  1  0  0  0
 53 65  1  0  0  0
 54 55  1  0  0  0
 55 56  1  0  0  0
 65 66  2  0  0  0
 65 67  1  0  0  0
 68 69  1  0  0  0
 68 73  2  0  0  0
 69 70  2  0  0  0
 69 74  1  0  0  0
 70 71  1  0  0  0
 70 75  1  0  0  0
 71 72  2  0  0  0
 71 76  1  0  0  0
 72 73  1  0  0  0
 72 77  1  0  0  0
 73 78  1  0  0  0
M  CHG  1  49   1
M  END
>  <ACTIVITY>
6.52

>  <SET>
1

>  <Min_dist>
999.9

>  <Avg_dist>
999.9

$$$$
84
  Cerius2 12110214423D 1   1.00000                          
Structure written by Cerius2 SD Exporter
 71 75  0  0  0  0  0  0  0  0999 V2000
    3.9939   -6.2211   15.1513 C   0  0  0  0  0  0
    4.2661   -4.9934   15.7611 C   0  0  0  0  0  0
    5.5681   -4.4870   15.7571 C   0  0  0  0  0  0
    6.5958   -5.2119   15.1472 C   0  0  0  0  0  0
    6.7707   -9.3849   10.3603 H   0  0  0  0  0  0
    5.4291  -10.4109    8.4290 H   0  0  0  0  0  0
    6.2901   -8.9423    7.9422 H   0  0  0  0  0  0
    3.0274  -10.4680    8.0609 H   0  0  0  0  0  0
    5.0916   -6.7467    7.7501 H   0  0  0  0  0  0
    2.9396   -5.5773    7.3692 H   0  0  0  0  0  0
    0.8189   -6.7341    7.7617 H   0  0  0  0  0  0
    3.9003   -9.8948   10.6554 H   0  0  0  0  0  0
   -1.5792   -9.4901    7.4964 H   0  0  0  0  0  0
   -0.6788   -8.0436    7.0353 H   0  0  0  0  0  0
    1.2149  -11.1326    8.9000 H   0  0  0  0  0  0
   -0.5004  -11.2513    8.5000 H   0  0  0  0  0  0
    7.6904   -6.3294    8.4431 H   0  0  0  0  0  0
    7.9638   -7.8946    9.2225 H   0  0  0  0  0  0
    9.8351   -6.3827    9.7892 H   0  0  0  0  0  0
    8.8805   -6.8055   11.2344 H   0  0  0  0  0  0
    9.5371   -3.0487   12.2128 H   0  0  0  0  0  0
    9.4034   -3.8686   10.2214 C   0  0  0  0  0  0
    7.1325   -3.4781   11.3858 H   0  0  0  0  0  0
    7.3423   -5.0160   12.2634 H   0  0  0  0  0  0
    5.2000   -5.0632   11.0378 H   0  0  0  0  0  0
    6.0151   -4.6389    9.5179 H   0  0  0  0  0  0
    5.4089  -10.4445   12.5070 S   0  0  0  0  0  0
    6.6373  -11.1921   12.3197 O   0  0  0  0  0  0
    4.2817  -11.0700   13.1694 O   0  0  0  0  0  0
    7.3559   -7.1818   13.9395 C   0  0  0  0  0  0
    7.0785   -8.3992   13.3127 C   0  0  0  0  0  0
    5.7772   -8.9065   13.3142 C   0  0  0  0  0  0
    4.7515   -8.1764   13.9204 C   0  0  0  0  0  0
    5.0210   -6.9499   14.5375 C   0  0  0  0  0  0
    6.3283   -6.4457   14.5422 C   0  0  0  0  0  0
    2.9767   -6.6013   15.1594 H   0  0  0  0  0  0
    5.5790   -7.5711   10.4460 C   0  0  0  0  0  0
    5.7639   -9.0350   10.0868 C   0  0  0  0  0  0
    5.4784   -9.3215    8.5805 C   0  0  0  0  0  0
    4.1592   -8.6578    8.1433 C   0  0  0  0  0  0
    2.9639   -9.3831    8.0458 C   0  0  0  0  0  0
    4.1538   -7.2939    7.8330 C   0  0  0  0  0  0
    1.7289   -8.7204    7.9241 C   0  0  0  0  0  0
    2.9402   -6.6343    7.6323 C   0  0  0  0  0  0
    1.7349   -7.3238    7.7722 C   0  0  0  0  0  0
    0.4198   -9.4999    7.9587 C   0  0  0  0  0  0
    4.5504   -7.3250   11.0553 O   0  0  0  0  0  0
    4.8592   -9.8120   10.9236 N   0  0  0  0  0  0
   -0.6814   -8.9775    7.4687 N   0  3  0  0  0  0
    0.3772  -10.7051    8.4804 N   0  0  0  0  0  0
    6.4603   -6.5806   10.1247 N   0  0  0  0  0  0
    7.7173   -6.8460    9.4155 C   0  0  0  0  0  0
    8.8538   -6.2549   10.2806 C   0  0  0  0  0  0
    8.5519   -4.8602   10.5762 N   0  0  0  0  0  0
    7.2996   -4.5626   11.2654 C   0  0  0  0  0  0
    6.1325   -5.1908   10.4621 C   0  0  0  0  0  0
    9.8604   -2.9556   11.1839 C   0  0  0  0  0  0
   10.7329   -1.9242   10.8212 C   0  0  0  0  0  0
   11.1744   -1.8131    9.5014 C   0  0  0  0  0  0
    3.4676   -4.4346   16.2394 H   0  0  0  0  0  0
    5.7802   -3.5319   16.2268 H   0  0  0  0  0  0
    7.6025   -4.8049   15.1488 H   0  0  0  0  0  0
    8.3771   -6.8130   13.9518 H   0  0  0  0  0  0
    7.8769   -8.9485   12.8263 H   0  0  0  0  0  0
    3.7420   -8.5728   13.9050 H   0  0  0  0  0  0
   10.7308   -2.7274    8.5411 C   0  0  0  0  0  0
    9.8418   -3.7428    8.9003 C   0  0  0  0  0  0
   11.0695   -1.2117   11.5673 H   0  0  0  0  0  0
   11.8586   -1.0187    9.2225 H   0  0  0  0  0  0
   11.0797   -2.6437    7.5159 H   0  0  0  0  0  0
    9.4865   -4.4375    8.1445 H   0  0  0  0  0  0
  1  2  1  0  0  0
  1 34  2  0  0  0
  1 36  1  0  0  0
  2  3  2  0  0  0
  2 60  1  0  0  0
  3  4  1  0  0  0
  3 61  1  0  0  0
  4 35  2  0  0  0
  4 62  1  0  0  0
  5 38  1  0  0  0
  6 39  1  0  0  0
  7 39  1  0  0  0
  8 41  1  0  0  0
  9 42  1  0  0  0
 10 44  1  0  0  0
 11 45  1  0  0  0
 12 48  1  0  0  0
 13 49  1  0  0  0
 14 49  1  0  0  0
 15 50  1  0  0  0
 16 50  1  0  0  0
 17 52  1  0  0  0
 18 52  1  0  0  0
 19 53  1  0  0  0
 20 53  1  0  0  0
 21 57  1  0  0  0
 22 54  1  0  0  0
 22 57  1  0  0  0
 22 67  2  0  0  0
 23 55  1  0  0  0
 24 55  1  0  0  0
 25 56  1  0  0  0
 26 56  1  0  0  0
 27 28  2  0  0  0
 27 29  2  0  0  0
 27 32  1  0  0  0
 27 48  1  0  0  0
 30 31  2  0  0  0
 30 35  1  0  0  0
 30 63  1  0  0  0
 31 32  1  0  0  0
 31 64  1  0  0  0
 32 33  2  0  0  0
 33 34  1  0  0  0
 33 65  1  0  0  0
 34 35  1  0  0  0
 37 38  1  0  0  0
 37 47  2  0  0  0
 37 51  1  0  0  0
 38 39  1  0  0  0
 38 48  1  0  0  0
 39 40  1  0  0  0
 40 41  2  0  0  0
 40 42  1  0  0  0
 41 43  1  0  0  0
 42 44  2  0  0  0
 43 45  2  0  0  0
 43 46  1  0  0  0
 44 45  1  0  0  0
 46 49  2  0  0  0
 46 50  1  0  0  0
 51 52  1  0  0  0
 51 56  1  0  0  0
 52 53  1  0  0  0
 53 54  1  0  0  0
 54 55  1  0  0  0
 55 56  1  0  0  0
 57 58  2  0  0  0
 58 59  1  0  0  0
 58 68  1  0  0  0
 59 66  2  0  0  0
 59 69  1  0  0  0
 66 67  1  0  0  0
 66 70  1  0  0  0
 67 71  1  0  0  0
M  CHG  1  49   1
M  END
>  <ACTIVITY>
6.28

>  <SET>
1

>  <Min_dist>
999.9

>  <Avg_dist>
999.9

$$$$
85
  Cerius2 12110214423D 1   1.00000                          
Structure written by Cerius2 SD Exporter
 71 74  0  0  0  0  0  0  0  0999 V2000
    3.9023   -6.3617   15.2899 C   0  0  0  0  0  0
    4.0735   -5.1483   15.9599 C   0  0  0  0  0  0
    5.3426   -4.5701   16.0407 C   0  0  0  0  0  0
    6.4384   -5.2076   15.4520 C   0  0  0  0  0  0
    6.7484   -9.2889   10.3892 H   0  0  0  0  0  0
    5.2567  -10.5018    8.6529 H   0  0  0  0  0  0
    6.1546   -9.1099    8.0298 H   0  0  0  0  0  0
    2.7759  -10.4284    8.5240 H   0  0  0  0  0  0
    5.0661   -6.9097    7.6897 H   0  0  0  0  0  0
    3.0145   -5.6900    7.0789 H   0  0  0  0  0  0
    0.8195   -6.7979    7.2669 H   0  0  0  0  0  0
    3.9455   -9.9080   10.9633 H   0  0  0  0  0  0
   -1.6028   -9.3830    7.0827 H   0  0  0  0  0  0
   -0.5428   -8.0715    6.5479 H   0  0  0  0  0  0
    0.8866  -10.9132    9.0819 H   0  0  0  0  0  0
   -0.7752  -11.0263    8.4831 H   0  0  0  0  0  0
    7.5663   -6.0634    8.0210 C   0  0  0  0  0  0
    7.7834   -7.7504    9.2155 H   0  0  0  0  0  0
   10.0902   -6.2737    9.6122 C   0  0  0  0  0  0
    8.7071   -6.7258   11.2166 H   0  0  0  0  0  0
    8.3816   -4.0445    9.7361 H   0  0  0  0  0  0
   10.8809   -5.9409   10.3029 H   0  0  0  0  0  0
    6.8423   -3.4738   11.6180 H   0  0  0  0  0  0
    7.1098   -5.0758   12.3508 H   0  0  0  0  0  0
    4.9837   -5.0853   11.1622 H   0  0  0  0  0  0
    5.7168   -4.4932    9.6805 H   0  0  0  0  0  0
    5.6655  -10.4129   12.6094 S   0  0  0  0  0  0
    6.9495  -11.0100   12.2944 O   0  0  0  0  0  0
    4.6761  -11.1842   13.3360 O   0  0  0  0  0  0
    7.3654   -7.0741   14.1931 C   0  0  0  0  0  0
    7.1901   -8.2853   13.5194 C   0  0  0  0  0  0
    5.9229   -8.8709   13.4519 C   0  0  0  0  0  0
    4.8297   -8.2203   14.0287 C   0  0  0  0  0  0
    4.9989   -7.0039   14.6996 C   0  0  0  0  0  0
    6.2715   -6.4262   14.7827 C   0  0  0  0  0  0
    2.9109   -6.8004   15.2332 H   0  0  0  0  0  0
    5.4597   -7.5366   10.4707 C   0  0  0  0  0  0
    5.7081   -9.0056   10.1751 C   0  0  0  0  0  0
    5.3457   -9.4056    8.7155 C   0  0  0  0  0  0
    4.0508   -8.7255    8.2363 C   0  0  0  0  0  0
    2.8146   -9.3846    8.2347 C   0  0  0  0  0  0
    4.1124   -7.4084    7.7740 C   0  0  0  0  0  0
    1.6432   -8.7151    7.8515 C   0  0  0  0  0  0
    2.9532   -6.7207    7.4141 C   0  0  0  0  0  0
    1.7170   -7.3656    7.4892 C   0  0  0  0  0  0
    0.3004   -9.4255    7.8196 C   0  0  0  0  0  0
    4.4179   -7.3398   11.0774 O   0  0  0  0  0  0
    4.9280   -9.7981   11.1182 N   0  0  0  0  0  0
   -0.6791   -8.9253    7.1080 N   0  3  0  0  0  0
    0.1279  -10.5286    8.5018 N   0  0  0  0  0  0
    6.2785   -6.4929   10.1249 N   0  0  0  0  0  0
    7.5451   -6.6968    9.3968 C   0  0  0  0  0  0
    8.6934   -6.1370   10.2826 C   0  0  0  0  0  0
    8.4039   -4.6576   10.6510 C   0  0  0  0  0  0
    7.0500   -4.5339   11.3948 C   0  0  0  0  0  0
    5.8997   -5.1360   10.5517 C   0  0  0  0  0  0
   10.1540   -5.6641    8.6988 H   0  0  0  0  0  0
   10.2887   -7.3231    9.3474 H   0  0  0  0  0  0
    9.2048   -4.2733   11.3044 H   0  0  0  0  0  0
    3.2212   -4.6550   16.4176 H   0  0  0  0  0  0
    5.4762   -3.6264   16.5607 H   0  0  0  0  0  0
    7.4184   -4.7453   15.5210 H   0  0  0  0  0  0
    8.3588   -6.6398   14.2528 H   0  0  0  0  0  0
    8.0403   -8.7694   13.0507 H   0  0  0  0  0  0
    3.8472   -8.6730   13.9486 H   0  0  0  0  0  0
    6.8183   -5.1502    7.7121 O   0  0  0  0  0  0
    8.4611   -6.6025    7.1746 O   0  0  0  0  0  0
    8.5961   -5.9607    5.8880 C   0  0  0  0  0  0
    9.5729   -5.4560    5.8437 H   0  0  0  0  0  0
    7.8169   -5.2404    5.5950 H   0  0  0  0  0  0
    8.5944   -6.7713    5.1460 H   0  0  0  0  0  0
  1  2  1  0  0  0
  1 34  2  0  0  0
  1 36  1  0  0  0
  2  3  2  0  0  0
  2 60  1  0  0  0
  3  4  1  0  0  0
  3 61  1  0  0  0
  4 35  2  0  0  0
  4 62  1  0  0  0
  5 38  1  0  0  0
  6 39  1  0  0  0
  7 39  1  0  0  0
  8 41  1  0  0  0
  9 42  1  0  0  0
 10 44  1  0  0  0
 11 45  1  0  0  0
 12 48  1  0  0  0
 13 49  1  0  0  0
 14 49  1  0  0  0
 15 50  1  0  0  0
 16 50  1  0  0  0
 17 52  1  0  0  0
 17 66  2  0  0  0
 17 67  1  0  0  0
 18 52  1  0  0  0
 19 22  1  0  0  0
 19 53  1  0  0  0
 19 57  1  0  0  0
 19 58  1  0  0  0
 20 53  1  0  0  0
 21 54  1  0  0  0
 23 55  1  0  0  0
 24 55  1  0  0  0
 25 56  1  0  0  0
 26 56  1  0  0  0
 27 28  2  0  0  0
 27 29  2  0  0  0
 27 32  1  0  0  0
 27 48  1  0  0  0
 30 31  2  0  0  0
 30 35  1  0  0  0
 30 63  1  0  0  0
 31 32  1  0  0  0
 31 64  1  0  0  0
 32 33  2  0  0  0
 33 34  1  0  0  0
 33 65  1  0  0  0
 34 35  1  0  0  0
 37 38  1  0  0  0
 37 47  2  0  0  0
 37 51  1  0  0  0
 38 39  1  0  0  0
 38 48  1  0  0  0
 39 40  1  0  0  0
 40 41  2  0  0  0
 40 42  1  0  0  0
 41 43  1  0  0  0
 42 44  2  0  0  0
 43 45  2  0  0  0
 43 46  1  0  0  0
 44 45  1  0  0  0
 46 49  2  0  0  0
 46 50  1  0  0  0
 51 52  1  0  0  0
 51 56  1  0  0  0
 52 53  1  0  0  0
 53 54  1  0  0  0
 54 55  1  0  0  0
 54 59  1  0  0  0
 55 56  1  0  0  0
 67 68  1  0  0  0
 68 69  1  0  0  0
 68 70  1  0  0  0
 68 71  1  0  0  0
M  CHG  1  49   1
M  END
>  <ACTIVITY>
6.28

>  <SET>
1

>  <Min_dist>
999.9

>  <Avg_dist>
999.9

$$$$
86
  Cerius2 12110214423D 1   1.00000                          
Structure written by Cerius2 SD Exporter
 74 77  0  0  0  0  0  0  0  0999 V2000
    3.8467   -6.3900   15.2869 C   0  0  0  0  0  0
    3.9965   -5.1766   15.9626 C   0  0  0  0  0  0
    5.2534   -4.5749   16.0423 C   0  0  0  0  0  0
    6.3525   -5.1887   15.4335 C   0  0  0  0  0  0
    6.7801   -9.2976   10.3892 H   0  0  0  0  0  0
    5.2568  -10.4950    8.6499 H   0  0  0  0  0  0
    6.1694   -9.1182    8.0270 H   0  0  0  0  0  0
    2.8034  -10.3946    8.5106 H   0  0  0  0  0  0
    5.1108   -6.8634    7.7294 H   0  0  0  0  0  0
    3.0604   -5.6586    7.0774 H   0  0  0  0  0  0
    0.8652   -6.7636    7.2372 H   0  0  0  0  0  0
    3.9667   -9.9207   10.9644 H   0  0  0  0  0  0
   -1.5705   -9.3639    7.0729 H   0  0  0  0  0  0
   -0.5163   -8.0512    6.5308 H   0  0  0  0  0  0
    0.9169  -10.8749    9.0831 H   0  0  0  0  0  0
   -0.7418  -10.9940    8.4791 H   0  0  0  0  0  0
    7.5635   -6.1803    8.4275 H   0  0  0  0  0  0
    7.8003   -7.7929    9.0939 H   0  0  0  0  0  0
    9.6622   -6.3110    9.7922 H   0  0  0  0  0  0
    8.7109   -6.8499   11.2038 H   0  0  0  0  0  0
    8.4631   -4.1389    9.7519 H   0  0  0  0  0  0
    9.4907   -4.2532   11.6353 C   0  0  0  0  0  0
    6.8201   -3.5029   11.4952 H   0  0  0  0  0  0
    6.9682   -5.1018   12.2706 H   0  0  0  0  0  0
    4.9391   -5.0398   10.8609 H   0  0  0  0  0  0
    5.8855   -4.5750    9.4396 H   0  0  0  0  0  0
    5.6674  -10.4205   12.6196 S   0  0  0  0  0  0
    6.9555  -11.0170   12.3164 O   0  0  0  0  0  0
    4.6730  -11.1991   13.3365 O   0  0  0  0  0  0
    7.3208   -7.0656   14.2153 C   0  0  0  0  0  0
    7.1641   -8.2793   13.5404 C   0  0  0  0  0  0
    5.9068   -8.8759   13.4622 C   0  0  0  0  0  0
    4.8044   -8.2352   14.0337 C   0  0  0  0  0  0
    4.9518   -7.0162   14.7013 C   0  0  0  0  0  0
    6.2159   -6.4191   14.7816 C   0  0  0  0  0  0
    2.8605   -6.8378   15.2293 H   0  0  0  0  0  0
    5.4898   -7.5543   10.4737 C   0  0  0  0  0  0
    5.7341   -9.0222   10.1836 C   0  0  0  0  0  0
    5.3626   -9.4014    8.7189 C   0  0  0  0  0  0
    4.0825   -8.6949    8.2393 C   0  0  0  0  0  0
    2.8459   -9.3491    8.2282 C   0  0  0  0  0  0
    4.1555   -7.3713    7.7928 C   0  0  0  0  0  0
    1.6747   -8.6811    7.8402 C   0  0  0  0  0  0
    2.9972   -6.6896    7.4148 C   0  0  0  0  0  0
    1.7591   -7.3316    7.4738 C   0  0  0  0  0  0
    0.3339   -9.3929    7.8108 C   0  0  0  0  0  0
    4.4756   -7.3338   11.1185 O   0  0  0  0  0  0
    4.9468   -9.8141   11.1254 N   0  0  0  0  0  0
   -0.6491   -8.9018    7.0959 N   0  3  0  0  0  0
    0.1599  -10.4942    8.4985 N   0  0  0  0  0  0
    6.3009   -6.5309   10.0661 N   0  0  0  0  0  0
    7.5658   -6.7581    9.3662 C   0  0  0  0  0  0
    8.6851   -6.2254   10.2963 C   0  0  0  0  0  0
    8.4255   -4.7418   10.6782 C   0  0  0  0  0  0
    7.0159   -4.5719   11.3073 C   0  0  0  0  0  0
    5.9225   -5.1536   10.3768 C   0  0  0  0  0  0
   10.2205   -3.3271   11.3148 O   0  0  0  0  0  0
    9.5565   -4.9043   12.8126 O   0  0  0  0  0  0
   10.6061   -4.4955   13.7312 C   0  0  0  0  0  0
    3.1368   -4.6970   16.4237 H   0  0  0  0  0  0
    5.3730   -3.6369   16.5784 H   0  0  0  0  0  0
    7.3046   -4.6924   15.4683 H   0  0  0  0  0  0
    8.3119   -6.6344   14.2930 H   0  0  0  0  0  0
    8.0199   -8.7568   13.0766 H   0  0  0  0  0  0
    3.8301   -8.6976   13.9515 H   0  0  0  0  0  0
    9.9607   -4.0214   15.0625 C   0  0  0  0  0  0
   11.2580   -3.6767   13.3672 H   0  0  0  0  0  0
   11.4945   -5.7321   14.0289 C   0  0  0  0  0  0
   10.7119   -3.5449   15.7137 H   0  0  0  0  0  0
    9.5391   -4.8734   15.6167 H   0  0  0  0  0  0
    9.1633   -3.2902   14.8545 H   0  0  0  0  0  0
   12.2805   -5.4665   14.7521 H   0  0  0  0  0  0
   11.9637   -6.0890   13.1023 H   0  0  0  0  0  0
   10.8955   -6.5533   14.4515 H   0  0  0  0  0  0
  1  2  1  0  0  0
  1 34  2  0  0  0
  1 36  1  0  0  0
  2  3  2  0  0  0
  2 60  1  0  0  0
  3  4  1  0  0  0
  3 61  1  0  0  0
  4 35  2  0  0  0
  4 62  1  0  0  0
  5 38  1  0  0  0
  6 39  1  0  0  0
  7 39  1  0  0  0
  8 41  1  0  0  0
  9 42  1  0  0  0
 10 44  1  0  0  0
 11 45  1  0  0  0
 12 48  1  0  0  0
 13 49  1  0  0  0
 14 49  1  0  0  0
 15 50  1  0  0  0
 16 50  1  0  0  0
 17 52  1  0  0  0
 18 52  1  0  0  0
 19 53  1  0  0  0
 20 53  1  0  0  0
 21 54  1  0  0  0
 22 54  1  0  0  0
 22 57  2  0  0  0
 22 58  1  0  0  0
 23 55  1  0  0  0
 24 55  1  0  0  0
 25 56  1  0  0  0
 26 56  1  0  0  0
 27 28  2  0  0  0
 27 29  2  0  0  0
 27 32  1  0  0  0
 27 48  1  0  0  0
 30 31  2  0  0  0
 30 35  1  0  0  0
 30 63  1  0  0  0
 31 32  1  0  0  0
 31 64  1  0  0  0
 32 33  2  0  0  0
 33 34  1  0  0  0
 33 65  1  0  0  0
 34 35  1  0  0  0
 37 38  1  0  0  0
 37 47  2  0  0  0
 37 51  1  0  0  0
 38 39  1  0  0  0
 38 48  1  0  0  0
 39 40  1  0  0  0
 40 41  2  0  0  0
 40 42  1  0  0  0
 41 43  1  0  0  0
 42 44  2  0  0  0
 43 45  2  0  0  0
 43 46  1  0  0  0
 44 45  1  0  0  0
 46 49  2  0  0  0
 46 50  1  0  0  0
 51 52  1  0  0  0
 51 56  1  0  0  0
 52 53  1  0  0  0
 53 54  1  0  0  0
 54 55  1  0  0  0
 55 56  1  0  0  0
 58 59  1  0  0  0
 59 66  1  0  0  0
 59 67  1  0  0  0
 59 68  1  0  0  0
 66 69  1  0  0  0
 66 70  1  0  0  0
 66 71  1  0  0  0
 68 72  1  0  0  0
 68 73  1  0  0  0
 68 74  1  0  0  0
M  CHG  1  49   1
M  END
>  <ACTIVITY>
6.15

>  <SET>
1

>  <Min_dist>
999.9

>  <Avg_dist>
999.9

$$$$
87
  Cerius2 12110214423D 1   1.00000                          
Structure written by Cerius2 SD Exporter
 73 74  0  0  0  0  0  0  0  0999 V2000
    3.8782   -7.9714   13.7326 C   0  0  0  0  0  0
    5.2081   -5.7947   14.5207 H   0  0  0  0  0  0
    7.7463   -4.9570   14.9592 C   0  0  0  0  0  0
    8.8779   -9.5806   13.3783 C   0  0  0  0  0  0
    9.2129   -7.0060   13.8637 H   0  0  0  0  0  0
    3.5799   -8.8338   13.1317 H   0  0  0  0  0  0
    8.6381   -4.1123   14.0294 C   0  0  0  0  0  0
    6.8031   -9.2575   10.1936 H   0  0  0  0  0  0
    5.2674  -10.5781    8.5359 H   0  0  0  0  0  0
    6.1851   -9.2198    7.8555 H   0  0  0  0  0  0
    2.7964  -10.4562    8.4116 H   0  0  0  0  0  0
    5.1412   -6.9984    7.4376 H   0  0  0  0  0  0
    3.0819   -5.7196    6.9692 H   0  0  0  0  0  0
    0.8727   -6.7789    7.2537 H   0  0  0  0  0  0
    3.9648   -9.7888   10.8805 H   0  0  0  0  0  0
   -1.6022   -9.3301    7.1126 H   0  0  0  0  0  0
   -0.5379   -8.0301    6.5592 H   0  0  0  0  0  0
    0.9214  -10.9181    9.0225 H   0  0  0  0  0  0
   -0.7589  -10.9997    8.4734 H   0  0  0  0  0  0
    6.4816   -6.6411    9.9719 N   0  0  0  0  0  0
    7.4263   -6.9265    9.7931 H   0  0  0  0  0  0
    6.1905   -5.2117   10.0443 C   0  0  0  0  0  0
    6.8178   -4.7411   10.8168 H   0  0  0  0  0  0
    5.1333   -5.0173   10.2958 H   0  0  0  0  0  0
    6.4035   -4.7359    9.0745 H   0  0  0  0  0  0
    5.7340  -10.2836   12.4999 S   0  0  0  0  0  0
    6.7811  -11.1448   12.0001 O   0  0  0  0  0  0
    4.7355  -10.8828   13.3669 O   0  0  0  0  0  0
    6.3551   -8.7648   13.2817 C   0  0  0  0  0  0
    5.4267   -7.7854   13.7065 C   0  0  0  0  0  0
    5.9025   -6.5630   14.2015 C   0  0  0  0  0  0
    7.2644   -6.2827   14.3235 C   0  0  0  0  0  0
    8.1601   -7.2585   13.8861 C   0  0  0  0  0  0
    7.7327   -8.5359   13.4984 C   0  0  0  0  0  0
    8.4806   -5.2787   16.2856 C   0  0  0  0  0  0
    5.4900   -7.5468   10.1229 C   0  0  0  0  0  0
    5.7486   -9.0263    9.9922 C   0  0  0  0  0  0
    5.3755   -9.4841    8.5525 C   0  0  0  0  0  0
    4.0944   -8.7840    8.0684 C   0  0  0  0  0  0
    2.8461   -9.4144    8.1153 C   0  0  0  0  0  0
    4.1761   -7.4718    7.5808 C   0  0  0  0  0  0
    1.6757   -8.7225    7.7792 C   0  0  0  0  0  0
    3.0145   -6.7552    7.2910 C   0  0  0  0  0  0
    1.7677   -7.3694    7.4230 C   0  0  0  0  0  0
    0.3230   -9.4091    7.7896 C   0  0  0  0  0  0
    4.3329   -7.2507   10.3266 O   0  0  0  0  0  0
    4.9496   -9.6815   11.0239 N   0  0  0  0  0  0
   -0.6725   -8.8867    7.1139 N   0  3  0  0  0  0
    0.1515  -10.5162    8.4688 N   0  0  0  0  0  0
    6.8776   -4.3257   15.1987 H   0  0  0  0  0  0
    2.9916   -6.8006   13.2032 C   0  0  0  0  0  0
    3.4636   -8.2447   15.2037 C   0  0  0  0  0  0
    8.5024  -10.5983   13.2714 H   0  0  0  0  0  0
    9.6947   -9.7021   14.6975 C   0  0  0  0  0  0
    9.8059   -9.2777   12.1690 C   0  0  0  0  0  0
    9.5264   -4.6799   13.7445 H   0  0  0  0  0  0
    8.9663   -3.1734   14.4978 H   0  0  0  0  0  0
    8.0477   -3.8759   13.1404 H   0  0  0  0  0  0
    7.7976   -5.8450   16.9445 H   0  0  0  0  0  0
    8.7652   -4.3387   16.7901 H   0  0  0  0  0  0
    9.3960   -5.8797   16.1282 H   0  0  0  0  0  0
    3.1182   -5.8553   13.7432 H   0  0  0  0  0  0
    1.9292   -7.0731   13.2932 H   0  0  0  0  0  0
    3.1602   -6.5837   12.1496 H   0  0  0  0  0  0
    4.0316   -9.0922   15.6157 H   0  0  0  0  0  0
    2.3895   -8.4812   15.2734 H   0  0  0  0  0  0
    3.6581   -7.3576   15.8281 H   0  0  0  0  0  0
   10.1929   -8.7678   14.9894 H   0  0  0  0  0  0
   10.4780  -10.4701   14.5893 H   0  0  0  0  0  0
    9.0291  -10.0076   15.5208 H   0  0  0  0  0  0
    9.2232   -9.2733   11.2368 H   0  0  0  0  0  0
   10.5881  -10.0471   12.0822 H   0  0  0  0  0  0
   10.3097   -8.3057   12.2634 H   0  0  0  0  0  0
  1  6  1  0  0  0
  1 30  1  0  0  0
  1 51  1  0  0  0
  1 52  1  0  0  0
  2 31  1  0  0  0
  3  7  1  0  0  0
  3 32  1  0  0  0
  3 35  1  0  0  0
  3 50  1  0  0  0
  4 34  1  0  0  0
  4 53  1  0  0  0
  4 54  1  0  0  0
  4 55  1  0  0  0
  5 33  1  0  0  0
  7 56  1  0  0  0
  7 57  1  0  0  0
  7 58  1  0  0  0
  8 37  1  0  0  0
  9 38  1  0  0  0
 10 38  1  0  0  0
 11 40  1  0  0  0
 12 41  1  0  0  0
 13 43  1  0  0  0
 14 44  1  0  0  0
 15 47  1  0  0  0
 16 48  1  0  0  0
 17 48  1  0  0  0
 18 49  1  0  0  0
 19 49  1  0  0  0
 20 21  1  0  0  0
 20 22  1  0  0  0
 20 36  1  0  0  0
 22 23  1  0  0  0
 22 24  1  0  0  0
 22 25  1  0  0  0
 26 27  2  0  0  0
 26 28  2  0  0  0
 26 29  1  0  0  0
 26 47  1  0  0  0
 29 30  1  0  0  0
 29 34  2  0  0  0
 30 31  2  0  0  0
 31 32  1  0  0  0
 32 33  2  0  0  0
 33 34  1  0  0  0
 35 59  1  0  0  0
 35 60  1  0  0  0
 35 61  1  0  0  0
 36 37  1  0  0  0
 36 46  2  0  0  0
 37 38  1  0  0  0
 37 47  1  0  0  0
 38 39  1  0  0  0
 39 40  2  0  0  0
 39 41  1  0  0  0
 40 42  1  0  0  0
 41 43  2  0  0  0
 42 44  2  0  0  0
 42 45  1  0  0  0
 43 44  1  0  0  0
 45 48  2  0  0  0
 45 49  1  0  0  0
 51 62  1  0  0  0
 51 63  1  0  0  0
 51 64  1  0  0  0
 52 65  1  0  0  0
 52 66  1  0  0  0
 52 67  1  0  0  0
 54 68  1  0  0  0
 54 69  1  0  0  0
 54 70  1  0  0  0
 55 71  1  0  0  0
 55 72  1  0  0  0
 55 73  1  0  0  0
M  CHG  1  48   1
M  END
>  <ACTIVITY>
5.42

>  <SET>
1

>  <Min_dist>
999.9

>  <Avg_dist>
999.9

$$$$
88
  Cerius2 12110214423D 1   1.00000                          
Structure written by Cerius2 SD Exporter
 49 50  0  0  0  0  0  0  0  0999 V2000
    3.8439   -8.6852   14.0363 H   0  0  0  0  0  0
    4.0502   -6.5238   15.2149 H   0  0  0  0  0  0
    8.2660   -6.4664   14.3502 H   0  0  0  0  0  0
    8.0499   -8.6286   13.1707 H   0  0  0  0  0  0
    6.3228   -4.9671   15.5327 C   0  0  0  0  0  0
    5.3664   -4.5917   15.9261 H   0  0  0  0  0  0
    6.7121   -4.2349   14.8075 H   0  0  0  0  0  0
    6.7597   -9.1999   10.4056 H   0  0  0  0  0  0
    5.2662  -10.4505    8.6631 H   0  0  0  0  0  0
    6.1672   -9.0475    8.0892 H   0  0  0  0  0  0
    2.8037  -10.3623    8.5233 H   0  0  0  0  0  0
    5.1072   -6.8340    7.7476 H   0  0  0  0  0  0
    3.0786   -5.6759    6.9603 H   0  0  0  0  0  0
    0.8846   -6.7559    7.1409 H   0  0  0  0  0  0
    4.0235  -10.0360   11.0367 H   0  0  0  0  0  0
   -1.5912   -9.3818    7.0473 H   0  0  0  0  0  0
   -0.5456   -8.0894    6.4541 H   0  0  0  0  0  0
    0.8604  -10.8436    9.1024 H   0  0  0  0  0  0
   -0.7826  -10.9632    8.4672 H   0  0  0  0  0  0
    6.2681   -6.6189   10.1329 N   0  0  0  0  0  0
    7.0865   -6.8689    9.6141 H   0  0  0  0  0  0
    6.0326   -5.2011   10.3969 C   0  0  0  0  0  0
    6.8764   -4.7891   10.9763 H   0  0  0  0  0  0
    5.1053   -5.0288   10.9651 H   0  0  0  0  0  0
    5.9558   -4.6615    9.4375 H   0  0  0  0  0  0
    5.7455  -10.3544   12.6718 S   0  0  0  0  0  0
    7.0608  -10.8836   12.3736 O   0  0  0  0  0  0
    4.8098  -11.1764   13.4081 O   0  0  0  0  0  0
    5.9306   -8.8077   13.5289 C   0  0  0  0  0  0
    4.8107   -8.2000   14.1032 C   0  0  0  0  0  0
    4.9296   -6.9727   14.7645 C   0  0  0  0  0  0
    6.1719   -6.3313   14.8446 C   0  0  0  0  0  0
    7.2930   -6.9455   14.2764 C   0  0  0  0  0  0
    7.1721   -8.1715   13.6154 C   0  0  0  0  0  0
    7.0332   -5.0531   16.3665 H   0  0  0  0  0  0
    5.4072   -7.5655   10.5646 C   0  0  0  0  0  0
    5.6913   -9.0097   10.2413 C   0  0  0  0  0  0
    5.3519   -9.3588    8.7616 C   0  0  0  0  0  0
    4.0746   -8.6677    8.2485 C   0  0  0  0  0  0
    2.8368   -9.3232    8.2212 C   0  0  0  0  0  0
    4.1547   -7.3522    7.7795 C   0  0  0  0  0  0
    1.6654   -8.6702    7.8069 C   0  0  0  0  0  0
    3.0056   -6.6903    7.3447 C   0  0  0  0  0  0
    1.7648   -7.3305    7.4070 C   0  0  0  0  0  0
    0.3158   -9.3819    7.7831 C   0  0  0  0  0  0
    4.4000   -7.3082   11.2052 O   0  0  0  0  0  0
    4.9893   -9.8427   11.2028 N   0  0  0  0  0  0
   -0.6676   -8.9187    7.0513 N   0  3  0  0  0  0
    0.1223  -10.4659    8.4942 N   0  0  0  0  0  0
  1 30  1  0  0  0
  2 31  1  0  0  0
  3 33  1  0  0  0
  4 34  1  0  0  0
  5  6  1  0  0  0
  5  7  1  0  0  0
  5 32  1  0  0  0
  5 35  1  0  0  0
  8 37  1  0  0  0
  9 38  1  0  0  0
 10 38  1  0  0  0
 11 40  1  0  0  0
 12 41  1  0  0  0
 13 43  1  0  0  0
 14 44  1  0  0  0
 15 47  1  0  0  0
 16 48  1  0  0  0
 17 48  1  0  0  0
 18 49  1  0  0  0
 19 49  1  0  0  0
 20 21  1  0  0  0
 20 22  1  0  0  0
 20 36  1  0  0  0
 22 23  1  0  0  0
 22 24  1  0  0  0
 22 25  1  0  0  0
 26 27  2  0  0  0
 26 28  2  0  0  0
 26 29  1  0  0  0
 26 47  1  0  0  0
 29 30  1  0  0  0
 29 34  2  0  0  0
 30 31  2  0  0  0
 31 32  1  0  0  0
 32 33  2  0  0  0
 33 34  1  0  0  0
 36 37  1  0  0  0
 36 46  2  0  0  0
 37 38  1  0  0  0
 37 47  1  0  0  0
 38 39  1  0  0  0
 39 40  2  0  0  0
 39 41  1  0  0  0
 40 42  1  0  0  0
 41 43  2  0  0  0
 42 44  2  0  0  0
 42 45  1  0  0  0
 43 44  1  0  0  0
 45 48  2  0  0  0
 45 49  1  0  0  0
M  CHG  1  48   1
M  END
>  <ACTIVITY>
4.74

>  <SET>
1

>  <Min_dist>
999.9

>  <Avg_dist>
999.9

$$$$
