
  MOLCODE 1008081059

  6  5  0  0  0  0  0  0  0  0999 V2000
    0.0000    0.0000    0.0000 C   0 0 0 0 0 0 0 0 0 0 0 0
    1.4104    0.0000    0.0000 O   0 0 0 0 0 0 0 0 0 0 0 0
   -0.3997    1.0448    0.0000 H   0 0 0 0 0 0 0 0 0 0 0 0
   -0.2920   -0.5222    0.9456 H   0 0 0 0 0 0 0 0 0 0 0 0
   -0.4000   -0.5564   -0.8842 H   0 0 0 0 0 0 0 0 0 0 0 0
    1.6950    0.4450   -0.8065 H   0 0 0 0 0 0 0 0 0 0 0 0
  1  2  1  0  0  0  0
  1  3  1  0  0  0  0
  1  4  1  0  0  0  0
  1  5  1  0  0  0  0
  2  6  1  0  0  0  0
M  END

> <Name>
Methanol

> <CAS>
67-56-1

> <Type>
Training

> <Acute oral toxicity, IC50 exp.>
2.97E+00

> <Acute oral toxicity, IC50 pred.>
2.69
$$$$

  MOLCODE 1008081059

 12 11  0  0  0  0  0  0  0  0999 V2000
    0.0000    0.0000    0.0000 C   0 0 0 0 0 0 0 0 0 0 0 0
    1.5177    0.0000    0.0000 C   0 0 0 0 0 0 0 0 0 0 0 0
   -0.5573    1.4117    0.0000 C   0 0 0 0 0 0 0 0 0 0 0 0
   -0.4027   -0.7116    1.1666 O   0 0 0 0 0 0 0 0 0 0 0 0
   -0.3801   -0.5536   -0.9070 H   0 0 0 0 0 0 0 0 0 0 0 0
    1.9047    0.5576    0.8856 H   0 0 0 0 0 0 0 0 0 0 0 0
    1.8906    0.4856   -0.9319 H   0 0 0 0 0 0 0 0 0 0 0 0
    1.8986   -1.0478    0.0488 H   0 0 0 0 0 0 0 0 0 0 0 0
   -1.6728    1.3901   -0.0353 H   0 0 0 0 0 0 0 0 0 0 0 0
   -0.2427    1.9513    0.9251 H   0 0 0 0 0 0 0 0 0 0 0 0
   -0.1809    1.9703   -0.8891 H   0 0 0 0 0 0 0 0 0 0 0 0
   -1.3620   -0.6375    1.2215 H   0 0 0 0 0 0 0 0 0 0 0 0
  1  2  1  0  0  0  0
  1  3  1  0  0  0  0
  1  4  1  0  0  0  0
  1  5  1  0  0  0  0
  2  6  1  0  0  0  0
  2  7  1  0  0  0  0
  2  8  1  0  0  0  0
  3  9  1  0  0  0  0
  3 10  1  0  0  0  0
  3 11  1  0  0  0  0
  4 12  1  0  0  0  0
M  END

> <Name>
2-Propanol

> <CAS>
67-63-0

> <Type>
Training

> <Acute oral toxicity, IC50 exp.>
2.22E+00

> <Acute oral toxicity, IC50 pred.>
2.26
$$$$

  MOLCODE 1008081059

 10  9  0  0  0  0  0  0  0  0999 V2000
    0.0000    0.0000    0.0000 C   0 0 0 0 0 0 0 0 0 0 0 0
    1.5262    0.0000    0.0000 C   0 0 0 0 0 0 0 0 0 0 0 0
   -0.4010    1.3615    0.0000 O   0 0 0 0 0 0 0 0 0 0 0 0
    2.0432    0.5755    1.1810 O   0 0 0 0 0 0 0 0 0 0 0 0
   -0.3891   -0.5159   -0.9167 H   0 0 0 0 0 0 0 0 0 0 0 0
   -0.3907   -0.5167    0.9162 H   0 0 0 0 0 0 0 0 0 0 0 0
    1.9080    0.5538   -0.8985 H   0 0 0 0 0 0 0 0 0 0 0 0
    1.9097   -1.0542   -0.0056 H   0 0 0 0 0 0 0 0 0 0 0 0
   -1.3613    1.3705    0.0789 H   0 0 0 0 0 0 0 0 0 0 0 0
    1.6697    1.4643    1.2467 H   0 0 0 0 0 0 0 0 0 0 0 0
  1  2  1  0  0  0  0
  1  3  1  0  0  0  0
  2  4  1  0  0  0  0
  1  5  1  0  0  0  0
  1  6  1  0  0  0  0
  2  7  1  0  0  0  0
  2  8  1  0  0  0  0
  3  9  1  0  0  0  0
  4 10  1  0  0  0  0
M  END

> <Name>
Ethylene glycol

> <CAS>
107-21-1

> <Type>
Training

> <Acute oral toxicity, IC50 exp.>
2.74E+00

> <Acute oral toxicity, IC50 pred.>
2.42
$$$$

  MOLCODE 1008081059

 21 21  0  0  0  0  0  0  0  0999 V2000
    0.0000    0.0000    0.0000 C   0 0 0 0 0 0 0 0 0 0 0 0
    1.2345    0.0000    0.0000 O   0 0 0 0 0 0 0 0 0 0 0 0
   -0.6095    1.2215    0.0000 O   0 0 0 0 0 0 0 0 0 0 0 0
   -0.9122   -1.1502    0.0449 C   0 0 0 0 0 0 0 0 0 0 0 0
   -2.1599   -1.1589   -0.6021 C   0 0 0 0 0 0 0 0 0 0 0 0
   -0.5010   -2.2935    0.7453 C   0 0 0 0 0 0 0 0 0 0 0 0
   -2.5203   -0.1250   -1.4546 O   0 0 0 0 0 0 0 0 0 0 0 0
   -2.9943   -2.2851   -0.5288 C   0 0 0 0 0 0 0 0 0 0 0 0
   -1.3301   -3.4093    0.8196 C   0 0 0 0 0 0 0 0 0 0 0 0
   -3.3143    0.9025   -0.9535 C   0 0 0 0 0 0 0 0 0 0 0 0
   -2.5741   -3.4037    0.1854 C   0 0 0 0 0 0 0 0 0 0 0 0
   -3.6781    0.9278    0.4855 C   0 0 0 0 0 0 0 0 0 0 0 0
   -3.6108    1.7021   -1.8364 O   0 0 0 0 0 0 0 0 0 0 0 0
    0.0641    1.9177   -0.0809 H   0 0 0 0 0 0 0 0 0 0 0 0
    0.4902   -2.2967    1.2285 H   0 0 0 0 0 0 0 0 0 0 0 0
   -3.9614   -2.2771   -1.0532 H   0 0 0 0 0 0 0 0 0 0 0 0
   -0.9995   -4.3001    1.3747 H   0 0 0 0 0 0 0 0 0 0 0 0
   -3.2245   -4.2904    0.2426 H   0 0 0 0 0 0 0 0 0 0 0 0
   -4.4249    1.7372    0.6728 H   0 0 0 0 0 0 0 0 0 0 0 0
   -4.1077   -0.0561    0.7951 H   0 0 0 0 0 0 0 0 0 0 0 0
   -2.7542    1.1298    1.0862 H   0 0 0 0 0 0 0 0 0 0 0 0
  1  2  2  0  0  0  0
  1  3  1  0  0  0  0
  1  4  1  0  0  0  0
  4  5  1  0  0  0  0
  4  6  2  0  0  0  0
  5  7  1  0  0  0  0
  5  8  2  0  0  0  0
  6  9  1  0  0  0  0
  7 10  1  0  0  0  0
  8 11  1  0  0  0  0
  9 11  2  0  0  0  0
 10 12  1  0  0  0  0
 10 13  2  0  0  0  0
  3 14  1  0  0  0  0
  6 15  1  0  0  0  0
  8 16  1  0  0  0  0
  9 17  1  0  0  0  0
 11 18  1  0  0  0  0
 12 19  1  0  0  0  0
 12 20  1  0  0  0  0
 12 21  1  0  0  0  0
M  END

> <Name>
Acetylsalicylic acid

> <CAS>
50-78-2

> <Type>
Training

> <Acute oral toxicity, IC50 exp.>
3.60E-01

> <Acute oral toxicity, IC50 pred.>
0.28
$$$$

  MOLCODE 1008081059

 17 17  0  0  0  0  0  0  0  0999 V2000
    0.0000    0.0000    0.0000 C   0 0 0 0 0 0 0 0 0 0 0 0
    1.3928    0.0000    0.0000 N   0 0 0 0 0 0 0 0 0 0 0 0
   -0.6008    1.0890    0.0000 O   0 0 0 0 0 0 0 0 0 0 0 0
   -0.7093   -1.3096   -0.0136 C   0 0 0 0 0 0 0 0 0 0 0 0
    2.2244   -1.0632    0.0852 N   0 0 0 0 0 0 0 0 0 0 0 0
   -0.5416   -2.2124   -1.0689 C   0 0 0 0 0 0 0 0 0 0 0 0
   -1.5933   -1.6280    1.0223 C   0 0 0 0 0 0 0 0 0 0 0 0
   -1.2717   -3.4150   -1.0360 C   0 0 0 0 0 0 0 0 0 0 0 0
   -2.2709   -2.8604    0.9615 C   0 0 0 0 0 0 0 0 0 0 0 0
   -2.1189   -3.7453   -0.0421 N   0 0 0 0 0 0 0 0 0 0 0 0
    1.8667    0.8824    0.0318 H   0 0 0 0 0 0 0 0 0 0 0 0
    2.0322   -1.5889    0.9327 H   0 0 0 0 0 0 0 0 0 0 0 0
    2.0499   -1.6944   -0.6911 H   0 0 0 0 0 0 0 0 0 0 0 0
    0.1191   -1.9871   -1.9170 H   0 0 0 0 0 0 0 0 0 0 0 0
   -1.7662   -0.9296    1.8529 H   0 0 0 0 0 0 0 0 0 0 0 0
   -1.1754   -4.1547   -1.8515 H   0 0 0 0 0 0 0 0 0 0 0 0
   -2.9786   -3.1532    1.7586 H   0 0 0 0 0 0 0 0 0 0 0 0
  1  2  1  0  0  0  0
  1  3  2  0  0  0  0
  1  4  1  0  0  0  0
  2  5  1  0  0  0  0
  4  6  1  0  0  0  0
  4  7  2  0  0  0  0
  6  8  2  0  0  0  0
  7  9  1  0  0  0  0
  8 10  1  0  0  0  0
  9 10  2  0  0  0  0
  2 11  1  0  0  0  0
  5 12  1  0  0  0  0
  5 13  1  0  0  0  0
  6 14  1  0  0  0  0
  7 15  1  0  0  0  0
  8 16  1  0  0  0  0
  9 17  1  0  0  0  0
M  END

> <Name>
Isoniazid

> <CAS>
54-85-3

> <Type>
Training

> <Acute oral toxicity, IC50 exp.>
8.70E-01

> <Acute oral toxicity, IC50 pred.>
0.76
$$$$

  MOLCODE 1008081059

 13 13  0  0  0  0  0  0  0  0999 V2000
    0.0000    0.0000    0.0000 O   0 0 0 0 0 0 0 0 0 0 0 0
    1.3767    0.0000    0.0000 C   0 0 0 0 0 0 0 0 0 0 0 0
    2.0020    1.2585    0.0000 C   0 0 0 0 0 0 0 0 0 0 0 0
    2.1326   -1.1807    0.0002 C   0 0 0 0 0 0 0 0 0 0 0 0
    3.3919    1.3184    0.0002 C   0 0 0 0 0 0 0 0 0 0 0 0
    3.5237   -1.0951    0.0001 C   0 0 0 0 0 0 0 0 0 0 0 0
    4.1540    0.1482    0.0002 C   0 0 0 0 0 0 0 0 0 0 0 0
   -0.2976   -0.9211   -0.0001 H   0 0 0 0 0 0 0 0 0 0 0 0
    1.3880    2.1694   -0.0001 H   0 0 0 0 0 0 0 0 0 0 0 0
    1.6334   -2.1593    0.0003 H   0 0 0 0 0 0 0 0 0 0 0 0
    3.8924    2.2984    0.0003 H   0 0 0 0 0 0 0 0 0 0 0 0
    4.1243   -2.0169    0.0000 H   0 0 0 0 0 0 0 0 0 0 0 0
    5.2515    0.2083    0.0003 H   0 0 0 0 0 0 0 0 0 0 0 0
  1  2  1  0  0  0  0
  2  3  1  0  0  0  0
  2  4  2  0  0  0  0
  3  5  2  0  0  0  0
  4  6  1  0  0  0  0
  5  7  1  0  0  0  0
  6  7  2  0  0  0  0
  1  8  1  0  0  0  0
  3  9  1  0  0  0  0
  4 10  1  0  0  0  0
  5 11  1  0  0  0  0
  6 12  1  0  0  0  0
  7 13  1  0  0  0  0
M  END

> <Name>
Phenol

> <CAS>
108-95-2

> <Type>
Training

> <Acute oral toxicity, IC50 exp.>
4.80E-01

> <Acute oral toxicity, IC50 pred.>
0.71
$$$$

  MOLCODE 1008081059

 27 28  0  0  0  0  0  0  0  0999 V2000
    0.0000    0.0000    0.0000 C   0 0 0 0 0 0 0 0 0 0 0 0
    1.4930    0.0000    0.0000 C   0 0 0 0 0 0 0 0 0 0 0 0
   -0.6242    1.3570    0.0000 C   0 0 0 0 0 0 0 0 0 0 0 0
    2.2397   -0.6145    1.0161 C   0 0 0 0 0 0 0 0 0 0 0 0
    2.1899    0.5775   -1.0872 C   0 0 0 0 0 0 0 0 0 0 0 0
   -0.4575    2.2643    1.0553 C   0 0 0 0 0 0 0 0 0 0 0 0
   -1.4574    1.7305   -1.0811 C   0 0 0 0 0 0 0 0 0 0 0 0
    1.4633   -1.3833    2.3168 Cl  0 0 0 0 0 0 0 0 0 0 0 0
    3.6456   -0.6143    0.9738 C   0 0 0 0 0 0 0 0 0 0 0 0
    1.4197    1.1092   -2.0898 O   0 0 0 0 0 0 0 0 0 0 0 0
    3.5962    0.5778   -1.1215 C   0 0 0 0 0 0 0 0 0 0 0 0
    0.4700    1.8387    2.4088 Cl  0 0 0 0 0 0 0 0 0 0 0 0
   -1.0653    3.5323    1.0144 C   0 0 0 0 0 0 0 0 0 0 0 0
   -1.6519    0.7858   -2.0572 O   0 0 0 0 0 0 0 0 0 0 0 0
   -2.0615    3.0001   -1.1162 C   0 0 0 0 0 0 0 0 0 0 0 0
    4.5611   -1.3408    2.2041 Cl  0 0 0 0 0 0 0 0 0 0 0 0
    4.3211   -0.0133   -0.0877 C   0 0 0 0 0 0 0 0 0 0 0 0
    4.4390    1.2904   -2.4164 Cl  0 0 0 0 0 0 0 0 0 0 0 0
   -0.8560    4.6459    2.2777 Cl  0 0 0 0 0 0 0 0 0 0 0 0
   -1.8586    3.9009   -0.0711 C   0 0 0 0 0 0 0 0 0 0 0 0
   -3.0445    3.4655   -2.4252 Cl  0 0 0 0 0 0 0 0 0 0 0 0
   -0.3946   -0.5618    0.8920 H   0 0 0 0 0 0 0 0 0 0 0 0
   -0.3301   -0.5637   -0.9203 H   0 0 0 0 0 0 0 0 0 0 0 0
    2.0102    1.4836   -2.7647 H   0 0 0 0 0 0 0 0 0 0 0 0
   -2.1440    1.1946   -2.7879 H   0 0 0 0 0 0 0 0 0 0 0 0
    5.4234   -0.0097   -0.1127 H   0 0 0 0 0 0 0 0 0 0 0 0
   -2.3288    4.8977   -0.1013 H   0 0 0 0 0 0 0 0 0 0 0 0
  1  2  1  0  0  0  0
  1  3  1  0  0  0  0
  2  4  1  0  0  0  0
  2  5  2  0  0  0  0
  3  6  1  0  0  0  0
  3  7  2  0  0  0  0
  4  8  1  0  0  0  0
  4  9  2  0  0  0  0
  5 10  1  0  0  0  0
  5 11  1  0  0  0  0
  6 12  1  0  0  0  0
  6 13  2  0  0  0  0
  7 14  1  0  0  0  0
  7 15  1  0  0  0  0
  9 16  1  0  0  0  0
  9 17  1  0  0  0  0
 11 17  2  0  0  0  0
 11 18  1  0  0  0  0
 13 19  1  0  0  0  0
 13 20  1  0  0  0  0
 15 20  2  0  0  0  0
 15 21  1  0  0  0  0
  1 22  1  0  0  0  0
  1 23  1  0  0  0  0
 10 24  1  0  0  0  0
 14 25  1  0  0  0  0
 17 26  1  0  0  0  0
 20 27  1  0  0  0  0
M  END

> <Name>
Hexachlorophene

> <CAS>
70-30-4

> <Type>
Training

> <Acute oral toxicity, IC50 exp.>
-2.10E+00

> <Acute oral toxicity, IC50 pred.>
-1.23
$$$$

  MOLCODE 1008081059

 10  9  0  0  0  0  0  0  0  0999 V2000
    0.0000    0.0000    0.0000 C   0 0 0 0 0 0 0 0 0 0 0 0
    1.4951    0.0000    0.0000 C   0 0 0 0 0 0 0 0 0 0 0 0
   -0.6426    1.3500    0.0000 C   0 0 0 0 0 0 0 0 0 0 0 0
   -0.6596   -1.0444   -0.0001 O   0 0 0 0 0 0 0 0 0 0 0 0
    1.8746    0.5950    0.8657 H   0 0 0 0 0 0 0 0 0 0 0 0
    1.8937   -1.0409    0.0715 H   0 0 0 0 0 0 0 0 0 0 0 0
    1.8693    0.4658   -0.9441 H   0 0 0 0 0 0 0 0 0 0 0 0
   -0.3834    1.8877    0.9445 H   0 0 0 0 0 0 0 0 0 0 0 0
   -0.2680    1.9487   -0.8653 H   0 0 0 0 0 0 0 0 0 0 0 0
   -1.7537    1.2624   -0.0721 H   0 0 0 0 0 0 0 0 0 0 0 0
  1  2  1  0  0  0  0
  1  3  1  0  0  0  0
  1  4  2  0  0  0  0
  2  5  1  0  0  0  0
  2  6  1  0  0  0  0
  2  7  1  0  0  0  0
  3  8  1  0  0  0  0
  3  9  1  0  0  0  0
  3 10  1  0  0  0  0
M  END

> <Name>
Acetone

> <CAS>
67-64-1

> <Type>
Training

> <Acute oral toxicity, IC50 exp.>
2.65E+00

> <Acute oral toxicity, IC50 pred.>
-0.21
$$$$

  MOLCODE 1008081059

 13 12  0  0  0  0  0  0  0  0999 V2000
    0.0000    0.0000    0.0000 C   0 0 0 0 0 0 0 0 0 0 0 0
    1.5321    0.0000    0.0000 C   0 0 0 0 0 0 0 0 0 0 0 0
   -0.5440    1.4123    0.0000 C   0 0 0 0 0 0 0 0 0 0 0 0
   -0.4725   -0.7520   -1.1087 O   0 0 0 0 0 0 0 0 0 0 0 0
    2.0488   -1.3129    0.0473 O   0 0 0 0 0 0 0 0 0 0 0 0
   -0.3787   -0.5770    0.8919 H   0 0 0 0 0 0 0 0 0 0 0 0
    1.9156    0.5235   -0.9173 H   0 0 0 0 0 0 0 0 0 0 0 0
    1.9288    0.5082    0.9174 H   0 0 0 0 0 0 0 0 0 0 0 0
   -0.1528    1.9859   -0.8747 H   0 0 0 0 0 0 0 0 0 0 0 0
   -0.2416    1.9375    0.9367 H   0 0 0 0 0 0 0 0 0 0 0 0
   -1.6586    1.3912   -0.0603 H   0 0 0 0 0 0 0 0 0 0 0 0
   -0.2872   -0.2402   -1.9051 H   0 0 0 0 0 0 0 0 0 0 0 0
    1.5441   -1.8408   -0.5870 H   0 0 0 0 0 0 0 0 0 0 0 0
  1  2  1  0  0  0  0
  1  3  1  0  0  0  0
  1  4  1  0  0  0  0
  2  5  1  0  0  0  0
  1  6  1  0  0  0  0
  2  7  1  0  0  0  0
  2  8  1  0  0  0  0
  3  9  1  0  0  0  0
  3 10  1  0  0  0  0
  3 11  1  0  0  0  0
  4 12  1  0  0  0  0
  5 13  1  0  0  0  0
M  END

> <Name>
Propylene glycol

> <CAS>
57-55-6

> <Type>
Training

> <Acute oral toxicity, IC50 exp.>
2.53E+00

> <Acute oral toxicity, IC50 pred.>
2.21
$$$$

  MOLCODE 1008081059

 10  9  0  0  0  0  0  0  0  0999 V2000
    0.0000    0.0000    0.0000 S   0 0 0 0 0 0 0 0 0 0 0 0
    1.7389    0.0000    0.0000 C   0 0 0 0 0 0 0 0 0 0 0 0
   -0.2923    1.7142    0.0000 C   0 0 0 0 0 0 0 0 0 0 0 0
   -0.4029   -0.4774    1.3535 O   0 0 0 0 0 0 0 0 0 0 0 0
    2.1890    0.4473    0.9155 H   0 0 0 0 0 0 0 0 0 0 0 0
    2.0990   -1.0544   -0.0581 H   0 0 0 0 0 0 0 0 0 0 0 0
    2.1341    0.5523   -0.8818 H   0 0 0 0 0 0 0 0 0 0 0 0
   -1.3924    1.8919   -0.0548 H   0 0 0 0 0 0 0 0 0 0 0 0
    0.1831    2.1959   -0.8835 H   0 0 0 0 0 0 0 0 0 0 0 0
    0.0758    2.2336    0.9141 H   0 0 0 0 0 0 0 0 0 0 0 0
  1  2  1  0  0  0  0
  1  3  1  0  0  0  0
  1  4  2  0  0  0  0
  2  5  1  0  0  0  0
  2  6  1  0  0  0  0
  2  7  1  0  0  0  0
  3  8  1  0  0  0  0
  3  9  1  0  0  0  0
  3 10  1  0  0  0  0
M  END

> <Name>
Dimethyl sulfoxide

> <CAS>
67-68-5

> <Type>
Training

> <Acute oral toxicity, IC50 exp.>
2.40E+00

> <Acute oral toxicity, IC50 pred.>
0.8
$$$$

  MOLCODE 1008081059

 14 13  0  0  0  0  0  0  0  0999 V2000
    0.0000    0.0000    0.0000 C   0 0 0 0 0 0 0 0 0 0 0 0
    1.5332    0.0000    0.0000 C   0 0 0 0 0 0 0 0 0 0 0 0
   -0.5650    1.4231    0.0000 C   0 0 0 0 0 0 0 0 0 0 0 0
   -0.4887   -0.6150   -1.1861 O   0 0 0 0 0 0 0 0 0 0 0 0
    2.0304   -0.9298   -0.9412 O   0 0 0 0 0 0 0 0 0 0 0 0
   -1.9721    1.4121    0.0972 O   0 0 0 0 0 0 0 0 0 0 0 0
   -0.3904   -0.5583    0.8957 H   0 0 0 0 0 0 0 0 0 0 0 0
    1.9320   -0.3520    0.9880 H   0 0 0 0 0 0 0 0 0 0 0 0
    1.9327    1.0259   -0.2174 H   0 0 0 0 0 0 0 0 0 0 0 0
   -0.2096    1.9764    0.9088 H   0 0 0 0 0 0 0 0 0 0 0 0
   -0.2437    1.9618   -0.9308 H   0 0 0 0 0 0 0 0 0 0 0 0
   -0.2227   -1.5433   -1.1491 H   0 0 0 0 0 0 0 0 0 0 0 0
    1.7683   -0.6171   -1.8176 H   0 0 0 0 0 0 0 0 0 0 0 0
   -2.3015    0.8805   -0.6398 H   0 0 0 0 0 0 0 0 0 0 0 0
  1  2  1  0  0  0  0
  1  3  1  0  0  0  0
  1  4  1  0  0  0  0
  2  5  1  0  0  0  0
  3  6  1  0  0  0  0
  1  7  1  0  0  0  0
  2  8  1  0  0  0  0
  2  9  1  0  0  0  0
  3 10  1  0  0  0  0
  3 11  1  0  0  0  0
  4 12  1  0  0  0  0
  5 13  1  0  0  0  0
  6 14  1  0  0  0  0
M  END

> <Name>
Glycerol

> <CAS>
56-81-5

> <Type>
Training

> <Acute oral toxicity, IC50 exp.>
2.80E+00

> <Acute oral toxicity, IC50 pred.>
2.19
$$$$

  MOLCODE 1008081059

 23 22  0  0  0  0  0  0  0  0999 V2000
    0.0000    0.0000    0.0000 C   0 0 0 0 0 0 0 0 0 0 0 0
    1.5283    0.0000    0.0000 C   0 0 0 0 0 0 0 0 0 0 0 0
   -0.5837    1.4203    0.0000 C   0 0 0 0 0 0 0 0 0 0 0 0
   -0.5058   -0.6093   -1.1811 O   0 0 0 0 0 0 0 0 0 0 0 0
    2.1083   -0.2053    1.3841 C   0 0 0 0 0 0 0 0 0 0 0 0
   -0.2838    2.0985    1.2005 O   0 0 0 0 0 0 0 0 0 0 0 0
    2.0915   -1.6529    1.8283 C   0 0 0 0 0 0 0 0 0 0 0 0
    3.2258   -2.4711    1.2334 C   0 0 0 0 0 0 0 0 0 0 0 0
    4.4488   -2.2761    1.9169 O   0 0 0 0 0 0 0 0 0 0 0 0
   -0.3835   -0.5542    0.9034 H   0 0 0 0 0 0 0 0 0 0 0 0
    1.8973    0.9747   -0.4158 H   0 0 0 0 0 0 0 0 0 0 0 0
    1.8974   -0.8050   -0.6895 H   0 0 0 0 0 0 0 0 0 0 0 0
   -1.7049    1.3703   -0.0341 H   0 0 0 0 0 0 0 0 0 0 0 0
   -0.2069    1.9907   -0.8890 H   0 0 0 0 0 0 0 0 0 0 0 0
   -0.2286   -1.5325   -1.1579 H   0 0 0 0 0 0 0 0 0 0 0 0
    3.1649    0.1741    1.3966 H   0 0 0 0 0 0 0 0 0 0 0 0
    1.5272    0.4095    2.1236 H   0 0 0 0 0 0 0 0 0 0 0 0
    0.6736    2.2190    1.2297 H   0 0 0 0 0 0 0 0 0 0 0 0
    2.1697   -1.6960    2.9472 H   0 0 0 0 0 0 0 0 0 0 0 0
    1.1163   -2.1246    1.5391 H   0 0 0 0 0 0 0 0 0 0 0 0
    3.3566   -2.2345    0.1429 H   0 0 0 0 0 0 0 0 0 0 0 0
    3.0198   -3.5699    1.3508 H   0 0 0 0 0 0 0 0 0 0 0 0
    4.6475   -1.3328    1.8901 H   0 0 0 0 0 0 0 0 0 0 0 0
  1  2  1  0  0  0  0
  1  3  1  0  0  0  0
  1  4  1  0  0  0  0
  2  5  1  0  0  0  0
  3  6  1  0  0  0  0
  5  7  1  0  0  0  0
  7  8  1  0  0  0  0
  8  9  1  0  0  0  0
  1 10  1  0  0  0  0
  2 11  1  0  0  0  0
  2 12  1  0  0  0  0
  3 13  1  0  0  0  0
  3 14  1  0  0  0  0
  4 15  1  0  0  0  0
  5 16  1  0  0  0  0
  5 17  1  0  0  0  0
  6 18  1  0  0  0  0
  7 19  1  0  0  0  0
  7 20  1  0  0  0  0
  8 21  1  0  0  0  0
  8 22  1  0  0  0  0
  9 23  1  0  0  0  0
M  END

> <Name>
1,2,6-Hexanetriol

> <CAS>
106-69-4

> <Type>
Training

> <Acute oral toxicity, IC50 exp.>
2.09E+00

> <Acute oral toxicity, IC50 pred.>
1.89
$$$$

   -Molcode-

  6  5  0  0  0  0  0  0  0  0999 V2000
    0.3439   -1.0007    0.3261 C   0  0  0  0  0  0  0  0  0  0  0  0
   -0.3882    0.2608    0.4249 C   0  0  0  0  0  0  0  0  0  0  0  0
    0.9260   -2.0014    0.2474 N   0  0  0  0  0  0  0  0  0  0  0  0
    0.2784    1.1104    0.2506 H   0  0  0  0  0  0  0  0  0  0  0  0
   -0.8334    0.3755    1.4176 H   0  0  0  0  0  0  0  0  0  0  0  0
   -1.1918    0.3035   -0.3163 H   0  0  0  0  0  0  0  0  0  0  0  0
  1  2  1  0  0  0  0
  1  3  3  0  0  0  0
  2  4  1  0  0  0  0
  2  5  1  0  0  0  0
  2  6  1  0  0  0  0
M  END

> <Name>
Acetonitrile

> <CAS>
75-05-8

> <Type>
Training

> <Acute oral toxicity, IC50 exp.>
2.57E+00

> <Acute oral toxicity, IC50 pred.>
2.47
$$$$

  MOLCODE 1008081059

 15 14  0  0  0  0  0  0  0  0999 V2000
    0.0000    0.0000    0.0000 C   0 0 0 0 0 0 0 0 0 0 0 0
    1.3903    0.0000    0.0000 N   0 0 0 0 0 0 0 0 0 0 0 0
   -0.7209    1.3248    0.0000 C   0 0 0 0 0 0 0 0 0 0 0 0
   -0.6330   -1.0749   -0.0217 O   0 0 0 0 0 0 0 0 0 0 0 0
    2.1264   -1.2299    0.0723 C   0 0 0 0 0 0 0 0 0 0 0 0
    2.1265    1.2224    0.1235 C   0 0 0 0 0 0 0 0 0 0 0 0
   -0.5347    1.8637   -0.9605 H   0 0 0 0 0 0 0 0 0 0 0 0
   -1.8172    1.1335    0.1017 H   0 0 0 0 0 0 0 0 0 0 0 0
   -0.3806    1.9639    0.8498 H   0 0 0 0 0 0 0 0 0 0 0 0
    2.6738   -1.3018    1.0508 H   0 0 0 0 0 0 0 0 0 0 0 0
    1.4280   -2.1042   -0.0206 H   0 0 0 0 0 0 0 0 0 0 0 0
    2.8769   -1.2702   -0.7623 H   0 0 0 0 0 0 0 0 0 0 0 0
    1.7418    1.9856   -0.6055 H   0 0 0 0 0 0 0 0 0 0 0 0
    3.2117    1.0366   -0.0934 H   0 0 0 0 0 0 0 0 0 0 0 0
    2.0368    1.6456    1.1616 H   0 0 0 0 0 0 0 0 0 0 0 0
  1  2  1  0  0  0  0
  1  3  1  0  0  0  0
  1  4  2  0  0  0  0
  2  5  1  0  0  0  0
  2  6  1  0  0  0  0
  3  7  1  0  0  0  0
  3  8  1  0  0  0  0
  3  9  1  0  0  0  0
  5 10  1  0  0  0  0
  5 11  1  0  0  0  0
  5 12  1  0  0  0  0
  6 13  1  0  0  0  0
  6 14  1  0  0  0  0
  6 15  1  0  0  0  0
M  END

> <Name>
N,N-Dimethylacetamide

> <CAS>
127-19-5

> <Type>
Training

> <Acute oral toxicity, IC50 exp.>
1.38E+00

> <Acute oral toxicity, IC50 pred.>
1.27
$$$$

  MOLCODE 1008081059

 12 11  0  0  0  0  0  0  0  0999 V2000
    0.0000    0.0000    0.0000 N   0 0 0 0 0 0 0 0 0 0 0 0
    1.3799    0.0000    0.0000 C   0 0 0 0 0 0 0 0 0 0 0 0
   -0.7436    1.2244    0.0000 C   0 0 0 0 0 0 0 0 0 0 0 0
   -0.7567   -1.2188   -0.0184 C   0 0 0 0 0 0 0 0 0 0 0 0
    2.0545   -1.0430   -0.0094 O   0 0 0 0 0 0 0 0 0 0 0 0
    1.8409    1.0154    0.0113 H   0 0 0 0 0 0 0 0 0 0 0 0
   -0.0563    2.1101    0.0325 H   0 0 0 0 0 0 0 0 0 0 0 0
   -1.3763    1.2929   -0.9268 H   0 0 0 0 0 0 0 0 0 0 0 0
   -1.4229    1.2623    0.8949 H   0 0 0 0 0 0 0 0 0 0 0 0
   -1.3991   -1.2607   -0.9391 H   0 0 0 0 0 0 0 0 0 0 0 0
   -1.4230   -1.2717    0.8846 H   0 0 0 0 0 0 0 0 0 0 0 0
   -0.0614   -2.1004   -0.0148 H   0 0 0 0 0 0 0 0 0 0 0 0
  1  2  1  0  0  0  0
  1  3  1  0  0  0  0
  1  4  1  0  0  0  0
  2  5  2  0  0  0  0
  2  6  1  0  0  0  0
  3  7  1  0  0  0  0
  3  8  1  0  0  0  0
  3  9  1  0  0  0  0
  4 10  1  0  0  0  0
  4 11  1  0  0  0  0
  4 12  1  0  0  0  0
M  END

> <Name>
Dimethylformamide

> <CAS>
68-12-2

> <Type>
Training

> <Acute oral toxicity, IC50 exp.>
2.06E+00

> <Acute oral toxicity, IC50 pred.>
1.43
$$$$

  MOLCODE 1008081059

 13 12  0  0  0  0  0  0  0  0999 V2000
    0.0000    0.0000    0.0000 C   0 0 0 0 0 0 0 0 0 0 0 0
    1.5263    0.0000    0.0000 C   0 0 0 0 0 0 0 0 0 0 0 0
   -0.4726    1.3443    0.0000 O   0 0 0 0 0 0 0 0 0 0 0 0
    2.0498    0.7845   -1.0522 O   0 0 0 0 0 0 0 0 0 0 0 0
   -0.9810    1.7728   -1.2534 C   0 0 0 0 0 0 0 0 0 0 0 0
   -0.3850   -0.4502    0.9534 H   0 0 0 0 0 0 0 0 0 0 0 0
   -0.3961   -0.5750   -0.8754 H   0 0 0 0 0 0 0 0 0 0 0 0
    1.9150   -1.0357   -0.1875 H   0 0 0 0 0 0 0 0 0 0 0 0
    1.9099    0.3756    0.9858 H   0 0 0 0 0 0 0 0 0 0 0 0
    1.7353    1.6870   -0.9086 H   0 0 0 0 0 0 0 0 0 0 0 0
   -1.8868    1.1789   -1.5300 H   0 0 0 0 0 0 0 0 0 0 0 0
   -0.2041    1.6770   -2.0516 H   0 0 0 0 0 0 0 0 0 0 0 0
   -1.2520    2.8458   -1.0907 H   0 0 0 0 0 0 0 0 0 0 0 0
  1  2  1  0  0  0  0
  1  3  1  0  0  0  0
  2  4  1  0  0  0  0
  3  5  1  0  0  0  0
  1  6  1  0  0  0  0
  1  7  1  0  0  0  0
  2  8  1  0  0  0  0
  2  9  1  0  0  0  0
  4 10  1  0  0  0  0
  5 11  1  0  0  0  0
  5 12  1  0  0  0  0
  5 13  1  0  0  0  0
M  END

> <Name>
2-Methoxyethanol

> <CAS>
109-86-4

> <Type>
Training

> <Acute oral toxicity, IC50 exp.>
2.40E+00

> <Acute oral toxicity, IC50 pred.>
2.13
$$$$

  MOLCODE 1008081059

 15 15  0  0  0  0  0  0  0  0999 V2000
    0.0000    0.0000    0.0000 C   0 0 0 0 0 0 0 0 0 0 0 0
    1.4809    0.0000    0.0000 C   0 0 0 0 0 0 0 0 0 0 0 0
    2.1863    1.2096    0.0000 C   0 0 0 0 0 0 0 0 0 0 0 0
    2.1916   -1.2059   -0.0129 C   0 0 0 0 0 0 0 0 0 0 0 0
    3.5797    1.2120   -0.0145 C   0 0 0 0 0 0 0 0 0 0 0 0
    3.5853   -1.2014   -0.0273 C   0 0 0 0 0 0 0 0 0 0 0 0
    4.2819    0.0068   -0.0284 C   0 0 0 0 0 0 0 0 0 0 0 0
   -0.3812    0.1044   -1.0473 H   0 0 0 0 0 0 0 0 0 0 0 0
   -0.4029   -0.9519    0.4252 H   0 0 0 0 0 0 0 0 0 0 0 0
   -0.3985    0.8531    0.6027 H   0 0 0 0 0 0 0 0 0 0 0 0
    1.6350    2.1614    0.0124 H   0 0 0 0 0 0 0 0 0 0 0 0
    1.6458   -2.1610   -0.0109 H   0 0 0 0 0 0 0 0 0 0 0 0
    4.1260    2.1664   -0.0144 H   0 0 0 0 0 0 0 0 0 0 0 0
    4.1360   -2.1534   -0.0373 H   0 0 0 0 0 0 0 0 0 0 0 0
    5.3812    0.0095   -0.0393 H   0 0 0 0 0 0 0 0 0 0 0 0
  1  2  1  0  0  0  0
  2  3  1  0  0  0  0
  2  4  2  0  0  0  0
  3  5  2  0  0  0  0
  4  6  1  0  0  0  0
  5  7  1  0  0  0  0
  6  7  2  0  0  0  0
  1  8  1  0  0  0  0
  1  9  1  0  0  0  0
  1 10  1  0  0  0  0
  3 11  1  0  0  0  0
  4 12  1  0  0  0  0
  5 13  1  0  0  0  0
  6 14  1  0  0  0  0
  7 15  1  0  0  0  0
M  END

> <Name>
Toluene

> <CAS>
108-88-3

> <Type>
Training

> <Acute oral toxicity, IC50 exp.>
1.23E+00

> <Acute oral toxicity, IC50 pred.>
0.76
$$$$

  MOLCODE 1008081059

 16 16  0  0  0  0  0  0  0  0999 V2000
    0.0000    0.0000    0.0000 C   0 0 0 0 0 0 0 0 0 0 0 0
    1.5488    0.0000    0.0000 C   0 0 0 0 0 0 0 0 0 0 0 0
   -0.6316    1.3059    0.0000 N   0 0 0 0 0 0 0 0 0 0 0 0
    2.1804    1.3055    0.0228 N   0 0 0 0 0 0 0 0 0 0 0 0
    0.0076    2.2357   -0.9114 C   0 0 0 0 0 0 0 0 0 0 0 0
    1.5562    2.2443   -0.8900 C   0 0 0 0 0 0 0 0 0 0 0 0
   -0.3557   -0.5371   -0.9236 H   0 0 0 0 0 0 0 0 0 0 0 0
   -0.3721   -0.5746    0.8918 H   0 0 0 0 0 0 0 0 0 0 0 0
    1.9206   -0.5895    0.8821 H   0 0 0 0 0 0 0 0 0 0 0 0
    1.9050   -0.5211   -0.9325 H   0 0 0 0 0 0 0 0 0 0 0 0
   -0.6222    1.6854    0.9307 H   0 0 0 0 0 0 0 0 0 0 0 0
    2.1559    1.6758    0.9569 H   0 0 0 0 0 0 0 0 0 0 0 0
   -0.3327    1.9642   -1.9499 H   0 0 0 0 0 0 0 0 0 0 0 0
   -0.3730    3.2696   -0.6882 H   0 0 0 0 0 0 0 0 0 0 0 0
    1.9277    1.9944   -1.9232 H   0 0 0 0 0 0 0 0 0 0 0 0
    1.9192    3.2783   -0.6393 H   0 0 0 0 0 0 0 0 0 0 0 0
  1  2  1  0  0  0  0
  1  3  1  0  0  0  0
  2  4  1  0  0  0  0
  3  5  1  0  0  0  0
  4  6  1  0  0  0  0
  5  6  1  0  0  0  0
  1  7  1  0  0  0  0
  1  8  1  0  0  0  0
  2  9  1  0  0  0  0
  2 10  1  0  0  0  0
  3 11  1  0  0  0  0
  4 12  1  0  0  0  0
  5 13  1  0  0  0  0
  5 14  1  0  0  0  0
  6 15  1  0  0  0  0
  6 16  1  0  0  0  0
M  END

> <Name>
Piperazine

> <CAS>
110-85-0

> <Type>
Training

> <Acute oral toxicity, IC50 exp.>
1.83E+00

> <Acute oral toxicity, IC50 pred.>
1.59
$$$$

  MOLCODE 1008081059

 15 15  0  0  0  0  0  0  0  0999 V2000
    0.0000    0.0000    0.0000 C   0 0 0 0 0 0 0 0 0 0 0 0
    1.2367    0.0000    0.0000 O   0 0 0 0 0 0 0 0 0 0 0 0
   -0.5995    1.2282    0.0000 O   0 0 0 0 0 0 0 0 0 0 0 0
   -0.9155   -1.1457    0.0000 C   0 0 0 0 0 0 0 0 0 0 0 0
   -2.3040   -0.9653    0.0003 C   0 0 0 0 0 0 0 0 0 0 0 0
   -0.3728   -2.4383   -0.0004 C   0 0 0 0 0 0 0 0 0 0 0 0
   -3.1449   -2.0769    0.0004 C   0 0 0 0 0 0 0 0 0 0 0 0
   -1.2212   -3.5436   -0.0003 C   0 0 0 0 0 0 0 0 0 0 0 0
   -2.6051   -3.3637    0.0001 C   0 0 0 0 0 0 0 0 0 0 0 0
    0.0863    1.9164    0.0001 H   0 0 0 0 0 0 0 0 0 0 0 0
   -2.7213    0.0544    0.0006 H   0 0 0 0 0 0 0 0 0 0 0 0
    0.7220   -2.5656   -0.0006 H   0 0 0 0 0 0 0 0 0 0 0 0
   -4.2360   -1.9372    0.0007 H   0 0 0 0 0 0 0 0 0 0 0 0
   -0.7970   -4.5585   -0.0005 H   0 0 0 0 0 0 0 0 0 0 0 0
   -3.2723   -4.2389    0.0003 H   0 0 0 0 0 0 0 0 0 0 0 0
  1  2  2  0  0  0  0
  1  3  1  0  0  0  0
  1  4  1  0  0  0  0
  4  5  1  0  0  0  0
  4  6  2  0  0  0  0
  5  7  2  0  0  0  0
  6  8  1  0  0  0  0
  7  9  1  0  0  0  0
  8  9  2  0  0  0  0
  3 10  1  0  0  0  0
  5 11  1  0  0  0  0
  6 12  1  0  0  0  0
  7 13  1  0  0  0  0
  8 14  1  0  0  0  0
  9 15  1  0  0  0  0
M  END

> <Name>
Benzoic acid

> <CAS>
65-85-0

> <Type>
Training

> <Acute oral toxicity, IC50 exp.>
1.20E+00

> <Acute oral toxicity, IC50 pred.>
0.66
$$$$

  MOLCODE 1008081059

 12 11  0  0  0  0  0  0  0  0999 V2000
    0.0000    0.0000    0.0000 C   0 0 0 0 0 0 0 0 0 0 0 0
    1.5193    0.0000    0.0000 C   0 0 0 0 0 0 0 0 0 0 0 0
   -0.5605    1.3978    0.0000 C   0 0 0 0 0 0 0 0 0 0 0 0
    2.0663    0.5839   -1.1673 O   0 0 0 0 0 0 0 0 0 0 0 0
   -0.3583   -0.5560    0.9053 H   0 0 0 0 0 0 0 0 0 0 0 0
   -0.3701   -0.5545   -0.9026 H   0 0 0 0 0 0 0 0 0 0 0 0
    1.9013   -1.0514    0.1090 H   0 0 0 0 0 0 0 0 0 0 0 0
    1.9211    0.6291    0.8395 H   0 0 0 0 0 0 0 0 0 0 0 0
   -0.2913    1.9297    0.9444 H   0 0 0 0 0 0 0 0 0 0 0 0
   -0.1436    1.9793   -0.8587 H   0 0 0 0 0 0 0 0 0 0 0 0
   -1.6730    1.3735   -0.0882 H   0 0 0 0 0 0 0 0 0 0 0 0
    1.6714    0.1360   -1.9245 H   0 0 0 0 0 0 0 0 0 0 0 0
  1  2  1  0  0  0  0
  1  3  1  0  0  0  0
  2  4  1  0  0  0  0
  1  5  1  0  0  0  0
  1  6  1  0  0  0  0
  2  7  1  0  0  0  0
  2  8  1  0  0  0  0
  3  9  1  0  0  0  0
  3 10  1  0  0  0  0
  3 11  1  0  0  0  0
  4 12  1  0  0  0  0
M  END

> <Name>
1-Propanol

> <CAS>
71-23-8

> <Type>
Training

> <Acute oral toxicity, IC50 exp.>
1.98E+00

> <Acute oral toxicity, IC50 pred.>
2.41
$$$$

  MOLCODE 1008081059

  8  7  0  0  0  0  0  0  0  0999 V2000
    0.0000    0.0000    0.0000 C   0 0 0 0 0 0 0 0 0 0 0 0
    1.4902    0.0000    0.0000 C   0 0 0 0 0 0 0 0 0 0 0 0
   -0.7500    0.9749    0.0000 O   0 0 0 0 0 0 0 0 0 0 0 0
   -0.6625   -1.1986   -0.0005 O   0 0 0 0 0 0 0 0 0 0 0 0
    1.8694    1.0511    0.0099 H   0 0 0 0 0 0 0 0 0 0 0 0
    1.8720   -0.5331    0.9047 H   0 0 0 0 0 0 0 0 0 0 0 0
    1.8712   -0.5154   -0.9153 H   0 0 0 0 0 0 0 0 0 0 0 0
   -0.0251   -1.9248   -0.0007 H   0 0 0 0 0 0 0 0 0 0 0 0
  1  2  1  0  0  0  0
  1  3  2  0  0  0  0
  1  4  1  0  0  0  0
  2  5  1  0  0  0  0
  2  6  1  0  0  0  0
  2  7  1  0  0  0  0
  4  8  1  0  0  0  0
M  END

> <Name>
Acetic acid

> <CAS>
64-19-7

> <Type>
Training

> <Acute oral toxicity, IC50 exp.>
1.39E+00

> <Acute oral toxicity, IC50 pred.>
1.97
$$$$

  MOLCODE 1008081059

 11 11  0  0  0  0  0  0  0  0999 V2000
    0.0000    0.0000    0.0000 C   0 0 0 0 0 0 0 0 0 0 0 0
    1.3960    0.0000    0.0000 C   0 0 0 0 0 0 0 0 0 0 0 0
   -0.6747    1.2222    0.0000 C   0 0 0 0 0 0 0 0 0 0 0 0
    2.0659    1.2374    0.0000 C   0 0 0 0 0 0 0 0 0 0 0 0
    0.0848    2.4066    0.0000 C   0 0 0 0 0 0 0 0 0 0 0 0
    1.4320    2.4263   -0.0001 N   0 0 0 0 0 0 0 0 0 0 0 0
   -0.5588   -0.9469    0.0000 H   0 0 0 0 0 0 0 0 0 0 0 0
    1.9639   -0.9390    0.0000 H   0 0 0 0 0 0 0 0 0 0 0 0
   -1.7712    1.2655    0.0000 H   0 0 0 0 0 0 0 0 0 0 0 0
    3.1696    1.2828   -0.0001 H   0 0 0 0 0 0 0 0 0 0 0 0
   -0.4088    3.3949    0.0000 H   0 0 0 0 0 0 0 0 0 0 0 0
  1  2  1  0  0  0  0
  1  3  2  0  0  0  0
  2  4  2  0  0  0  0
  3  5  1  0  0  0  0
  4  6  1  0  0  0  0
  5  6  2  0  0  0  0
  1  7  1  0  0  0  0
  2  8  1  0  0  0  0
  3  9  1  0  0  0  0
  4 10  1  0  0  0  0
  5 11  1  0  0  0  0
M  END

> <Name>
Pyridine

> <CAS>
110-86-1

> <Type>
Training

> <Acute oral toxicity, IC50 exp.>
1.67E+00

> <Acute oral toxicity, IC50 pred.>
1.04
$$$$

  MOLCODE 1008081059

 15 14  0  0  0  0  0  0  0  0999 V2000
    0.0000    0.0000    0.0000 C   0 0 0 0 0 0 0 0 0 0 0 0
    1.5139    0.0000    0.0000 C   0 0 0 0 0 0 0 0 0 0 0 0
   -0.5961    1.3976    0.0000 C   0 0 0 0 0 0 0 0 0 0 0 0
    2.0959    0.3006    1.3574 C   0 0 0 0 0 0 0 0 0 0 0 0
   -0.5756    1.9952   -1.2825 O   0 0 0 0 0 0 0 0 0 0 0 0
   -0.3695   -0.5451   -0.9088 H   0 0 0 0 0 0 0 0 0 0 0 0
   -0.3743   -0.5506    0.9020 H   0 0 0 0 0 0 0 0 0 0 0 0
    1.8763   -1.0073   -0.3388 H   0 0 0 0 0 0 0 0 0 0 0 0
    1.8909    0.7506   -0.7447 H   0 0 0 0 0 0 0 0 0 0 0 0
   -1.6875    1.3586    0.2657 H   0 0 0 0 0 0 0 0 0 0 0 0
   -0.0606    2.0562    0.7357 H   0 0 0 0 0 0 0 0 0 0 0 0
    1.7650   -0.4603    2.1052 H   0 0 0 0 0 0 0 0 0 0 0 0
    3.2118    0.2865    1.3112 H   0 0 0 0 0 0 0 0 0 0 0 0
    1.7721    1.3073    1.7167 H   0 0 0 0 0 0 0 0 0 0 0 0
    0.3407    2.0004   -1.5829 H   0 0 0 0 0 0 0 0 0 0 0 0
  1  2  1  0  0  0  0
  1  3  1  0  0  0  0
  2  4  1  0  0  0  0
  3  5  1  0  0  0  0
  1  6  1  0  0  0  0
  1  7  1  0  0  0  0
  2  8  1  0  0  0  0
  2  9  1  0  0  0  0
  3 10  1  0  0  0  0
  3 11  1  0  0  0  0
  4 12  1  0  0  0  0
  4 13  1  0  0  0  0
  4 14  1  0  0  0  0
  5 15  1  0  0  0  0
M  END

> <Name>
1-Butanol

> <CAS>
71-36-3

> <Type>
Training

> <Acute oral toxicity, IC50 exp.>
1.72E+00

> <Acute oral toxicity, IC50 pred.>
2.28
$$$$

  MOLCODE 1008081059

  4  3  0  0  0  0  0  0  0  0999 V2000
    0.0000    0.0000    0.0000 C   0 0 0 0 0 0 0 0 0 0 0 0
    1.2273    0.0000    0.0000 O   0 0 0 0 0 0 0 0 0 0 0 0
   -0.5924    0.9392    0.0000 H   0 0 0 0 0 0 0 0 0 0 0 0
   -0.5920   -0.9396    0.0000 H   0 0 0 0 0 0 0 0 0 0 0 0
  1  2  2  0  0  0  0
  1  3  1  0  0  0  0
  1  4  1  0  0  0  0
M  END

> <Name>
Formaldehyde

> <CAS>
50-00-0

> <Type>
Training

> <Acute oral toxicity, IC50 exp.>
-9.20E-01

> <Acute oral toxicity, IC50 pred.>
8.27E-02
$$$$

  MOLCODE 1008081059

 19 19  0  0  0  0  0  0  0  0999 V2000
    0.0000    0.0000    0.0000 O   0 0 0 0 0 0 0 0 0 0 0 0
    1.4182    0.0000    0.0000 C   0 0 0 0 0 0 0 0 0 0 0 0
    1.9662    1.4245    0.0000 C   0 0 0 0 0 0 0 0 0 0 0 0
    1.9661   -0.7896    1.1857 C   0 0 0 0 0 0 0 0 0 0 0 0
    3.4794    1.4193   -0.0001 C   0 0 0 0 0 0 0 0 0 0 0 0
    3.4793   -0.7872    1.1807 C   0 0 0 0 0 0 0 0 0 0 0 0
    4.0303    0.6243    1.1663 C   0 0 0 0 0 0 0 0 0 0 0 0
   -0.2877    0.4344    0.8116 H   0 0 0 0 0 0 0 0 0 0 0 0
    1.6866   -0.5169   -0.9651 H   0 0 0 0 0 0 0 0 0 0 0 0
    1.5821    1.9659   -0.9025 H   0 0 0 0 0 0 0 0 0 0 0 0
    1.5871    1.9669    0.9053 H   0 0 0 0 0 0 0 0 0 0 0 0
    1.5818   -1.8408    1.1363 H   0 0 0 0 0 0 0 0 0 0 0 0
    1.5874   -0.3365    2.1389 H   0 0 0 0 0 0 0 0 0 0 0 0
    3.8509    0.9772   -0.9621 H   0 0 0 0 0 0 0 0 0 0 0 0
    3.8563    2.4738    0.0528 H   0 0 0 0 0 0 0 0 0 0 0 0
    3.8565   -1.3283    2.0871 H   0 0 0 0 0 0 0 0 0 0 0 0
    3.8504   -1.3421    0.2789 H   0 0 0 0 0 0 0 0 0 0 0 0
    3.7645    1.1386    2.1271 H   0 0 0 0 0 0 0 0 0 0 0 0
    5.1488    0.5895    1.1013 H   0 0 0 0 0 0 0 0 0 0 0 0
  1  2  1  0  0  0  0
  2  3  1  0  0  0  0
  2  4  1  0  0  0  0
  3  5  1  0  0  0  0
  4  6  1  0  0  0  0
  5  7  1  0  0  0  0
  6  7  1  0  0  0  0
  1  8  1  0  0  0  0
  2  9  1  0  0  0  0
  3 10  1  0  0  0  0
  3 11  1  0  0  0  0
  4 12  1  0  0  0  0
  4 13  1  0  0  0  0
  5 14  1  0  0  0  0
  5 15  1  0  0  0  0
  6 16  1  0  0  0  0
  6 17  1  0  0  0  0
  7 18  1  0  0  0  0
  7 19  1  0  0  0  0
M  END

> <Name>
Cyclohexanol

> <CAS>
108-93-0

> <Type>
Training

> <Acute oral toxicity, IC50 exp.>
1.42E+00

> <Acute oral toxicity, IC50 pred.>
1.83
$$$$

  MOLCODE 1008081059

 22 21  0  0  0  0  0  0  0  0999 V2000
    0.0000    0.0000    0.0000 C   0 0 0 0 0 0 0 0 0 0 0 0
    1.4285    0.0000    0.0000 O   0 0 0 0 0 0 0 0 0 0 0 0
   -0.4529    1.4505    0.0000 C   0 0 0 0 0 0 0 0 0 0 0 0
    1.9656   -1.3173   -0.0241 C   0 0 0 0 0 0 0 0 0 0 0 0
   -0.6422    2.0135    1.3927 C   0 0 0 0 0 0 0 0 0 0 0 0
    3.4830   -1.1658    0.0543 C   0 0 0 0 0 0 0 0 0 0 0 0
    0.6700    2.2582    2.0923 C   0 0 0 0 0 0 0 0 0 0 0 0
    4.1165   -2.4172   -0.1135 O   0 0 0 0 0 0 0 0 0 0 0 0
   -0.3738   -0.5492    0.9047 H   0 0 0 0 0 0 0 0 0 0 0 0
   -0.3652   -0.5272   -0.9226 H   0 0 0 0 0 0 0 0 0 0 0 0
   -1.4262    1.5076   -0.5548 H   0 0 0 0 0 0 0 0 0 0 0 0
    0.2984    2.0698   -0.5575 H   0 0 0 0 0 0 0 0 0 0 0 0
    1.5804   -1.9117    0.8455 H   0 0 0 0 0 0 0 0 0 0 0 0
    1.6667   -1.8328   -0.9760 H   0 0 0 0 0 0 0 0 0 0 0 0
   -1.2107    2.9786    1.3179 H   0 0 0 0 0 0 0 0 0 0 0 0
   -1.2686    1.3087    2.0014 H   0 0 0 0 0 0 0 0 0 0 0 0
    3.8381   -0.4305   -0.7147 H   0 0 0 0 0 0 0 0 0 0 0 0
    3.7939   -0.8179    1.0747 H   0 0 0 0 0 0 0 0 0 0 0 0
    1.2422    3.0699    1.5812 H   0 0 0 0 0 0 0 0 0 0 0 0
    0.4965    2.5607    3.1527 H   0 0 0 0 0 0 0 0 0 0 0 0
    1.2954    1.3316    2.0775 H   0 0 0 0 0 0 0 0 0 0 0 0
    3.9197   -2.7216   -1.0075 H   0 0 0 0 0 0 0 0 0 0 0 0
  1  2  1  0  0  0  0
  1  3  1  0  0  0  0
  2  4  1  0  0  0  0
  3  5  1  0  0  0  0
  4  6  1  0  0  0  0
  5  7  1  0  0  0  0
  6  8  1  0  0  0  0
  1  9  1  0  0  0  0
  1 10  1  0  0  0  0
  3 11  1  0  0  0  0
  3 12  1  0  0  0  0
  4 13  1  0  0  0  0
  4 14  1  0  0  0  0
  5 15  1  0  0  0  0
  5 16  1  0  0  0  0
  6 17  1  0  0  0  0
  6 18  1  0  0  0  0
  7 19  1  0  0  0  0
  7 20  1  0  0  0  0
  7 21  1  0  0  0  0
  8 22  1  0  0  0  0
M  END

> <Name>
2-Butoxyethanol

> <CAS>
111-76-2

> <Type>
Training

> <Acute oral toxicity, IC50 exp.>
1.41E+00

> <Acute oral toxicity, IC50 pred.>
1.83
$$$$

  MOLCODE 1008081059

 17 17  0  0  0  0  0  0  0  0999 V2000
    0.0000    0.0000    0.0000 C   0 0 0 0 0 0 0 0 0 0 0 0
    1.3700    0.0000    0.0000 N   0 0 0 0 0 0 0 0 0 0 0 0
   -0.6175    1.0889    0.0000 O   0 0 0 0 0 0 0 0 0 0 0 0
   -0.7380   -1.2936    0.0615 C   0 0 0 0 0 0 0 0 0 0 0 0
   -0.2889   -2.5073   -0.4902 C   0 0 0 0 0 0 0 0 0 0 0 0
   -1.9883   -1.2745    0.6976 C   0 0 0 0 0 0 0 0 0 0 0 0
    0.9324   -2.5304   -1.1257 O   0 0 0 0 0 0 0 0 0 0 0 0
   -1.0727   -3.6707   -0.3976 C   0 0 0 0 0 0 0 0 0 0 0 0
   -2.7624   -2.4268    0.7969 C   0 0 0 0 0 0 0 0 0 0 0 0
   -2.3029   -3.6250    0.2487 C   0 0 0 0 0 0 0 0 0 0 0 0
    1.8510    0.8630   -0.0489 H   0 0 0 0 0 0 0 0 0 0 0 0
    1.8824   -0.8424   -0.0592 H   0 0 0 0 0 0 0 0 0 0 0 0
   -2.3519   -0.3171    1.1098 H   0 0 0 0 0 0 0 0 0 0 0 0
    1.0552   -3.4104   -1.5113 H   0 0 0 0 0 0 0 0 0 0 0 0
   -0.7101   -4.6104   -0.8380 H   0 0 0 0 0 0 0 0 0 0 0 0
   -3.7380   -2.3901    1.3029 H   0 0 0 0 0 0 0 0 0 0 0 0
   -2.9146   -4.5368    0.3236 H   0 0 0 0 0 0 0 0 0 0 0 0
  1  2  1  0  0  0  0
  1  3  2  0  0  0  0
  1  4  1  0  0  0  0
  4  5  1  0  0  0  0
  4  6  2  0  0  0  0
  5  7  1  0  0  0  0
  5  8  2  0  0  0  0
  6  9  1  0  0  0  0
  8 10  1  0  0  0  0
  9 10  2  0  0  0  0
  2 11  1  0  0  0  0
  2 12  1  0  0  0  0
  6 13  1  0  0  0  0
  7 14  1  0  0  0  0
  8 15  1  0  0  0  0
  9 16  1  0  0  0  0
 10 17  1  0  0  0  0
M  END

> <Name>
Salicylamide

> <CAS>
65-45-2

> <Type>
Training

> <Acute oral toxicity, IC50 exp.>
3.00E-02

> <Acute oral toxicity, IC50 pred.>
0.45
$$$$

  MOLCODE 1008081059

 18 17  0  0  0  0  0  0  0  0999 V2000
    0.0000    0.0000    0.0000 C   0 0 0 0 0 0 0 0 0 0 0 0
    1.5139    0.0000    0.0000 C   0 0 0 0 0 0 0 0 0 0 0 0
   -0.6031    1.3896    0.0000 C   0 0 0 0 0 0 0 0 0 0 0 0
    2.0983    0.2535   -1.3797 C   0 0 0 0 0 0 0 0 0 0 0 0
   -0.5587    2.0430    1.3575 C   0 0 0 0 0 0 0 0 0 0 0 0
    1.9051   -0.9227   -2.1513 O   0 0 0 0 0 0 0 0 0 0 0 0
   -0.3567   -0.5596   -0.9059 H   0 0 0 0 0 0 0 0 0 0 0 0
   -0.3649   -0.5581    0.9027 H   0 0 0 0 0 0 0 0 0 0 0 0
    1.8800   -0.9966    0.3631 H   0 0 0 0 0 0 0 0 0 0 0 0
    1.9019    0.7869    0.6974 H   0 0 0 0 0 0 0 0 0 0 0 0
   -1.6720    1.3189   -0.3367 H   0 0 0 0 0 0 0 0 0 0 0 0
   -0.0659    2.0346   -0.7446 H   0 0 0 0 0 0 0 0 0 0 0 0
    3.1980    0.4717   -1.2994 H   0 0 0 0 0 0 0 0 0 0 0 0
    1.5916    1.1244   -1.8759 H   0 0 0 0 0 0 0 0 0 0 0 0
   -1.1230    1.4358    2.1062 H   0 0 0 0 0 0 0 0 0 0 0 0
    0.4940    2.1475    1.7156 H   0 0 0 0 0 0 0 0 0 0 0 0
   -1.0168    3.0606    1.3126 H   0 0 0 0 0 0 0 0 0 0 0 0
    2.2428   -0.7315   -3.0334 H   0 0 0 0 0 0 0 0 0 0 0 0
  1  2  1  0  0  0  0
  1  3  1  0  0  0  0
  2  4  1  0  0  0  0
  3  5  1  0  0  0  0
  4  6  1  0  0  0  0
  1  7  1  0  0  0  0
  1  8  1  0  0  0  0
  2  9  1  0  0  0  0
  2 10  1  0  0  0  0
  3 11  1  0  0  0  0
  3 12  1  0  0  0  0
  4 13  1  0  0  0  0
  4 14  1  0  0  0  0
  5 15  1  0  0  0  0
  5 16  1  0  0  0  0
  5 17  1  0  0  0  0
  6 18  1  0  0  0  0
M  END

> <Name>
1-Pentanol

> <CAS>
71-41-0

> <Type>
Training

> <Acute oral toxicity, IC50 exp.>
1.40E+00

> <Acute oral toxicity, IC50 pred.>
2.16
$$$$

   -Molcode-

 44 44  0  0  0  0  0  0  0  0999 V2000
   -1.0823   -0.1702   -1.1980 C   0  0  0  0  0  0  0  0  0  0  0  0
   -1.6652    0.8956   -1.8945 C   0  0  0  0  0  0  0  0  0  0  0  0
   -1.8897    2.1210   -1.2719 C   0  0  0  0  0  0  0  0  0  0  0  0
   -1.5275    2.2716    0.0620 C   0  0  0  0  0  0  0  0  0  0  0  0
   -0.9441    1.2044    0.7592 C   0  0  0  0  0  0  0  0  0  0  0  0
   -0.6953   -0.0386    0.1451 C   0  0  0  0  0  0  0  0  0  0  0  0
   -0.0582   -1.1951    0.9431 C   0  0  0  0  0  0  0  0  0  0  0  0
   -1.0875   -1.5954    2.0393 C   0  0  0  0  0  0  0  0  0  0  0  0
    1.2607   -0.7747    1.6875 C   0  0  0  0  0  0  0  0  0  0  0  0
    2.5998   -0.4922    0.9298 C   0  0  0  0  0  0  0  0  0  0  0  0
    3.3333   -1.7942    0.5540 C   0  0  0  0  0  0  0  0  0  0  0  0
    2.4339    0.3730   -0.3251 C   0  0  0  0  0  0  0  0  0  0  0  0
    3.5235    0.2735    1.9096 C   0  0  0  0  0  0  0  0  0  0  0  0
    0.1760   -2.4715    0.1079 C   0  0  0  0  0  0  0  0  0  0  0  0
   -2.4623    3.0733   -2.0672 O   0  0  0  0  0  0  0  0  0  0  0  0
   -2.7456    4.3402   -1.4620 C   0  0  0  0  0  0  0  0  0  0  0  0
   -3.3850    5.2249   -2.5286 C   0  0  0  0  0  0  0  0  0  0  0  0
   -2.4544    5.4845   -3.5785 O   0  0  0  0  0  0  0  0  0  0  0  0
   -0.9414   -1.0998   -1.7426 H   0  0  0  0  0  0  0  0  0  0  0  0
   -0.6884    1.3658    1.8043 H   0  0  0  0  0  0  0  0  0  0  0  0
   -1.6815    3.2020    0.5977 H   0  0  0  0  0  0  0  0  0  0  0  0
   -1.9482    0.7608   -2.9358 H   0  0  0  0  0  0  0  0  0  0  0  0
    0.7747   -2.2782   -0.7867 H   0  0  0  0  0  0  0  0  0  0  0  0
    0.6862   -3.2422    0.6976 H   0  0  0  0  0  0  0  0  0  0  0  0
   -0.7721   -2.9072   -0.2315 H   0  0  0  0  0  0  0  0  0  0  0  0
   -0.7423   -2.4668    2.6076 H   0  0  0  0  0  0  0  0  0  0  0  0
   -1.2569   -0.7870    2.7601 H   0  0  0  0  0  0  0  0  0  0  0  0
   -2.0593   -1.8511    1.5999 H   0  0  0  0  0  0  0  0  0  0  0  0
    1.0347    0.1104    2.2974 H   0  0  0  0  0  0  0  0  0  0  0  0
    1.4803   -1.5561    2.4313 H   0  0  0  0  0  0  0  0  0  0  0  0
    4.3543   -1.5837    0.2131 H   0  0  0  0  0  0  0  0  0  0  0  0
    3.4090   -2.4703    1.4129 H   0  0  0  0  0  0  0  0  0  0  0  0
    2.8431   -2.3333   -0.2587 H   0  0  0  0  0  0  0  0  0  0  0  0
    1.9264    1.3155   -0.0967 H   0  0  0  0  0  0  0  0  0  0  0  0
    1.8739   -0.1469   -1.1072 H   0  0  0  0  0  0  0  0  0  0  0  0
    3.4094    0.6291   -0.7554 H   0  0  0  0  0  0  0  0  0  0  0  0
    3.6970   -0.3062    2.8234 H   0  0  0  0  0  0  0  0  0  0  0  0
    4.5007    0.4833    1.4584 H   0  0  0  0  0  0  0  0  0  0  0  0
    3.0837    1.2345    2.2001 H   0  0  0  0  0  0  0  0  0  0  0  0
   -1.8113    4.8010   -1.1204 H   0  0  0  0  0  0  0  0  0  0  0  0
   -3.4466    4.2139   -0.6295 H   0  0  0  0  0  0  0  0  0  0  0  0
   -4.2580    4.7364   -2.9728 H   0  0  0  0  0  0  0  0  0  0  0  0
   -3.6917    6.1842   -2.1024 H   0  0  0  0  0  0  0  0  0  0  0  0
   -2.0941    4.6155   -3.8390 H   0  0  0  0  0  0  0  0  0  0  0  0
  1  2  1  0  0  0  0
  1  6  2  0  0  0  0
  1 19  1  0  0  0  0
  2  3  2  0  0  0  0
  2 22  1  0  0  0  0
  3  4  1  0  0  0  0
  3 15  1  0  0  0  0
  4  5  2  0  0  0  0
  4 21  1  0  0  0  0
  5  6  1  0  0  0  0
  5 20  1  0  0  0  0
  6  7  1  0  0  0  0
  7  8  1  0  0  0  0
  7  9  1  0  0  0  0
  7 14  1  0  0  0  0
  8 26  1  0  0  0  0
  8 27  1  0  0  0  0
  8 28  1  0  0  0  0
  9 10  1  0  0  0  0
  9 29  1  0  0  0  0
  9 30  1  0  0  0  0
 10 11  1  0  0  0  0
 10 12  1  0  0  0  0
 10 13  1  0  0  0  0
 11 31  1  0  0  0  0
 11 32  1  0  0  0  0
 11 33  1  0  0  0  0
 12 34  1  0  0  0  0
 12 35  1  0  0  0  0
 12 36  1  0  0  0  0
 13 37  1  0  0  0  0
 13 38  1  0  0  0  0
 13 39  1  0  0  0  0
 14 23  1  0  0  0  0
 14 24  1  0  0  0  0
 14 25  1  0  0  0  0
 15 16  1  0  0  0  0
 16 17  1  0  0  0  0
 16 40  1  0  0  0  0
 16 41  1  0  0  0  0
 17 18  1  0  0  0  0
 17 42  1  0  0  0  0
 17 43  1  0  0  0  0
 18 44  1  0  0  0  0
M  END

> <Name>
Triton X-100

> <CAS>
9002-93-1

> <Type>
Training

> <Acute oral toxicity, IC50 exp.>
-1.26E+00

> <Acute oral toxicity, IC50 pred.>
-0.98
$$$$

  MOLCODE 1008081059

102102  0  0  0  0  0  0  0  0999 V2000
    0.0000    0.0000    0.0000 C   0 0 0 0 0 0 0 0 0 0 0 0
    1.5343    0.0000    0.0000 C   0 0 0 0 0 0 0 0 0 0 0 0
    2.1173    1.4215    0.0000 C   0 0 0 0 0 0 0 0 0 0 0 0
    3.3400    1.4679   -0.7185 O   0 0 0 0 0 0 0 0 0 0 0 0
    4.4309    0.8653   -0.0232 C   0 0 0 0 0 0 0 0 0 0 0 0
    5.6762    1.0779   -0.8705 C   0 0 0 0 0 0 0 0 0 0 0 0
    5.7377    0.1850   -1.9859 O   0 0 0 0 0 0 0 0 0 0 0 0
    6.1110   -1.1109   -1.7566 C   0 0 0 0 0 0 0 0 0 0 0 0
    6.3260   -1.4643   -0.5948 O   0 0 0 0 0 0 0 0 0 0 0 0
    6.2209   -1.9146   -3.0169 C   0 0 0 0 0 0 0 0 0 0 0 0
    4.9641   -2.7191   -3.2801 C   0 0 0 0 0 0 0 0 0 0 0 0
    4.8003   -3.8598   -2.2981 C   0 0 0 0 0 0 0 0 0 0 0 0
    3.4835   -4.5730   -2.5133 C   0 0 0 0 0 0 0 0 0 0 0 0
    3.3178   -5.7785   -1.6138 C   0 0 0 0 0 0 0 0 0 0 0 0
    3.2252   -5.4065   -0.1500 C   0 0 0 0 0 0 0 0 0 0 0 0
    2.8935   -6.5989    0.7258 C   0 0 0 0 0 0 0 0 0 0 0 0
    3.9954   -7.5892    0.7816 C   0 0 0 0 0 0 0 0 0 0 0 0
    3.7981   -8.9097    0.8384 C   0 0 0 0 0 0 0 0 0 0 0 0
    4.8983   -9.8972    0.9534 C   0 0 0 0 0 0 0 0 0 0 0 0
    4.6235  -11.1693    0.1762 C   0 0 0 0 0 0 0 0 0 0 0 0
    4.6352  -10.9348   -1.3191 C   0 0 0 0 0 0 0 0 0 0 0 0
    4.3343  -12.2093   -2.0784 C   0 0 0 0 0 0 0 0 0 0 0 0
    4.3528  -11.9734   -3.5738 C   0 0 0 0 0 0 0 0 0 0 0 0
    4.0753  -13.2356   -4.3626 C   0 0 0 0 0 0 0 0 0 0 0 0
    2.6086  -13.6121   -4.3585 C   0 0 0 0 0 0 0 0 0 0 0 0
    2.3565  -14.8579   -5.1681 C   0 0 0 0 0 0 0 0 0 0 0 0
    1.9937   -0.5821    1.2238 O   0 0 0 0 0 0 0 0 0 0 0 0
    2.1448   -1.9976    1.1770 C   0 0 0 0 0 0 0 0 0 0 0 0
    2.5024   -2.4293    2.5985 C   0 0 0 0 0 0 0 0 0 0 0 0
    2.6575   -3.8314    2.6654 O   0 0 0 0 0 0 0 0 0 0 0 0
   -0.4349   -1.3629   -0.1640 O   0 0 0 0 0 0 0 0 0 0 0 0
   -1.5199   -1.4537   -1.0794 C   0 0 0 0 0 0 0 0 0 0 0 0
   -1.0250   -2.1598   -2.2014 O   0 0 0 0 0 0 0 0 0 0 0 0
   -0.4905   -3.4504   -1.9104 C   0 0 0 0 0 0 0 0 0 0 0 0
    0.0082   -3.9980   -3.2462 C   0 0 0 0 0 0 0 0 0 0 0 0
    0.8844   -3.0922   -3.8821 O   0 0 0 0 0 0 0 0 0 0 0 0
   -1.8833   -0.0424   -1.5496 C   0 0 0 0 0 0 0 0 0 0 0 0
   -0.7428    0.8553   -1.0528 C   0 0 0 0 0 0 0 0 0 0 0 0
    0.0383    1.3903   -2.1041 O   0 0 0 0 0 0 0 0 0 0 0 0
    0.7198    0.4583   -2.9400 C   0 0 0 0 0 0 0 0 0 0 0 0
    0.2867    0.6968   -4.3852 C   0 0 0 0 0 0 0 0 0 0 0 0
    0.6102   -0.4209   -5.1897 O   0 0 0 0 0 0 0 0 0 0 0 0
   -0.3499    0.3122    1.0260 H   0 0 0 0 0 0 0 0 0 0 0 0
    1.9202   -0.5818   -0.8811 H   0 0 0 0 0 0 0 0 0 0 0 0
    1.4502    2.1267   -0.5657 H   0 0 0 0 0 0 0 0 0 0 0 0
    2.2607    1.7750    1.0550 H   0 0 0 0 0 0 0 0 0 0 0 0
    4.5623    1.3632    0.9744 H   0 0 0 0 0 0 0 0 0 0 0 0
    4.2252   -0.2276    0.1314 H   0 0 0 0 0 0 0 0 0 0 0 0
    6.5866    0.9471   -0.2294 H   0 0 0 0 0 0 0 0 0 0 0 0
    5.6614    2.0889   -1.3605 H   0 0 0 0 0 0 0 0 0 0 0 0
    7.1042   -2.5985   -2.9084 H   0 0 0 0 0 0 0 0 0 0 0 0
    6.4094   -1.2195   -3.8777 H   0 0 0 0 0 0 0 0 0 0 0 0
    4.0677   -2.0458   -3.2335 H   0 0 0 0 0 0 0 0 0 0 0 0
    5.0178   -3.1289   -4.3237 H   0 0 0 0 0 0 0 0 0 0 0 0
    5.6483   -4.5846   -2.4159 H   0 0 0 0 0 0 0 0 0 0 0 0
    4.8534   -3.4562   -1.2509 H   0 0 0 0 0 0 0 0 0 0 0 0
    2.6336   -3.8556   -2.3477 H   0 0 0 0 0 0 0 0 0 0 0 0
    3.4154   -4.9079   -3.5832 H   0 0 0 0 0 0 0 0 0 0 0 0
    2.3838   -6.3241   -1.9164 H   0 0 0 0 0 0 0 0 0 0 0 0
    4.1770   -6.4853   -1.7601 H   0 0 0 0 0 0 0 0 0 0 0 0
    2.4329   -4.6212   -0.0084 H   0 0 0 0 0 0 0 0 0 0 0 0
    4.1992   -4.9578    0.1831 H   0 0 0 0 0 0 0 0 0 0 0 0
    2.6910   -6.2289    1.7711 H   0 0 0 0 0 0 0 0 0 0 0 0
    1.9480   -7.0811    0.3592 H   0 0 0 0 0 0 0 0 0 0 0 0
    5.0129   -7.1641    0.7910 H   0 0 0 0 0 0 0 0 0 0 0 0
    2.7812   -9.3358    0.8193 H   0 0 0 0 0 0 0 0 0 0 0 0
    5.0257  -10.1592    2.0405 H   0 0 0 0 0 0 0 0 0 0 0 0
    5.8679   -9.4496    0.6062 H   0 0 0 0 0 0 0 0 0 0 0 0
    3.6297  -11.5907    0.4820 H   0 0 0 0 0 0 0 0 0 0 0 0
    5.4034  -11.9320    0.4394 H   0 0 0 0 0 0 0 0 0 0 0 0
    3.8755  -10.1505   -1.5782 H   0 0 0 0 0 0 0 0 0 0 0 0
    5.6380  -10.5392   -1.6300 H   0 0 0 0 0 0 0 0 0 0 0 0
    5.0913  -12.9933   -1.8116 H   0 0 0 0 0 0 0 0 0 0 0 0
    3.3296  -12.6017   -1.7696 H   0 0 0 0 0 0 0 0 0 0 0 0
    5.3600  -11.5741   -3.8679 H   0 0 0 0 0 0 0 0 0 0 0 0
    3.5960  -11.1886   -3.8386 H   0 0 0 0 0 0 0 0 0 0 0 0
    4.4093  -13.0831   -5.4235 H   0 0 0 0 0 0 0 0 0 0 0 0
    4.6801  -14.0830   -3.9444 H   0 0 0 0 0 0 0 0 0 0 0 0
    2.2651  -13.7742   -3.3026 H   0 0 0 0 0 0 0 0 0 0 0 0
    2.0038  -12.7637   -4.7752 H   0 0 0 0 0 0 0 0 0 0 0 0
    2.9320  -15.7208   -4.7538 H   0 0 0 0 0 0 0 0 0 0 0 0
    2.6678  -14.7081   -6.2302 H   0 0 0 0 0 0 0 0 0 0 0 0
    1.2707  -15.1182   -5.1523 H   0 0 0 0 0 0 0 0 0 0 0 0
    1.1930   -2.4880    0.8425 H   0 0 0 0 0 0 0 0 0 0 0 0
    2.9680   -2.2647    0.4601 H   0 0 0 0 0 0 0 0 0 0 0 0
    3.4351   -1.9080    2.9394 H   0 0 0 0 0 0 0 0 0 0 0 0
    1.6628   -2.1951    3.3051 H   0 0 0 0 0 0 0 0 0 0 0 0
    3.3985   -4.0680    2.0921 H   0 0 0 0 0 0 0 0 0 0 0 0
   -2.3454   -2.0220   -0.5752 H   0 0 0 0 0 0 0 0 0 0 0 0
    0.3544   -3.3518   -1.1785 H   0 0 0 0 0 0 0 0 0 0 0 0
   -1.2916   -4.1047   -1.4802 H   0 0 0 0 0 0 0 0 0 0 0 0
   -0.8607   -4.2355   -3.9147 H   0 0 0 0 0 0 0 0 0 0 0 0
    0.6212   -4.9223   -3.0661 H   0 0 0 0 0 0 0 0 0 0 0 0
    0.3671   -2.3036   -4.1062 H   0 0 0 0 0 0 0 0 0 0 0 0
   -2.8560    0.2700   -1.1013 H   0 0 0 0 0 0 0 0 0 0 0 0
   -1.9667   -0.0040   -2.6644 H   0 0 0 0 0 0 0 0 0 0 0 0
   -1.1452    1.7885   -0.5630 H   0 0 0 0 0 0 0 0 0 0 0 0
    1.8158    0.6778   -2.8095 H   0 0 0 0 0 0 0 0 0 0 0 0
    0.5099   -0.6055   -2.6476 H   0 0 0 0 0 0 0 0 0 0 0 0
    0.7644    1.6263   -4.7911 H   0 0 0 0 0 0 0 0 0 0 0 0
   -0.8294    0.7909   -4.4589 H   0 0 0 0 0 0 0 0 0 0 0 0
    1.5682   -0.5342   -5.1567 H   0 0 0 0 0 0 0 0 0 0 0 0
  1  2  1  0  0  0  0
  2  3  1  0  0  0  0
  3  4  1  0  0  0  0
  4  5  1  0  0  0  0
  5  6  1  0  0  0  0
  6  7  1  0  0  0  0
  7  8  1  0  0  0  0
  8  9  2  0  0  0  0
  8 10  1  0  0  0  0
 10 11  1  0  0  0  0
 11 12  1  0  0  0  0
 12 13  1  0  0  0  0
 13 14  1  0  0  0  0
 14 15  1  0  0  0  0
 15 16  1  0  0  0  0
 16 17  1  0  0  0  0
 17 18  2  0  0  0  0
 18 19  1  0  0  0  0
 19 20  1  0  0  0  0
 20 21  1  0  0  0  0
 21 22  1  0  0  0  0
 22 23  1  0  0  0  0
 23 24  1  0  0  0  0
 24 25  1  0  0  0  0
 25 26  1  0  0  0  0
  2 27  1  0  0  0  0
 27 28  1  0  0  0  0
 28 29  1  0  0  0  0
 29 30  1  0  0  0  0
  1 31  1  0  0  0  0
 31 32  1  0  0  0  0
 32 33  1  0  0  0  0
 33 34  1  0  0  0  0
 34 35  1  0  0  0  0
 35 36  1  0  0  0  0
 32 37  1  0  0  0  0
  1 38  1  0  0  0  0
 37 38  1  0  0  0  0
 38 39  1  0  0  0  0
 39 40  1  0  0  0  0
 40 41  1  0  0  0  0
 41 42  1  0  0  0  0
  1 43  1  0  0  0  0
  2 44  1  0  0  0  0
  3 45  1  0  0  0  0
  3 46  1  0  0  0  0
  5 47  1  0  0  0  0
  5 48  1  0  0  0  0
  6 49  1  0  0  0  0
  6 50  1  0  0  0  0
 10 51  1  0  0  0  0
 10 52  1  0  0  0  0
 11 53  1  0  0  0  0
 11 54  1  0  0  0  0
 12 55  1  0  0  0  0
 12 56  1  0  0  0  0
 13 57  1  0  0  0  0
 13 58  1  0  0  0  0
 14 59  1  0  0  0  0
 14 60  1  0  0  0  0
 15 61  1  0  0  0  0
 15 62  1  0  0  0  0
 16 63  1  0  0  0  0
 16 64  1  0  0  0  0
 17 65  1  0  0  0  0
 18 66  1  0  0  0  0
 19 67  1  0  0  0  0
 19 68  1  0  0  0  0
 20 69  1  0  0  0  0
 20 70  1  0  0  0  0
 21 71  1  0  0  0  0
 21 72  1  0  0  0  0
 22 73  1  0  0  0  0
 22 74  1  0  0  0  0
 23 75  1  0  0  0  0
 23 76  1  0  0  0  0
 24 77  1  0  0  0  0
 24 78  1  0  0  0  0
 25 79  1  0  0  0  0
 25 80  1  0  0  0  0
 26 81  1  0  0  0  0
 26 82  1  0  0  0  0
 26 83  1  0  0  0  0
 28 84  1  0  0  0  0
 28 85  1  0  0  0  0
 29 86  1  0  0  0  0
 29 87  1  0  0  0  0
 30 88  1  0  0  0  0
 32 89  1  0  0  0  0
 34 90  1  0  0  0  0
 34 91  1  0  0  0  0
 35 92  1  0  0  0  0
 35 93  1  0  0  0  0
 36 94  1  0  0  0  0
 37 95  1  0  0  0  0
 37 96  1  0  0  0  0
 38 97  1  0  0  0  0
 40 98  1  0  0  0  0
 40 99  1  0  0  0  0
 41100  1  0  0  0  0
 41101  1  0  0  0  0
 42102  1  0  0  0  0
M  END

> <Name>
Tween 80

> <CAS>
9005-65-6

> <Type>
Training

> <Acute oral toxicity, IC50 exp.>
-3.10E-01

> <Acute oral toxicity, IC50 pred.>
-1.67
$$$$

  MOLCODE 1008081059

 10  9  0  0  0  0  0  0  0  0999 V2000
    0.0000    0.0000    0.0000 C   0 0 0 0 0 0 0 0 0 0 0 0
    1.4882    0.0000    0.0000 C   0 0 0 0 0 0 0 0 0 0 0 0
   -0.7594    1.0920    0.0000 C   0 0 0 0 0 0 0 0 0 0 0 0
    2.0724    1.2759   -0.1802 O   0 0 0 0 0 0 0 0 0 0 0 0
   -0.4449   -1.0089    0.0102 H   0 0 0 0 0 0 0 0 0 0 0 0
    1.8747   -0.3425    1.0009 H   0 0 0 0 0 0 0 0 0 0 0 0
    1.8644   -0.7020   -0.7959 H   0 0 0 0 0 0 0 0 0 0 0 0
   -1.8559    1.0443    0.0038 H   0 0 0 0 0 0 0 0 0 0 0 0
   -0.3365    2.1063    0.0061 H   0 0 0 0 0 0 0 0 0 0 0 0
    1.7207    1.6390   -1.0018 H   0 0 0 0 0 0 0 0 0 0 0 0
  1  2  1  0  0  0  0
  1  3  2  0  0  0  0
  2  4  1  0  0  0  0
  1  5  1  0  0  0  0
  2  6  1  0  0  0  0
  2  7  1  0  0  0  0
  3  8  1  0  0  0  0
  3  9  1  0  0  0  0
  4 10  1  0  0  0  0
M  END

> <Name>
Allylalcohol

> <CAS>
107-18-6

> <Type>
Training

> <Acute oral toxicity, IC50 exp.>
8.40E-01

> <Acute oral toxicity, IC50 pred.>
1.66
$$$$

  MOLCODE 1008081059

 16 16  0  0  0  0  0  0  0  0999 V2000
    0.0000    0.0000    0.0000 C   0 0 0 0 0 0 0 0 0 0 0 0
    1.2369    0.0000    0.0000 O   0 0 0 0 0 0 0 0 0 0 0 0
   -0.5276    1.2592    0.0000 O   0 0 0 0 0 0 0 0 0 0 0 0
   -0.8733   -1.1800   -0.0121 C   0 0 0 0 0 0 0 0 0 0 0 0
   -0.4147   -2.4106   -0.5222 C   0 0 0 0 0 0 0 0 0 0 0 0
   -2.1766   -1.1114    0.5114 C   0 0 0 0 0 0 0 0 0 0 0 0
    0.8313   -2.6268   -1.0346 O   0 0 0 0 0 0 0 0 0 0 0 0
   -1.2722   -3.5352   -0.5488 C   0 0 0 0 0 0 0 0 0 0 0 0
   -3.0099   -2.2183    0.4970 C   0 0 0 0 0 0 0 0 0 0 0 0
   -2.5561   -3.4298   -0.0436 C   0 0 0 0 0 0 0 0 0 0 0 0
   -1.4888    1.2235   -0.0997 H   0 0 0 0 0 0 0 0 0 0 0 0
   -2.5361   -0.1707    0.9585 H   0 0 0 0 0 0 0 0 0 0 0 0
    1.3939   -1.8456   -0.8897 H   0 0 0 0 0 0 0 0 0 0 0 0
   -0.8924   -4.4784   -0.9682 H   0 0 0 0 0 0 0 0 0 0 0 0
   -4.0260   -2.1510    0.9120 H   0 0 0 0 0 0 0 0 0 0 0 0
   -3.2250   -4.3045   -0.0591 H   0 0 0 0 0 0 0 0 0 0 0 0
  1  2  2  0  0  0  0
  1  3  1  0  0  0  0
  1  4  1  0  0  0  0
  4  5  1  0  0  0  0
  4  6  2  0  0  0  0
  5  7  1  0  0  0  0
  5  8  2  0  0  0  0
  6  9  1  0  0  0  0
  8 10  1  0  0  0  0
  9 10  2  0  0  0  0
  3 11  1  0  0  0  0
  6 12  1  0  0  0  0
  7 13  1  0  0  0  0
  8 14  1  0  0  0  0
  9 15  1  0  0  0  0
 10 16  1  0  0  0  0
M  END

> <Name>
Salicylic acid

> <CAS>
69-72-7

> <Type>
Training

> <Acute oral toxicity, IC50 exp.>
5.30E-01

> <Acute oral toxicity, IC50 pred.>
0.29
$$$$

  MOLCODE 1008081059

 20 19  0  0  0  0  0  0  0  0999 V2000
    0.0000    0.0000    0.0000 C   0 0 0 0 0 0 0 0 0 0 0 0
    1.7155    0.0000    0.0000 P   0 0 0 0 0 0 0 0 0 0 0 0
   -0.8643    1.2640    0.0000 C   0 0 0 0 0 0 0 0 0 0 0 0
   -0.2272   -0.7934   -1.1504 O   0 0 0 0 0 0 0 0 0 0 0 0
    2.1613    1.4346    0.5544 O   0 0 0 0 0 0 0 0 0 0 0 0
    2.2603    0.1035   -1.5025 O   0 0 0 0 0 0 0 0 0 0 0 0
    2.2796   -1.1203    0.7381 O   0 0 0 0 0 0 0 0 0 0 0 0
   -2.5765    0.7544   -0.1026 Cl  0 0 0 0 0 0 0 0 0 0 0 0
   -0.5515    2.3363   -1.3582 Cl  0 0 0 0 0 0 0 0 0 0 0 0
   -0.6873    2.1534    1.5128 Cl  0 0 0 0 0 0 0 0 0 0 0 0
    3.5479    1.5508    0.7866 C   0 0 0 0 0 0 0 0 0 0 0 0
    2.4577   -1.0978   -2.2117 C   0 0 0 0 0 0 0 0 0 0 0 0
   -0.3222   -0.5834    0.9198 H   0 0 0 0 0 0 0 0 0 0 0 0
   -1.1681   -1.0226   -1.2088 H   0 0 0 0 0 0 0 0 0 0 0 0
    3.7106    2.5480    1.2659 H   0 0 0 0 0 0 0 0 0 0 0 0
    4.0798    1.4917   -0.1963 H   0 0 0 0 0 0 0 0 0 0 0 0
    3.8739    0.7205    1.4646 H   0 0 0 0 0 0 0 0 0 0 0 0
    3.3647   -0.9499   -2.8530 H   0 0 0 0 0 0 0 0 0 0 0 0
    2.6158   -1.9438   -1.4941 H   0 0 0 0 0 0 0 0 0 0 0 0
    1.5654   -1.2879   -2.8643 H   0 0 0 0 0 0 0 0 0 0 0 0
  1  2  1  0  0  0  0
  1  3  1  0  0  0  0
  1  4  1  0  0  0  0
  2  5  1  0  0  0  0
  2  6  1  0  0  0  0
  2  7  2  0  0  0  0
  3  8  1  0  0  0  0
  3  9  1  0  0  0  0
  3 10  1  0  0  0  0
  5 11  1  0  0  0  0
  6 12  1  0  0  0  0
  1 13  1  0  0  0  0
  4 14  1  0  0  0  0
 11 15  1  0  0  0  0
 11 16  1  0  0  0  0
 11 17  1  0  0  0  0
 12 18  1  0  0  0  0
 12 19  1  0  0  0  0
 12 20  1  0  0  0  0
M  END

> <Name>
Trichlorfon

> <CAS>
52-68-6

> <Type>
Training

> <Acute oral toxicity, IC50 exp.>
-5.70E-01

> <Acute oral toxicity, IC50 pred.>
-0.24
$$$$

  MOLCODE 1008081059

 16 16  0  0  0  0  0  0  0  0999 V2000
    0.0000    0.0000    0.0000 C   0 0 0 0 0 0 0 0 0 0 0 0
    1.3342    0.0000    0.0000 C   0 0 0 0 0 0 0 0 0 0 0 0
   -0.8414    1.1873    0.0000 C   0 0 0 0 0 0 0 0 0 0 0 0
   -0.3567    2.4389   -0.4052 C   0 0 0 0 0 0 0 0 0 0 0 0
   -2.1806    1.0779    0.4087 C   0 0 0 0 0 0 0 0 0 0 0 0
   -1.1899    3.5559   -0.3951 C   0 0 0 0 0 0 0 0 0 0 0 0
   -3.0092    2.1967    0.4201 C   0 0 0 0 0 0 0 0 0 0 0 0
   -2.5162    3.4387    0.0186 C   0 0 0 0 0 0 0 0 0 0 0 0
   -0.5539   -0.9566    0.0114 H   0 0 0 0 0 0 0 0 0 0 0 0
    1.9377    0.9167    0.0033 H   0 0 0 0 0 0 0 0 0 0 0 0
    1.9115   -0.9338    0.0023 H   0 0 0 0 0 0 0 0 0 0 0 0
    0.6867    2.5402   -0.7392 H   0 0 0 0 0 0 0 0 0 0 0 0
   -2.5748    0.1005    0.7249 H   0 0 0 0 0 0 0 0 0 0 0 0
   -0.7985    4.5325   -0.7158 H   0 0 0 0 0 0 0 0 0 0 0 0
   -4.0553    2.1002    0.7459 H   0 0 0 0 0 0 0 0 0 0 0 0
   -3.1720    4.3212    0.0270 H   0 0 0 0 0 0 0 0 0 0 0 0
  1  2  2  0  0  0  0
  1  3  1  0  0  0  0
  3  4  1  0  0  0  0
  3  5  2  0  0  0  0
  4  6  2  0  0  0  0
  5  7  1  0  0  0  0
  6  8  1  0  0  0  0
  7  8  2  0  0  0  0
  1  9  1  0  0  0  0
  2 10  1  0  0  0  0
  2 11  1  0  0  0  0
  4 12  1  0  0  0  0
  5 13  1  0  0  0  0
  6 14  1  0  0  0  0
  7 15  1  0  0  0  0
  8 16  1  0  0  0  0
M  END

> <Name>
Styrene

> <CAS>
100-42-5

> <Type>
Training

> <Acute oral toxicity, IC50 exp.>
5.20E-01

> <Acute oral toxicity, IC50 pred.>
0.42
$$$$

  MOLCODE 1008081059

 40 40  0  0  0  0  0  0  0  0999 V2000
    0.0000    0.0000    0.0000 C   0 0 0 0 0 0 0 0 0 0 0 0
    1.4114    0.0000    0.0000 C   0 0 0 0 0 0 0 0 0 0 0 0
   -0.7412    1.2025    0.0000 C   0 0 0 0 0 0 0 0 0 0 0 0
    2.0691    1.2381   -0.0317 C   0 0 0 0 0 0 0 0 0 0 0 0
   -0.0321    2.4101   -0.0314 C   0 0 0 0 0 0 0 0 0 0 0 0
    1.3628    2.4394   -0.0489 C   0 0 0 0 0 0 0 0 0 0 0 0
   -2.2485    1.3101    0.0148 C   0 0 0 0 0 0 0 0 0 0 0 0
   -2.6763    2.1724    1.2039 C   0 0 0 0 0 0 0 0 0 0 0 0
   -2.9906   -0.0145    0.1295 C   0 0 0 0 0 0 0 0 0 0 0 0
   -2.7032    1.9808   -1.2819 C   0 0 0 0 0 0 0 0 0 0 0 0
   -0.6737   -1.2061   -0.0943 O   0 0 0 0 0 0 0 0 0 0 0 0
    2.0734    3.7391   -0.0865 C   0 0 0 0 0 0 0 0 0 0 0 0
    2.2940   -1.2266    0.0151 C   0 0 0 0 0 0 0 0 0 0 0 0
    3.2524   -1.1385    1.2042 C   0 0 0 0 0 0 0 0 0 0 0 0
    1.5553   -2.5531    0.1303 C   0 0 0 0 0 0 0 0 0 0 0 0
    3.1033   -1.2625   -1.2817 C   0 0 0 0 0 0 0 0 0 0 0 0
    3.1701    1.2702   -0.0489 H   0 0 0 0 0 0 0 0 0 0 0 0
   -0.5779    3.3666   -0.0483 H   0 0 0 0 0 0 0 0 0 0 0 0
   -2.2946    3.2157    1.1051 H   0 0 0 0 0 0 0 0 0 0 0 0
   -3.7910    2.2132    1.2598 H   0 0 0 0 0 0 0 0 0 0 0 0
   -2.2864    1.7375    2.1545 H   0 0 0 0 0 0 0 0 0 0 0 0
   -4.0925    0.1756    0.1289 H   0 0 0 0 0 0 0 0 0 0 0 0
   -2.7298   -0.5317    1.0829 H   0 0 0 0 0 0 0 0 0 0 0 0
   -2.7491   -0.6819   -0.7320 H   0 0 0 0 0 0 0 0 0 0 0 0
   -2.4045    1.3595   -2.1595 H   0 0 0 0 0 0 0 0 0 0 0 0
   -2.2467    2.9932   -1.3883 H   0 0 0 0 0 0 0 0 0 0 0 0
   -3.8142    2.0917   -1.2817 H   0 0 0 0 0 0 0 0 0 0 0 0
   -0.8405   -1.4988    0.8146 H   0 0 0 0 0 0 0 0 0 0 0 0
    1.8105    4.3504    0.8128 H   0 0 0 0 0 0 0 0 0 0 0 0
    3.1816    3.5975   -0.1040 H   0 0 0 0 0 0 0 0 0 0 0 0
    1.7775    4.3156   -0.9985 H   0 0 0 0 0 0 0 0 0 0 0 0
    3.9411   -0.2667    1.1052 H   0 0 0 0 0 0 0 0 0 0 0 0
    2.6777   -1.0339    2.1547 H   0 0 0 0 0 0 0 0 0 0 0 0
    3.8714   -2.0664    1.2606 H   0 0 0 0 0 0 0 0 0 0 0 0
    2.2950   -3.3916    0.1311 H   0 0 0 0 0 0 0 0 0 0 0 0
    0.8611   -2.6984   -0.7317 H   0 0 0 0 0 0 0 0 0 0 0 0
    0.9771   -2.6014    1.0831 H   0 0 0 0 0 0 0 0 0 0 0 0
    3.7801   -2.1505   -1.2813 H   0 0 0 0 0 0 0 0 0 0 0 0
    2.4175   -1.3340   -2.1592 H   0 0 0 0 0 0 0 0 0 0 0 0
    3.7263   -0.3431   -1.3885 H   0 0 0 0 0 0 0 0 0 0 0 0
  1  2  1  0  0  0  0
  1  3  2  0  0  0  0
  2  4  2  0  0  0  0
  3  5  1  0  0  0  0
  4  6  1  0  0  0  0
  5  6  2  0  0  0  0
  3  7  1  0  0  0  0
  7  8  1  0  0  0  0
  7  9  1  0  0  0  0
  7 10  1  0  0  0  0
  1 11  1  0  0  0  0
  6 12  1  0  0  0  0
  2 13  1  0  0  0  0
 13 14  1  0  0  0  0
 13 15  1  0  0  0  0
 13 16  1  0  0  0  0
  4 17  1  0  0  0  0
  5 18  1  0  0  0  0
  8 19  1  0  0  0  0
  8 20  1  0  0  0  0
  8 21  1  0  0  0  0
  9 22  1  0  0  0  0
  9 23  1  0  0  0  0
  9 24  1  0  0  0  0
 10 25  1  0  0  0  0
 10 26  1  0  0  0  0
 10 27  1  0  0  0  0
 11 28  1  0  0  0  0
 12 29  1  0  0  0  0
 12 30  1  0  0  0  0
 12 31  1  0  0  0  0
 14 32  1  0  0  0  0
 14 33  1  0  0  0  0
 14 34  1  0  0  0  0
 15 35  1  0  0  0  0
 15 36  1  0  0  0  0
 15 37  1  0  0  0  0
 16 38  1  0  0  0  0
 16 39  1  0  0  0  0
 16 40  1  0  0  0  0
M  END

> <Name>
Butylated hydroxytoluene

> <CAS>
128-37-0

> <Type>
Training

> <Acute oral toxicity, IC50 exp.>
-1.25E+00

> <Acute oral toxicity, IC50 pred.>
-0.92
$$$$

  MOLCODE 1008081059

 27 26  0  0  0  0  0  0  0  0999 V2000
    0.0000    0.0000    0.0000 C   0 0 0 0 0 0 0 0 0 0 0 0
    1.5146    0.0000    0.0000 C   0 0 0 0 0 0 0 0 0 0 0 0
   -0.5763    1.4012    0.0000 C   0 0 0 0 0 0 0 0 0 0 0 0
    2.0901   -1.4013    0.0002 C   0 0 0 0 0 0 0 0 0 0 0 0
   -0.5525    2.0635    1.3599 C   0 0 0 0 0 0 0 0 0 0 0 0
    2.0731   -2.0605    1.3642 C   0 0 0 0 0 0 0 0 0 0 0 0
   -1.6758    1.5677    2.2549 C   0 0 0 0 0 0 0 0 0 0 0 0
    3.1756   -1.5632    2.2637 C   0 0 0 0 0 0 0 0 0 0 0 0
   -1.6987    2.2506    3.4942 O   0 0 0 0 0 0 0 0 0 0 0 0
   -0.3643   -0.5417   -0.9136 H   0 0 0 0 0 0 0 0 0 0 0 0
   -0.3786   -0.5660    0.8914 H   0 0 0 0 0 0 0 0 0 0 0 0
    1.8940    0.5643    0.8922 H   0 0 0 0 0 0 0 0 0 0 0 0
    1.8789    0.5427   -0.9130 H   0 0 0 0 0 0 0 0 0 0 0 0
    0.0009    2.0362   -0.7239 H   0 0 0 0 0 0 0 0 0 0 0 0
   -1.6357    1.3603   -0.3697 H   0 0 0 0 0 0 0 0 0 0 0 0
    1.5102   -2.0373   -0.7204 H   0 0 0 0 0 0 0 0 0 0 0 0
    3.1482   -1.3602   -0.3726 H   0 0 0 0 0 0 0 0 0 0 0 0
    0.4334    1.8779    1.8614 H   0 0 0 0 0 0 0 0 0 0 0 0
   -0.6573    3.1741    1.2372 H   0 0 0 0 0 0 0 0 0 0 0 0
    1.0797   -1.8856    1.8556 H   0 0 0 0 0 0 0 0 0 0 0 0
    2.1839   -3.1700    1.2306 H   0 0 0 0 0 0 0 0 0 0 0 0
   -2.6793    1.7846    1.7988 H   0 0 0 0 0 0 0 0 0 0 0 0
   -1.5825    0.4621    2.4298 H   0 0 0 0 0 0 0 0 0 0 0 0
    4.1763   -1.7655    1.8104 H   0 0 0 0 0 0 0 0 0 0 0 0
    3.0857   -0.4630    2.4337 H   0 0 0 0 0 0 0 0 0 0 0 0
    3.1276   -2.0767    3.2543 H   0 0 0 0 0 0 0 0 0 0 0 0
   -0.8348    2.1285    3.9048 H   0 0 0 0 0 0 0 0 0 0 0 0
  1  2  1  0  0  0  0
  1  3  1  0  0  0  0
  2  4  1  0  0  0  0
  3  5  1  0  0  0  0
  4  6  1  0  0  0  0
  5  7  1  0  0  0  0
  6  8  1  0  0  0  0
  7  9  1  0  0  0  0
  1 10  1  0  0  0  0
  1 11  1  0  0  0  0
  2 12  1  0  0  0  0
  2 13  1  0  0  0  0
  3 14  1  0  0  0  0
  3 15  1  0  0  0  0
  4 16  1  0  0  0  0
  4 17  1  0  0  0  0
  5 18  1  0  0  0  0
  5 19  1  0  0  0  0
  6 20  1  0  0  0  0
  6 21  1  0  0  0  0
  7 22  1  0  0  0  0
  7 23  1  0  0  0  0
  8 24  1  0  0  0  0
  8 25  1  0  0  0  0
  8 26  1  0  0  0  0
  9 27  1  0  0  0  0
M  END

> <Name>
1-Octanol

> <CAS>
111-87-5

> <Type>
Training

> <Acute oral toxicity, IC50 exp.>
4.90E-01

> <Acute oral toxicity, IC50 pred.>
1.83
$$$$

  MOLCODE 1008081059

 16 16  0  0  0  0  0  0  0  0999 V2000
    0.0000    0.0000    0.0000 C   0 0 0 0 0 0 0 0 0 0 0 0
    1.4149    0.0000    0.0000 O   0 0 0 0 0 0 0 0 0 0 0 0
   -0.5945    1.3707    0.0000 C   0 0 0 0 0 0 0 0 0 0 0 0
    0.1211    2.4611   -0.5049 C   0 0 0 0 0 0 0 0 0 0 0 0
   -1.8913    1.5628    0.4890 C   0 0 0 0 0 0 0 0 0 0 0 0
   -0.4532    3.7312   -0.5171 C   0 0 0 0 0 0 0 0 0 0 0 0
   -2.4646    2.8330    0.4725 C   0 0 0 0 0 0 0 0 0 0 0 0
   -1.7463    3.9188   -0.0290 C   0 0 0 0 0 0 0 0 0 0 0 0
   -0.2771   -0.5415   -0.9477 H   0 0 0 0 0 0 0 0 0 0 0 0
   -0.3775   -0.5869    0.8824 H   0 0 0 0 0 0 0 0 0 0 0 0
    1.7022    0.5189    0.7608 H   0 0 0 0 0 0 0 0 0 0 0 0
    1.1385    2.3047   -0.8966 H   0 0 0 0 0 0 0 0 0 0 0 0
   -2.4589    0.7083    0.8867 H   0 0 0 0 0 0 0 0 0 0 0 0
    0.1144    4.5851   -0.9151 H   0 0 0 0 0 0 0 0 0 0 0 0
   -3.4849    2.9788    0.8565 H   0 0 0 0 0 0 0 0 0 0 0 0
   -2.1995    4.9207   -0.0401 H   0 0 0 0 0 0 0 0 0 0 0 0
  1  2  1  0  0  0  0
  1  3  1  0  0  0  0
  3  4  1  0  0  0  0
  3  5  2  0  0  0  0
  4  6  2  0  0  0  0
  5  7  1  0  0  0  0
  6  8  1  0  0  0  0
  7  8  2  0  0  0  0
  1  9  1  0  0  0  0
  1 10  1  0  0  0  0
  2 11  1  0  0  0  0
  4 12  1  0  0  0  0
  5 13  1  0  0  0  0
  6 14  1  0  0  0  0
  7 15  1  0  0  0  0
  8 16  1  0  0  0  0
M  END

> <Name>
Benzylalcohol

> <CAS>
100-51-6

> <Type>
Training

> <Acute oral toxicity, IC50 exp.>
7.60E-01

> <Acute oral toxicity, IC50 pred.>
0.78
$$$$

  MOLCODE 1008081059

 17 17  0  0  0  0  0  0  0  0999 V2000
    0.0000    0.0000    0.0000 N   0 0 0 0 0 0 0 0 0 0 0 0
    1.1981    0.0000    0.0000 O   0 0 0 0 0 0 0 0 0 0 0 0
   -0.6384    1.0242    0.0000 O   0 0 0 0 0 0 0 0 0 0 0 0
   -0.7232   -1.2903    0.0000 C   0 0 0 0 0 0 0 0 0 0 0 0
    0.0426   -2.4738    0.0009 C   0 0 0 0 0 0 0 0 0 0 0 0
   -2.1373   -1.3613   -0.0011 C   0 0 0 0 0 0 0 0 0 0 0 0
   -0.6032   -3.7090    0.0009 C   0 0 0 0 0 0 0 0 0 0 0 0
   -3.0055   -0.3222   -0.0022 O   0 0 0 0 0 0 0 0 0 0 0 0
   -2.7639   -2.6349   -0.0011 C   0 0 0 0 0 0 0 0 0 0 0 0
    0.1993   -4.9591    0.0019 N   0 0 0 0 0 0 0 0 0 0 0 0
   -2.0145   -3.7915   -0.0001 C   0 0 0 0 0 0 0 0 0 0 0 0
    1.3972   -4.8784    0.0049 O   0 0 0 0 0 0 0 0 0 0 0 0
   -0.3777   -6.0126   -0.0003 O   0 0 0 0 0 0 0 0 0 0 0 0
    1.1516   -2.4168    0.0017 H   0 0 0 0 0 0 0 0 0 0 0 0
   -2.5543    0.5413   -0.0019 H   0 0 0 0 0 0 0 0 0 0 0 0
   -3.8656   -2.6697   -0.0020 H   0 0 0 0 0 0 0 0 0 0 0 0
   -2.5083   -4.7811    0.0000 H   0 0 0 0 0 0 0 0 0 0 0 0
  1  2  2  0  0  0  0
  1  3  1  0  0  0  0
  1  4  1  0  0  0  0
  4  5  1  0  0  0  0
  4  6  2  0  0  0  0
  5  7  2  0  0  0  0
  6  8  1  0  0  0  0
  6  9  1  0  0  0  0
  7 10  1  0  0  0  0
  7 11  1  0  0  0  0
  9 11  2  0  0  0  0
 10 12  2  0  0  0  0
 10 13  1  0  0  0  0
  5 14  1  0  0  0  0
  8 15  1  0  0  0  0
  9 16  1  0  0  0  0
 11 17  1  0  0  0  0
M  END

> <Name>
2,4-Dinitrophenol

> <CAS>
51-28-5

> <Type>
Training

> <Acute oral toxicity, IC50 exp.>
-6.80E-01

> <Acute oral toxicity, IC50 pred.>
0.14
$$$$

  MOLCODE 1008081059

 43 45  0  0  0  0  0  0  0  0999 V2000
    0.0000    0.0000    0.0000 O   0 0 0 0 0 0 0 0 0 0 0 0
    1.2301    0.0000    0.0000 C   0 0 0 0 0 0 0 0 0 0 0 0
    2.0426    1.2031    0.0000 N   0 0 0 0 0 0 0 0 0 0 0 0
    2.1422   -1.2201    0.1289 C   0 0 0 0 0 0 0 0 0 0 0 0
    3.4042    0.8415   -0.1005 N   0 0 0 0 0 0 0 0 0 0 0 0
    1.6306    2.2691   -0.8848 C   0 0 0 0 0 0 0 0 0 0 0 0
    1.9050   -2.2895   -0.9142 C   0 0 0 0 0 0 0 0 0 0 0 0
    3.5354   -0.5958    0.0567 C   0 0 0 0 0 0 0 0 0 0 0 0
    4.3540    1.6384    0.6367 C   0 0 0 0 0 0 0 0 0 0 0 0
    0.9362    2.0160   -2.0831 C   0 0 0 0 0 0 0 0 0 0 0 0
    1.8973    3.6001   -0.5102 C   0 0 0 0 0 0 0 0 0 0 0 0
    1.9225   -1.7916   -2.3471 C   0 0 0 0 0 0 0 0 0 0 0 0
    4.6112   -1.1916    0.0676 O   0 0 0 0 0 0 0 0 0 0 0 0
    4.0240    2.3668    1.7952 C   0 0 0 0 0 0 0 0 0 0 0 0
    5.6746    1.6877    0.1414 C   0 0 0 0 0 0 0 0 0 0 0 0
    0.4969    3.0763   -2.8713 C   0 0 0 0 0 0 0 0 0 0 0 0
    1.4564    4.6483   -1.3146 C   0 0 0 0 0 0 0 0 0 0 0 0
    0.5343   -1.6330   -2.9357 C   0 0 0 0 0 0 0 0 0 0 0 0
    4.9945    3.1396    2.4295 C   0 0 0 0 0 0 0 0 0 0 0 0
    6.6306    2.4602    0.7948 C   0 0 0 0 0 0 0 0 0 0 0 0
    0.7556    4.3926   -2.4920 C   0 0 0 0 0 0 0 0 0 0 0 0
   -0.0741   -2.9509   -3.3410 C   0 0 0 0 0 0 0 0 0 0 0 0
    6.2960    3.1906    1.9342 C   0 0 0 0 0 0 0 0 0 0 0 0
    2.0095   -1.6663    1.1540 H   0 0 0 0 0 0 0 0 0 0 0 0
    2.7090   -3.0640   -0.7814 H   0 0 0 0 0 0 0 0 0 0 0 0
    0.9187   -2.7798   -0.6934 H   0 0 0 0 0 0 0 0 0 0 0 0
    0.7206    0.9797   -2.3933 H   0 0 0 0 0 0 0 0 0 0 0 0
    2.4557    3.8166    0.4147 H   0 0 0 0 0 0 0 0 0 0 0 0
    2.4602   -0.8074   -2.4006 H   0 0 0 0 0 0 0 0 0 0 0 0
    2.5058   -2.5151   -2.9771 H   0 0 0 0 0 0 0 0 0 0 0 0
    3.0053    2.3371    2.2121 H   0 0 0 0 0 0 0 0 0 0 0 0
    5.9555    1.1020   -0.7484 H   0 0 0 0 0 0 0 0 0 0 0 0
   -0.0551    2.8689   -3.8002 H   0 0 0 0 0 0 0 0 0 0 0 0
    1.6660    5.6856   -1.0131 H   0 0 0 0 0 0 0 0 0 0 0 0
    0.5987   -0.9664   -3.8370 H   0 0 0 0 0 0 0 0 0 0 0 0
   -0.1340   -1.1234   -2.1892 H   0 0 0 0 0 0 0 0 0 0 0 0
    4.7269    3.7081    3.3329 H   0 0 0 0 0 0 0 0 0 0 0 0
    7.6587    2.4908    0.4036 H   0 0 0 0 0 0 0 0 0 0 0 0
    0.4089    5.2261   -3.1202 H   0 0 0 0 0 0 0 0 0 0 0 0
   -1.0965   -2.7903   -3.7607 H   0 0 0 0 0 0 0 0 0 0 0 0
    0.5515   -3.4532   -4.1182 H   0 0 0 0 0 0 0 0 0 0 0 0
   -0.1587   -3.6364   -2.4633 H   0 0 0 0 0 0 0 0 0 0 0 0
    7.0568    3.8012    2.4418 H   0 0 0 0 0 0 0 0 0 0 0 0
  1  2  2  0  0  0  0
  2  3  1  0  0  0  0
  2  4  1  0  0  0  0
  3  5  1  0  0  0  0
  3  6  1  0  0  0  0
  4  7  1  0  0  0  0
  4  8  1  0  0  0  0
  5  8  1  0  0  0  0
  5  9  1  0  0  0  0
  6 10  1  0  0  0  0
  6 11  2  0  0  0  0
  7 12  1  0  0  0  0
  8 13  2  0  0  0  0
  9 14  1  0  0  0  0
  9 15  2  0  0  0  0
 10 16  2  0  0  0  0
 11 17  1  0  0  0  0
 12 18  1  0  0  0  0
 14 19  2  0  0  0  0
 15 20  1  0  0  0  0
 16 21  1  0  0  0  0
 17 21  2  0  0  0  0
 18 22  1  0  0  0  0
 19 23  1  0  0  0  0
 20 23  2  0  0  0  0
  4 24  1  0  0  0  0
  7 25  1  0  0  0  0
  7 26  1  0  0  0  0
 10 27  1  0  0  0  0
 11 28  1  0  0  0  0
 12 29  1  0  0  0  0
 12 30  1  0  0  0  0
 14 31  1  0  0  0  0
 15 32  1  0  0  0  0
 16 33  1  0  0  0  0
 17 34  1  0  0  0  0
 18 35  1  0  0  0  0
 18 36  1  0  0  0  0
 19 37  1  0  0  0  0
 20 38  1  0  0  0  0
 21 39  1  0  0  0  0
 22 40  1  0  0  0  0
 22 41  1  0  0  0  0
 22 42  1  0  0  0  0
 23 43  1  0  0  0  0
M  END

> <Name>
Phenylbutazone

> <CAS>
50-33-9

> <Type>
Training

> <Acute oral toxicity, IC50 exp.>
-4.90E-01

> <Acute oral toxicity, IC50 pred.>
-0.77
$$$$

  MOLCODE 1008081059

 26 27  0  0  0  0  0  0  0  0999 V2000
    0.0000    0.0000    0.0000 O   0 0 0 0 0 0 0 0 0 0 0 0
    1.3944    0.0000    0.0000 C   0 0 0 0 0 0 0 0 0 0 0 0
   -0.6839    1.2132    0.0000 C   0 0 0 0 0 0 0 0 0 0 0 0
    2.1038    1.1765   -0.0805 N   0 0 0 0 0 0 0 0 0 0 0 0
    1.8485   -1.1503    0.0794 O   0 0 0 0 0 0 0 0 0 0 0 0
   -1.5360    1.4764   -1.1164 C   0 0 0 0 0 0 0 0 0 0 0 0
   -0.6286    2.0623    1.0870 C   0 0 0 0 0 0 0 0 0 0 0 0
    3.5312    1.1803   -0.1466 C   0 0 0 0 0 0 0 0 0 0 0 0
   -2.3285    2.6530   -1.0841 C   0 0 0 0 0 0 0 0 0 0 0 0
   -1.6222    0.6047   -2.2348 C   0 0 0 0 0 0 0 0 0 0 0 0
   -1.4276    3.2284    1.0981 C   0 0 0 0 0 0 0 0 0 0 0 0
   -2.2545    3.5194    0.0409 C   0 0 0 0 0 0 0 0 0 0 0 0
   -3.1838    2.9345   -2.1849 C   0 0 0 0 0 0 0 0 0 0 0 0
   -2.4585    0.9028   -3.2827 C   0 0 0 0 0 0 0 0 0 0 0 0
   -3.2453    2.0796   -3.2579 C   0 0 0 0 0 0 0 0 0 0 0 0
    1.6194    2.0351   -0.1878 H   0 0 0 0 0 0 0 0 0 0 0 0
    0.0214    1.8337    1.9444 H   0 0 0 0 0 0 0 0 0 0 0 0
    3.9394    1.8723    0.6388 H   0 0 0 0 0 0 0 0 0 0 0 0
    3.9321    0.1459    0.0291 H   0 0 0 0 0 0 0 0 0 0 0 0
    3.8737    1.5377   -1.1558 H   0 0 0 0 0 0 0 0 0 0 0 0
   -1.0122   -0.3130   -2.2308 H   0 0 0 0 0 0 0 0 0 0 0 0
   -1.3777    3.8947    1.9724 H   0 0 0 0 0 0 0 0 0 0 0 0
   -2.8779    4.4265    0.0476 H   0 0 0 0 0 0 0 0 0 0 0 0
   -3.7956    3.8486   -2.1551 H   0 0 0 0 0 0 0 0 0 0 0 0
   -2.5296    0.2300   -4.1504 H   0 0 0 0 0 0 0 0 0 0 0 0
   -3.9080    2.2965   -4.1091 H   0 0 0 0 0 0 0 0 0 0 0 0
  1  2  1  0  0  0  0
  1  3  1  0  0  0  0
  2  4  1  0  0  0  0
  2  5  2  0  0  0  0
  3  6  1  0  0  0  0
  3  7  2  0  0  0  0
  4  8  1  0  0  0  0
  6  9  1  0  0  0  0
  6 10  2  0  0  0  0
  7 11  1  0  0  0  0
  9 12  1  0  0  0  0
 11 12  2  0  0  0  0
  9 13  2  0  0  0  0
 10 14  1  0  0  0  0
 13 15  1  0  0  0  0
 14 15  2  0  0  0  0
  4 16  1  0  0  0  0
  7 17  1  0  0  0  0
  8 18  1  0  0  0  0
  8 19  1  0  0  0  0
  8 20  1  0  0  0  0
 10 21  1  0  0  0  0
 11 22  1  0  0  0  0
 12 23  1  0  0  0  0
 13 24  1  0  0  0  0
 14 25  1  0  0  0  0
 15 26  1  0  0  0  0
M  END

> <Name>
Carbaryl

> <CAS>
63-25-2

> <Type>
Training

> <Acute oral toxicity, IC50 exp.>
-5.90E-01

> <Acute oral toxicity, IC50 pred.>
-0.52
$$$$

  MOLCODE 1008081059

 64 65  0  0  0  0  0  0  0  0999 V2000
    0.0000    0.0000    0.0000 C   0 0 0 0 0 0 0 0 0 0 0 0
    1.4098    0.0000    0.0000 N   0 0 0 0 0 0 0 0 0 0 0 0
   -0.7147    1.2201    0.0000 C   0 0 0 0 0 0 0 0 0 0 0 0
   -0.7256   -1.2082   -0.0909 C   0 0 0 0 0 0 0 0 0 0 0 0
    2.1274   -0.6959    1.0266 C   0 0 0 0 0 0 0 0 0 0 0 0
   -2.1020    1.2284   -0.0814 C   0 0 0 0 0 0 0 0 0 0 0 0
   -2.1148   -1.1931   -0.1602 C   0 0 0 0 0 0 0 0 0 0 0 0
    3.5624   -0.5309    0.9520 N   0 0 0 0 0 0 0 0 0 0 0 0
    1.6449   -1.5141    1.9238 N   0 0 0 0 0 0 0 0 0 0 0 0
   -2.8043    0.0219   -0.1538 C   0 0 0 0 0 0 0 0 0 0 0 0
    4.0763    0.8296    0.9628 C   0 0 0 0 0 0 0 0 0 0 0 0
   -4.5012    0.0342   -0.2396 Cl  0 0 0 0 0 0 0 0 0 0 0 0
    3.3170    1.8081    1.7112 N   0 0 0 0 0 0 0 0 0 0 0 0
    5.1142    1.1905    0.2662 N   0 0 0 0 0 0 0 0 0 0 0 0
    3.2806    1.6151    3.1456 C   0 0 0 0 0 0 0 0 0 0 0 0
    4.5748    1.8817    3.9126 C   0 0 0 0 0 0 0 0 0 0 0 0
    4.9209    3.3538    3.9605 C   0 0 0 0 0 0 0 0 0 0 0 0
    6.1913    3.5850    4.7523 C   0 0 0 0 0 0 0 0 0 0 0 0
    6.5093    5.0543    4.9282 C   0 0 0 0 0 0 0 0 0 0 0 0
    7.0368    5.6639    3.6288 C   0 0 0 0 0 0 0 0 0 0 0 0
    7.3594    7.0742    3.7695 N   0 0 0 0 0 0 0 0 0 0 0 0
    8.1178    7.6444    2.6849 C   0 0 0 0 0 0 0 0 0 0 0 0
    7.5448    7.4787    1.3734 N   0 0 0 0 0 0 0 0 0 0 0 0
    9.2416    8.2588    2.9395 N   0 0 0 0 0 0 0 0 0 0 0 0
    6.2154    7.9215    1.0816 C   0 0 0 0 0 0 0 0 0 0 0 0
    5.9957    8.1138   -0.3465 N   0 0 0 0 0 0 0 0 0 0 0 0
    5.2449    8.1725    1.9076 N   0 0 0 0 0 0 0 0 0 0 0 0
    5.7711    6.9642   -1.1391 C   0 0 0 0 0 0 0 0 0 0 0 0
    5.4589    7.1490   -2.5079 C   0 0 0 0 0 0 0 0 0 0 0 0
    5.9037    5.6479   -0.6514 C   0 0 0 0 0 0 0 0 0 0 0 0
    5.3143    6.0570   -3.3533 C   0 0 0 0 0 0 0 0 0 0 0 0
    5.7613    4.5575   -1.5043 C   0 0 0 0 0 0 0 0 0 0 0 0
    5.4692    4.7599   -2.8547 C   0 0 0 0 0 0 0 0 0 0 0 0
    5.2937    3.4276   -3.8959 Cl  0 0 0 0 0 0 0 0 0 0 0 0
    1.8148    0.8607   -0.3066 H   0 0 0 0 0 0 0 0 0 0 0 0
   -0.1763    2.1792    0.0583 H   0 0 0 0 0 0 0 0 0 0 0 0
   -0.1991   -2.1750   -0.1344 H   0 0 0 0 0 0 0 0 0 0 0 0
   -2.6435    2.1872   -0.0839 H   0 0 0 0 0 0 0 0 0 0 0 0
   -2.6662   -2.1440   -0.2284 H   0 0 0 0 0 0 0 0 0 0 0 0
    4.0478   -1.1176    1.6068 H   0 0 0 0 0 0 0 0 0 0 0 0
    0.6633   -1.6794    1.8974 H   0 0 0 0 0 0 0 0 0 0 0 0
    3.6100    2.7431    1.4829 H   0 0 0 0 0 0 0 0 0 0 0 0
    5.5281    0.4961   -0.3178 H   0 0 0 0 0 0 0 0 0 0 0 0
    2.4804    2.3122    3.5307 H   0 0 0 0 0 0 0 0 0 0 0 0
    2.9458    0.5617    3.3654 H   0 0 0 0 0 0 0 0 0 0 0 0
    4.4409    1.4961    4.9579 H   0 0 0 0 0 0 0 0 0 0 0 0
    5.4220    1.3094    3.4513 H   0 0 0 0 0 0 0 0 0 0 0 0
    4.0754    3.9243    4.4287 H   0 0 0 0 0 0 0 0 0 0 0 0
    5.0527    3.7503    2.9192 H   0 0 0 0 0 0 0 0 0 0 0 0
    7.0480    3.0673    4.2451 H   0 0 0 0 0 0 0 0 0 0 0 0
    6.0789    3.1208    5.7688 H   0 0 0 0 0 0 0 0 0 0 0 0
    5.5910    5.6039    5.2637 H   0 0 0 0 0 0 0 0 0 0 0 0
    7.2807    5.1629    5.7367 H   0 0 0 0 0 0 0 0 0 0 0 0
    7.9299    5.0640    3.2871 H   0 0 0 0 0 0 0 0 0 0 0 0
    6.2434    5.5717    2.8327 H   0 0 0 0 0 0 0 0 0 0 0 0
    7.7948    7.2682    4.6547 H   0 0 0 0 0 0 0 0 0 0 0 0
    8.2011    7.5647    0.6248 H   0 0 0 0 0 0 0 0 0 0 0 0
    9.6763    8.7358    2.1809 H   0 0 0 0 0 0 0 0 0 0 0 0
    5.3138    8.8312   -0.5207 H   0 0 0 0 0 0 0 0 0 0 0 0
    5.4272    8.1322    2.8843 H   0 0 0 0 0 0 0 0 0 0 0 0
    5.3328    8.1634   -2.9169 H   0 0 0 0 0 0 0 0 0 0 0 0
    6.1161    5.4595    0.4127 H   0 0 0 0 0 0 0 0 0 0 0 0
    5.0768    6.2183   -4.4164 H   0 0 0 0 0 0 0 0 0 0 0 0
    5.8723    3.5361   -1.1043 H   0 0 0 0 0 0 0 0 0 0 0 0
  1  2  1  0  0  0  0
  1  3  1  0  0  0  0
  1  4  2  0  0  0  0
  2  5  1  0  0  0  0
  3  6  2  0  0  0  0
  4  7  1  0  0  0  0
  5  8  1  0  0  0  0
  5  9  2  0  0  0  0
  6 10  1  0  0  0  0
  7 10  2  0  0  0  0
  8 11  1  0  0  0  0
 10 12  1  0  0  0  0
 11 13  1  0  0  0  0
 11 14  2  0  0  0  0
 13 15  1  0  0  0  0
 15 16  1  0  0  0  0
 16 17  1  0  0  0  0
 17 18  1  0  0  0  0
 18 19  1  0  0  0  0
 19 20  1  0  0  0  0
 20 21  1  0  0  0  0
 21 22  1  0  0  0  0
 22 23  1  0  0  0  0
 22 24  2  0  0  0  0
 23 25  1  0  0  0  0
 25 26  1  0  0  0  0
 25 27  2  0  0  0  0
 26 28  1  0  0  0  0
 28 29  1  0  0  0  0
 28 30  2  0  0  0  0
 29 31  2  0  0  0  0
 30 32  1  0  0  0  0
 31 33  1  0  0  0  0
 32 33  2  0  0  0  0
 33 34  1  0  0  0  0
  2 35  1  0  0  0  0
  3 36  1  0  0  0  0
  4 37  1  0  0  0  0
  6 38  1  0  0  0  0
  7 39  1  0  0  0  0
  8 40  1  0  0  0  0
  9 41  1  0  0  0  0
 13 42  1  0  0  0  0
 14 43  1  0  0  0  0
 15 44  1  0  0  0  0
 15 45  1  0  0  0  0
 16 46  1  0  0  0  0
 16 47  1  0  0  0  0
 17 48  1  0  0  0  0
 17 49  1  0  0  0  0
 18 50  1  0  0  0  0
 18 51  1  0  0  0  0
 19 52  1  0  0  0  0
 19 53  1  0  0  0  0
 20 54  1  0  0  0  0
 20 55  1  0  0  0  0
 21 56  1  0  0  0  0
 23 57  1  0  0  0  0
 24 58  1  0  0  0  0
 26 59  1  0  0  0  0
 27 60  1  0  0  0  0
 29 61  1  0  0  0  0
 30 62  1  0  0  0  0
 31 63  1  0  0  0  0
 32 64  1  0  0  0  0
M  END

> <Name>
Chlorhexidine

> <CAS>
55-56-1

> <Type>
Training

> <Acute oral toxicity, IC50 exp.>
-1.82E+00

> <Acute oral toxicity, IC50 pred.>
-1.7
$$$$

  MOLCODE 1008081059

 43 44  0  0  0  0  0  0  0  0999 V2000
    0.0000    0.0000    0.0000 C   0 0 0 0 0 0 0 0 0 0 0 0
    1.5262    0.0000    0.0000 C   0 0 0 0 0 0 0 0 0 0 0 0
   -0.4690    1.3487    0.0000 O   0 0 0 0 0 0 0 0 0 0 0 0
   -0.6806   -0.6510    1.2117 C   0 0 0 0 0 0 0 0 0 0 0 0
    2.1338   -1.3825   -0.1763 C   0 0 0 0 0 0 0 0 0 0 0 0
   -1.0085   -2.1065    0.9805 C   0 0 0 0 0 0 0 0 0 0 0 0
    0.0912   -0.4757    2.5080 C   0 0 0 0 0 0 0 0 0 0 0 0
    3.5966   -1.3457    0.2312 C   0 0 0 0 0 0 0 0 0 0 0 0
    1.9794   -1.8745   -1.6047 C   0 0 0 0 0 0 0 0 0 0 0 0
   -0.7960   -2.6825   -0.0915 O   0 0 0 0 0 0 0 0 0 0 0 0
   -1.6605   -2.8272    2.1407 C   0 0 0 0 0 0 0 0 0 0 0 0
   -0.6785   -1.0663    3.6797 C   0 0 0 0 0 0 0 0 0 0 0 0
    4.3123   -2.6479   -0.0405 C   0 0 0 0 0 0 0 0 0 0 0 0
    2.7688   -3.1285   -1.8982 C   0 0 0 0 0 0 0 0 0 0 0 0
   -3.1298   -2.4633    2.2137 C   0 0 0 0 0 0 0 0 0 0 0 0
   -0.9367   -2.5467    3.4475 C   0 0 0 0 0 0 0 0 0 0 0 0
    0.0849   -0.8597    4.9700 C   0 0 0 0 0 0 0 0 0 0 0 0
    5.2897   -3.0175    0.6320 O   0 0 0 0 0 0 0 0 0 0 0 0
    3.8742   -3.4394   -1.1011 N   0 0 0 0 0 0 0 0 0 0 0 0
    2.4778   -3.8882   -2.8364 O   0 0 0 0 0 0 0 0 0 0 0 0
   -0.3662   -0.5164   -0.9359 H   0 0 0 0 0 0 0 0 0 0 0 0
    1.8966    0.4575    0.9552 H   0 0 0 0 0 0 0 0 0 0 0 0
    1.8774    0.6665   -0.8338 H   0 0 0 0 0 0 0 0 0 0 0 0
   -0.1400    1.7611   -0.8068 H   0 0 0 0 0 0 0 0 0 0 0 0
   -1.6786   -0.1257    1.3316 H   0 0 0 0 0 0 0 0 0 0 0 0
    1.5879   -2.1027    0.5001 H   0 0 0 0 0 0 0 0 0 0 0 0
    1.0931   -0.9755    2.4345 H   0 0 0 0 0 0 0 0 0 0 0 0
    0.2646    0.6191    2.6790 H   0 0 0 0 0 0 0 0 0 0 0 0
    4.1380   -0.5373   -0.3299 H   0 0 0 0 0 0 0 0 0 0 0 0
    3.6870   -1.1214    1.3271 H   0 0 0 0 0 0 0 0 0 0 0 0
    2.3135   -1.0896   -2.3341 H   0 0 0 0 0 0 0 0 0 0 0 0
    0.8955   -2.1042   -1.8056 H   0 0 0 0 0 0 0 0 0 0 0 0
   -1.5890   -3.9359    1.9357 H   0 0 0 0 0 0 0 0 0 0 0 0
   -1.6696   -0.5360    3.7610 H   0 0 0 0 0 0 0 0 0 0 0 0
   -3.2649   -1.3774    2.4366 H   0 0 0 0 0 0 0 0 0 0 0 0
   -3.6337   -2.6946    1.2440 H   0 0 0 0 0 0 0 0 0 0 0 0
   -3.6251   -3.0538    3.0219 H   0 0 0 0 0 0 0 0 0 0 0 0
    0.0434   -3.0938    3.4459 H   0 0 0 0 0 0 0 0 0 0 0 0
   -1.5470   -2.9544    4.2958 H   0 0 0 0 0 0 0 0 0 0 0 0
    1.0781   -1.3685    4.9276 H   0 0 0 0 0 0 0 0 0 0 0 0
    0.2525    0.2295    5.1500 H   0 0 0 0 0 0 0 0 0 0 0 0
   -0.4902   -1.2785    5.8307 H   0 0 0 0 0 0 0 0 0 0 0 0
    4.3710   -4.2844   -1.2956 H   0 0 0 0 0 0 0 0 0 0 0 0
  1  2  1  0  0  0  0
  1  3  1  0  0  0  0
  1  4  1  0  0  0  0
  2  5  1  0  0  0  0
  4  6  1  0  0  0  0
  4  7  1  0  0  0  0
  5  8  1  0  0  0  0
  5  9  1  0  0  0  0
  6 10  2  0  0  0  0
  6 11  1  0  0  0  0
  7 12  1  0  0  0  0
  8 13  1  0  0  0  0
  9 14  1  0  0  0  0
 11 15  1  0  0  0  0
 11 16  1  0  0  0  0
 12 16  1  0  0  0  0
 12 17  1  0  0  0  0
 13 18  2  0  0  0  0
 13 19  1  0  0  0  0
 14 19  1  0  0  0  0
 14 20  2  0  0  0  0
  1 21  1  0  0  0  0
  2 22  1  0  0  0  0
  2 23  1  0  0  0  0
  3 24  1  0  0  0  0
  4 25  1  0  0  0  0
  5 26  1  0  0  0  0
  7 27  1  0  0  0  0
  7 28  1  0  0  0  0
  8 29  1  0  0  0  0
  8 30  1  0  0  0  0
  9 31  1  0  0  0  0
  9 32  1  0  0  0  0
 11 33  1  0  0  0  0
 12 34  1  0  0  0  0
 15 35  1  0  0  0  0
 15 36  1  0  0  0  0
 15 37  1  0  0  0  0
 16 38  1  0  0  0  0
 16 39  1  0  0  0  0
 17 40  1  0  0  0  0
 17 41  1  0  0  0  0
 17 42  1  0  0  0  0
 19 43  1  0  0  0  0
M  END

> <Name>
Cycloheximide

> <CAS>
66-81-9

> <Type>
Training

> <Acute oral toxicity, IC50 exp.>
-3.23E+00

> <Acute oral toxicity, IC50 pred.>
-2.08
$$$$

  MOLCODE 1008081059

118125  0  0  0  0  0  0  0  0999 V2000
    0.0000    0.0000    0.0000 O   0 0 0 0 0 0 0 0 0 0 0 0
    1.4201    0.0000    0.0000 C   0 0 0 0 0 0 0 0 0 0 0 0
    1.8526    1.4800    0.0000 C   0 0 0 0 0 0 0 0 0 0 0 0
    2.0185   -0.7371    1.2510 C   0 0 0 0 0 0 0 0 0 0 0 0
    1.9670   -0.7554   -1.2328 C   0 0 0 0 0 0 0 0 0 0 0 0
    1.2520    2.2173    1.1956 C   0 0 0 0 0 0 0 0 0 0 0 0
    1.4611    2.1814   -1.2953 C   0 0 0 0 0 0 0 0 0 0 0 0
    1.0615   -1.8055    1.7475 C   0 0 0 0 0 0 0 0 0 0 0 0
    3.3137   -1.3698    0.6945 C   0 0 0 0 0 0 0 0 0 0 0 0
    2.3320    0.2473    2.3744 C   0 0 0 0 0 0 0 0 0 0 0 0
    2.9725   -1.7804   -0.7395 C   0 0 0 0 0 0 0 0 0 0 0 0
    1.8463    3.6338    1.3520 C   0 0 0 0 0 0 0 0 0 0 0 0
    1.3160    1.3659    2.4574 C   0 0 0 0 0 0 0 0 0 0 0 0
    1.1904    3.6577   -1.0913 C   0 0 0 0 0 0 0 0 0 0 0 0
    3.9507   -2.4451    1.4689 C   0 0 0 0 0 0 0 0 0 0 0 0
    0.8194    4.4752    2.1112 C   0 0 0 0 0 0 0 0 0 0 0 0
    2.0824    4.2824   -0.0308 C   0 0 0 0 0 0 0 0 0 0 0 0
    3.1566    3.6245    2.1413 C   0 0 0 0 0 0 0 0 0 0 0 0
    4.2531   -2.3325    2.9500 C   0 0 0 0 0 0 0 0 0 0 0 0
    4.5157   -3.5822    0.9956 C   0 0 0 0 0 0 0 0 0 0 0 0
    3.5379    4.2409   -0.4731 C   0 0 0 0 0 0 0 0 0 0 0 0
    3.9705    4.8833    1.9212 C   0 0 0 0 0 0 0 0 0 0 0 0
    5.0594   -3.4965    3.2726 O   0 0 0 0 0 0 0 0 0 0 0 0
    5.2376   -4.2391    2.1089 C   0 0 0 0 0 0 0 0 0 0 0 0
    4.4387    5.0188    0.4774 C   0 0 0 0 0 0 0 0 0 0 0 0
    5.9681   -5.2220    2.1873 O   0 0 0 0 0 0 0 0 0 0 0 0
    5.8207    4.6994    0.2783 O   0 0 0 0 0 0 0 0 0 0 0 0
    6.3008    3.4975    0.8253 C   0 0 0 0 0 0 0 0 0 0 0 0
    7.8206    3.5819    0.9461 C   0 0 0 0 0 0 0 0 0 0 0 0
    5.9547    2.5251   -0.1616 O   0 0 0 0 0 0 0 0 0 0 0 0
    8.3117    2.2454    1.4829 C   0 0 0 0 0 0 0 0 0 0 0 0
    6.2903    1.1991    0.2410 C   0 0 0 0 0 0 0 0 0 0 0 0
    9.7279    2.2607    1.4186 O   0 0 0 0 0 0 0 0 0 0 0 0
    7.7611    1.0499    0.6745 C   0 0 0 0 0 0 0 0 0 0 0 0
    5.9845    0.3219   -0.9609 C   0 0 0 0 0 0 0 0 0 0 0 0
    7.8160   -0.0537    1.5915 O   0 0 0 0 0 0 0 0 0 0 0 0
    8.4333   -1.2294    1.1138 C   0 0 0 0 0 0 0 0 0 0 0 0
    8.2534   -2.2963    2.1953 C   0 0 0 0 0 0 0 0 0 0 0 0
    9.7928   -0.8225    0.9699 O   0 0 0 0 0 0 0 0 0 0 0 0
    9.5187   -3.1368    2.3251 C   0 0 0 0 0 0 0 0 0 0 0 0
   10.6663   -1.8565    0.5069 C   0 0 0 0 0 0 0 0 0 0 0 0
    9.2653   -4.3918    2.9074 O   0 0 0 0 0 0 0 0 0 0 0 0
   10.2097   -3.2599    0.9523 C   0 0 0 0 0 0 0 0 0 0 0 0
   10.8415   -1.7480   -0.9940 C   0 0 0 0 0 0 0 0 0 0 0 0
    9.2709   -3.7615   -0.0057 O   0 0 0 0 0 0 0 0 0 0 0 0
    9.5543   -5.0526   -0.5205 C   0 0 0 0 0 0 0 0 0 0 0 0
    8.7471   -5.2203   -1.8067 C   0 0 0 0 0 0 0 0 0 0 0 0
    9.1106   -5.8774    0.5469 O   0 0 0 0 0 0 0 0 0 0 0 0
    7.3463   -5.7343   -1.5077 C   0 0 0 0 0 0 0 0 0 0 0 0
    8.6352   -7.1706    0.1607 C   0 0 0 0 0 0 0 0 0 0 0 0
    6.5990   -4.8008   -0.7505 O   0 0 0 0 0 0 0 0 0 0 0 0
    7.4167   -7.0913   -0.7811 C   0 0 0 0 0 0 0 0 0 0 0 0
    8.3118   -7.8793    1.4630 C   0 0 0 0 0 0 0 0 0 0 0 0
    6.1997   -7.3617   -0.1230 O   0 0 0 0 0 0 0 0 0 0 0 0
   -0.2910   -0.9134   -0.1123 H   0 0 0 0 0 0 0 0 0 0 0 0
    2.9761    1.4791    0.0914 H   0 0 0 0 0 0 0 0 0 0 0 0
    1.1293   -1.2501   -1.7855 H   0 0 0 0 0 0 0 0 0 0 0 0
    2.4587   -0.0438   -1.9419 H   0 0 0 0 0 0 0 0 0 0 0 0
    0.1534    2.3548    0.9603 H   0 0 0 0 0 0 0 0 0 0 0 0
    2.2899    2.0613   -2.0425 H   0 0 0 0 0 0 0 0 0 0 0 0
    0.5446    1.6947   -1.7221 H   0 0 0 0 0 0 0 0 0 0 0 0
    0.1176   -1.3335    2.1155 H   0 0 0 0 0 0 0 0 0 0 0 0
    0.8141   -2.5199    0.9248 H   0 0 0 0 0 0 0 0 0 0 0 0
    1.5168   -2.3845    2.5862 H   0 0 0 0 0 0 0 0 0 0 0 0
    4.0904   -0.5426    0.6331 H   0 0 0 0 0 0 0 0 0 0 0 0
    3.3556    0.6853    2.2268 H   0 0 0 0 0 0 0 0 0 0 0 0
    2.3535   -0.3046    3.3523 H   0 0 0 0 0 0 0 0 0 0 0 0
    3.8937   -1.7915   -1.3741 H   0 0 0 0 0 0 0 0 0 0 0 0
    2.5332   -2.8098   -0.7568 H   0 0 0 0 0 0 0 0 0 0 0 0
    1.5389    1.9997    3.3540 H   0 0 0 0 0 0 0 0 0 0 0 0
    0.3019    0.9085    2.6209 H   0 0 0 0 0 0 0 0 0 0 0 0
    1.3382    4.1970   -2.0639 H   0 0 0 0 0 0 0 0 0 0 0 0
    0.1191    3.8059   -0.7897 H   0 0 0 0 0 0 0 0 0 0 0 0
   -0.1031    4.6066    1.4955 H   0 0 0 0 0 0 0 0 0 0 0 0
    0.5393    3.9741    3.0687 H   0 0 0 0 0 0 0 0 0 0 0 0
    1.2339    5.4842    2.3474 H   0 0 0 0 0 0 0 0 0 0 0 0
    1.7967    5.3719    0.0527 H   0 0 0 0 0 0 0 0 0 0 0 0
    2.9375    3.5252    3.2368 H   0 0 0 0 0 0 0 0 0 0 0 0
    3.7621    2.7309    1.8325 H   0 0 0 0 0 0 0 0 0 0 0 0
    3.3394   -2.3809    3.5922 H   0 0 0 0 0 0 0 0 0 0 0 0
    4.8683   -1.4295    3.1909 H   0 0 0 0 0 0 0 0 0 0 0 0
    4.5324   -3.9947   -0.0158 H   0 0 0 0 0 0 0 0 0 0 0 0
    3.8963    3.1810   -0.5468 H   0 0 0 0 0 0 0 0 0 0 0 0
    3.6261    4.6849   -1.4993 H   0 0 0 0 0 0 0 0 0 0 0 0
    3.3427    5.7791    2.1723 H   0 0 0 0 0 0 0 0 0 0 0 0
    4.8507    4.8992    2.6153 H   0 0 0 0 0 0 0 0 0 0 0 0
    4.4345    6.1135    0.1887 H   0 0 0 0 0 0 0 0 0 0 0 0
    5.8246    3.2345    1.8107 H   0 0 0 0 0 0 0 0 0 0 0 0
    8.1105    4.4069    1.6420 H   0 0 0 0 0 0 0 0 0 0 0 0
    8.2746    3.7949   -0.0545 H   0 0 0 0 0 0 0 0 0 0 0 0
    7.9939    2.1224    2.5590 H   0 0 0 0 0 0 0 0 0 0 0 0
    5.6314    0.9164    1.1144 H   0 0 0 0 0 0 0 0 0 0 0 0
   10.0234    1.3627    1.6300 H   0 0 0 0 0 0 0 0 0 0 0 0
    8.4176    0.8724   -0.2189 H   0 0 0 0 0 0 0 0 0 0 0 0
    6.1653   -0.7471   -0.6968 H   0 0 0 0 0 0 0 0 0 0 0 0
    6.6319    0.6056   -1.8245 H   0 0 0 0 0 0 0 0 0 0 0 0
    4.9166    0.4531   -1.2642 H   0 0 0 0 0 0 0 0 0 0 0 0
    8.0274   -1.5580    0.1168 H   0 0 0 0 0 0 0 0 0 0 0 0
    7.3861   -2.9513    1.9179 H   0 0 0 0 0 0 0 0 0 0 0 0
    8.0177   -1.8139    3.1784 H   0 0 0 0 0 0 0 0 0 0 0 0
   10.2439   -2.6410    3.0334 H   0 0 0 0 0 0 0 0 0 0 0 0
   11.6407   -1.6231    1.0283 H   0 0 0 0 0 0 0 0 0 0 0 0
    8.6204   -4.8581    2.3526 H   0 0 0 0 0 0 0 0 0 0 0 0
   11.0967   -3.9423    1.0364 H   0 0 0 0 0 0 0 0 0 0 0 0
   11.1700   -0.7158   -1.2632 H   0 0 0 0 0 0 0 0 0 0 0 0
   11.6101   -2.4808   -1.3352 H   0 0 0 0 0 0 0 0 0 0 0 0
    9.8787   -1.9656   -1.5164 H   0 0 0 0 0 0 0 0 0 0 0 0
   10.6556   -5.2135   -0.6836 H   0 0 0 0 0 0 0 0 0 0 0 0
    8.6812   -4.2281   -2.3235 H   0 0 0 0 0 0 0 0 0 0 0 0
    9.2762   -5.9431   -2.4767 H   0 0 0 0 0 0 0 0 0 0 0 0
    6.7550   -5.8466   -2.4599 H   0 0 0 0 0 0 0 0 0 0 0 0
    9.4674   -7.7009   -0.3834 H   0 0 0 0 0 0 0 0 0 0 0 0
    7.0864   -4.6320    0.0718 H   0 0 0 0 0 0 0 0 0 0 0 0
    7.5019   -7.9176   -1.5435 H   0 0 0 0 0 0 0 0 0 0 0 0
    7.6490   -7.2340    2.0929 H   0 0 0 0 0 0 0 0 0 0 0 0
    7.7825   -8.8352    1.2387 H   0 0 0 0 0 0 0 0 0 0 0 0
    9.2498   -8.0873    2.0288 H   0 0 0 0 0 0 0 0 0 0 0 0
    6.0440   -6.6494    0.5169 H   0 0 0 0 0 0 0 0 0 0 0 0
  1  2  1  0  0  0  0
  2  3  1  0  0  0  0
  2  4  1  0  0  0  0
  2  5  1  0  0  0  0
  3  6  1  0  0  0  0
  3  7  1  0  0  0  0
  4  8  1  0  0  0  0
  4  9  1  0  0  0  0
  4 10  1  0  0  0  0
  5 11  1  0  0  0  0
  9 11  1  0  0  0  0
  6 12  1  0  0  0  0
  6 13  1  0  0  0  0
 10 13  1  0  0  0  0
  7 14  1  0  0  0  0
  9 15  1  0  0  0  0
 12 16  1  0  0  0  0
 12 17  1  0  0  0  0
 14 17  1  0  0  0  0
 12 18  1  0  0  0  0
 15 19  1  0  0  0  0
 15 20  2  0  0  0  0
 17 21  1  0  0  0  0
 18 22  1  0  0  0  0
 19 23  1  0  0  0  0
 20 24  1  0  0  0  0
 23 24  1  0  0  0  0
 21 25  1  0  0  0  0
 22 25  1  0  0  0  0
 24 26  2  0  0  0  0
 25 27  1  0  0  0  0
 27 28  1  0  0  0  0
 28 29  1  0  0  0  0
 28 30  1  0  0  0  0
 29 31  1  0  0  0  0
 30 32  1  0  0  0  0
 31 33  1  0  0  0  0
 31 34  1  0  0  0  0
 32 34  1  0  0  0  0
 32 35  1  0  0  0  0
 34 36  1  0  0  0  0
 36 37  1  0  0  0  0
 37 38  1  0  0  0  0
 37 39  1  0  0  0  0
 38 40  1  0  0  0  0
 39 41  1  0  0  0  0
 40 42  1  0  0  0  0
 40 43  1  0  0  0  0
 41 43  1  0  0  0  0
 41 44  1  0  0  0  0
 43 45  1  0  0  0  0
 45 46  1  0  0  0  0
 46 47  1  0  0  0  0
 46 48  1  0  0  0  0
 47 49  1  0  0  0  0
 48 50  1  0  0  0  0
 49 51  1  0  0  0  0
 49 52  1  0  0  0  0
 50 52  1  0  0  0  0
 50 53  1  0  0  0  0
 52 54  1  0  0  0  0
  1 55  1  0  0  0  0
  3 56  1  0  0  0  0
  5 57  1  0  0  0  0
  5 58  1  0  0  0  0
  6 59  1  0  0  0  0
  7 60  1  0  0  0  0
  7 61  1  0  0  0  0
  8 62  1  0  0  0  0
  8 63  1  0  0  0  0
  8 64  1  0  0  0  0
  9 65  1  0  0  0  0
 10 66  1  0  0  0  0
 10 67  1  0  0  0  0
 11 68  1  0  0  0  0
 11 69  1  0  0  0  0
 13 70  1  0  0  0  0
 13 71  1  0  0  0  0
 14 72  1  0  0  0  0
 14 73  1  0  0  0  0
 16 74  1  0  0  0  0
 16 75  1  0  0  0  0
 16 76  1  0  0  0  0
 17 77  1  0  0  0  0
 18 78  1  0  0  0  0
 18 79  1  0  0  0  0
 19 80  1  0  0  0  0
 19 81  1  0  0  0  0
 20 82  1  0  0  0  0
 21 83  1  0  0  0  0
 21 84  1  0  0  0  0
 22 85  1  0  0  0  0
 22 86  1  0  0  0  0
 25 87  1  0  0  0  0
 28 88  1  0  0  0  0
 29 89  1  0  0  0  0
 29 90  1  0  0  0  0
 31 91  1  0  0  0  0
 32 92  1  0  0  0  0
 33 93  1  0  0  0  0
 34 94  1  0  0  0  0
 35 95  1  0  0  0  0
 35 96  1  0  0  0  0
 35 97  1  0  0  0  0
 37 98  1  0  0  0  0
 38 99  1  0  0  0  0
 38100  1  0  0  0  0
 40101  1  0  0  0  0
 41102  1  0  0  0  0
 42103  1  0  0  0  0
 43104  1  0  0  0  0
 44105  1  0  0  0  0
 44106  1  0  0  0  0
 44107  1  0  0  0  0
 46108  1  0  0  0  0
 47109  1  0  0  0  0
 47110  1  0  0  0  0
 49111  1  0  0  0  0
 50112  1  0  0  0  0
 51113  1  0  0  0  0
 52114  1  0  0  0  0
 53115  1  0  0  0  0
 53116  1  0  0  0  0
 53117  1  0  0  0  0
 54118  1  0  0  0  0
M  END

> <Name>
Digitoxin

> <CAS>
71-63-6

> <Type>
Training

> <Acute oral toxicity, IC50 exp.>
-3.96E+00

> <Acute oral toxicity, IC50 pred.>
-4.37
$$$$

  MOLCODE 1008081059

 54 56  0  0  0  0  0  0  0  0999 V2000
    0.0000    0.0000    0.0000 O   0 0 0 0 0 0 0 0 0 0 0 0
    1.4301    0.0000    0.0000 C   0 0 0 0 0 0 0 0 0 0 0 0
   -0.5587    1.2723    0.0000 C   0 0 0 0 0 0 0 0 0 0 0 0
   -1.2461    1.7291    1.1407 C   0 0 0 0 0 0 0 0 0 0 0 0
   -0.4989    2.0406   -1.1831 C   0 0 0 0 0 0 0 0 0 0 0 0
   -1.3993    0.8836    2.3374 C   0 0 0 0 0 0 0 0 0 0 0 0
   -1.8138    3.0213    1.0959 C   0 0 0 0 0 0 0 0 0 0 0 0
    0.2381    1.5873   -2.2680 O   0 0 0 0 0 0 0 0 0 0 0 0
   -1.1019    3.3081   -1.2138 C   0 0 0 0 0 0 0 0 0 0 0 0
   -1.2474    1.5020    3.6396 C   0 0 0 0 0 0 0 0 0 0 0 0
   -1.6724   -0.4370    2.1446 C   0 0 0 0 0 0 0 0 0 0 0 0
   -1.7457    3.7926   -0.0595 C   0 0 0 0 0 0 0 0 0 0 0 0
   -2.4639    3.5940    2.3073 C   0 0 0 0 0 0 0 0 0 0 0 0
   -0.3862    0.5085   -2.9720 C   0 0 0 0 0 0 0 0 0 0 0 0
   -1.1616    4.1644   -2.2899 O   0 0 0 0 0 0 0 0 0 0 0 0
   -0.4820    2.8221    3.7395 C   0 0 0 0 0 0 0 0 0 0 0 0
   -1.7789    1.0533    4.7979 C   0 0 0 0 0 0 0 0 0 0 0 0
   -1.8175   -1.4839    3.1017 C   0 0 0 0 0 0 0 0 0 0 0 0
   -1.4453    3.9693    3.3658 C   0 0 0 0 0 0 0 0 0 0 0 0
   -0.2478    3.9464   -3.3614 C   0 0 0 0 0 0 0 0 0 0 0 0
    0.7539    2.8322    2.9997 N   0 0 0 0 0 0 0 0 0 0 0 0
   -2.6438   -0.1015    5.0252 C   0 0 0 0 0 0 0 0 0 0 0 0
   -2.2126   -1.3675    4.3951 C   0 0 0 0 0 0 0 0 0 0 0 0
    1.9903    2.9177    3.6120 C   0 0 0 0 0 0 0 0 0 0 0 0
   -3.6440   -0.0350    5.7542 O   0 0 0 0 0 0 0 0 0 0 0 0
   -2.1702   -2.5339    5.1344 O   0 0 0 0 0 0 0 0 0 0 0 0
    3.2030    2.8713    2.7134 C   0 0 0 0 0 0 0 0 0 0 0 0
    2.1006    3.0423    4.8481 O   0 0 0 0 0 0 0 0 0 0 0 0
   -3.0207   -2.6070    6.2774 C   0 0 0 0 0 0 0 0 0 0 0 0
    1.8165    0.4804   -0.9315 H   0 0 0 0 0 0 0 0 0 0 0 0
    1.6912   -1.0871    0.0322 H   0 0 0 0 0 0 0 0 0 0 0 0
    1.8174    0.5277    0.9052 H   0 0 0 0 0 0 0 0 0 0 0 0
   -1.7548   -0.7973    1.0969 H   0 0 0 0 0 0 0 0 0 0 0 0
   -2.2002    4.7949   -0.0942 H   0 0 0 0 0 0 0 0 0 0 0 0
   -3.0543    4.5099    2.0339 H   0 0 0 0 0 0 0 0 0 0 0 0
   -3.1917    2.8468    2.7271 H   0 0 0 0 0 0 0 0 0 0 0 0
   -1.3645    0.8399   -3.3959 H   0 0 0 0 0 0 0 0 0 0 0 0
   -0.5275   -0.3658   -2.2916 H   0 0 0 0 0 0 0 0 0 0 0 0
    0.3422    0.2717   -3.7869 H   0 0 0 0 0 0 0 0 0 0 0 0
   -0.1948    2.9808    4.8296 H   0 0 0 0 0 0 0 0 0 0 0 0
   -1.5980    1.6227    5.7319 H   0 0 0 0 0 0 0 0 0 0 0 0
   -1.5995   -2.5015    2.7226 H   0 0 0 0 0 0 0 0 0 0 0 0
   -1.9982    4.2589    4.2988 H   0 0 0 0 0 0 0 0 0 0 0 0
   -0.8628    4.8663    3.0301 H   0 0 0 0 0 0 0 0 0 0 0 0
    0.7933    3.8156   -2.9812 H   0 0 0 0 0 0 0 0 0 0 0 0
   -0.3419    4.8804   -3.9718 H   0 0 0 0 0 0 0 0 0 0 0 0
   -0.5603    3.0510   -3.9523 H   0 0 0 0 0 0 0 0 0 0 0 0
    0.7073    2.7058    2.0169 H   0 0 0 0 0 0 0 0 0 0 0 0
    4.1206    2.9062    3.3499 H   0 0 0 0 0 0 0 0 0 0 0 0
    3.2125    1.9303    2.1121 H   0 0 0 0 0 0 0 0 0 0 0 0
    3.2072    3.7475    2.0213 H   0 0 0 0 0 0 0 0 0 0 0 0
   -2.6915   -1.8748    7.0538 H   0 0 0 0 0 0 0 0 0 0 0 0
   -2.8766   -3.6586    6.6332 H   0 0 0 0 0 0 0 0 0 0 0 0
   -4.0836   -2.4179    5.9940 H   0 0 0 0 0 0 0 0 0 0 0 0
  1  2  1  0  0  0  0
  1  3  1  0  0  0  0
  3  4  1  0  0  0  0
  3  5  2  0  0  0  0
  4  6  1  0  0  0  0
  4  7  2  0  0  0  0
  5  8  1  0  0  0  0
  5  9  1  0  0  0  0
  6 10  1  0  0  0  0
  6 11  2  0  0  0  0
  7 12  1  0  0  0  0
  9 12  2  0  0  0  0
  7 13  1  0  0  0  0
  8 14  1  0  0  0  0
  9 15  1  0  0  0  0
 10 16  1  0  0  0  0
 10 17  2  0  0  0  0
 11 18  1  0  0  0  0
 13 19  1  0  0  0  0
 16 19  1  0  0  0  0
 15 20  1  0  0  0  0
 16 21  1  0  0  0  0
 17 22  1  0  0  0  0
 18 23  2  0  0  0  0
 22 23  1  0  0  0  0
 21 24  1  0  0  0  0
 22 25  2  0  0  0  0
 23 26  1  0  0  0  0
 24 27  1  0  0  0  0
 24 28  2  0  0  0  0
 26 29  1  0  0  0  0
  2 30  1  0  0  0  0
  2 31  1  0  0  0  0
  2 32  1  0  0  0  0
 11 33  1  0  0  0  0
 12 34  1  0  0  0  0
 13 35  1  0  0  0  0
 13 36  1  0  0  0  0
 14 37  1  0  0  0  0
 14 38  1  0  0  0  0
 14 39  1  0  0  0  0
 16 40  1  0  0  0  0
 17 41  1  0  0  0  0
 18 42  1  0  0  0  0
 19 43  1  0  0  0  0
 19 44  1  0  0  0  0
 20 45  1  0  0  0  0
 20 46  1  0  0  0  0
 20 47  1  0  0  0  0
 21 48  1  0  0  0  0
 27 49  1  0  0  0  0
 27 50  1  0  0  0  0
 27 51  1  0  0  0  0
 29 52  1  0  0  0  0
 29 53  1  0  0  0  0
 29 54  1  0  0  0  0
M  END

> <Name>
Colchicine

> <CAS>
64-86-8

> <Type>
Training

> <Acute oral toxicity, IC50 exp.>
-4.27E+00

> <Acute oral toxicity, IC50 pred.>
-3.63
$$$$

  MOLCODE 1008081059

 51 55  0  0  0  0  0  0  0  0999 V2000
    0.0000    0.0000    0.0000 O   0 0 0 0 0 0 0 0 0 0 0 0
    1.2381    0.0000    0.0000 C   0 0 0 0 0 0 0 0 0 0 0 0
    2.0350    1.2272    0.0000 C   0 0 0 0 0 0 0 0 0 0 0 0
    2.0088   -1.3069    0.0003 C   0 0 0 0 0 0 0 0 0 0 0 0
    3.4443    1.1611    0.1033 C   0 0 0 0 0 0 0 0 0 0 0 0
    1.4029    2.4723   -0.1368 C   0 0 0 0 0 0 0 0 0 0 0 0
    3.3676   -1.1480    0.6781 C   0 0 0 0 0 0 0 0 0 0 0 0
    2.1309   -1.8856   -1.3703 C   0 0 0 0 0 0 0 0 0 0 0 0
    4.1895    2.3346    0.0456 C   0 0 0 0 0 0 0 0 0 0 0 0
    4.1385   -0.0177    0.2368 O   0 0 0 0 0 0 0 0 0 0 0 0
    2.1242    3.6638   -0.1936 C   0 0 0 0 0 0 0 0 0 0 0 0
    4.2467   -2.3654    0.3956 C   0 0 0 0 0 0 0 0 0 0 0 0
    3.3100   -2.5165   -1.7798 C   0 0 0 0 0 0 0 0 0 0 0 0
    1.0408   -1.8499   -2.2538 C   0 0 0 0 0 0 0 0 0 0 0 0
    3.5116    3.5678   -0.1088 C   0 0 0 0 0 0 0 0 0 0 0 0
    5.6542    2.5927    0.0990 C   0 0 0 0 0 0 0 0 0 0 0 0
    4.4469   -2.6075   -0.9936 O   0 0 0 0 0 0 0 0 0 0 0 0
    3.4366   -3.0845   -3.0611 C   0 0 0 0 0 0 0 0 0 0 0 0
    1.1418   -2.4055   -3.5241 C   0 0 0 0 0 0 0 0 0 0 0 0
    4.3711    4.6456   -0.1485 O   0 0 0 0 0 0 0 0 0 0 0 0
    5.7442    4.1351   -0.0243 C   0 0 0 0 0 0 0 0 0 0 0 0
    2.3570   -3.0233   -3.9359 C   0 0 0 0 0 0 0 0 0 0 0 0
    0.1271   -2.4234   -4.4617 O   0 0 0 0 0 0 0 0 0 0 0 0
    6.5651    4.6068   -1.1831 C   0 0 0 0 0 0 0 0 0 0 0 0
    2.3554   -3.5377   -5.2140 O   0 0 0 0 0 0 0 0 0 0 0 0
   -1.0688   -1.7453   -4.0933 C   0 0 0 0 0 0 0 0 0 0 0 0
    5.9705    5.6687   -2.0285 C   0 0 0 0 0 0 0 0 0 0 0 0
    7.7866    4.1103   -1.4027 C   0 0 0 0 0 0 0 0 0 0 0 0
    3.5729   -4.1369   -5.6461 C   0 0 0 0 0 0 0 0 0 0 0 0
    1.4131   -2.0428    0.6222 H   0 0 0 0 0 0 0 0 0 0 0 0
    0.3014    2.4938   -0.2059 H   0 0 0 0 0 0 0 0 0 0 0 0
    3.2201   -1.0335    1.7897 H   0 0 0 0 0 0 0 0 0 0 0 0
    1.6274    4.6356   -0.3035 H   0 0 0 0 0 0 0 0 0 0 0 0
    5.2884   -2.2055    0.7843 H   0 0 0 0 0 0 0 0 0 0 0 0
    3.7770   -3.2693    0.8652 H   0 0 0 0 0 0 0 0 0 0 0 0
    0.1044   -1.3723   -1.9212 H   0 0 0 0 0 0 0 0 0 0 0 0
    6.1000    2.2457    1.0635 H   0 0 0 0 0 0 0 0 0 0 0 0
    6.1905    2.0830   -0.7402 H   0 0 0 0 0 0 0 0 0 0 0 0
    4.3875   -3.5576   -3.3412 H   0 0 0 0 0 0 0 0 0 0 0 0
    6.1270    4.5977    0.9266 H   0 0 0 0 0 0 0 0 0 0 0 0
   -0.8665   -0.6671   -3.8832 H   0 0 0 0 0 0 0 0 0 0 0 0
   -1.5430   -2.2342   -3.2077 H   0 0 0 0 0 0 0 0 0 0 0 0
   -1.7168   -1.8571   -4.9994 H   0 0 0 0 0 0 0 0 0 0 0 0
    5.6489    6.5303   -1.3913 H   0 0 0 0 0 0 0 0 0 0 0 0
    6.6972    6.0351   -2.7934 H   0 0 0 0 0 0 0 0 0 0 0 0
    5.0639    5.2737   -2.5526 H   0 0 0 0 0 0 0 0 0 0 0 0
    8.4201    4.4637   -2.2263 H   0 0 0 0 0 0 0 0 0 0 0 0
    8.2275    3.3239   -0.7767 H   0 0 0 0 0 0 0 0 0 0 0 0
    4.4061   -3.3930   -5.6348 H   0 0 0 0 0 0 0 0 0 0 0 0
    3.3427   -4.4582   -6.6936 H   0 0 0 0 0 0 0 0 0 0 0 0
    3.8260   -5.0190   -5.0093 H   0 0 0 0 0 0 0 0 0 0 0 0
  1  2  2  0  0  0  0
  2  3  1  0  0  0  0
  2  4  1  0  0  0  0
  3  5  1  0  0  0  0
  3  6  2  0  0  0  0
  4  7  1  0  0  0  0
  4  8  1  0  0  0  0
  5  9  2  0  0  0  0
  5 10  1  0  0  0  0
  7 10  1  0  0  0  0
  6 11  1  0  0  0  0
  7 12  1  0  0  0  0
  8 13  1  0  0  0  0
  8 14  2  0  0  0  0
  9 15  1  0  0  0  0
 11 15  2  0  0  0  0
  9 16  1  0  0  0  0
 12 17  1  0  0  0  0
 13 17  1  0  0  0  0
 13 18  2  0  0  0  0
 14 19  1  0  0  0  0
 15 20  1  0  0  0  0
 16 21  1  0  0  0  0
 20 21  1  0  0  0  0
 18 22  1  0  0  0  0
 19 22  2  0  0  0  0
 19 23  1  0  0  0  0
 21 24  1  0  0  0  0
 22 25  1  0  0  0  0
 23 26  1  0  0  0  0
 24 27  1  0  0  0  0
 24 28  2  0  0  0  0
 25 29  1  0  0  0  0
  4 30  1  0  0  0  0
  6 31  1  0  0  0  0
  7 32  1  0  0  0  0
 11 33  1  0  0  0  0
 12 34  1  0  0  0  0
 12 35  1  0  0  0  0
 14 36  1  0  0  0  0
 16 37  1  0  0  0  0
 16 38  1  0  0  0  0
 18 39  1  0  0  0  0
 21 40  1  0  0  0  0
 26 41  1  0  0  0  0
 26 42  1  0  0  0  0
 26 43  1  0  0  0  0
 27 44  1  0  0  0  0
 27 45  1  0  0  0  0
 27 46  1  0  0  0  0
 28 47  1  0  0  0  0
 28 48  1  0  0  0  0
 29 49  1  0  0  0  0
 29 50  1  0  0  0  0
 29 51  1  0  0  0  0
M  END

> <Name>
Rotenone

> <CAS>
83-79-4

> <Type>
Training

> <Acute oral toxicity, IC50 exp.>
-3.89E+00

> <Acute oral toxicity, IC50 pred.>
-3.83
$$$$

