./000057-55-6.hin
 OpenBabel09241315583D

 13 12  0  0  1  0  0  0  0  0999 V2000
    1.0696    4.8406    0.2820 C   0  0  0  0  0  0  0  0  0  0  0  0
    1.0631    6.3734    0.2293 C   0  0  2  0  0  0  0  0  0  0  0  0
    2.4644    6.9388    0.3427 C   0  0  0  0  0  0  0  0  0  0  0  0
    0.0427    4.4663    0.5363 H   0  0  0  0  0  0  0  0  0  0  0  0
    0.5910    6.7070   -0.7384 H   0  0  0  0  0  0  0  0  0  0  0  0
    2.4501    8.0464    0.2061 H   0  0  0  0  0  0  0  0  0  0  0  0
    2.8985    6.7097    1.3453 H   0  0  0  0  0  0  0  0  0  0  0  0
    3.1102    6.4833   -0.4459 H   0  0  0  0  0  0  0  0  0  0  0  0
    1.4584    4.3931   -1.0071 O   0  0  0  0  0  0  0  0  0  0  0  0
    1.7992    4.4777    1.0526 H   0  0  0  0  0  0  0  0  0  0  0  0
    1.3816    3.4323   -0.9955 H   0  0  0  0  0  0  0  0  0  0  0  0
    0.2398    6.7851    1.3158 O   0  0  0  0  0  0  0  0  0  0  0  0
    0.3236    7.7434    1.3776 H   0  0  0  0  0  0  0  0  0  0  0  0
  1  2  1  0  0  0  0
  1  4  1  0  0  0  0
  1  9  1  0  0  0  0
  1 10  1  0  0  0  0
  2  3  1  0  0  0  0
  2  5  1  6  0  0  0
  2 12  1  0  0  0  0
  3  6  1  0  0  0  0
  3  7  1  0  0  0  0
  3  8  1  0  0  0  0
  9 11  1  0  0  0  0
 12 13  1  0  0  0  0
M  END
