./000060-29-7.hin
 OpenBabel09241315583D

 15 14  0  0  0  0  0  0  0  0999 V2000
   -4.0514    2.6531   31.4258 C   0  0  0  0  0  0  0  0  0  0  0  0
   -3.8993    4.1544   31.3484 C   0  0  0  0  0  0  0  0  0  0  0  0
   -4.8992    4.6341   31.4691 H   0  0  0  0  0  0  0  0  0  0  0  0
   -2.7486    2.0953   31.2652 O   0  0  0  0  0  0  0  0  0  0  0  0
   -2.7604    0.6702   31.3207 C   0  0  0  0  0  0  0  0  0  0  0  0
   -3.1680    0.3371   32.3129 H   0  0  0  0  0  0  0  0  0  0  0  0
   -3.4209    0.2687   30.5058 H   0  0  0  0  0  0  0  0  0  0  0  0
   -3.4663    4.4511   30.3635 H   0  0  0  0  0  0  0  0  0  0  0  0
   -1.3324    0.2115   31.1382 C   0  0  0  0  0  0  0  0  0  0  0  0
   -4.4732    2.3404   32.4187 H   0  0  0  0  0  0  0  0  0  0  0  0
   -4.7250    2.2728   30.6115 H   0  0  0  0  0  0  0  0  0  0  0  0
   -1.2942   -0.9028   31.1751 H   0  0  0  0  0  0  0  0  0  0  0  0
   -0.9346    0.5600   30.1553 H   0  0  0  0  0  0  0  0  0  0  0  0
   -0.6840    0.6279   31.9455 H   0  0  0  0  0  0  0  0  0  0  0  0
   -3.2179    4.5182   32.1540 H   0  0  0  0  0  0  0  0  0  0  0  0
  1  2  1  0  0  0  0
  1  4  1  0  0  0  0
  1 10  1  0  0  0  0
  1 11  1  0  0  0  0
  2  3  1  0  0  0  0
  2  8  1  0  0  0  0
  2 15  1  0  0  0  0
  4  5  1  0  0  0  0
  5  6  1  0  0  0  0
  5  7  1  0  0  0  0
  5  9  1  0  0  0  0
  9 12  1  0  0  0  0
  9 13  1  0  0  0  0
  9 14  1  0  0  0  0
M  END
