./000060-34-4.hin
 OpenBabel09241315583D

  9  8  0  0  0  0  0  0  0  0999 V2000
   -9.9720   -5.5029  -10.3563 N   0  0  0  0  0  0  0  0  0  0  0  0
  -10.5604   -5.9190   -9.6430 H   0  0  0  0  0  0  0  0  0  0  0  0
  -10.0846   -4.0530  -10.2612 C   0  0  0  0  0  0  0  0  0  0  0  0
   -8.7339   -6.0704  -10.2269 N   0  0  0  0  0  0  0  0  0  0  0  0
   -8.3304   -6.1354  -11.1529 H   0  0  0  0  0  0  0  0  0  0  0  0
   -8.1013   -5.5061   -9.6706 H   0  0  0  0  0  0  0  0  0  0  0  0
   -9.5245   -3.5792  -11.1094 H   0  0  0  0  0  0  0  0  0  0  0  0
  -11.1696   -3.7902  -10.3584 H   0  0  0  0  0  0  0  0  0  0  0  0
   -9.6959   -3.6214   -9.2982 H   0  0  0  0  0  0  0  0  0  0  0  0
  1  2  1  0  0  0  0
  1  3  1  0  0  0  0
  1  4  1  0  0  0  0
  3  7  1  0  0  0  0
  3  8  1  0  0  0  0
  3  9  1  0  0  0  0
  4  5  1  0  0  0  0
  4  6  1  0  0  0  0
M  END
