./000062-53-3.hin
 OpenBabel09241315583D

 14 14  0  0  0  0  0  0  0  0999 V2000
   -1.7881   -0.8547   -0.0000 C   0  0  0  0  0  0  0  0  0  0  0  0
   -1.7809    0.5395   -0.0000 C   0  0  0  0  0  0  0  0  0  0  0  0
   -0.5853    1.2464   -0.0000 C   0  0  0  0  0  0  0  0  0  0  0  0
    0.6525    0.5544   -0.0000 C   0  0  0  0  0  0  0  0  0  0  0  0
    0.6329   -0.8635   -0.0000 C   0  0  0  0  0  0  0  0  0  0  0  0
   -0.5771   -1.5455   -0.0000 C   0  0  0  0  0  0  0  0  0  0  0  0
   -2.7391   -1.4037   -0.0000 H   0  0  0  0  0  0  0  0  0  0  0  0
   -2.7333    1.0912   -0.0000 H   0  0  0  0  0  0  0  0  0  0  0  0
   -0.6032    2.3456   -0.0000 H   0  0  0  0  0  0  0  0  0  0  0  0
    1.8463    1.2436   -0.0000 N   0  0  0  0  0  0  0  0  0  0  0  0
    1.5758   -1.4287   -0.0000 H   0  0  0  0  0  0  0  0  0  0  0  0
   -0.5755   -2.6462   -0.0000 H   0  0  0  0  0  0  0  0  0  0  0  0
    2.6995    0.7522   -0.0000 H   0  0  0  0  0  0  0  0  0  0  0  0
    1.8473    2.2282   -0.0000 H   0  0  0  0  0  0  0  0  0  0  0  0
  1  2  2  0  0  0  0
  1  6  1  0  0  0  0
  1  7  1  0  0  0  0
  2  3  1  0  0  0  0
  2  8  1  0  0  0  0
  3  4  2  0  0  0  0
  3  9  1  0  0  0  0
  4  5  1  0  0  0  0
  4 10  1  0  0  0  0
  5  6  2  0  0  0  0
  5 11  1  0  0  0  0
  6 12  1  0  0  0  0
 10 13  1  0  0  0  0
 10 14  1  0  0  0  0
M  END
