./000064-18-6.hin
 OpenBabel09241315583D

  5  4  0  0  0  0  0  0  0  0999 V2000
  -28.7073   -0.4619   34.3689 O   0  0  0  0  0  0  0  0  0  0  0  0
  -29.7841    1.4311   34.3689 O   0  0  0  0  0  0  0  0  0  0  0  0
  -28.6760    0.9039   34.3689 C   0  0  0  0  0  0  0  0  0  0  0  0
  -27.6937    1.4107   34.3689 H   0  0  0  0  0  0  0  0  0  0  0  0
  -27.8051   -0.8066   34.3689 H   0  0  0  0  0  0  0  0  0  0  0  0
  1  3  1  0  0  0  0
  1  5  1  0  0  0  0
  2  3  2  0  0  0  0
  3  4  1  0  0  0  0
M  END
