./000064-19-7.hin
 OpenBabel09241315583D

  8  7  0  0  0  0  0  0  0  0999 V2000
   -0.3502   -0.5285   15.0000 O   0  0  0  0  0  0  0  0  0  0  0  0
    0.8398    1.3349   15.0000 O   0  0  0  0  0  0  0  0  0  0  0  0
   -1.6149    1.5040   15.0000 C   0  0  0  0  0  0  0  0  0  0  0  0
   -0.2884    0.8341   15.0000 C   0  0  0  0  0  0  0  0  0  0  0  0
    0.5480   -0.8978   15.0000 H   0  0  0  0  0  0  0  0  0  0  0  0
   -2.4416    0.7532   15.0000 H   0  0  0  0  0  0  0  0  0  0  0  0
   -1.6959    2.1484   15.9098 H   0  0  0  0  0  0  0  0  0  0  0  0
   -1.6959    2.1484   14.0902 H   0  0  0  0  0  0  0  0  0  0  0  0
  1  4  1  0  0  0  0
  1  5  1  0  0  0  0
  2  4  2  0  0  0  0
  3  4  1  0  0  0  0
  3  6  1  0  0  0  0
  3  7  1  0  0  0  0
  3  8  1  0  0  0  0
M  END
