./000067-56-1.hin
 OpenBabel09241315583D

  6  5  0  0  0  0  0  0  0  0999 V2000
   -0.8361   -0.0935    0.5191 C   0  0  0  0  0  0  0  0  0  0  0  0
   -0.7910    1.3162    0.5191 O   0  0  0  0  0  0  0  0  0  0  0  0
    0.2343   -0.4199    0.5191 H   0  0  0  0  0  0  0  0  0  0  0  0
   -1.3537   -0.4770    1.4337 H   0  0  0  0  0  0  0  0  0  0  0  0
   -1.3537   -0.4770   -0.3955 H   0  0  0  0  0  0  0  0  0  0  0  0
   -1.7026    1.6301    0.5191 H   0  0  0  0  0  0  0  0  0  0  0  0
  1  2  1  0  0  0  0
  1  3  1  0  0  0  0
  1  4  1  0  0  0  0
  1  5  1  0  0  0  0
  2  6  1  0  0  0  0
M  END
