./000067-66-3.hin
 OpenBabel09241315583D

  5  4  0  0  0  0  0  0  0  0999 V2000
   -0.6174    0.7937    0.1254 C   0  0  0  0  0  0  0  0  0  0  0  0
   -0.6448    2.5408    0.1727 Cl  0  0  0  0  0  0  0  0  0  0  0  0
    1.0207    0.1855    0.1727 Cl  0  0  0  0  0  0  0  0  0  0  0  0
   -1.1438    0.4215    1.0370 H   0  0  0  0  0  0  0  0  0  0  0  0
   -1.4775    0.1855   -1.2696 Cl  0  0  0  0  0  0  0  0  0  0  0  0
  1  2  1  0  0  0  0
  1  3  1  0  0  0  0
  1  4  1  0  0  0  0
  1  5  1  0  0  0  0
M  END
