./000071-23-8.hin
 OpenBabel09241315583D

 12 11  0  0  0  0  0  0  0  0999 V2000
   -1.1821   -1.2316    0.0000 C   0  0  0  0  0  0  0  0  0  0  0  0
   -1.2087    0.2736   -0.0000 C   0  0  0  0  0  0  0  0  0  0  0  0
   -2.6380    0.7885   -0.0000 C   0  0  0  0  0  0  0  0  0  0  0  0
   -0.1269   -1.5972   -0.0000 H   0  0  0  0  0  0  0  0  0  0  0  0
   -1.6954   -1.6373    0.9053 H   0  0  0  0  0  0  0  0  0  0  0  0
   -1.6954   -1.6374   -0.9053 H   0  0  0  0  0  0  0  0  0  0  0  0
   -0.6755    0.6729   -0.9020 H   0  0  0  0  0  0  0  0  0  0  0  0
   -0.6755    0.6729    0.9020 H   0  0  0  0  0  0  0  0  0  0  0  0
   -2.5715    2.2061   -0.0000 O   0  0  0  0  0  0  0  0  0  0  0  0
   -3.1864    0.4314   -0.9130 H   0  0  0  0  0  0  0  0  0  0  0  0
   -3.1864    0.4313    0.9130 H   0  0  0  0  0  0  0  0  0  0  0  0
   -3.4813    2.5240   -0.0000 H   0  0  0  0  0  0  0  0  0  0  0  0
  1  2  1  0  0  0  0
  1  4  1  0  0  0  0
  1  5  1  0  0  0  0
  1  6  1  0  0  0  0
  2  3  1  0  0  0  0
  2  7  1  0  0  0  0
  2  8  1  0  0  0  0
  3  9  1  0  0  0  0
  3 10  1  0  0  0  0
  3 11  1  0  0  0  0
  9 12  1  0  0  0  0
M  END
