./000071-36-3.hin
 OpenBabel09241315583D

 15 14  0  0  0  0  0  0  0  0999 V2000
  -29.0212    2.8322   40.3888 O   0  0  0  0  0  0  0  0  0  0  0  0
  -31.6622    6.8996   40.1114 C   0  0  0  0  0  0  0  0  0  0  0  0
  -28.9097    4.2462   40.4371 C   0  0  0  0  0  0  0  0  0  0  0  0
  -30.2818    6.3226   40.2918 C   0  0  0  0  0  0  0  0  0  0  0  0
  -30.3077    4.8107   40.2535 C   0  0  0  0  0  0  0  0  0  0  0  0
  -30.9755    4.4135   41.0616 H   0  0  0  0  0  0  0  0  0  0  0  0
  -30.7244    4.4544   39.2756 H   0  0  0  0  0  0  0  0  0  0  0  0
  -29.8551    6.6661   41.2713 H   0  0  0  0  0  0  0  0  0  0  0  0
  -29.6045    6.7071   39.4836 H   0  0  0  0  0  0  0  0  0  0  0  0
  -28.2280    4.6040   39.6189 H   0  0  0  0  0  0  0  0  0  0  0  0
  -28.4822    4.5624   41.4267 H   0  0  0  0  0  0  0  0  0  0  0  0
  -32.3455    6.5474   40.9217 H   0  0  0  0  0  0  0  0  0  0  0  0
  -31.6232    8.0152   40.1422 H   0  0  0  0  0  0  0  0  0  0  0  0
  -32.0944    6.5881   39.1297 H   0  0  0  0  0  0  0  0  0  0  0  0
  -28.1310    2.4823   40.5061 H   0  0  0  0  0  0  0  0  0  0  0  0
  1  3  1  0  0  0  0
  1 15  1  0  0  0  0
  2  4  1  0  0  0  0
  2 12  1  0  0  0  0
  2 13  1  0  0  0  0
  2 14  1  0  0  0  0
  3  5  1  0  0  0  0
  3 10  1  0  0  0  0
  3 11  1  0  0  0  0
  4  5  1  0  0  0  0
  4  8  1  0  0  0  0
  4  9  1  0  0  0  0
  5  6  1  0  0  0  0
  5  7  1  0  0  0  0
M  END
