./000071-41-0.hin
 OpenBabel09241315583D

 18 17  0  0  0  0  0  0  0  0999 V2000
    0.4311   -2.7089    0.0000 C   0  0  0  0  0  0  0  0  0  0  0  0
    0.4015   -1.2024    0.0000 C   0  0  0  0  0  0  0  0  0  0  0  0
   -1.0178   -0.6751   -0.0000 C   0  0  0  0  0  0  0  0  0  0  0  0
   -1.0385    0.8370    0.0000 C   0  0  0  0  0  0  0  0  0  0  0  0
   -2.4674    1.3519   -0.0000 C   0  0  0  0  0  0  0  0  0  0  0  0
   -2.3997    2.7696    0.0000 O   0  0  0  0  0  0  0  0  0  0  0  0
    1.4857   -3.0760    0.0000 H   0  0  0  0  0  0  0  0  0  0  0  0
   -0.0833   -3.1138    0.9050 H   0  0  0  0  0  0  0  0  0  0  0  0
   -0.0833   -3.1138   -0.9050 H   0  0  0  0  0  0  0  0  0  0  0  0
    0.9437   -0.8142    0.9026 H   0  0  0  0  0  0  0  0  0  0  0  0
    0.9437   -0.8142   -0.9026 H   0  0  0  0  0  0  0  0  0  0  0  0
   -1.5610   -1.0609   -0.9029 H   0  0  0  0  0  0  0  0  0  0  0  0
   -1.5610   -1.0609    0.9029 H   0  0  0  0  0  0  0  0  0  0  0  0
   -0.5035    1.2332    0.9021 H   0  0  0  0  0  0  0  0  0  0  0  0
   -0.5035    1.2332   -0.9021 H   0  0  0  0  0  0  0  0  0  0  0  0
   -3.3093    3.0880   -0.0000 H   0  0  0  0  0  0  0  0  0  0  0  0
   -3.0164    0.9955   -0.9130 H   0  0  0  0  0  0  0  0  0  0  0  0
   -3.0164    0.9955    0.9130 H   0  0  0  0  0  0  0  0  0  0  0  0
  1  2  1  0  0  0  0
  1  7  1  0  0  0  0
  1  8  1  0  0  0  0
  1  9  1  0  0  0  0
  2  3  1  0  0  0  0
  2 10  1  0  0  0  0
  2 11  1  0  0  0  0
  3  4  1  0  0  0  0
  3 12  1  0  0  0  0
  3 13  1  0  0  0  0
  4  5  1  0  0  0  0
  4 14  1  0  0  0  0
  4 15  1  0  0  0  0
  5  6  1  0  0  0  0
  5 17  1  0  0  0  0
  5 18  1  0  0  0  0
  6 16  1  0  0  0  0
M  END
