./000071-43-2.hin
 OpenBabel09241315583D

 12 12  0  0  0  0  0  0  0  0999 V2000
   -1.6145   -0.7427    0.0000 C   0  0  0  0  0  0  0  0  0  0  0  0
   -1.6145    0.6524   -0.0000 C   0  0  0  0  0  0  0  0  0  0  0  0
   -0.4064    1.3499    0.0000 C   0  0  0  0  0  0  0  0  0  0  0  0
    0.8018    0.6524    0.0000 C   0  0  0  0  0  0  0  0  0  0  0  0
    0.8018   -0.7427   -0.0000 C   0  0  0  0  0  0  0  0  0  0  0  0
   -0.4064   -1.4402   -0.0000 C   0  0  0  0  0  0  0  0  0  0  0  0
   -2.5668   -1.2925    0.0000 H   0  0  0  0  0  0  0  0  0  0  0  0
   -2.5668    1.2022   -0.0000 H   0  0  0  0  0  0  0  0  0  0  0  0
   -0.4064    2.4496    0.0000 H   0  0  0  0  0  0  0  0  0  0  0  0
    1.7541    1.2022   -0.0000 H   0  0  0  0  0  0  0  0  0  0  0  0
    1.7541   -1.2925   -0.0000 H   0  0  0  0  0  0  0  0  0  0  0  0
   -0.4064   -2.5399   -0.0000 H   0  0  0  0  0  0  0  0  0  0  0  0
  1  2  2  0  0  0  0
  1  6  1  0  0  0  0
  1  7  1  0  0  0  0
  2  3  1  0  0  0  0
  2  8  1  0  0  0  0
  3  4  2  0  0  0  0
  3  9  1  0  0  0  0
  4  5  1  0  0  0  0
  4 10  1  0  0  0  0
  5  6  2  0  0  0  0
  5 11  1  0  0  0  0
  6 12  1  0  0  0  0
M  END
