./000071-55-6.hin
 OpenBabel09241315583D

  8  7  0  0  0  0  0  0  0  0999 V2000
   -1.4890   -1.4796    0.6292 C   0  0  0  0  0  0  0  0  0  0  0  0
   -1.4890    0.0357    0.6292 C   0  0  0  0  0  0  0  0  0  0  0  0
    0.1717    0.6389    0.6292 Cl  0  0  0  0  0  0  0  0  0  0  0  0
   -2.5383   -1.8654    0.6292 H   0  0  0  0  0  0  0  0  0  0  0  0
   -0.9643   -1.8654   -0.2796 H   0  0  0  0  0  0  0  0  0  0  0  0
   -2.3193    0.6389    2.0674 Cl  0  0  0  0  0  0  0  0  0  0  0  0
   -2.3193    0.6389   -0.8090 Cl  0  0  0  0  0  0  0  0  0  0  0  0
   -0.9643   -1.8654    1.5379 H   0  0  0  0  0  0  0  0  0  0  0  0
  1  2  1  0  0  0  0
  1  4  1  0  0  0  0
  1  5  1  0  0  0  0
  1  8  1  0  0  0  0
  2  3  1  0  0  0  0
  2  6  1  0  0  0  0
  2  7  1  0  0  0  0
M  END
