./000074-87-3.hin
 OpenBabel09241315583D

  5  4  0  0  0  0  0  0  0  0999 V2000
   -1.1022    1.0461    0.0000 Cl  0  0  0  0  0  0  0  0  0  0  0  0
   -1.1022    2.7873   -0.0000 C   0  0  0  0  0  0  0  0  0  0  0  0
   -0.0467    3.1358    0.0000 H   0  0  0  0  0  0  0  0  0  0  0  0
   -1.6299    3.1358   -0.9141 H   0  0  0  0  0  0  0  0  0  0  0  0
   -1.6299    3.1358    0.9141 H   0  0  0  0  0  0  0  0  0  0  0  0
  1  2  1  0  0  0  0
  2  3  1  0  0  0  0
  2  4  1  0  0  0  0
  2  5  1  0  0  0  0
M  END
