./000074-89-5.hin
 OpenBabel09241315583D

  7  6  0  0  0  0  0  0  0  0999 V2000
   -2.1600    1.5415   -0.0081 C   0  0  0  0  0  0  0  0  0  0  0  0
   -2.1523    2.9737   -0.0213 N   0  0  0  0  0  0  0  0  0  0  0  0
   -1.1011    1.1699   -0.0211 H   0  0  0  0  0  0  0  0  0  0  0  0
   -2.6756    1.0891    0.8849 H   0  0  0  0  0  0  0  0  0  0  0  0
   -2.6782    1.1698   -0.9316 H   0  0  0  0  0  0  0  0  0  0  0  0
   -3.0820    3.3423   -0.0400 H   0  0  0  0  0  0  0  0  0  0  0  0
   -1.6713    3.3423    0.7744 H   0  0  0  0  0  0  0  0  0  0  0  0
  1  2  1  0  0  0  0
  1  3  1  0  0  0  0
  1  4  1  0  0  0  0
  1  5  1  0  0  0  0
  2  6  1  0  0  0  0
  2  7  1  0  0  0  0
M  END
