./000075-00-3.hin
 OpenBabel09241315583D

  8  7  0  0  0  0  0  0  0  0999 V2000
   -0.7094   -0.6932    0.0000 C   0  0  0  0  0  0  0  0  0  0  0  0
   -2.3412    1.4639    0.0000 Cl  0  0  0  0  0  0  0  0  0  0  0  0
   -0.7097    0.8087   -0.0000 C   0  0  0  0  0  0  0  0  0  0  0  0
    0.3455   -1.0637   -0.0000 H   0  0  0  0  0  0  0  0  0  0  0  0
   -1.2258   -1.0948    0.9055 H   0  0  0  0  0  0  0  0  0  0  0  0
   -1.2258   -1.0948   -0.9055 H   0  0  0  0  0  0  0  0  0  0  0  0
   -0.2099    1.2142   -0.9124 H   0  0  0  0  0  0  0  0  0  0  0  0
   -0.2099    1.2142    0.9124 H   0  0  0  0  0  0  0  0  0  0  0  0
  1  3  1  0  0  0  0
  1  4  1  0  0  0  0
  1  5  1  0  0  0  0
  1  6  1  0  0  0  0
  2  3  1  0  0  0  0
  3  7  1  0  0  0  0
  3  8  1  0  0  0  0
M  END
