./000075-02-5.hin
 OpenBabel09241315583D

  6  5  0  0  0  0  0  0  0  0999 V2000
   -4.3015    1.9782   -0.0000 F   0  0  0  0  0  0  0  0  0  0  0  0
   -4.2211    3.3271   -0.0000 C   0  0  0  0  0  0  0  0  0  0  0  0
   -3.0584    3.9925   -0.0000 C   0  0  0  0  0  0  0  0  0  0  0  0
   -5.2109    3.8168    0.0000 H   0  0  0  0  0  0  0  0  0  0  0  0
   -3.0386    5.0881    0.0000 H   0  0  0  0  0  0  0  0  0  0  0  0
   -2.0839    3.4906    0.0000 H   0  0  0  0  0  0  0  0  0  0  0  0
  1  2  1  0  0  0  0
  2  3  2  0  0  0  0
  2  4  1  0  0  0  0
  3  5  1  0  0  0  0
  3  6  1  0  0  0  0
M  END
