./000075-07-0.hin
 OpenBabel09241315583D

  7  6  0  0  0  0  0  0  0  0999 V2000
   -0.4516   -0.4442   -0.0000 O   0  0  0  0  0  0  0  0  0  0  0  0
    0.8583    1.5645    0.0000 C   0  0  0  0  0  0  0  0  0  0  0  0
   -0.4133    0.7871   -0.0000 C   0  0  0  0  0  0  0  0  0  0  0  0
    0.6575    2.6618   -0.0000 H   0  0  0  0  0  0  0  0  0  0  0  0
    1.4627    1.3068    0.9049 H   0  0  0  0  0  0  0  0  0  0  0  0
    1.4627    1.3068   -0.9049 H   0  0  0  0  0  0  0  0  0  0  0  0
   -1.3494    1.3909    0.0000 H   0  0  0  0  0  0  0  0  0  0  0  0
  1  3  2  0  0  0  0
  2  3  1  0  0  0  0
  2  4  1  0  0  0  0
  2  5  1  0  0  0  0
  2  6  1  0  0  0  0
  3  7  1  0  0  0  0
M  END
