./000075-18-3.hin
 OpenBabel09241315583D

  9  8  0  0  0  0  0  0  0  0999 V2000
   -1.6856    0.2260   15.0000 C   0  0  0  0  0  0  0  0  0  0  0  0
   -1.5827    1.9746   15.0000 S   0  0  0  0  0  0  0  0  0  0  0  0
   -3.2656    2.4605   15.0000 C   0  0  0  0  0  0  0  0  0  0  0  0
   -0.6356   -0.1482   15.0000 H   0  0  0  0  0  0  0  0  0  0  0  0
   -2.2082   -0.1602   15.9032 H   0  0  0  0  0  0  0  0  0  0  0  0
   -2.2082   -0.1602   14.0968 H   0  0  0  0  0  0  0  0  0  0  0  0
   -3.2684    3.5751   15.0000 H   0  0  0  0  0  0  0  0  0  0  0  0
   -3.8039    2.0965   14.0968 H   0  0  0  0  0  0  0  0  0  0  0  0
   -3.8039    2.0965   15.9032 H   0  0  0  0  0  0  0  0  0  0  0  0
  1  2  1  0  0  0  0
  1  4  1  0  0  0  0
  1  5  1  0  0  0  0
  1  6  1  0  0  0  0
  2  3  1  0  0  0  0
  3  7  1  0  0  0  0
  3  8  1  0  0  0  0
  3  9  1  0  0  0  0
M  END
