./000075-19-4.hin
 OpenBabel09241315583D

  9  9  0  0  0  0  0  0  0  0999 V2000
   -4.8688    1.2136    0.4085 C   0  0  0  0  0  0  0  0  0  0  0  0
   -4.8688    2.7147    0.4085 C   0  0  0  0  0  0  0  0  0  0  0  0
   -5.3021    1.9642   -0.8171 C   0  0  0  0  0  0  0  0  0  0  0  0
   -5.6271    0.6770    1.0053 H   0  0  0  0  0  0  0  0  0  0  0  0
   -3.9039    0.6770    0.3960 H   0  0  0  0  0  0  0  0  0  0  0  0
   -3.9039    3.2513    0.3960 H   0  0  0  0  0  0  0  0  0  0  0  0
   -5.6271    3.2513    1.0053 H   0  0  0  0  0  0  0  0  0  0  0  0
   -4.6470    1.9642   -1.7059 H   0  0  0  0  0  0  0  0  0  0  0  0
   -6.3703    1.9642   -1.0966 H   0  0  0  0  0  0  0  0  0  0  0  0
  1  2  1  0  0  0  0
  1  3  1  0  0  0  0
  1  4  1  0  0  0  0
  1  5  1  0  0  0  0
  2  3  1  0  0  0  0
  2  6  1  0  0  0  0
  2  7  1  0  0  0  0
  3  8  1  0  0  0  0
  3  9  1  0  0  0  0
M  END
