./000075-33-2.hin
 OpenBabel09241315583D

 12 11  0  0  0  0  0  0  0  0999 V2000
   -8.6590    6.4416   -8.2875 C   0  0  0  0  0  0  0  0  0  0  0  0
   -7.2179    8.4808   -8.2842 C   0  0  0  0  0  0  0  0  0  0  0  0
   -6.6569    8.0999   -9.1723 H   0  0  0  0  0  0  0  0  0  0  0  0
   -6.6793    8.1555   -7.3602 H   0  0  0  0  0  0  0  0  0  0  0  0
   -8.6267    7.9463   -8.2729 C   0  0  0  0  0  0  0  0  0  0  0  0
   -9.1623    8.3191   -7.3607 H   0  0  0  0  0  0  0  0  0  0  0  0
   -9.4205    8.6522   -9.7102 S   0  0  0  0  0  0  0  0  0  0  0  0
   -9.7114    6.0679   -8.2592 H   0  0  0  0  0  0  0  0  0  0  0  0
   -8.1645    6.0427   -9.2066 H   0  0  0  0  0  0  0  0  0  0  0  0
   -8.1195    6.0374   -7.3953 H   0  0  0  0  0  0  0  0  0  0  0  0
   -7.2228    9.5978   -8.3178 H   0  0  0  0  0  0  0  0  0  0  0  0
  -10.5743    8.0129   -9.6543 H   0  0  0  0  0  0  0  0  0  0  0  0
  1  5  1  0  0  0  0
  1  8  1  0  0  0  0
  1  9  1  0  0  0  0
  1 10  1  0  0  0  0
  2  3  1  0  0  0  0
  2  4  1  0  0  0  0
  2  5  1  0  0  0  0
  2 11  1  0  0  0  0
  5  6  1  0  0  0  0
  5  7  1  0  0  0  0
  7 12  1  0  0  0  0
M  END
