./000075-34-3.hin
 OpenBabel09241315583D

  8  7  0  0  0  0  0  0  0  0999 V2000
   -1.5666   -1.4708    0.7636 C   0  0  0  0  0  0  0  0  0  0  0  0
   -1.5619    0.0361    0.7554 C   0  0  0  0  0  0  0  0  0  0  0  0
    0.0825    0.6600    0.7991 Cl  0  0  0  0  0  0  0  0  0  0  0  0
   -2.6192   -1.8475    0.7705 H   0  0  0  0  0  0  0  0  0  0  0  0
   -1.0473   -1.8826   -0.1359 H   0  0  0  0  0  0  0  0  0  0  0  0
   -2.0788    0.4611    1.6508 H   0  0  0  0  0  0  0  0  0  0  0  0
   -2.4219    0.6600   -0.6468 Cl  0  0  0  0  0  0  0  0  0  0  0  0
   -1.0463   -1.8475    1.6786 H   0  0  0  0  0  0  0  0  0  0  0  0
  1  2  1  0  0  0  0
  1  4  1  0  0  0  0
  1  5  1  0  0  0  0
  1  8  1  0  0  0  0
  2  3  1  0  0  0  0
  2  6  1  0  0  0  0
  2  7  1  0  0  0  0
M  END
