./000075-36-5.hin
 OpenBabel09241315583D

  7  6  0  0  0  0  0  0  0  0999 V2000
   -0.2040   -0.6074   -0.0000 O   0  0  0  0  0  0  0  0  0  0  0  0
    1.1048    1.4189    0.0000 C   0  0  0  0  0  0  0  0  0  0  0  0
   -0.1516    0.6173    0.0000 C   0  0  0  0  0  0  0  0  0  0  0  0
    0.9071    2.5174   -0.0000 H   0  0  0  0  0  0  0  0  0  0  0  0
    1.7034    1.1556    0.9086 H   0  0  0  0  0  0  0  0  0  0  0  0
    1.7034    1.1556   -0.9086 H   0  0  0  0  0  0  0  0  0  0  0  0
   -1.6119    1.5671    0.0000 Cl  0  0  0  0  0  0  0  0  0  0  0  0
  1  3  2  0  0  0  0
  2  3  1  0  0  0  0
  2  4  1  0  0  0  0
  2  5  1  0  0  0  0
  2  6  1  0  0  0  0
  3  7  1  0  0  0  0
M  END
