./000075-37-6.hin
 OpenBabel09241315583D

  8  7  0  0  0  0  0  0  0  0999 V2000
   -0.2785   -1.4358   -0.0200 C   0  0  0  0  0  0  0  0  0  0  0  0
   -0.2744    0.0976   -0.0200 C   0  0  0  0  0  0  0  0  0  0  0  0
   -1.3254   -1.8197   -0.0200 H   0  0  0  0  0  0  0  0  0  0  0  0
    0.2466   -1.8031   -0.9317 H   0  0  0  0  0  0  0  0  0  0  0  0
    0.2466   -1.8031    0.8917 H   0  0  0  0  0  0  0  0  0  0  0  0
    0.7888    0.4870   -0.0199 H   0  0  0  0  0  0  0  0  0  0  0  0
   -0.9566    0.6243   -1.0962 F   0  0  0  0  0  0  0  0  0  0  0  0
   -0.9569    0.6244    1.0559 F   0  0  0  0  0  0  0  0  0  0  0  0
  1  2  1  0  0  0  0
  1  3  1  0  0  0  0
  1  4  1  0  0  0  0
  1  5  1  0  0  0  0
  2  6  1  0  0  0  0
  2  7  1  0  0  0  0
  2  8  1  0  0  0  0
M  END
