./000075-38-7.hin
 OpenBabel09241315583D

  6  5  0  0  0  0  0  0  0  0999 V2000
   -2.9128   -0.9590   -0.0000 F   0  0  0  0  0  0  0  0  0  0  0  0
   -3.9914    0.9092    0.0000 F   0  0  0  0  0  0  0  0  0  0  0  0
   -2.7551    0.3775   -0.0000 C   0  0  0  0  0  0  0  0  0  0  0  0
   -1.5906    1.0498   -0.0000 C   0  0  0  0  0  0  0  0  0  0  0  0
   -0.6320    0.5214   -0.0000 H   0  0  0  0  0  0  0  0  0  0  0  0
   -1.5690    2.1442    0.0000 H   0  0  0  0  0  0  0  0  0  0  0  0
  1  3  1  0  0  0  0
  2  3  1  0  0  0  0
  3  4  2  0  0  0  0
  4  5  1  0  0  0  0
  4  6  1  0  0  0  0
M  END
