./000075-45-6.hin
 OpenBabel09241315583D

  5  4  0  0  0  0  0  0  0  0999 V2000
   -0.0245   -0.8815    0.7100 F   0  0  0  0  0  0  0  0  0  0  0  0
    1.2142    0.8702    0.7100 F   0  0  0  0  0  0  0  0  0  0  0  0
   -0.0990    0.4849    0.6937 C   0  0  0  0  0  0  0  0  0  0  0  0
   -0.6656    0.8856    1.5815 H   0  0  0  0  0  0  0  0  0  0  0  0
   -0.9841    1.1108   -0.7549 Cl  0  0  0  0  0  0  0  0  0  0  0  0
  1  3  1  0  0  0  0
  2  3  1  0  0  0  0
  3  4  1  0  0  0  0
  3  5  1  0  0  0  0
M  END
