./000075-56-9.hin
 OpenBabel09241315583D

 10 10  0  0  1  0  0  0  0  0999 V2000
   -0.7455   -0.4360    0.4753 C   0  0  2  0  0  0  0  0  0  0  0  0
    0.4077    0.5041    0.4510 C   0  0  0  0  0  0  0  0  0  0  0  0
   -0.9904   -0.9772    1.4120 H   0  0  0  0  0  0  0  0  0  0  0  0
   -1.2474   -1.0839   -0.7700 C   0  0  0  0  0  0  0  0  0  0  0  0
    0.9044    0.7612   -0.5023 H   0  0  0  0  0  0  0  0  0  0  0  0
   -0.9363    0.9894    0.5701 O   0  0  0  0  0  0  0  0  0  0  0  0
    1.0323    0.6558    1.3498 H   0  0  0  0  0  0  0  0  0  0  0  0
   -0.7616   -2.0819   -0.8949 H   0  0  0  0  0  0  0  0  0  0  0  0
   -2.3540   -1.2266   -0.7079 H   0  0  0  0  0  0  0  0  0  0  0  0
   -1.0246   -0.4573   -1.6675 H   0  0  0  0  0  0  0  0  0  0  0  0
  1  2  1  0  0  0  0
  1  3  1  1  0  0  0
  1  4  1  0  0  0  0
  1  6  1  0  0  0  0
  2  5  1  0  0  0  0
  2  6  1  0  0  0  0
  2  7  1  0  0  0  0
  4  8  1  0  0  0  0
  4  9  1  0  0  0  0
  4 10  1  0  0  0  0
M  END
