./000075-68-3.hin
 OpenBabel09241315583D

  8  7  0  0  0  0  0  0  0  0999 V2000
   -3.4637   -1.8445   14.9998 Cl  0  0  0  0  0  0  0  0  0  0  0  0
   -4.2260    0.4541   13.9308 F   0  0  0  0  0  0  0  0  0  0  0  0
   -4.2258    0.4539   16.0695 F   0  0  0  0  0  0  0  0  0  0  0  0
   -3.5015   -0.0163   15.0000 C   0  0  0  0  0  0  0  0  0  0  0  0
   -2.0466    0.4739   15.0000 C   0  0  0  0  0  0  0  0  0  0  0  0
   -1.5277    0.0986   14.0873 H   0  0  0  0  0  0  0  0  0  0  0  0
   -2.0379    1.5903   15.0000 H   0  0  0  0  0  0  0  0  0  0  0  0
   -1.5276    0.0986   15.9126 H   0  0  0  0  0  0  0  0  0  0  0  0
  1  4  1  0  0  0  0
  2  4  1  0  0  0  0
  3  4  1  0  0  0  0
  4  5  1  0  0  0  0
  5  6  1  0  0  0  0
  5  7  1  0  0  0  0
  5  8  1  0  0  0  0
M  END
