./000075-83-2.hin
 OpenBabel09241315583D

 20 19  0  0  0  0  0  0  0  0999 V2000
  -15.3170    1.6660   35.3583 C   0  0  0  0  0  0  0  0  0  0  0  0
  -13.7931    5.2072   35.3583 C   0  0  0  0  0  0  0  0  0  0  0  0
  -15.3588    3.1903   35.3583 C   0  0  0  0  0  0  0  0  0  0  0  0
  -13.9190    3.7065   35.3583 C   0  0  0  0  0  0  0  0  0  0  0  0
  -13.3958    3.2942   34.4542 H   0  0  0  0  0  0  0  0  0  0  0  0
  -13.3958    3.2942   36.2624 H   0  0  0  0  0  0  0  0  0  0  0  0
  -16.0984    3.6624   36.6006 C   0  0  0  0  0  0  0  0  0  0  0  0
  -16.0984    3.6624   34.1161 C   0  0  0  0  0  0  0  0  0  0  0  0
  -14.2734    5.6499   36.2641 H   0  0  0  0  0  0  0  0  0  0  0  0
  -12.7138    5.4973   35.3583 H   0  0  0  0  0  0  0  0  0  0  0  0
  -14.2734    5.6500   34.4526 H   0  0  0  0  0  0  0  0  0  0  0  0
  -16.3530    1.2505   35.3583 H   0  0  0  0  0  0  0  0  0  0  0  0
  -14.7840    1.2928   34.4513 H   0  0  0  0  0  0  0  0  0  0  0  0
  -14.7840    1.2928   36.2652 H   0  0  0  0  0  0  0  0  0  0  0  0
  -17.1076    3.1870   36.6506 H   0  0  0  0  0  0  0  0  0  0  0  0
  -15.5282    3.3870   37.5198 H   0  0  0  0  0  0  0  0  0  0  0  0
  -16.2320    4.7705   36.5812 H   0  0  0  0  0  0  0  0  0  0  0  0
  -17.1076    3.1870   34.0660 H   0  0  0  0  0  0  0  0  0  0  0  0
  -16.2320    4.7705   34.1355 H   0  0  0  0  0  0  0  0  0  0  0  0
  -15.5282    3.3870   33.1969 H   0  0  0  0  0  0  0  0  0  0  0  0
  1  3  1  0  0  0  0
  1 12  1  0  0  0  0
  1 13  1  0  0  0  0
  1 14  1  0  0  0  0
  2  4  1  0  0  0  0
  2  9  1  0  0  0  0
  2 10  1  0  0  0  0
  2 11  1  0  0  0  0
  3  4  1  0  0  0  0
  3  7  1  0  0  0  0
  3  8  1  0  0  0  0
  4  5  1  0  0  0  0
  4  6  1  0  0  0  0
  7 15  1  0  0  0  0
  7 16  1  0  0  0  0
  7 17  1  0  0  0  0
  8 18  1  0  0  0  0
  8 19  1  0  0  0  0
  8 20  1  0  0  0  0
M  END
