./000075-91-2.hin
 OpenBabel09241315583D

 16 15  0  0  0  0  0  0  0  0999 V2000
    0.5811    1.4864   -0.6462 C   0  0  0  0  0  0  0  0  0  0  0  0
    0.5106    3.0047   -0.6051 C   0  0  0  0  0  0  0  0  0  0  0  0
    2.0177    0.9993   -0.6961 C   0  0  0  0  0  0  0  0  0  0  0  0
   -0.0348    1.0745    0.6208 O   0  0  0  0  0  0  0  0  0  0  0  0
   -0.0613   -0.2014    0.7743 O   0  0  0  0  0  0  0  0  0  0  0  0
   -0.9217   -0.5301    0.4244 H   0  0  0  0  0  0  0  0  0  0  0  0
   -0.2262    0.9280   -1.8055 C   0  0  0  0  0  0  0  0  0  0  0  0
   -0.5527    3.3422   -0.5833 H   0  0  0  0  0  0  0  0  0  0  0  0
    1.0254    3.3875    0.3082 H   0  0  0  0  0  0  0  0  0  0  0  0
    1.0109    3.4201   -1.5111 H   0  0  0  0  0  0  0  0  0  0  0  0
    2.0434   -0.1117   -0.5852 H   0  0  0  0  0  0  0  0  0  0  0  0
    2.4844    1.2841   -1.6677 H   0  0  0  0  0  0  0  0  0  0  0  0
    2.6030    1.4508    0.1399 H   0  0  0  0  0  0  0  0  0  0  0  0
   -0.1480   -0.1856   -1.8268 H   0  0  0  0  0  0  0  0  0  0  0  0
   -1.3006    1.2105   -1.6973 H   0  0  0  0  0  0  0  0  0  0  0  0
    0.1616    1.3353   -2.7685 H   0  0  0  0  0  0  0  0  0  0  0  0
  1  2  1  0  0  0  0
  1  3  1  0  0  0  0
  1  4  1  0  0  0  0
  1  7  1  0  0  0  0
  2  8  1  0  0  0  0
  2  9  1  0  0  0  0
  2 10  1  0  0  0  0
  3 11  1  0  0  0  0
  3 12  1  0  0  0  0
  3 13  1  0  0  0  0
  4  5  1  0  0  0  0
  5  6  1  0  0  0  0
  7 14  1  0  0  0  0
  7 15  1  0  0  0  0
  7 16  1  0  0  0  0
M  END
