./000077-76-9.hin
 OpenBabel09241315583D

 19 18  0  0  0  0  0  0  0  0999 V2000
   10.1162   -8.7641    4.6862 O   0  0  0  0  0  0  0  0  0  0  0  0
   10.1770   -7.3426    4.6985 C   0  0  0  0  0  0  0  0  0  0  0  0
   11.5970   -6.7938    4.7792 C   0  0  0  0  0  0  0  0  0  0  0  0
    9.4593   -6.8730    3.4380 C   0  0  0  0  0  0  0  0  0  0  0  0
   12.0183   -6.9583    5.7993 H   0  0  0  0  0  0  0  0  0  0  0  0
   12.2325   -7.3150    4.0257 H   0  0  0  0  0  0  0  0  0  0  0  0
   11.5852   -5.6992    4.5680 H   0  0  0  0  0  0  0  0  0  0  0  0
    9.5283   -6.9496    5.9025 O   0  0  0  0  0  0  0  0  0  0  0  0
    8.1377   -7.2205    5.9555 C   0  0  0  0  0  0  0  0  0  0  0  0
    7.8626   -7.0426    7.0253 H   0  0  0  0  0  0  0  0  0  0  0  0
    7.5836   -6.5153    5.2877 H   0  0  0  0  0  0  0  0  0  0  0  0
    7.9246   -8.2772    5.6620 H   0  0  0  0  0  0  0  0  0  0  0  0
    8.5211   -7.4578    3.2860 H   0  0  0  0  0  0  0  0  0  0  0  0
    9.2106   -5.7910    3.5419 H   0  0  0  0  0  0  0  0  0  0  0  0
   10.1228   -7.0228    2.5547 H   0  0  0  0  0  0  0  0  0  0  0  0
   10.8745   -9.4099    5.6951 C   0  0  0  0  0  0  0  0  0  0  0  0
   10.5370  -10.4758    5.6540 H   0  0  0  0  0  0  0  0  0  0  0  0
   11.9654   -9.3367    5.4612 H   0  0  0  0  0  0  0  0  0  0  0  0
   10.6648   -8.9662    6.6987 H   0  0  0  0  0  0  0  0  0  0  0  0
  1  2  1  0  0  0  0
  1 16  1  0  0  0  0
  2  3  1  0  0  0  0
  2  4  1  0  0  0  0
  2  8  1  0  0  0  0
  3  5  1  0  0  0  0
  3  6  1  0  0  0  0
  3  7  1  0  0  0  0
  4 13  1  0  0  0  0
  4 14  1  0  0  0  0
  4 15  1  0  0  0  0
  8  9  1  0  0  0  0
  9 10  1  0  0  0  0
  9 11  1  0  0  0  0
  9 12  1  0  0  0  0
 16 17  1  0  0  0  0
 16 18  1  0  0  0  0
 16 19  1  0  0  0  0
M  END
