./000078-40-0.hin
 OpenBabel09241315583D

 26 25  0  0  0  0  0  0  0  0999 V2000
   -9.1408    0.7515   33.7662 P   0  0  0  0  0  0  0  0  0  0  0  0
   -8.9207    2.3328   33.6869 O   0  0  0  0  0  0  0  0  0  0  0  0
   -7.6502    0.1766   33.7152 O   0  0  0  0  0  0  0  0  0  0  0  0
   -9.9481    0.2905   34.8879 O   0  0  0  0  0  0  0  0  0  0  0  0
   -9.7154    0.3940   32.3181 O   0  0  0  0  0  0  0  0  0  0  0  0
  -10.1302    3.0708   33.7530 C   0  0  0  0  0  0  0  0  0  0  0  0
  -10.0261   -0.9812   32.1625 C   0  0  0  0  0  0  0  0  0  0  0  0
   -6.9405    0.3508   34.9309 C   0  0  0  0  0  0  0  0  0  0  0  0
   -9.7994    4.5418   33.7869 C   0  0  0  0  0  0  0  0  0  0  0  0
  -10.7366    2.8069   32.8434 H   0  0  0  0  0  0  0  0  0  0  0  0
  -10.6816    2.7488   34.6801 H   0  0  0  0  0  0  0  0  0  0  0  0
  -10.6640   -1.1843   30.8111 C   0  0  0  0  0  0  0  0  0  0  0  0
   -9.0642   -1.5568   32.2535 H   0  0  0  0  0  0  0  0  0  0  0  0
  -10.7217   -1.2752   32.9973 H   0  0  0  0  0  0  0  0  0  0  0  0
   -5.5983   -0.3260   34.8102 C   0  0  0  0  0  0  0  0  0  0  0  0
   -6.8292    1.4569   35.1010 H   0  0  0  0  0  0  0  0  0  0  0  0
   -7.5576   -0.0976   35.7589 H   0  0  0  0  0  0  0  0  0  0  0  0
  -10.7457    5.1323   33.8218 H   0  0  0  0  0  0  0  0  0  0  0  0
   -9.1836    4.7809   34.6866 H   0  0  0  0  0  0  0  0  0  0  0  0
   -9.2184    4.8297   32.8783 H   0  0  0  0  0  0  0  0  0  0  0  0
  -10.8969   -2.2668   30.6718 H   0  0  0  0  0  0  0  0  0  0  0  0
  -11.6071   -0.5925   30.7338 H   0  0  0  0  0  0  0  0  0  0  0  0
   -9.9727   -0.8488   30.0016 H   0  0  0  0  0  0  0  0  0  0  0  0
   -5.0248   -0.1799   35.7563 H   0  0  0  0  0  0  0  0  0  0  0  0
   -5.7294   -1.4187   34.6247 H   0  0  0  0  0  0  0  0  0  0  0  0
   -5.0209    0.1068   33.9585 H   0  0  0  0  0  0  0  0  0  0  0  0
  1  2  1  0  0  0  0
  1  3  1  0  0  0  0
  1  4  2  0  0  0  0
  1  5  1  0  0  0  0
  2  6  1  0  0  0  0
  3  8  1  0  0  0  0
  5  7  1  0  0  0  0
  6  9  1  0  0  0  0
  6 10  1  0  0  0  0
  6 11  1  0  0  0  0
  7 12  1  0  0  0  0
  7 13  1  0  0  0  0
  7 14  1  0  0  0  0
  8 15  1  0  0  0  0
  8 16  1  0  0  0  0
  8 17  1  0  0  0  0
  9 18  1  0  0  0  0
  9 19  1  0  0  0  0
  9 20  1  0  0  0  0
 12 21  1  0  0  0  0
 12 22  1  0  0  0  0
 12 23  1  0  0  0  0
 15 24  1  0  0  0  0
 15 25  1  0  0  0  0
 15 26  1  0  0  0  0
M  END
