./000078-93-3.hin
 OpenBabel09241315583D

 13 12  0  0  0  0  0  0  0  0999 V2000
   -2.4630   -0.6500    0.1305 C   0  0  0  0  0  0  0  0  0  0  0  0
   -2.5744    0.8515    0.1305 C   0  0  0  0  0  0  0  0  0  0  0  0
   -3.9971    1.3355    0.1305 C   0  0  0  0  0  0  0  0  0  0  0  0
   -4.1541    2.8236    0.1305 C   0  0  0  0  0  0  0  0  0  0  0  0
   -1.3902   -0.9579    0.1305 H   0  0  0  0  0  0  0  0  0  0  0  0
   -2.9621   -1.0781    1.0335 H   0  0  0  0  0  0  0  0  0  0  0  0
   -2.0609    1.2753    1.0349 H   0  0  0  0  0  0  0  0  0  0  0  0
   -2.0609    1.2753   -0.7739 H   0  0  0  0  0  0  0  0  0  0  0  0
   -5.2341    3.1089    0.1305 H   0  0  0  0  0  0  0  0  0  0  0  0
   -3.6657    3.2548    1.0379 H   0  0  0  0  0  0  0  0  0  0  0  0
   -3.6657    3.2548   -0.7768 H   0  0  0  0  0  0  0  0  0  0  0  0
   -4.9686    0.5736    0.1305 O   0  0  0  0  0  0  0  0  0  0  0  0
   -2.9621   -1.0781   -0.7724 H   0  0  0  0  0  0  0  0  0  0  0  0
  1  2  1  0  0  0  0
  1  5  1  0  0  0  0
  1  6  1  0  0  0  0
  1 13  1  0  0  0  0
  2  3  1  0  0  0  0
  2  7  1  0  0  0  0
  2  8  1  0  0  0  0
  3  4  1  0  0  0  0
  3 12  2  0  0  0  0
  4  9  1  0  0  0  0
  4 10  1  0  0  0  0
  4 11  1  0  0  0  0
M  END
