./000078-98-8.hin
 OpenBabel09241315583D

  9  8  0  0  0  0  0  0  0  0999 V2000
    1.9073    6.6386   -1.5587 C   0  0  0  0  0  0  0  0  0  0  0  0
    1.8564    7.7581   -2.0741 O   0  0  0  0  0  0  0  0  0  0  0  0
    3.1691    5.8861   -1.3261 C   0  0  0  0  0  0  0  0  0  0  0  0
    0.6252    5.9615   -1.1248 C   0  0  0  0  0  0  0  0  0  0  0  0
   -0.3009    6.5433   -1.3279 H   0  0  0  0  0  0  0  0  0  0  0  0
    0.6157    4.8558   -0.5904 O   0  0  0  0  0  0  0  0  0  0  0  0
    3.1179    4.9010   -1.8531 H   0  0  0  0  0  0  0  0  0  0  0  0
    4.0534    6.4590   -1.6956 H   0  0  0  0  0  0  0  0  0  0  0  0
    3.2865    5.6879   -0.2314 H   0  0  0  0  0  0  0  0  0  0  0  0
  1  2  2  0  0  0  0
  1  3  1  0  0  0  0
  1  4  1  0  0  0  0
  3  7  1  0  0  0  0
  3  8  1  0  0  0  0
  3  9  1  0  0  0  0
  4  5  1  0  0  0  0
  4  6  2  0  0  0  0
M  END
