./000079-01-6.hin
 OpenBabel09241315583D

  6  5  0  0  0  0  0  0  0  0999 V2000
    1.2220   -1.6770    0.2603 C   0  0  0  0  0  0  0  0  0  0  0  0
    1.2212   -0.3346    0.2603 C   0  0  0  0  0  0  0  0  0  0  0  0
    2.6163   -2.6172    0.2603 Cl  0  0  0  0  0  0  0  0  0  0  0  0
    0.2943   -2.2684    0.2603 H   0  0  0  0  0  0  0  0  0  0  0  0
   -0.2465    0.5187    0.2603 Cl  0  0  0  0  0  0  0  0  0  0  0  0
    2.6241    0.6080    0.2603 Cl  0  0  0  0  0  0  0  0  0  0  0  0
  1  2  2  0  0  0  0
  1  3  1  0  0  0  0
  1  4  1  0  0  0  0
  2  5  1  0  0  0  0
  2  6  1  0  0  0  0
M  END
