./000079-29-8.hin
 OpenBabel09241315583D

 20 19  0  0  0  0  0  0  0  0999 V2000
   -2.0607   -0.7557   -0.2890 C   0  0  0  0  0  0  0  0  0  0  0  0
   -2.0239    0.7594   -0.2634 C   0  0  0  0  0  0  0  0  0  0  0  0
   -2.7761    1.2679    0.9502 C   0  0  0  0  0  0  0  0  0  0  0  0
   -0.5839    1.2780   -0.2789 C   0  0  0  0  0  0  0  0  0  0  0  0
   -0.5471    2.7930   -0.2534 C   0  0  0  0  0  0  0  0  0  0  0  0
   -1.6788   -1.1432   -1.2639 H   0  0  0  0  0  0  0  0  0  0  0  0
   -1.4333   -1.1780    0.5323 H   0  0  0  0  0  0  0  0  0  0  0  0
   -3.1085   -1.1195   -0.1562 H   0  0  0  0  0  0  0  0  0  0  0  0
   -2.5421    1.1424   -1.1881 H   0  0  0  0  0  0  0  0  0  0  0  0
   -2.9220    2.3731    0.8894 H   0  0  0  0  0  0  0  0  0  0  0  0
   -3.7824    0.7868    1.0111 H   0  0  0  0  0  0  0  0  0  0  0  0
   -2.2153    1.0338    1.8868 H   0  0  0  0  0  0  0  0  0  0  0  0
    0.1684    0.7694   -1.4926 C   0  0  0  0  0  0  0  0  0  0  0  0
    0.5007    3.1568   -0.3862 H   0  0  0  0  0  0  0  0  0  0  0  0
   -1.1744    3.2153   -1.0747 H   0  0  0  0  0  0  0  0  0  0  0  0
   -0.9290    3.1806    0.7215 H   0  0  0  0  0  0  0  0  0  0  0  0
   -0.0657    0.8949    0.6458 H   0  0  0  0  0  0  0  0  0  0  0  0
    1.1747    1.2505   -1.5535 H   0  0  0  0  0  0  0  0  0  0  0  0
    0.3142   -0.3358   -1.4318 H   0  0  0  0  0  0  0  0  0  0  0  0
   -0.3924    1.0035   -2.4291 H   0  0  0  0  0  0  0  0  0  0  0  0
  1  2  1  0  0  0  0
  1  6  1  0  0  0  0
  1  7  1  0  0  0  0
  1  8  1  0  0  0  0
  2  3  1  0  0  0  0
  2  4  1  0  0  0  0
  2  9  1  0  0  0  0
  3 10  1  0  0  0  0
  3 11  1  0  0  0  0
  3 12  1  0  0  0  0
  4  5  1  0  0  0  0
  4 13  1  0  0  0  0
  4 17  1  0  0  0  0
  5 14  1  0  0  0  0
  5 15  1  0  0  0  0
  5 16  1  0  0  0  0
 13 18  1  0  0  0  0
 13 19  1  0  0  0  0
 13 20  1  0  0  0  0
M  END
