./000079-31-2.hin
 OpenBabel09241315583D

 14 13  0  0  0  0  0  0  0  0999 V2000
    0.1999   -0.9714    0.0100 C   0  0  0  0  0  0  0  0  0  0  0  0
    0.1742    0.5244   -0.1488 C   0  0  0  0  0  0  0  0  0  0  0  0
    0.5746   -1.6549    0.9664 O   0  0  0  0  0  0  0  0  0  0  0  0
   -0.2654   -1.6498   -1.0779 O   0  0  0  0  0  0  0  0  0  0  0  0
    1.5824    1.0689   -0.0192 C   0  0  0  0  0  0  0  0  0  0  0  0
   -0.7443    1.1253    0.8962 C   0  0  0  0  0  0  0  0  0  0  0  0
   -0.2229   -2.6057   -0.9114 H   0  0  0  0  0  0  0  0  0  0  0  0
   -0.2243    0.7648   -1.1757 H   0  0  0  0  0  0  0  0  0  0  0  0
    1.5633    2.1825   -0.0975 H   0  0  0  0  0  0  0  0  0  0  0  0
    2.0207    0.7844    0.9682 H   0  0  0  0  0  0  0  0  0  0  0  0
    2.2345    0.6640   -0.8298 H   0  0  0  0  0  0  0  0  0  0  0  0
   -0.7401    2.2380    0.8046 H   0  0  0  0  0  0  0  0  0  0  0  0
   -1.7892    0.7584    0.7560 H   0  0  0  0  0  0  0  0  0  0  0  0
   -0.4018    0.8469    1.9224 H   0  0  0  0  0  0  0  0  0  0  0  0
  1  2  1  0  0  0  0
  1  3  2  0  0  0  0
  1  4  1  0  0  0  0
  2  5  1  0  0  0  0
  2  6  1  0  0  0  0
  2  8  1  0  0  0  0
  4  7  1  0  0  0  0
  5  9  1  0  0  0  0
  5 10  1  0  0  0  0
  5 11  1  0  0  0  0
  6 12  1  0  0  0  0
  6 13  1  0  0  0  0
  6 14  1  0  0  0  0
M  END
