./000079-34-5.hin
 OpenBabel09241315583D

  8  7  0  0  0  0  0  0  0  0999 V2000
   -1.9730   -1.4268    0.4493 C   0  0  0  0  0  0  0  0  0  0  0  0
   -1.9839    0.0997    0.4680 C   0  0  0  0  0  0  0  0  0  0  0  0
   -0.3267   -2.0294    0.4750 Cl  0  0  0  0  0  0  0  0  0  0  0  0
   -2.8185   -2.0294   -0.9637 Cl  0  0  0  0  0  0  0  0  0  0  0  0
   -3.6302    0.7023    0.4423 Cl  0  0  0  0  0  0  0  0  0  0  0  0
   -1.1384    0.7023    1.8810 Cl  0  0  0  0  0  0  0  0  0  0  0  0
   -2.4907   -1.8523    1.3459 H   0  0  0  0  0  0  0  0  0  0  0  0
   -1.4662    0.5251   -0.4286 H   0  0  0  0  0  0  0  0  0  0  0  0
  1  2  1  0  0  0  0
  1  3  1  0  0  0  0
  1  4  1  0  0  0  0
  1  7  1  0  0  0  0
  2  5  1  0  0  0  0
  2  6  1  0  0  0  0
  2  8  1  0  0  0  0
M  END
