./000085-01-8.hin
 OpenBabel09241315583D

 24 26  0  0  0  0  0  0  0  0999 V2000
   -9.5417    0.9080   -0.0015 C   0  0  0  0  0  0  0  0  0  0  0  0
   -9.5297    2.3139   -0.0016 C   0  0  0  0  0  0  0  0  0  0  0  0
   -8.3265    2.9896   -0.0019 C   0  0  0  0  0  0  0  0  0  0  0  0
   -7.1037    2.2810   -0.0018 C   0  0  0  0  0  0  0  0  0  0  0  0
   -7.1088    0.8653   -0.0010 C   0  0  0  0  0  0  0  0  0  0  0  0
   -8.3563    0.1990   -0.0012 C   0  0  0  0  0  0  0  0  0  0  0  0
   -5.8498    0.1539    0.0002 C   0  0  0  0  0  0  0  0  0  0  0  0
   -4.6398    0.8887   -0.0004 C   0  0  0  0  0  0  0  0  0  0  0  0
   -4.6750    2.3235   -0.0021 C   0  0  0  0  0  0  0  0  0  0  0  0
   -5.8565    2.9911   -0.0024 C   0  0  0  0  0  0  0  0  0  0  0  0
   -5.7770   -1.2585    0.0026 C   0  0  0  0  0  0  0  0  0  0  0  0
   -4.5580   -1.9082    0.0047 C   0  0  0  0  0  0  0  0  0  0  0  0
   -3.3598   -1.1725    0.0039 C   0  0  0  0  0  0  0  0  0  0  0  0
   -3.4018    0.2068    0.0011 C   0  0  0  0  0  0  0  0  0  0  0  0
  -10.5044    0.3755   -0.0015 H   0  0  0  0  0  0  0  0  0  0  0  0
  -10.4810    2.8658   -0.0016 H   0  0  0  0  0  0  0  0  0  0  0  0
   -8.3035    4.0899   -0.0022 H   0  0  0  0  0  0  0  0  0  0  0  0
   -8.3919   -0.9003   -0.0012 H   0  0  0  0  0  0  0  0  0  0  0  0
   -3.7153    2.8627   -0.0028 H   0  0  0  0  0  0  0  0  0  0  0  0
   -5.8898    4.0914   -0.0032 H   0  0  0  0  0  0  0  0  0  0  0  0
   -6.7002   -1.8562    0.0030 H   0  0  0  0  0  0  0  0  0  0  0  0
   -4.5175   -3.0075    0.0070 H   0  0  0  0  0  0  0  0  0  0  0  0
   -2.3963   -1.7026    0.0055 H   0  0  0  0  0  0  0  0  0  0  0  0
   -2.4712    0.7942    0.0002 H   0  0  0  0  0  0  0  0  0  0  0  0
  1  2  2  0  0  0  0
  1  6  1  0  0  0  0
  1 15  1  0  0  0  0
  2  3  1  0  0  0  0
  2 16  1  0  0  0  0
  3  4  2  0  0  0  0
  3 17  1  0  0  0  0
  4  5  1  0  0  0  0
  4 10  1  0  0  0  0
  5  6  2  0  0  0  0
  5  7  1  0  0  0  0
  6 18  1  0  0  0  0
  7  8  2  0  0  0  0
  7 11  1  0  0  0  0
  8  9  1  0  0  0  0
  8 14  1  0  0  0  0
  9 10  2  0  0  0  0
  9 19  1  0  0  0  0
 10 20  1  0  0  0  0
 11 12  2  0  0  0  0
 11 21  1  0  0  0  0
 12 13  1  0  0  0  0
 12 22  1  0  0  0  0
 13 14  2  0  0  0  0
 13 23  1  0  0  0  0
 14 24  1  0  0  0  0
M  END
