./000086-73-7.hin
 OpenBabel09241315583D

 23 25  0  0  0  0  0  0  0  0999 V2000
   -1.7281    1.2776    3.0933 C   0  0  0  0  0  0  0  0  0  0  0  0
   -1.7080    2.6804    3.0933 C   0  0  0  0  0  0  0  0  0  0  0  0
   -0.4863    3.3260    3.0933 C   0  0  0  0  0  0  0  0  0  0  0  0
    0.7298    2.5755    3.0933 C   0  0  0  0  0  0  0  0  0  0  0  0
    0.7004    1.1909    3.0933 C   0  0  0  0  0  0  0  0  0  0  0  0
   -0.5442    0.5459    3.0933 C   0  0  0  0  0  0  0  0  0  0  0  0
   -0.1831    4.7991    3.0933 C   0  0  0  0  0  0  0  0  0  0  0  0
    1.3203    4.8427    3.0933 C   0  0  0  0  0  0  0  0  0  0  0  0
    1.8488    3.5150    3.0933 C   0  0  0  0  0  0  0  0  0  0  0  0
   -2.6951    0.7532    3.0933 H   0  0  0  0  0  0  0  0  0  0  0  0
   -2.6491    3.2478    3.0933 H   0  0  0  0  0  0  0  0  0  0  0  0
    1.6314    0.6068    3.0933 H   0  0  0  0  0  0  0  0  0  0  0  0
   -0.5808   -0.5535    3.0933 H   0  0  0  0  0  0  0  0  0  0  0  0
   -0.6037    5.3000    4.0018 H   0  0  0  0  0  0  0  0  0  0  0  0
   -0.6037    5.3000    2.1847 H   0  0  0  0  0  0  0  0  0  0  0  0
    2.1676    5.9341    3.0933 C   0  0  0  0  0  0  0  0  0  0  0  0
    3.5528    5.7110    3.0933 C   0  0  0  0  0  0  0  0  0  0  0  0
    4.0683    4.4183    3.0933 C   0  0  0  0  0  0  0  0  0  0  0  0
    3.2176    3.3041    3.0933 C   0  0  0  0  0  0  0  0  0  0  0  0
    1.7718    6.9592    3.0933 H   0  0  0  0  0  0  0  0  0  0  0  0
    4.2366    6.5726    3.0933 H   0  0  0  0  0  0  0  0  0  0  0  0
    5.1575    4.2640    3.0933 H   0  0  0  0  0  0  0  0  0  0  0  0
    3.6317    2.2861    3.0933 H   0  0  0  0  0  0  0  0  0  0  0  0
  1  2  2  0  0  0  0
  1  6  1  0  0  0  0
  1 10  1  0  0  0  0
  2  3  1  0  0  0  0
  2 11  1  0  0  0  0
  3  4  2  0  0  0  0
  3  7  1  0  0  0  0
  4  5  1  0  0  0  0
  4  9  1  0  0  0  0
  5  6  2  0  0  0  0
  5 12  1  0  0  0  0
  6 13  1  0  0  0  0
  7  8  1  0  0  0  0
  7 14  1  0  0  0  0
  7 15  1  0  0  0  0
  8  9  2  0  0  0  0
  8 16  1  0  0  0  0
  9 19  1  0  0  0  0
 16 17  2  0  0  0  0
 16 20  1  0  0  0  0
 17 18  1  0  0  0  0
 17 21  1  0  0  0  0
 18 19  2  0  0  0  0
 18 22  1  0  0  0  0
 19 23  1  0  0  0  0
M  END
