./000088-72-2.hin
   ACCLDraw05131600203D

 17 17  0  0  0  0  0  0  0  0999 V2000
    0.7573   -0.3961    0.0010 C   0  0  0  0  0  0  0  0  0  0  0  0
    1.9883   -1.0697    0.0310 C   0  0  0  0  0  0  0  0  0  0  0  0
    3.1928   -0.3753    0.0305 C   0  0  0  0  0  0  0  0  0  0  0  0
    3.1969    1.0207   -0.0004 C   0  0  0  0  0  0  0  0  0  0  0  0
    1.9960    1.7187   -0.0306 C   0  0  0  0  0  0  0  0  0  0  0  0
    0.7764    1.0134   -0.0300 C   0  0  0  0  0  0  0  0  0  0  0  0
   -0.4954   -1.1840    0.0030 C   0  0  3  0  0  0  0  0  0  0  0  0
    1.9920   -2.1710    0.0555 H   0  0  0  0  0  0  0  0  0  0  0  0
    4.1454   -0.9270    0.0544 H   0  0  0  0  0  0  0  0  0  0  0  0
    1.9952    2.8228   -0.0550 H   0  0  0  0  0  0  0  0  0  0  0  0
   -0.4787    1.8095   -0.0631 N   0  3  0  0  0  0  0  0  0  0  0  0
   -1.5459    1.2562   -0.0645 O   0  0  0  0  0  0  0  0  0  0  0  0
   -0.3953    3.0103   -0.0881 O   0  5  0  0  0  0  0  0  0  0  0  0
    4.1490    1.5723   -0.0008 H   0  0  0  0  0  0  0  0  0  0  0  0
   -1.1221   -0.9175    0.8928 H   0  0  0  0  0  0  0  0  0  0  0  0
   -1.0996   -0.9578   -0.9131 H   0  0  0  0  0  0  0  0  0  0  0  0
   -0.2833   -2.2810    0.0301 H   0  0  0  0  0  0  0  0  0  0  0  0
  1  2  2  0  0  0  0
  1  6  1  0  0  0  0
  1  7  1  0  0  0  0
  2  3  1  0  0  0  0
  2  8  1  0  0  0  0
  3  4  2  0  0  0  0
  3  9  1  0  0  0  0
  4  5  1  0  0  0  0
  4 14  1  0  0  0  0
  5  6  2  0  0  0  0
  5 10  1  0  0  0  0
  6 11  1  0  0  0  0
  7 15  1  0  0  0  0
  7 16  1  0  0  0  0
  7 17  1  0  0  0  0
 11 12  2  0  0  0  0
 11 13  1  0  0  0  0
M  CHG  2  11   1  13  -1
M  END