./000088-75-5.hin
  ACCLDraw05131600262D

 15 15  0  0  0  0  0  0  0  0999 V2000
   10.8670  -14.5212    0.0000 C   0  0  0  0  0  0  0  0  0  0  0  0
   10.8670  -13.1333    0.0000 C   0  0  0  0  0  0  0  0  0  0  0  0
   12.0829  -15.2115    0.0000 C   0  0  0  0  0  0  0  0  0  0  0  0
   13.2844  -14.5151    0.0000 C   0  0  0  0  0  0  0  0  0  0  0  0
   13.2844  -13.1073    0.0000 C   0  0  0  0  0  0  0  0  0  0  0  0
   12.0539  -12.4108    0.0000 C   0  0  0  0  0  0  0  0  0  0  0  0
   14.5789  -12.3852    0.0000 N   0  3  0  0  0  0  0  0  0  0  0  0
   12.0539  -11.0452    0.0000 O   0  0  0  0  0  0  0  0  0  0  0  0
   14.5789  -11.1862    0.0000 O   0  5  0  0  0  0  0  0  0  0  0  0
   15.5946  -13.0337    0.0000 O   0  0  0  0  0  0  0  0  0  0  0  0
    9.9188  -15.0819    0.0000 H   0  0  0  0  0  0  0  0  0  0  0  0
    9.8909  -12.5880    0.0000 H   0  0  0  0  0  0  0  0  0  0  0  0
   12.0829  -16.3118    0.0000 H   0  0  0  0  0  0  0  0  0  0  0  0
   14.2467  -15.0581    0.0000 H   0  0  0  0  0  0  0  0  0  0  0  0
   11.1705  -10.7194    0.0000 H   0  0  0  0  0  0  0  0  0  0  0  0
  1  2  2  0  0  0  0
  1  3  1  0  0  0  0
  1 11  1  0  0  0  0
  2  6  1  0  0  0  0
  2 12  1  0  0  0  0
  3  4  2  0  0  0  0
  3 13  1  0  0  0  0
  4  5  1  0  0  0  0
  4 14  1  0  0  0  0
  5  6  2  0  0  0  0
  5  7  1  0  0  0  0
  6  8  1  0  0  0  0
  7  9  1  0  0  0  0
  7 10  2  0  0  0  0
  8 15  1  0  0  0  0
M  CHG  2   7   1   9  -1
M  END
