./000091-20-3.hin
 OpenBabel09241315583D

 18 19  0  0  0  0  0  0  0  0999 V2000
   -0.6074    2.6900   -0.0000 C   0  0  0  0  0  0  0  0  0  0  0  0
    0.6191    1.9819   -0.0000 C   0  0  0  0  0  0  0  0  0  0  0  0
    1.8123    2.6612   -0.0000 C   0  0  0  0  0  0  0  0  0  0  0  0
    1.8336    4.0830   -0.0000 C   0  0  0  0  0  0  0  0  0  0  0  0
    3.0543    4.8124   -0.0000 C   0  0  0  0  0  0  0  0  0  0  0  0
    3.0459    6.1854   -0.0000 C   0  0  0  0  0  0  0  0  0  0  0  0
    1.8195    6.8935   -0.0000 C   0  0  0  0  0  0  0  0  0  0  0  0
    0.6263    6.2142   -0.0000 C   0  0  0  0  0  0  0  0  0  0  0  0
    0.6049    4.7924   -0.0000 C   0  0  0  0  0  0  0  0  0  0  0  0
   -0.6157    4.0630   -0.0000 C   0  0  0  0  0  0  0  0  0  0  0  0
   -1.5502    2.1234   -0.0000 H   0  0  0  0  0  0  0  0  0  0  0  0
    0.5998    0.8821   -0.0000 H   0  0  0  0  0  0  0  0  0  0  0  0
    2.7703    2.1199   -0.0000 H   0  0  0  0  0  0  0  0  0  0  0  0
    3.9887    6.7520    0.0000 H   0  0  0  0  0  0  0  0  0  0  0  0
    1.8388    7.9933   -0.0000 H   0  0  0  0  0  0  0  0  0  0  0  0
   -0.3317    6.7555   -0.0000 H   0  0  0  0  0  0  0  0  0  0  0  0
   -1.5635    4.6220   -0.0000 H   0  0  0  0  0  0  0  0  0  0  0  0
    4.0020    4.2534    0.0000 H   0  0  0  0  0  0  0  0  0  0  0  0
  1  2  2  0  0  0  0
  1 10  1  0  0  0  0
  1 11  1  0  0  0  0
  2  3  1  0  0  0  0
  2 12  1  0  0  0  0
  3  4  2  0  0  0  0
  3 13  1  0  0  0  0
  4  5  1  0  0  0  0
  4  9  1  0  0  0  0
  5  6  2  0  0  0  0
  5 18  1  0  0  0  0
  6  7  1  0  0  0  0
  6 14  1  0  0  0  0
  7  8  2  0  0  0  0
  7 15  1  0  0  0  0
  8  9  1  0  0  0  0
  8 16  1  0  0  0  0
  9 10  2  0  0  0  0
 10 17  1  0  0  0  0
M  END
