./000091-57-6.hin
 OpenBabel09241315583D

 21 22  0  0  0  0  0  0  0  0999 V2000
   -2.1983   -0.6386   -0.0000 C   0  0  0  0  0  0  0  0  0  0  0  0
   -2.2017    0.7837   -0.0000 C   0  0  0  0  0  0  0  0  0  0  0  0
   -1.0058    1.4665   -0.0000 C   0  0  0  0  0  0  0  0  0  0  0  0
    0.2319    0.7680    0.0000 C   0  0  0  0  0  0  0  0  0  0  0  0
    0.2284   -0.6502    0.0000 C   0  0  0  0  0  0  0  0  0  0  0  0
   -1.0178   -1.3358    0.0000 C   0  0  0  0  0  0  0  0  0  0  0  0
    1.4671   -1.3471    0.0000 C   0  0  0  0  0  0  0  0  0  0  0  0
    2.6547   -0.6573    0.0000 C   0  0  0  0  0  0  0  0  0  0  0  0
    2.6590    0.7585    0.0000 C   0  0  0  0  0  0  0  0  0  0  0  0
    1.4763    1.4564    0.0000 C   0  0  0  0  0  0  0  0  0  0  0  0
   -3.5009    1.4947   -0.0000 C   0  0  0  0  0  0  0  0  0  0  0  0
   -3.1634   -1.1672   -0.0000 H   0  0  0  0  0  0  0  0  0  0  0  0
   -0.9877    2.5670   -0.0000 H   0  0  0  0  0  0  0  0  0  0  0  0
   -1.0132   -2.4363    0.0000 H   0  0  0  0  0  0  0  0  0  0  0  0
    1.4531   -2.4473    0.0000 H   0  0  0  0  0  0  0  0  0  0  0  0
    3.6148   -1.1938    0.0000 H   0  0  0  0  0  0  0  0  0  0  0  0
    3.6227    1.2888    0.0000 H   0  0  0  0  0  0  0  0  0  0  0  0
    1.4701    2.5566    0.0000 H   0  0  0  0  0  0  0  0  0  0  0  0
   -3.3592    2.6032    0.0000 H   0  0  0  0  0  0  0  0  0  0  0  0
   -4.0945    1.2146   -0.9061 H   0  0  0  0  0  0  0  0  0  0  0  0
   -4.0945    1.2146    0.9061 H   0  0  0  0  0  0  0  0  0  0  0  0
  1  2  2  0  0  0  0
  1  6  1  0  0  0  0
  1 12  1  0  0  0  0
  2  3  1  0  0  0  0
  2 11  1  0  0  0  0
  3  4  2  0  0  0  0
  3 13  1  0  0  0  0
  4  5  1  0  0  0  0
  4 10  1  0  0  0  0
  5  6  2  0  0  0  0
  5  7  1  0  0  0  0
  6 14  1  0  0  0  0
  7  8  2  0  0  0  0
  7 15  1  0  0  0  0
  8  9  1  0  0  0  0
  8 16  1  0  0  0  0
  9 10  2  0  0  0  0
  9 17  1  0  0  0  0
 10 18  1  0  0  0  0
 11 19  1  0  0  0  0
 11 20  1  0  0  0  0
 11 21  1  0  0  0  0
M  END
