./000092-52-4.hin
 OpenBabel09241315583D

 22 23  0  0  0  0  0  0  0  0999 V2000
  -12.6558   10.4410   11.5329 C   0  0  0  0  0  0  0  0  0  0  0  0
  -12.5362   11.6812   12.1680 C   0  0  0  0  0  0  0  0  0  0  0  0
  -13.6347   12.2335   12.8344 C   0  0  0  0  0  0  0  0  0  0  0  0
  -14.8474   11.5462   12.8633 C   0  0  0  0  0  0  0  0  0  0  0  0
  -14.9660   10.3077   12.2322 C   0  0  0  0  0  0  0  0  0  0  0  0
  -13.8699    9.7564   11.5683 C   0  0  0  0  0  0  0  0  0  0  0  0
  -11.7901   10.0071   11.0110 H   0  0  0  0  0  0  0  0  0  0  0  0
  -13.5398   13.2109   13.3302 H   0  0  0  0  0  0  0  0  0  0  0  0
  -15.7117   11.9828   13.3847 H   0  0  0  0  0  0  0  0  0  0  0  0
  -13.9620    8.7794   11.0718 H   0  0  0  0  0  0  0  0  0  0  0  0
  -11.2238   12.4226   12.1343 C   0  0  0  0  0  0  0  0  0  0  0  0
  -10.7207   13.0075   13.3007 C   0  0  0  0  0  0  0  0  0  0  0  0
   -9.5062   13.6914   13.2671 C   0  0  0  0  0  0  0  0  0  0  0  0
   -8.7941   13.7964   12.0721 C   0  0  0  0  0  0  0  0  0  0  0  0
   -9.2967   13.2140   10.9083 C   0  0  0  0  0  0  0  0  0  0  0  0
  -10.5088   12.5258   10.9368 C   0  0  0  0  0  0  0  0  0  0  0  0
   -7.8374   14.3379   12.0475 H   0  0  0  0  0  0  0  0  0  0  0  0
   -8.7369   13.2978    9.9654 H   0  0  0  0  0  0  0  0  0  0  0  0
  -10.9073   12.0671   10.0197 H   0  0  0  0  0  0  0  0  0  0  0  0
  -15.9229    9.7664   12.2580 H   0  0  0  0  0  0  0  0  0  0  0  0
  -11.2828   12.9223   14.2425 H   0  0  0  0  0  0  0  0  0  0  0  0
   -9.1097   14.1481   14.1857 H   0  0  0  0  0  0  0  0  0  0  0  0
  1  2  2  0  0  0  0
  1  6  1  0  0  0  0
  1  7  1  0  0  0  0
  2  3  1  0  0  0  0
  2 11  1  0  0  0  0
  3  4  2  0  0  0  0
  3  8  1  0  0  0  0
  4  5  1  0  0  0  0
  4  9  1  0  0  0  0
  5  6  2  0  0  0  0
  5 20  1  0  0  0  0
  6 10  1  0  0  0  0
 11 12  2  0  0  0  0
 11 16  1  0  0  0  0
 12 13  1  0  0  0  0
 12 21  1  0  0  0  0
 13 14  2  0  0  0  0
 13 22  1  0  0  0  0
 14 15  1  0  0  0  0
 14 17  1  0  0  0  0
 15 16  2  0  0  0  0
 15 18  1  0  0  0  0
 16 19  1  0  0  0  0
M  END
