./000095-47-6.hin
 OpenBabel09241315583D

 18 18  0  0  0  0  0  0  0  0999 V2000
   -5.2004   10.2717   44.5421 C   0  0  0  0  0  0  0  0  0  0  0  0
   -6.3653    6.6896   44.5421 C   0  0  0  0  0  0  0  0  0  0  0  0
   -6.3538    8.0809   44.5421 C   0  0  0  0  0  0  0  0  0  0  0  0
   -5.1446    8.7903   44.5421 C   0  0  0  0  0  0  0  0  0  0  0  0
   -3.9310    8.0829   44.5421 C   0  0  0  0  0  0  0  0  0  0  0  0
   -3.9539    6.6816   44.5421 C   0  0  0  0  0  0  0  0  0  0  0  0
   -5.1601    5.9871   44.5421 C   0  0  0  0  0  0  0  0  0  0  0  0
   -7.3211    6.1461   44.5421 H   0  0  0  0  0  0  0  0  0  0  0  0
   -7.3029    8.6377   44.5421 H   0  0  0  0  0  0  0  0  0  0  0  0
   -2.6259    8.7859   44.5421 C   0  0  0  0  0  0  0  0  0  0  0  0
   -3.0047    6.1246   44.5421 H   0  0  0  0  0  0  0  0  0  0  0  0
   -4.1836   10.7330   44.5421 H   0  0  0  0  0  0  0  0  0  0  0  0
   -5.7485   10.6342   43.6361 H   0  0  0  0  0  0  0  0  0  0  0  0
   -5.7485   10.6342   45.4480 H   0  0  0  0  0  0  0  0  0  0  0  0
   -5.1624    4.8875   44.5421 H   0  0  0  0  0  0  0  0  0  0  0  0
   -1.7755    8.0602   44.5421 H   0  0  0  0  0  0  0  0  0  0  0  0
   -2.5310    9.4341   43.6349 H   0  0  0  0  0  0  0  0  0  0  0  0
   -2.5310    9.4341   45.4492 H   0  0  0  0  0  0  0  0  0  0  0  0
  1  4  1  0  0  0  0
  1 12  1  0  0  0  0
  1 13  1  0  0  0  0
  1 14  1  0  0  0  0
  2  3  2  0  0  0  0
  2  7  1  0  0  0  0
  2  8  1  0  0  0  0
  3  4  1  0  0  0  0
  3  9  1  0  0  0  0
  4  5  2  0  0  0  0
  5  6  1  0  0  0  0
  5 10  1  0  0  0  0
  6  7  2  0  0  0  0
  6 11  1  0  0  0  0
  7 15  1  0  0  0  0
 10 16  1  0  0  0  0
 10 17  1  0  0  0  0
 10 18  1  0  0  0  0
M  END
