./000095-48-7.hin
 OpenBabel09241315583D

 16 16  0  0  0  0  0  0  0  0999 V2000
   -5.8527   -2.3733   -0.2611 C   0  0  0  0  0  0  0  0  0  0  0  0
   -5.8235   -0.9804   -0.2512 C   0  0  0  0  0  0  0  0  0  0  0  0
   -4.5881   -0.3195   -0.2564 C   0  0  0  0  0  0  0  0  0  0  0  0
   -3.3744   -1.0394   -0.2713 C   0  0  0  0  0  0  0  0  0  0  0  0
   -3.4365   -2.4342   -0.2810 C   0  0  0  0  0  0  0  0  0  0  0  0
   -4.6632   -3.0989   -0.2759 C   0  0  0  0  0  0  0  0  0  0  0  0
   -4.4900    1.0547   -0.2472 O   0  0  0  0  0  0  0  0  0  0  0  0
   -6.8196   -2.8977   -0.2572 H   0  0  0  0  0  0  0  0  0  0  0  0
   -6.7585   -0.4033   -0.2395 H   0  0  0  0  0  0  0  0  0  0  0  0
   -2.5010   -3.0144   -0.2927 H   0  0  0  0  0  0  0  0  0  0  0  0
   -4.6894   -4.1979   -0.2837 H   0  0  0  0  0  0  0  0  0  0  0  0
   -2.0833   -0.3186   -0.2766 C   0  0  0  0  0  0  0  0  0  0  0  0
   -5.3883    1.4156   -0.2372 H   0  0  0  0  0  0  0  0  0  0  0  0
   -1.2205   -1.0276   -0.2861 H   0  0  0  0  0  0  0  0  0  0  0  0
   -2.0182    0.3426   -1.1773 H   0  0  0  0  0  0  0  0  0  0  0  0
   -2.0058    0.3335    0.6298 H   0  0  0  0  0  0  0  0  0  0  0  0
  1  2  2  0  0  0  0
  1  6  1  0  0  0  0
  1  8  1  0  0  0  0
  2  3  1  0  0  0  0
  2  9  1  0  0  0  0
  3  4  2  0  0  0  0
  3  7  1  0  0  0  0
  4  5  1  0  0  0  0
  4 12  1  0  0  0  0
  5  6  2  0  0  0  0
  5 10  1  0  0  0  0
  6 11  1  0  0  0  0
  7 13  1  0  0  0  0
 12 14  1  0  0  0  0
 12 15  1  0  0  0  0
 12 16  1  0  0  0  0
M  END
