./000095-63-6.hin
 OpenBabel09241315583D

 21 21  0  0  0  0  0  0  0  0999 V2000
   -3.6726   -0.2406   -0.0000 C   0  0  0  0  0  0  0  0  0  0  0  0
   -3.6828    1.1604   -0.0000 C   0  0  0  0  0  0  0  0  0  0  0  0
   -2.4612    1.8543   -0.0000 C   0  0  0  0  0  0  0  0  0  0  0  0
   -1.2616    1.1337   -0.0000 C   0  0  0  0  0  0  0  0  0  0  0  0
   -1.2557   -0.2640   -0.0000 C   0  0  0  0  0  0  0  0  0  0  0  0
   -2.4757   -0.9489   -0.0000 C   0  0  0  0  0  0  0  0  0  0  0  0
   -4.9922    1.8548   -0.0000 C   0  0  0  0  0  0  0  0  0  0  0  0
   -4.6293   -0.7846   -0.0000 H   0  0  0  0  0  0  0  0  0  0  0  0
   -2.4883   -2.0488   -0.0000 H   0  0  0  0  0  0  0  0  0  0  0  0
   -4.8812    2.9658    0.0000 H   0  0  0  0  0  0  0  0  0  0  0  0
   -5.5809    1.5626   -0.9059 H   0  0  0  0  0  0  0  0  0  0  0  0
   -5.5809    1.5626    0.9059 H   0  0  0  0  0  0  0  0  0  0  0  0
   -2.4146    3.3363   -0.0000 C   0  0  0  0  0  0  0  0  0  0  0  0
   -1.3604    3.7083   -0.0000 H   0  0  0  0  0  0  0  0  0  0  0  0
   -2.9279    3.7431   -0.9072 H   0  0  0  0  0  0  0  0  0  0  0  0
   -2.9279    3.7431    0.9072 H   0  0  0  0  0  0  0  0  0  0  0  0
    0.0299   -0.9990   -0.0000 C   0  0  0  0  0  0  0  0  0  0  0  0
   -0.3030    1.6751   -0.0000 H   0  0  0  0  0  0  0  0  0  0  0  0
   -0.1335   -2.1044    0.0000 H   0  0  0  0  0  0  0  0  0  0  0  0
    0.6296   -0.7315   -0.9058 H   0  0  0  0  0  0  0  0  0  0  0  0
    0.6296   -0.7314    0.9058 H   0  0  0  0  0  0  0  0  0  0  0  0
  1  2  2  0  0  0  0
  1  6  1  0  0  0  0
  1  8  1  0  0  0  0
  2  3  1  0  0  0  0
  2  7  1  0  0  0  0
  3  4  2  0  0  0  0
  3 13  1  0  0  0  0
  4  5  1  0  0  0  0
  4 18  1  0  0  0  0
  5  6  2  0  0  0  0
  5 17  1  0  0  0  0
  6  9  1  0  0  0  0
  7 10  1  0  0  0  0
  7 11  1  0  0  0  0
  7 12  1  0  0  0  0
 13 14  1  0  0  0  0
 13 15  1  0  0  0  0
 13 16  1  0  0  0  0
 17 19  1  0  0  0  0
 17 20  1  0  0  0  0
 17 21  1  0  0  0  0
M  END
