./000095-65-8.hin
 OpenBabel09241315583D

 19 19  0  0  0  0  0  0  0  0999 V2000
   -6.5067    0.7058   -0.0637 C   0  0  0  0  0  0  0  0  0  0  0  0
   -6.5901    1.3168   -0.9980 H   0  0  0  0  0  0  0  0  0  0  0  0
   -6.5756    1.4011    0.8109 H   0  0  0  0  0  0  0  0  0  0  0  0
   -7.3737    0.0020   -0.0240 H   0  0  0  0  0  0  0  0  0  0  0  0
   -5.2018   -1.4220    0.0197 C   0  0  0  0  0  0  0  0  0  0  0  0
   -4.0051   -2.1282    0.0426 C   0  0  0  0  0  0  0  0  0  0  0  0
   -2.7975   -1.4133    0.0047 C   0  0  0  0  0  0  0  0  0  0  0  0
   -2.7919   -0.0144   -0.0552 C   0  0  0  0  0  0  0  0  0  0  0  0
   -4.0028    0.6830   -0.0777 C   0  0  0  0  0  0  0  0  0  0  0  0
   -5.2179   -0.0232   -0.0401 C   0  0  0  0  0  0  0  0  0  0  0  0
   -3.9875   -3.2255    0.0895 H   0  0  0  0  0  0  0  0  0  0  0  0
   -1.6400   -2.1593    0.0296 O   0  0  0  0  0  0  0  0  0  0  0  0
   -0.8910   -1.5470   -0.0012 H   0  0  0  0  0  0  0  0  0  0  0  0
   -4.0013    2.1632   -0.1408 C   0  0  0  0  0  0  0  0  0  0  0  0
   -4.5248    2.5876    0.7531 H   0  0  0  0  0  0  0  0  0  0  0  0
   -4.5436    2.5106   -1.0564 H   0  0  0  0  0  0  0  0  0  0  0  0
   -2.9616    2.5712   -0.1689 H   0  0  0  0  0  0  0  0  0  0  0  0
   -6.1539   -1.9745    0.0491 H   0  0  0  0  0  0  0  0  0  0  0  0
   -1.8387    0.5325   -0.0844 H   0  0  0  0  0  0  0  0  0  0  0  0
  1  2  1  0  0  0  0
  1  3  1  0  0  0  0
  1  4  1  0  0  0  0
  1 10  1  0  0  0  0
  5  6  2  0  0  0  0
  5 10  1  0  0  0  0
  5 18  1  0  0  0  0
  6  7  1  0  0  0  0
  6 11  1  0  0  0  0
  7  8  2  0  0  0  0
  7 12  1  0  0  0  0
  8  9  1  0  0  0  0
  8 19  1  0  0  0  0
  9 10  2  0  0  0  0
  9 14  1  0  0  0  0
 12 13  1  0  0  0  0
 14 15  1  0  0  0  0
 14 16  1  0  0  0  0
 14 17  1  0  0  0  0
M  END
