./000095-80-7.hin
 OpenBabel09241315583D

 19 19  0  0  0  0  0  0  0  0999 V2000
   -1.7363   -0.7880    1.6107 C   0  0  0  0  0  0  0  0  0  0  0  0
   -0.5249   -1.4632    1.6350 C   0  0  0  0  0  0  0  0  0  0  0  0
    0.6925   -0.7947    1.7658 C   0  0  0  0  0  0  0  0  0  0  0  0
    0.6888    0.6205    1.8814 C   0  0  0  0  0  0  0  0  0  0  0  0
   -0.5393    1.3134    1.8490 C   0  0  0  0  0  0  0  0  0  0  0  0
   -1.7589    0.6219    1.7112 C   0  0  0  0  0  0  0  0  0  0  0  0
   -2.6729   -1.3530    1.5026 H   0  0  0  0  0  0  0  0  0  0  0  0
   -0.5246   -2.5620    1.5494 H   0  0  0  0  0  0  0  0  0  0  0  0
    1.9590   -1.5609    1.7915 C   0  0  0  0  0  0  0  0  0  0  0  0
   -2.9642    1.3255    1.5965 N   0  0  0  0  0  0  0  0  0  0  0  0
    2.6259   -1.2543    0.9459 H   0  0  0  0  0  0  0  0  0  0  0  0
    2.5073   -1.3878    2.7517 H   0  0  0  0  0  0  0  0  0  0  0  0
    1.7663   -2.6580    1.6959 H   0  0  0  0  0  0  0  0  0  0  0  0
    1.8772    1.3271    2.1034 N   0  0  0  0  0  0  0  0  0  0  0  0
    1.8350    2.2882    1.8454 H   0  0  0  0  0  0  0  0  0  0  0  0
    2.6958    0.8685    1.7683 H   0  0  0  0  0  0  0  0  0  0  0  0
   -0.5445    2.4111    1.9329 H   0  0  0  0  0  0  0  0  0  0  0  0
   -3.7701    0.7936    1.8403 H   0  0  0  0  0  0  0  0  0  0  0  0
   -2.9520    2.2296    2.0139 H   0  0  0  0  0  0  0  0  0  0  0  0
  1  2  2  0  0  0  0
  1  6  1  0  0  0  0
  1  7  1  0  0  0  0
  2  3  1  0  0  0  0
  2  8  1  0  0  0  0
  3  4  2  0  0  0  0
  3  9  1  0  0  0  0
  4  5  1  0  0  0  0
  4 14  1  0  0  0  0
  5  6  2  0  0  0  0
  5 17  1  0  0  0  0
  6 10  1  0  0  0  0
  9 11  1  0  0  0  0
  9 12  1  0  0  0  0
  9 13  1  0  0  0  0
 10 18  1  0  0  0  0
 10 19  1  0  0  0  0
 14 15  1  0  0  0  0
 14 16  1  0  0  0  0
M  END
