./000095-87-4.hin
 OpenBabel09241315583D

 19 19  0  0  0  0  0  0  0  0999 V2000
   -3.8914   -0.3230   -0.0482 C   0  0  0  0  0  0  0  0  0  0  0  0
   -3.8341   -1.2151    0.6234 H   0  0  0  0  0  0  0  0  0  0  0  0
   -4.1153   -0.6802   -1.0852 H   0  0  0  0  0  0  0  0  0  0  0  0
   -4.7392    0.3213    0.2912 H   0  0  0  0  0  0  0  0  0  0  0  0
   -2.6119    0.4229   -0.0380 C   0  0  0  0  0  0  0  0  0  0  0  0
   -2.6086    1.8205   -0.0590 C   0  0  0  0  0  0  0  0  0  0  0  0
   -1.3904    2.5110   -0.0623 C   0  0  0  0  0  0  0  0  0  0  0  0
   -0.1583    1.8248   -0.0448 C   0  0  0  0  0  0  0  0  0  0  0  0
   -0.1874    0.4288   -0.0232 C   0  0  0  0  0  0  0  0  0  0  0  0
   -1.3946   -0.2666   -0.0193 C   0  0  0  0  0  0  0  0  0  0  0  0
   -3.5569    2.3763   -0.0721 H   0  0  0  0  0  0  0  0  0  0  0  0
   -1.3295    3.8876   -0.0824 O   0  0  0  0  0  0  0  0  0  0  0  0
    1.1141    2.5774   -0.0480 C   0  0  0  0  0  0  0  0  0  0  0  0
   -2.2372    4.2242   -0.0927 H   0  0  0  0  0  0  0  0  0  0  0  0
    1.9942    1.8899   -0.0453 H   0  0  0  0  0  0  0  0  0  0  0  0
    1.1692    3.2321   -0.9541 H   0  0  0  0  0  0  0  0  0  0  0  0
    1.1693    3.2391    0.8530 H   0  0  0  0  0  0  0  0  0  0  0  0
    0.7621   -0.1285   -0.0085 H   0  0  0  0  0  0  0  0  0  0  0  0
   -1.3926   -1.3661   -0.0009 H   0  0  0  0  0  0  0  0  0  0  0  0
  1  2  1  0  0  0  0
  1  3  1  0  0  0  0
  1  4  1  0  0  0  0
  1  5  1  0  0  0  0
  5  6  2  0  0  0  0
  5 10  1  0  0  0  0
  6  7  1  0  0  0  0
  6 11  1  0  0  0  0
  7  8  2  0  0  0  0
  7 12  1  0  0  0  0
  8  9  1  0  0  0  0
  8 13  1  0  0  0  0
  9 10  2  0  0  0  0
  9 18  1  0  0  0  0
 10 19  1  0  0  0  0
 12 14  1  0  0  0  0
 13 15  1  0  0  0  0
 13 16  1  0  0  0  0
 13 17  1  0  0  0  0
M  END
