./000096-14-0.hin
 OpenBabel09241315583D

 20 19  0  0  0  0  0  0  0  0999 V2000
  -31.4706    3.2003   40.5447 C   0  0  0  0  0  0  0  0  0  0  0  0
  -28.4507    7.1661   40.8022 C   0  0  0  0  0  0  0  0  0  0  0  0
  -30.0824    3.7312   40.2959 C   0  0  0  0  0  0  0  0  0  0  0  0
  -28.5738    5.7124   40.4248 C   0  0  0  0  0  0  0  0  0  0  0  0
  -30.0230    5.2534   40.3219 C   0  0  0  0  0  0  0  0  0  0  0  0
  -30.5741    5.6136   41.2365 H   0  0  0  0  0  0  0  0  0  0  0  0
  -30.6904    5.8414   39.0962 C   0  0  0  0  0  0  0  0  0  0  0  0
  -28.0459    5.0914   41.1972 H   0  0  0  0  0  0  0  0  0  0  0  0
  -28.0582    5.5304   39.4453 H   0  0  0  0  0  0  0  0  0  0  0  0
  -29.7084    3.3638   39.3042 H   0  0  0  0  0  0  0  0  0  0  0  0
  -29.3920    3.3233   41.0820 H   0  0  0  0  0  0  0  0  0  0  0  0
  -27.3752    7.4405   40.9284 H   0  0  0  0  0  0  0  0  0  0  0  0
  -28.8885    7.8237   40.0129 H   0  0  0  0  0  0  0  0  0  0  0  0
  -28.9816    7.3717   41.7632 H   0  0  0  0  0  0  0  0  0  0  0  0
  -31.4542    2.0838   40.5803 H   0  0  0  0  0  0  0  0  0  0  0  0
  -31.8701    3.5776   41.5171 H   0  0  0  0  0  0  0  0  0  0  0  0
  -32.1711    3.5135   39.7334 H   0  0  0  0  0  0  0  0  0  0  0  0
  -30.1710    5.5065   38.1660 H   0  0  0  0  0  0  0  0  0  0  0  0
  -31.7579    5.5186   39.0406 H   0  0  0  0  0  0  0  0  0  0  0  0
  -30.6628    6.9570   39.1343 H   0  0  0  0  0  0  0  0  0  0  0  0
  1  3  1  0  0  0  0
  1 15  1  0  0  0  0
  1 16  1  0  0  0  0
  1 17  1  0  0  0  0
  2  4  1  0  0  0  0
  2 12  1  0  0  0  0
  2 13  1  0  0  0  0
  2 14  1  0  0  0  0
  3  5  1  0  0  0  0
  3 10  1  0  0  0  0
  3 11  1  0  0  0  0
  4  5  1  0  0  0  0
  4  8  1  0  0  0  0
  4  9  1  0  0  0  0
  5  6  1  0  0  0  0
  5  7  1  0  0  0  0
  7 18  1  0  0  0  0
  7 19  1  0  0  0  0
  7 20  1  0  0  0  0
M  END
