./000096-18-4.hin
 OpenBabel09241315583D

 11 10  0  0  0  0  0  0  0  0999 V2000
    0.9377  -15.6650   25.8156 C   0  0  0  0  0  0  0  0  0  0  0  0
    0.9161  -14.1509   25.8927 C   0  0  0  0  0  0  0  0  0  0  0  0
    0.3647  -16.0673   26.6958 H   0  0  0  0  0  0  0  0  0  0  0  0
    0.0569  -16.2344   24.4005 Cl  0  0  0  0  0  0  0  0  0  0  0  0
    1.7788  -13.3665   24.5883 Cl  0  0  0  0  0  0  0  0  0  0  0  0
    2.3557  -16.2003   25.8243 C   0  0  0  0  0  0  0  0  0  0  0  0
    2.4066  -17.9158   26.1638 Cl  0  0  0  0  0  0  0  0  0  0  0  0
    2.8558  -16.0460   24.8367 H   0  0  0  0  0  0  0  0  0  0  0  0
    2.9476  -15.6971   26.6283 H   0  0  0  0  0  0  0  0  0  0  0  0
   -0.1352  -13.7734   25.8524 H   0  0  0  0  0  0  0  0  0  0  0  0
    1.4005  -13.8158   26.8432 H   0  0  0  0  0  0  0  0  0  0  0  0
  1  2  1  0  0  0  0
  1  3  1  0  0  0  0
  1  4  1  0  0  0  0
  1  6  1  0  0  0  0
  2  5  1  0  0  0  0
  2 10  1  0  0  0  0
  2 11  1  0  0  0  0
  6  7  1  0  0  0  0
  6  8  1  0  0  0  0
  6  9  1  0  0  0  0
M  END
