./000096-22-0.hin
 OpenBabel09241315583D

 16 15  0  0  0  0  0  0  0  0999 V2000
   -4.7404   33.8573  -37.5802 C   0  0  0  0  0  0  0  0  0  0  0  0
   -3.6589   33.7067  -37.3183 H   0  0  0  0  0  0  0  0  0  0  0  0
   -4.9911   33.1285  -38.3969 H   0  0  0  0  0  0  0  0  0  0  0  0
   -5.5688   33.5117  -36.3734 C   0  0  0  0  0  0  0  0  0  0  0  0
   -5.3534   32.1154  -35.8575 C   0  0  0  0  0  0  0  0  0  0  0  0
   -6.2101   31.7919  -34.6623 C   0  0  0  0  0  0  0  0  0  0  0  0
   -4.2677   32.0037  -35.5933 H   0  0  0  0  0  0  0  0  0  0  0  0
   -5.5701   31.3957  -36.6917 H   0  0  0  0  0  0  0  0  0  0  0  0
   -7.2926   31.8879  -34.9205 H   0  0  0  0  0  0  0  0  0  0  0  0
   -6.0124   30.7492  -34.3163 H   0  0  0  0  0  0  0  0  0  0  0  0
   -6.3570   34.3050  -35.8518 O   0  0  0  0  0  0  0  0  0  0  0  0
   -4.9626   35.2665  -38.0614 C   0  0  0  0  0  0  0  0  0  0  0  0
   -5.9935   32.4982  -33.8245 H   0  0  0  0  0  0  0  0  0  0  0  0
   -6.0350   35.4215  -38.3327 H   0  0  0  0  0  0  0  0  0  0  0  0
   -4.7030   35.9985  -37.2586 H   0  0  0  0  0  0  0  0  0  0  0  0
   -4.3296   35.4732  -38.9572 H   0  0  0  0  0  0  0  0  0  0  0  0
  1  2  1  0  0  0  0
  1  3  1  0  0  0  0
  1  4  1  0  0  0  0
  1 12  1  0  0  0  0
  4  5  1  0  0  0  0
  4 11  2  0  0  0  0
  5  6  1  0  0  0  0
  5  7  1  0  0  0  0
  5  8  1  0  0  0  0
  6  9  1  0  0  0  0
  6 10  1  0  0  0  0
  6 13  1  0  0  0  0
 12 14  1  0  0  0  0
 12 15  1  0  0  0  0
 12 16  1  0  0  0  0
M  END
