./000096-41-3.hin
 OpenBabel09241315583D

 16 16  0  0  0  0  0  0  0  0999 V2000
   -1.5973   -0.2503   -0.0976 C   0  0  0  0  0  0  0  0  0  0  0  0
   -1.5221    1.2688    0.0828 C   0  0  0  0  0  0  0  0  0  0  0  0
   -0.0372    1.6500    0.0864 C   0  0  0  0  0  0  0  0  0  0  0  0
    0.7366    0.4560   -0.4504 C   0  0  0  0  0  0  0  0  0  0  0  0
   -0.2340   -0.7102   -0.5894 C   0  0  0  0  0  0  0  0  0  0  0  0
   -2.1600    1.5851    1.3111 O   0  0  0  0  0  0  0  0  0  0  0  0
   -2.4023   -0.5146   -0.8254 H   0  0  0  0  0  0  0  0  0  0  0  0
   -1.8531   -0.7300    0.8816 H   0  0  0  0  0  0  0  0  0  0  0  0
   -2.0591    1.7959   -0.7535 H   0  0  0  0  0  0  0  0  0  0  0  0
    0.2879    1.8920    1.1303 H   0  0  0  0  0  0  0  0  0  0  0  0
    0.1375    2.5568   -0.5425 H   0  0  0  0  0  0  0  0  0  0  0  0
    1.5732    0.1902    0.2434 H   0  0  0  0  0  0  0  0  0  0  0  0
    1.1949    0.7005   -1.4416 H   0  0  0  0  0  0  0  0  0  0  0  0
    0.1192   -1.5898    0.0046 H   0  0  0  0  0  0  0  0  0  0  0  0
   -0.2958   -1.0365   -1.6584 H   0  0  0  0  0  0  0  0  0  0  0  0
   -2.0534    2.5342    1.4429 H   0  0  0  0  0  0  0  0  0  0  0  0
  1  2  1  0  0  0  0
  1  5  1  0  0  0  0
  1  7  1  0  0  0  0
  1  8  1  0  0  0  0
  2  3  1  0  0  0  0
  2  6  1  0  0  0  0
  2  9  1  0  0  0  0
  3  4  1  0  0  0  0
  3 10  1  0  0  0  0
  3 11  1  0  0  0  0
  4  5  1  0  0  0  0
  4 12  1  0  0  0  0
  4 13  1  0  0  0  0
  5 14  1  0  0  0  0
  5 15  1  0  0  0  0
  6 16  1  0  0  0  0
M  END
