./000098-06-6.hin
 OpenBabel09241315583D

 24 24  0  0  0  0  0  0  0  0999 V2000
   -0.9610    1.2413   -0.0000 C   0  0  0  0  0  0  0  0  0  0  0  0
   -0.9705    2.6451    0.0000 C   0  0  0  0  0  0  0  0  0  0  0  0
    0.2202    3.3670    0.0000 C   0  0  0  0  0  0  0  0  0  0  0  0
    1.4447    2.6988   -0.0000 C   0  0  0  0  0  0  0  0  0  0  0  0
    1.4660    1.3061   -0.0000 C   0  0  0  0  0  0  0  0  0  0  0  0
    0.2731    0.5820   -0.0000 C   0  0  0  0  0  0  0  0  0  0  0  0
   -2.2715    0.4993    0.0000 C   0  0  0  0  0  0  0  0  0  0  0  0
   -2.0840   -1.0129   -0.0000 C   0  0  0  0  0  0  0  0  0  0  0  0
   -3.0693    0.8798    1.2448 C   0  0  0  0  0  0  0  0  0  0  0  0
   -3.0693    0.8798   -1.2448 C   0  0  0  0  0  0  0  0  0  0  0  0
   -1.9294    3.1853    0.0000 H   0  0  0  0  0  0  0  0  0  0  0  0
    0.1937    4.4665    0.0000 H   0  0  0  0  0  0  0  0  0  0  0  0
    2.3852    3.2678   -0.0000 H   0  0  0  0  0  0  0  0  0  0  0  0
    2.4270    0.7708   -0.0000 H   0  0  0  0  0  0  0  0  0  0  0  0
    0.3244   -0.5170   -0.0000 H   0  0  0  0  0  0  0  0  0  0  0  0
   -3.0820   -1.5152   -0.0000 H   0  0  0  0  0  0  0  0  0  0  0  0
   -1.5262   -1.3406   -0.9096 H   0  0  0  0  0  0  0  0  0  0  0  0
   -1.5262   -1.3406    0.9096 H   0  0  0  0  0  0  0  0  0  0  0  0
   -4.0419    0.3316    1.2555 H   0  0  0  0  0  0  0  0  0  0  0  0
   -2.4979    0.6140    2.1658 H   0  0  0  0  0  0  0  0  0  0  0  0
   -3.2793    1.9757    1.2585 H   0  0  0  0  0  0  0  0  0  0  0  0
   -4.0419    0.3316   -1.2555 H   0  0  0  0  0  0  0  0  0  0  0  0
   -3.2794    1.9757   -1.2585 H   0  0  0  0  0  0  0  0  0  0  0  0
   -2.4979    0.6140   -2.1658 H   0  0  0  0  0  0  0  0  0  0  0  0
  1  2  2  0  0  0  0
  1  6  1  0  0  0  0
  1  7  1  0  0  0  0
  2  3  1  0  0  0  0
  2 11  1  0  0  0  0
  3  4  2  0  0  0  0
  3 12  1  0  0  0  0
  4  5  1  0  0  0  0
  4 13  1  0  0  0  0
  5  6  2  0  0  0  0
  5 14  1  0  0  0  0
  6 15  1  0  0  0  0
  7  8  1  0  0  0  0
  7  9  1  0  0  0  0
  7 10  1  0  0  0  0
  8 16  1  0  0  0  0
  8 17  1  0  0  0  0
  8 18  1  0  0  0  0
  9 19  1  0  0  0  0
  9 20  1  0  0  0  0
  9 21  1  0  0  0  0
 10 22  1  0  0  0  0
 10 23  1  0  0  0  0
 10 24  1  0  0  0  0
M  END
