./000098-56-6.hin
 OpenBabel09241315583D

 15 15  0  0  0  0  0  0  0  0999 V2000
   -3.4831   -4.9651   14.9999 F   0  0  0  0  0  0  0  0  0  0  0  0
   -1.6520   -1.7306   15.0000 C   0  0  0  0  0  0  0  0  0  0  0  0
   -0.3424   -1.2562   15.0000 C   0  0  0  0  0  0  0  0  0  0  0  0
   -1.8940   -3.1070   15.0000 C   0  0  0  0  0  0  0  0  0  0  0  0
   -0.8334   -4.0142   15.0000 C   0  0  0  0  0  0  0  0  0  0  0  0
    0.4793   -3.5451   15.0000 C   0  0  0  0  0  0  0  0  0  0  0  0
    0.7207   -2.1669   15.0000 C   0  0  0  0  0  0  0  0  0  0  0  0
   -2.4990   -1.0262   15.0000 H   0  0  0  0  0  0  0  0  0  0  0  0
   -0.1490   -0.1724   15.0000 H   0  0  0  0  0  0  0  0  0  0  0  0
   -1.0323   -5.0983   15.0000 H   0  0  0  0  0  0  0  0  0  0  0  0
    1.3177   -4.2585   15.0000 H   0  0  0  0  0  0  0  0  0  0  0  0
    2.3179   -1.5933   15.0000 Cl  0  0  0  0  0  0  0  0  0  0  0  0
   -3.3356   -3.5998   15.0000 C   0  0  0  0  0  0  0  0  0  0  0  0
   -4.0713   -3.1819   16.0833 F   0  0  0  0  0  0  0  0  0  0  0  0
   -4.0715   -3.1816   13.9170 F   0  0  0  0  0  0  0  0  0  0  0  0
  1 13  1  0  0  0  0
  2  3  2  0  0  0  0
  2  4  1  0  0  0  0
  2  8  1  0  0  0  0
  3  7  1  0  0  0  0
  3  9  1  0  0  0  0
  4  5  2  0  0  0  0
  4 13  1  0  0  0  0
  5  6  1  0  0  0  0
  5 10  1  0  0  0  0
  6  7  2  0  0  0  0
  6 11  1  0  0  0  0
  7 12  1  0  0  0  0
 13 14  1  0  0  0  0
 13 15  1  0  0  0  0
M  END
