./000098-82-8.hin
 OpenBabel09241315583D

 21 21  0  0  0  0  0  0  0  0999 V2000
    3.3978    1.8477    0.4267 C   0  0  0  0  0  0  0  0  0  0  0  0
    3.3691    0.4570    0.3433 C   0  0  0  0  0  0  0  0  0  0  0  0
    4.3910   -0.2266   -0.3155 C   0  0  0  0  0  0  0  0  0  0  0  0
    5.4419    0.4867   -0.8906 C   0  0  0  0  0  0  0  0  0  0  0  0
    5.4721    1.8782   -0.8080 C   0  0  0  0  0  0  0  0  0  0  0  0
    4.4500    2.5711   -0.1484 C   0  0  0  0  0  0  0  0  0  0  0  0
    2.5895    2.3829    0.9474 H   0  0  0  0  0  0  0  0  0  0  0  0
    2.5383   -0.1018    0.7983 H   0  0  0  0  0  0  0  0  0  0  0  0
    6.2498   -0.0481   -1.4111 H   0  0  0  0  0  0  0  0  0  0  0  0
    6.3051    2.4335   -1.2646 H   0  0  0  0  0  0  0  0  0  0  0  0
    4.4903    4.0649   -0.0644 C   0  0  0  0  0  0  0  0  0  0  0  0
    3.2906    4.6819   -0.7582 C   0  0  0  0  0  0  0  0  0  0  0  0
    4.5652    4.5274    1.3785 C   0  0  0  0  0  0  0  0  0  0  0  0
    4.3676   -1.3238   -0.3810 H   0  0  0  0  0  0  0  0  0  0  0  0
    5.4198    4.4288   -0.5925 H   0  0  0  0  0  0  0  0  0  0  0  0
    3.3566    5.7958   -0.7163 H   0  0  0  0  0  0  0  0  0  0  0  0
    3.2543    4.3657   -1.8281 H   0  0  0  0  0  0  0  0  0  0  0  0
    2.3420    4.3638   -0.2626 H   0  0  0  0  0  0  0  0  0  0  0  0
    4.6304    5.6413    1.4193 H   0  0  0  0  0  0  0  0  0  0  0  0
    3.6579    4.2041    1.9435 H   0  0  0  0  0  0  0  0  0  0  0  0
    5.4656    4.0976    1.8788 H   0  0  0  0  0  0  0  0  0  0  0  0
  1  2  2  0  0  0  0
  1  6  1  0  0  0  0
  1  7  1  0  0  0  0
  2  3  1  0  0  0  0
  2  8  1  0  0  0  0
  3  4  2  0  0  0  0
  3 14  1  0  0  0  0
  4  5  1  0  0  0  0
  4  9  1  0  0  0  0
  5  6  2  0  0  0  0
  5 10  1  0  0  0  0
  6 11  1  0  0  0  0
 11 12  1  0  0  0  0
 11 13  1  0  0  0  0
 11 15  1  0  0  0  0
 12 16  1  0  0  0  0
 12 17  1  0  0  0  0
 12 18  1  0  0  0  0
 13 19  1  0  0  0  0
 13 20  1  0  0  0  0
 13 21  1  0  0  0  0
M  END
