./000098-86-2.hin
 OpenBabel09241315583D

 17 17  0  0  0  0  0  0  0  0999 V2000
   -3.4784  -11.6358   23.7499 C   0  0  0  0  0  0  0  0  0  0  0  0
   -2.2008  -13.6484   23.7499 O   0  0  0  0  0  0  0  0  0  0  0  0
   -0.9350  -11.6403   23.7499 C   0  0  0  0  0  0  0  0  0  0  0  0
   -2.1979  -12.4098   23.7499 C   0  0  0  0  0  0  0  0  0  0  0  0
   -0.9222  -10.2401   23.7499 C   0  0  0  0  0  0  0  0  0  0  0  0
    0.2821  -12.3375   23.7499 C   0  0  0  0  0  0  0  0  0  0  0  0
   -4.3523  -12.3326   23.7499 H   0  0  0  0  0  0  0  0  0  0  0  0
   -3.5333  -10.9893   24.6593 H   0  0  0  0  0  0  0  0  0  0  0  0
   -3.5333  -10.9892   22.8405 H   0  0  0  0  0  0  0  0  0  0  0  0
    1.4908  -11.6443   23.7499 C   0  0  0  0  0  0  0  0  0  0  0  0
    0.2885   -9.5497   23.7499 C   0  0  0  0  0  0  0  0  0  0  0  0
    1.4955  -10.2496   23.7499 C   0  0  0  0  0  0  0  0  0  0  0  0
   -1.8664   -9.6743   23.7499 H   0  0  0  0  0  0  0  0  0  0  0  0
    0.2671  -13.4402   23.7499 H   0  0  0  0  0  0  0  0  0  0  0  0
    2.4407  -12.1991   23.7499 H   0  0  0  0  0  0  0  0  0  0  0  0
    0.2910   -8.4497   23.7499 H   0  0  0  0  0  0  0  0  0  0  0  0
    2.4494   -9.7014   23.7499 H   0  0  0  0  0  0  0  0  0  0  0  0
  1  4  1  0  0  0  0
  1  7  1  0  0  0  0
  1  8  1  0  0  0  0
  1  9  1  0  0  0  0
  2  4  2  0  0  0  0
  3  4  1  0  0  0  0
  3  5  2  0  0  0  0
  3  6  1  0  0  0  0
  5 11  1  0  0  0  0
  5 13  1  0  0  0  0
  6 10  2  0  0  0  0
  6 14  1  0  0  0  0
 10 12  1  0  0  0  0
 10 15  1  0  0  0  0
 11 12  2  0  0  0  0
 11 16  1  0  0  0  0
 12 17  1  0  0  0  0
M  END
