./000098-95-3.hin
 OpenBabel09241315583D

 14 14  0  0  0  0  0  0  0  0999 V2000
    9.0796    1.6303    9.9264 N   0  3  0  0  0  0  0  0  0  0  0  0
    9.1011    2.8322    9.9264 O   0  0  0  0  0  0  0  0  0  0  0  0
    8.0494    1.0107    9.9264 O   0  5  0  0  0  0  0  0  0  0  0  0
   10.3551   -0.5175    9.9264 C   0  0  0  0  0  0  0  0  0  0  0  0
   10.3669    0.8870    9.9264 C   0  0  0  0  0  0  0  0  0  0  0  0
   11.5774    1.5995    9.9264 C   0  0  0  0  0  0  0  0  0  0  0  0
   12.7775    0.8921    9.9264 C   0  0  0  0  0  0  0  0  0  0  0  0
   12.7749   -0.5032    9.9264 C   0  0  0  0  0  0  0  0  0  0  0  0
   11.5678   -1.2032    9.9264 C   0  0  0  0  0  0  0  0  0  0  0  0
   13.7284   -1.0538    9.9264 H   0  0  0  0  0  0  0  0  0  0  0  0
   13.7308    1.4426    9.9264 H   0  0  0  0  0  0  0  0  0  0  0  0
   11.5746    2.7029    9.9264 H   0  0  0  0  0  0  0  0  0  0  0  0
    9.3981   -1.0668    9.9264 H   0  0  0  0  0  0  0  0  0  0  0  0
   11.5677   -2.3039    9.9264 H   0  0  0  0  0  0  0  0  0  0  0  0
  1  2  2  0  0  0  0
  1  3  1  0  0  0  0
  1  5  1  0  0  0  0
  4  5  2  0  0  0  0
  4  9  1  0  0  0  0
  4 13  1  0  0  0  0
  5  6  1  0  0  0  0
  6  7  2  0  0  0  0
  6 12  1  0  0  0  0
  7  8  1  0  0  0  0
  7 11  1  0  0  0  0
  8  9  2  0  0  0  0
  8 10  1  0  0  0  0
  9 14  1  0  0  0  0
M  CHG   2   1   1   3  -1
M  END