./000100-37-8.hin
 OpenBabel09241315583D

 23 22  0  0  0  0  0  0  0  0999 V2000
   -2.7869    0.0585    0.0482 C   0  0  0  0  0  0  0  0  0  0  0  0
   -2.7409    1.4920    0.6033 C   0  0  0  0  0  0  0  0  0  0  0  0
   -1.4613   -0.5036   -0.1392 N   0  0  0  0  0  0  0  0  0  0  0  0
   -1.3977   -1.9486    0.0333 C   0  0  0  0  0  0  0  0  0  0  0  0
   -0.3816   -2.3719    1.0860 C   0  0  0  0  0  0  0  0  0  0  0  0
   -0.8103   -0.0249   -1.3488 C   0  0  0  0  0  0  0  0  0  0  0  0
    0.6791   -0.3225   -1.4137 C   0  0  0  0  0  0  0  0  0  0  0  0
   -4.0949    1.8500    0.8393 O   0  0  0  0  0  0  0  0  0  0  0  0
   -3.3619   -0.5644    0.7906 H   0  0  0  0  0  0  0  0  0  0  0  0
   -3.3818    0.0748   -0.9110 H   0  0  0  0  0  0  0  0  0  0  0  0
   -2.1569    1.5334    1.5601 H   0  0  0  0  0  0  0  0  0  0  0  0
   -2.2864    2.2033   -0.1362 H   0  0  0  0  0  0  0  0  0  0  0  0
   -2.4037   -2.3581    0.3390 H   0  0  0  0  0  0  0  0  0  0  0  0
   -1.1292   -2.4544   -0.9408 H   0  0  0  0  0  0  0  0  0  0  0  0
   -0.3792   -3.4860    1.1571 H   0  0  0  0  0  0  0  0  0  0  0  0
    0.6442   -2.0257    0.8129 H   0  0  0  0  0  0  0  0  0  0  0  0
   -0.6408   -1.9484    2.0854 H   0  0  0  0  0  0  0  0  0  0  0  0
   -1.3000   -0.4528   -2.2749 H   0  0  0  0  0  0  0  0  0  0  0  0
   -0.9488    1.0937   -1.3872 H   0  0  0  0  0  0  0  0  0  0  0  0
    1.0995    0.1523   -2.3327 H   0  0  0  0  0  0  0  0  0  0  0  0
    1.2105    0.0882   -0.5220 H   0  0  0  0  0  0  0  0  0  0  0  0
    0.8701   -1.4215   -1.4615 H   0  0  0  0  0  0  0  0  0  0  0  0
   -4.0784    2.7249    1.2430 H   0  0  0  0  0  0  0  0  0  0  0  0
  1  2  1  0  0  0  0
  1  3  1  0  0  0  0
  1  9  1  0  0  0  0
  1 10  1  0  0  0  0
  2  8  1  0  0  0  0
  2 11  1  0  0  0  0
  2 12  1  0  0  0  0
  3  4  1  0  0  0  0
  3  6  1  0  0  0  0
  4  5  1  0  0  0  0
  4 13  1  0  0  0  0
  4 14  1  0  0  0  0
  5 15  1  0  0  0  0
  5 16  1  0  0  0  0
  5 17  1  0  0  0  0
  6  7  1  0  0  0  0
  6 18  1  0  0  0  0
  6 19  1  0  0  0  0
  7 20  1  0  0  0  0
  7 21  1  0  0  0  0
  7 22  1  0  0  0  0
  8 23  1  0  0  0  0
M  END
