./000100-47-0.hin
 OpenBabel09241315583D

 13 13  0  0  0  0  0  0  0  0999 V2000
   -0.2682    6.2577   -0.0000 N   0  0  0  0  0  0  0  0  0  0  0  0
   -0.2682    5.0941   -0.0000 C   0  0  0  0  0  0  0  0  0  0  0  0
   -1.4770    1.5786   -0.0000 C   0  0  0  0  0  0  0  0  0  0  0  0
   -1.4832    2.9722   -0.0000 C   0  0  0  0  0  0  0  0  0  0  0  0
   -0.2682    0.8819   -0.0000 C   0  0  0  0  0  0  0  0  0  0  0  0
    0.9405    1.5786   -0.0000 C   0  0  0  0  0  0  0  0  0  0  0  0
    0.9467    2.9722   -0.0000 C   0  0  0  0  0  0  0  0  0  0  0  0
   -0.2682    3.6726   -0.0000 C   0  0  0  0  0  0  0  0  0  0  0  0
   -2.4298    1.0285   -0.0000 H   0  0  0  0  0  0  0  0  0  0  0  0
   -2.4361    3.5227   -0.0000 H   0  0  0  0  0  0  0  0  0  0  0  0
   -0.2682   -0.2185   -0.0000 H   0  0  0  0  0  0  0  0  0  0  0  0
    1.8934    1.0285   -0.0000 H   0  0  0  0  0  0  0  0  0  0  0  0
    1.8996    3.5227   -0.0000 H   0  0  0  0  0  0  0  0  0  0  0  0
  1  2  3  0  0  0  0
  2  8  1  0  0  0  0
  3  4  2  0  0  0  0
  3  5  1  0  0  0  0
  3  9  1  0  0  0  0
  4  8  1  0  0  0  0
  4 10  1  0  0  0  0
  5  6  2  0  0  0  0
  5 11  1  0  0  0  0
  6  7  1  0  0  0  0
  6 12  1  0  0  0  0
  7  8  2  0  0  0  0
  7 13  1  0  0  0  0
M  END
