./000105-46-4.hin
 OpenBabel09241315583D

 20 19  0  0  1  0  0  0  0  0999 V2000
   -3.9107   -0.1710   -0.7019 C   0  0  0  0  0  0  0  0  0  0  0  0
   -4.7734    0.0845    0.5055 C   0  0  0  0  0  0  0  0  0  0  0  0
   -5.5198    2.2734    0.0021 O   0  0  0  0  0  0  0  0  0  0  0  0
   -6.2652    3.1314   -0.7550 C   0  0  0  0  0  0  0  0  0  0  0  0
   -5.6662    4.4931   -0.8415 C   0  0  0  0  0  0  0  0  0  0  0  0
   -7.3089    2.7243   -1.2705 O   0  0  0  0  0  0  0  0  0  0  0  0
   -6.0018    0.9204    0.1629 C   0  0  2  0  0  0  0  0  0  0  0  0
   -7.0331    0.8855    1.2729 C   0  0  0  0  0  0  0  0  0  0  0  0
   -3.5799    0.7960   -1.1529 H   0  0  0  0  0  0  0  0  0  0  0  0
   -3.0054   -0.7574   -0.4130 H   0  0  0  0  0  0  0  0  0  0  0  0
   -4.4722   -0.7467   -1.4770 H   0  0  0  0  0  0  0  0  0  0  0  0
   -4.1778    0.6156    1.2937 H   0  0  0  0  0  0  0  0  0  0  0  0
   -5.1264   -0.8877    0.9388 H   0  0  0  0  0  0  0  0  0  0  0  0
   -5.6514    4.8166   -1.9107 H   0  0  0  0  0  0  0  0  0  0  0  0
   -6.3001    5.2019   -0.2539 H   0  0  0  0  0  0  0  0  0  0  0  0
   -4.6277    4.5007   -0.4317 H   0  0  0  0  0  0  0  0  0  0  0  0
   -6.4605    0.5792   -0.8069 H   0  0  0  0  0  0  0  0  0  0  0  0
   -7.4077   -0.1568    1.4064 H   0  0  0  0  0  0  0  0  0  0  0  0
   -6.5875    1.2378    2.2333 H   0  0  0  0  0  0  0  0  0  0  0  0
   -7.8920    1.5491    1.0090 H   0  0  0  0  0  0  0  0  0  0  0  0
  1  2  1  0  0  0  0
  1  9  1  0  0  0  0
  1 10  1  0  0  0  0
  1 11  1  0  0  0  0
  2  7  1  0  0  0  0
  2 12  1  0  0  0  0
  2 13  1  0  0  0  0
  3  4  1  0  0  0  0
  3  7  1  0  0  0  0
  4  5  1  0  0  0  0
  4  6  2  0  0  0  0
  5 14  1  0  0  0  0
  5 15  1  0  0  0  0
  5 16  1  0  0  0  0
  7  8  1  0  0  0  0
  7 17  1  6  0  0  0
  8 18  1  0  0  0  0
  8 19  1  0  0  0  0
  8 20  1  0  0  0  0
M  END
