./000105-54-4.hin
 OpenBabel09241315583D

 20 19  0  0  0  0  0  0  0  0999 V2000
    1.0965    2.6155   29.4860 C   0  0  0  0  0  0  0  0  0  0  0  0
    0.9042    4.0995   29.4845 C   0  0  0  0  0  0  0  0  0  0  0  0
    2.2108    4.8250   29.2438 C   0  0  0  0  0  0  0  0  0  0  0  0
    2.0980    1.9557   29.2016 O   0  0  0  0  0  0  0  0  0  0  0  0
   -0.0360    1.9438   29.8589 O   0  0  0  0  0  0  0  0  0  0  0  0
    0.0455    0.5077   29.8819 C   0  0  0  0  0  0  0  0  0  0  0  0
   -1.3184    0.0126   30.2969 C   0  0  0  0  0  0  0  0  0  0  0  0
    0.3302    0.1468   28.8592 H   0  0  0  0  0  0  0  0  0  0  0  0
    0.8420    0.2057   30.6111 H   0  0  0  0  0  0  0  0  0  0  0  0
    0.4579    4.4055   30.4678 H   0  0  0  0  0  0  0  0  0  0  0  0
    0.1598    4.3531   28.6828 H   0  0  0  0  0  0  0  0  0  0  0  0
    2.0020    6.3162   29.2025 C   0  0  0  0  0  0  0  0  0  0  0  0
    2.9382    4.5608   30.0564 H   0  0  0  0  0  0  0  0  0  0  0  0
    2.6599    4.4708   28.2781 H   0  0  0  0  0  0  0  0  0  0  0  0
    2.9754    6.8346   29.0263 H   0  0  0  0  0  0  0  0  0  0  0  0
    1.2998    6.5956   28.3801 H   0  0  0  0  0  0  0  0  0  0  0  0
    1.5761    6.6839   30.1674 H   0  0  0  0  0  0  0  0  0  0  0  0
   -1.3044   -1.1028   30.3329 H   0  0  0  0  0  0  0  0  0  0  0  0
   -1.5900    0.4084   31.3046 H   0  0  0  0  0  0  0  0  0  0  0  0
   -2.0954    0.3458   29.5682 H   0  0  0  0  0  0  0  0  0  0  0  0
  1  2  1  0  0  0  0
  1  4  2  0  0  0  0
  1  5  1  0  0  0  0
  2  3  1  0  0  0  0
  2 10  1  0  0  0  0
  2 11  1  0  0  0  0
  3 12  1  0  0  0  0
  3 13  1  0  0  0  0
  3 14  1  0  0  0  0
  5  6  1  0  0  0  0
  6  7  1  0  0  0  0
  6  8  1  0  0  0  0
  6  9  1  0  0  0  0
  7 18  1  0  0  0  0
  7 19  1  0  0  0  0
  7 20  1  0  0  0  0
 12 15  1  0  0  0  0
 12 16  1  0  0  0  0
 12 17  1  0  0  0  0
M  END
