./000105-66-8.hin
 OpenBabel09241315583D

 23 22  0  0  0  0  0  0  0  0999 V2000
    1.6932    2.7429   29.0540 C   0  0  0  0  0  0  0  0  0  0  0  0
    1.4195    4.2140   29.0691 C   0  0  0  0  0  0  0  0  0  0  0  0
    2.6616    5.0096   28.7290 C   0  0  0  0  0  0  0  0  0  0  0  0
    2.7213    2.1410   28.7380 O   0  0  0  0  0  0  0  0  0  0  0  0
    0.6102    2.0080   29.4544 O   0  0  0  0  0  0  0  0  0  0  0  0
    0.7723    0.5794   29.4677 C   0  0  0  0  0  0  0  0  0  0  0  0
   -0.5568    0.0089   29.9259 C   0  0  0  0  0  0  0  0  0  0  0  0
    1.0410    0.2350   28.4354 H   0  0  0  0  0  0  0  0  0  0  0  0
    1.6046    0.3165   30.1710 H   0  0  0  0  0  0  0  0  0  0  0  0
    1.0362    4.4960   30.0858 H   0  0  0  0  0  0  0  0  0  0  0  0
    0.6014    4.4256   28.3298 H   0  0  0  0  0  0  0  0  0  0  0  0
    2.3716    6.4877   28.7212 C   0  0  0  0  0  0  0  0  0  0  0  0
    3.4671    4.7792   29.4756 H   0  0  0  0  0  0  0  0  0  0  0  0
    3.0468    4.6864   27.7256 H   0  0  0  0  0  0  0  0  0  0  0  0
    3.2980    7.0587   28.4699 H   0  0  0  0  0  0  0  0  0  0  0  0
    1.5890    6.7343   27.9633 H   0  0  0  0  0  0  0  0  0  0  0  0
    2.0093    6.8261   29.7222 H   0  0  0  0  0  0  0  0  0  0  0  0
   -0.4922   -1.4950   29.9770 C   0  0  0  0  0  0  0  0  0  0  0  0
   -0.8091    0.4219   30.9375 H   0  0  0  0  0  0  0  0  0  0  0  0
   -1.3650    0.3398   29.2225 H   0  0  0  0  0  0  0  0  0  0  0  0
   -1.4732   -1.9089   30.3137 H   0  0  0  0  0  0  0  0  0  0  0  0
   -0.2583   -1.9160   28.9692 H   0  0  0  0  0  0  0  0  0  0  0  0
    0.2977   -1.8336   30.6905 H   0  0  0  0  0  0  0  0  0  0  0  0
  1  2  1  0  0  0  0
  1  4  2  0  0  0  0
  1  5  1  0  0  0  0
  2  3  1  0  0  0  0
  2 10  1  0  0  0  0
  2 11  1  0  0  0  0
  3 12  1  0  0  0  0
  3 13  1  0  0  0  0
  3 14  1  0  0  0  0
  5  6  1  0  0  0  0
  6  7  1  0  0  0  0
  6  8  1  0  0  0  0
  6  9  1  0  0  0  0
  7 18  1  0  0  0  0
  7 19  1  0  0  0  0
  7 20  1  0  0  0  0
 12 15  1  0  0  0  0
 12 16  1  0  0  0  0
 12 17  1  0  0  0  0
 18 21  1  0  0  0  0
 18 22  1  0  0  0  0
 18 23  1  0  0  0  0
M  END
