./000105-67-9.hin
 OpenBabel09241315583D

 19 19  0  0  0  0  0  0  0  0999 V2000
   -1.2764    1.4287   -0.0527 C   0  0  0  0  0  0  0  0  0  0  0  0
   -1.3902    2.0389   -0.9837 H   0  0  0  0  0  0  0  0  0  0  0  0
   -1.2958    2.1240    0.8235 H   0  0  0  0  0  0  0  0  0  0  0  0
   -2.1529    0.7400    0.0251 H   0  0  0  0  0  0  0  0  0  0  0  0
    0.0052   -0.7203   -0.1409 C   0  0  0  0  0  0  0  0  0  0  0  0
    1.2084   -1.4206   -0.1772 C   0  0  0  0  0  0  0  0  0  0  0  0
    2.4175   -0.7150   -0.1594 C   0  0  0  0  0  0  0  0  0  0  0  0
    2.4358    0.6951   -0.1049 C   0  0  0  0  0  0  0  0  0  0  0  0
    1.2159    1.3695   -0.0693 C   0  0  0  0  0  0  0  0  0  0  0  0
   -0.0013    0.6762   -0.0870 C   0  0  0  0  0  0  0  0  0  0  0  0
   -0.9455   -1.2743   -0.1546 H   0  0  0  0  0  0  0  0  0  0  0  0
    1.2101   -2.5188   -0.2194 H   0  0  0  0  0  0  0  0  0  0  0  0
    3.6409   -1.3482   -0.1932 O   0  0  0  0  0  0  0  0  0  0  0  0
    3.7246    1.4204   -0.0866 C   0  0  0  0  0  0  0  0  0  0  0  0
    3.4790   -2.3020   -0.2286 H   0  0  0  0  0  0  0  0  0  0  0  0
    3.5702    2.5255   -0.0420 H   0  0  0  0  0  0  0  0  0  0  0  0
    4.3288    1.1033    0.8006 H   0  0  0  0  0  0  0  0  0  0  0  0
    4.3145    1.1742   -1.0053 H   0  0  0  0  0  0  0  0  0  0  0  0
    1.2089    2.4698   -0.0262 H   0  0  0  0  0  0  0  0  0  0  0  0
  1  2  1  0  0  0  0
  1  3  1  0  0  0  0
  1  4  1  0  0  0  0
  1 10  1  0  0  0  0
  5  6  2  0  0  0  0
  5 10  1  0  0  0  0
  5 11  1  0  0  0  0
  6  7  1  0  0  0  0
  6 12  1  0  0  0  0
  7  8  2  0  0  0  0
  7 13  1  0  0  0  0
  8  9  1  0  0  0  0
  8 14  1  0  0  0  0
  9 10  2  0  0  0  0
  9 19  1  0  0  0  0
 13 15  1  0  0  0  0
 14 16  1  0  0  0  0
 14 17  1  0  0  0  0
 14 18  1  0  0  0  0
M  END
