./000106-46-7.hin
 OpenBabel09241315583D

 12 12  0  0  0  0  0  0  0  0999 V2000
   -1.1525   -0.4145    0.0000 C   0  0  0  0  0  0  0  0  0  0  0  0
   -1.1525    0.9787    0.0000 C   0  0  0  0  0  0  0  0  0  0  0  0
    0.0623   -1.1078   -0.0000 C   0  0  0  0  0  0  0  0  0  0  0  0
    1.2770   -0.4145   -0.0000 C   0  0  0  0  0  0  0  0  0  0  0  0
    1.2770    0.9787   -0.0000 C   0  0  0  0  0  0  0  0  0  0  0  0
    0.0623    1.6720   -0.0000 C   0  0  0  0  0  0  0  0  0  0  0  0
   -2.1069   -0.9630    0.0000 H   0  0  0  0  0  0  0  0  0  0  0  0
   -2.1069    1.5272    0.0000 H   0  0  0  0  0  0  0  0  0  0  0  0
    0.0623   -2.8069    0.0000 Cl  0  0  0  0  0  0  0  0  0  0  0  0
    2.2315   -0.9630   -0.0000 H   0  0  0  0  0  0  0  0  0  0  0  0
    2.2315    1.5272   -0.0000 H   0  0  0  0  0  0  0  0  0  0  0  0
    0.0623    3.3711   -0.0000 Cl  0  0  0  0  0  0  0  0  0  0  0  0
  1  2  2  0  0  0  0
  1  3  1  0  0  0  0
  1  7  1  0  0  0  0
  2  6  1  0  0  0  0
  2  8  1  0  0  0  0
  3  4  2  0  0  0  0
  3  9  1  0  0  0  0
  4  5  1  0  0  0  0
  4 10  1  0  0  0  0
  5  6  2  0  0  0  0
  5 11  1  0  0  0  0
  6 12  1  0  0  0  0
M  END
