./000106-88-7.hin
 OpenBabel09241315583D

 13 13  0  0  1  0  0  0  0  0999 V2000
   -0.6146   -0.3428    0.5071 C   0  0  2  0  0  0  0  0  0  0  0  0
    0.5240    0.6123    0.4389 C   0  0  0  0  0  0  0  0  0  0  0  0
   -0.8569   -0.8455    1.4651 H   0  0  0  0  0  0  0  0  0  0  0  0
   -1.0904   -1.0615   -0.7188 C   0  0  0  0  0  0  0  0  0  0  0  0
    1.0174    0.8320   -0.5253 H   0  0  0  0  0  0  0  0  0  0  0  0
   -0.8273    1.0822    0.5353 O   0  0  0  0  0  0  0  0  0  0  0  0
    1.1458    0.8152    1.3296 H   0  0  0  0  0  0  0  0  0  0  0  0
   -0.3726   -1.8966   -0.9370 H   0  0  0  0  0  0  0  0  0  0  0  0
   -2.4802   -1.6159   -0.5346 C   0  0  0  0  0  0  0  0  0  0  0  0
   -1.0761   -0.3619   -1.5966 H   0  0  0  0  0  0  0  0  0  0  0  0
   -2.8120   -2.1370   -1.4648 H   0  0  0  0  0  0  0  0  0  0  0  0
   -2.5069   -2.3470    0.3092 H   0  0  0  0  0  0  0  0  0  0  0  0
   -3.2021   -0.7936   -0.3107 H   0  0  0  0  0  0  0  0  0  0  0  0
  1  2  1  0  0  0  0
  1  3  1  1  0  0  0
  1  4  1  0  0  0  0
  1  6  1  0  0  0  0
  2  5  1  0  0  0  0
  2  6  1  0  0  0  0
  2  7  1  0  0  0  0
  4  8  1  0  0  0  0
  4  9  1  0  0  0  0
  4 10  1  0  0  0  0
  9 11  1  0  0  0  0
  9 12  1  0  0  0  0
  9 13  1  0  0  0  0
M  END
