./000106-89-8.hin
 OpenBabel09241315583D

 10 10  0  0  1  0  0  0  0  0999 V2000
   -0.8824   -0.2949   -1.1302 O   0  0  0  0  0  0  0  0  0  0  0  0
    0.5206    0.0048   -1.1366 C   0  0  0  0  0  0  0  0  0  0  0  0
   -0.4948    1.0898   -1.0572 C   0  0  2  0  0  0  0  0  0  0  0  0
   -0.8117    1.7610    0.2419 C   0  0  0  0  0  0  0  0  0  0  0  0
    0.1159    3.2367    0.4198 Cl  0  0  0  0  0  0  0  0  0  0  0  0
    1.0344   -0.2138   -2.0904 H   0  0  0  0  0  0  0  0  0  0  0  0
    1.0646   -0.3252   -0.2326 H   0  0  0  0  0  0  0  0  0  0  0  0
   -0.7495    1.6796   -1.9609 H   0  0  0  0  0  0  0  0  0  0  0  0
   -0.5653    1.1058    1.1125 H   0  0  0  0  0  0  0  0  0  0  0  0
   -1.8919    2.0447    0.2810 H   0  0  0  0  0  0  0  0  0  0  0  0
  1  2  1  0  0  0  0
  1  3  1  0  0  0  0
  2  3  1  0  0  0  0
  2  6  1  0  0  0  0
  2  7  1  0  0  0  0
  3  4  1  0  0  0  0
  3  8  1  6  0  0  0
  4  5  1  0  0  0  0
  4  9  1  0  0  0  0
  4 10  1  0  0  0  0
M  END
