./000106-93-4.hin
 OpenBabel09241315583D

  8  7  0  0  0  0  0  0  0  0999 V2000
   -0.4704    0.3487   -0.0000 Br  0  0  0  0  0  0  0  0  0  0  0  0
    1.0718    4.7163   -0.0000 Br  0  0  0  0  0  0  0  0  0  0  0  0
    1.0056    2.7893    0.0000 C   0  0  0  0  0  0  0  0  0  0  0  0
   -0.4041    2.2757    0.0000 C   0  0  0  0  0  0  0  0  0  0  0  0
    1.5604    2.4563    0.9092 H   0  0  0  0  0  0  0  0  0  0  0  0
    1.5604    2.4563   -0.9092 H   0  0  0  0  0  0  0  0  0  0  0  0
   -0.9589    2.6087    0.9092 H   0  0  0  0  0  0  0  0  0  0  0  0
   -0.9589    2.6087   -0.9092 H   0  0  0  0  0  0  0  0  0  0  0  0
  1  4  1  0  0  0  0
  2  3  1  0  0  0  0
  3  4  1  0  0  0  0
  3  5  1  0  0  0  0
  3  6  1  0  0  0  0
  4  7  1  0  0  0  0
  4  8  1  0  0  0  0
M  END
