./000106-97-8.hin
 OpenBabel09241315583D

 14 13  0  0  0  0  0  0  0  0999 V2000
   -0.2637   -0.6483    0.0000 C   0  0  0  0  0  0  0  0  0  0  0  0
   -0.2789    0.8583    0.0000 C   0  0  0  0  0  0  0  0  0  0  0  0
    0.7870   -1.0264    0.0000 H   0  0  0  0  0  0  0  0  0  0  0  0
   -0.7823   -1.0480    0.9049 H   0  0  0  0  0  0  0  0  0  0  0  0
   -0.7823   -1.0480   -0.9049 H   0  0  0  0  0  0  0  0  0  0  0  0
   -1.6924    1.4017   -0.0000 C   0  0  0  0  0  0  0  0  0  0  0  0
    0.2673    1.2411    0.9024 H   0  0  0  0  0  0  0  0  0  0  0  0
    0.2673    1.2411   -0.9024 H   0  0  0  0  0  0  0  0  0  0  0  0
   -1.7076    2.9083    0.0000 C   0  0  0  0  0  0  0  0  0  0  0  0
   -2.2386    1.0189   -0.9024 H   0  0  0  0  0  0  0  0  0  0  0  0
   -2.2386    1.0189    0.9024 H   0  0  0  0  0  0  0  0  0  0  0  0
   -2.7583    3.2864   -0.0000 H   0  0  0  0  0  0  0  0  0  0  0  0
   -1.1890    3.3080    0.9049 H   0  0  0  0  0  0  0  0  0  0  0  0
   -1.1890    3.3080   -0.9049 H   0  0  0  0  0  0  0  0  0  0  0  0
  1  2  1  0  0  0  0
  1  3  1  0  0  0  0
  1  4  1  0  0  0  0
  1  5  1  0  0  0  0
  2  6  1  0  0  0  0
  2  7  1  0  0  0  0
  2  8  1  0  0  0  0
  6  9  1  0  0  0  0
  6 10  1  0  0  0  0
  6 11  1  0  0  0  0
  9 12  1  0  0  0  0
  9 13  1  0  0  0  0
  9 14  1  0  0  0  0
M  END
