./000107-02-8.hin
 OpenBabel09241315583D

  8  7  0  0  0  0  0  0  0  0999 V2000
   -2.7085    2.8487   -3.5043 C   0  0  0  0  0  0  0  0  0  0  0  0
   -2.7175    4.1812   -3.5043 C   0  0  0  0  0  0  0  0  0  0  0  0
   -1.4637    2.0664   -3.5043 C   0  0  0  0  0  0  0  0  0  0  0  0
   -3.6513    4.7603   -3.5043 H   0  0  0  0  0  0  0  0  0  0  0  0
   -1.7978    4.7837   -3.5043 H   0  0  0  0  0  0  0  0  0  0  0  0
   -1.4482    0.8337   -3.5043 O   0  0  0  0  0  0  0  0  0  0  0  0
   -3.6402    2.2577   -3.5043 H   0  0  0  0  0  0  0  0  0  0  0  0
   -0.5186    2.6570   -3.5043 H   0  0  0  0  0  0  0  0  0  0  0  0
  1  2  2  0  0  0  0
  1  3  1  0  0  0  0
  1  7  1  0  0  0  0
  2  4  1  0  0  0  0
  2  5  1  0  0  0  0
  3  6  2  0  0  0  0
  3  8  1  0  0  0  0
M  END
