./000107-06-2.hin
 OpenBabel09241315583D

  8  7  0  0  0  0  0  0  0  0999 V2000
   -2.9899    0.3707   -0.0058 C   0  0  0  0  0  0  0  0  0  0  0  0
   -1.5558   -0.0899   -0.0744 C   0  0  0  0  0  0  0  0  0  0  0  0
   -0.4676    1.2812    0.0400 Cl  0  0  0  0  0  0  0  0  0  0  0  0
   -3.2402    1.0547   -0.8527 H   0  0  0  0  0  0  0  0  0  0  0  0
   -3.2097    0.8790    0.9643 H   0  0  0  0  0  0  0  0  0  0  0  0
   -4.0781   -1.0004   -0.1201 Cl  0  0  0  0  0  0  0  0  0  0  0  0
   -1.3360   -0.5981   -1.0445 H   0  0  0  0  0  0  0  0  0  0  0  0
   -1.3055   -0.7739    0.7724 H   0  0  0  0  0  0  0  0  0  0  0  0
  1  2  1  0  0  0  0
  1  4  1  0  0  0  0
  1  5  1  0  0  0  0
  1  6  1  0  0  0  0
  2  3  1  0  0  0  0
  2  7  1  0  0  0  0
  2  8  1  0  0  0  0
M  END
