./000107-07-3.hin
 OpenBabel09241315583D

  9  8  0  0  0  0  0  0  0  0999 V2000
   -1.9966   -0.3282    0.5771 C   0  0  0  0  0  0  0  0  0  0  0  0
   -1.7935    1.1740    0.6331 C   0  0  0  0  0  0  0  0  0  0  0  0
   -2.9911    1.8681    0.9107 O   0  0  0  0  0  0  0  0  0  0  0  0
   -1.0135   -0.8551    0.5847 H   0  0  0  0  0  0  0  0  0  0  0  0
   -2.6268   -0.6737    1.4314 H   0  0  0  0  0  0  0  0  0  0  0  0
   -2.8244   -0.8260   -0.8896 Cl  0  0  0  0  0  0  0  0  0  0  0  0
   -1.1175    1.4267    1.4965 H   0  0  0  0  0  0  0  0  0  0  0  0
   -1.3355    1.5502   -0.3208 H   0  0  0  0  0  0  0  0  0  0  0  0
   -3.6054    1.6834    0.1886 H   0  0  0  0  0  0  0  0  0  0  0  0
  1  2  1  0  0  0  0
  1  4  1  0  0  0  0
  1  5  1  0  0  0  0
  1  6  1  0  0  0  0
  2  3  1  0  0  0  0
  2  7  1  0  0  0  0
  2  8  1  0  0  0  0
  3  9  1  0  0  0  0
M  END
