./000107-25-5.hin
 OpenBabel09241315583D

 10  9  0  0  0  0  0  0  0  0999 V2000
    6.2539   -8.3555    8.4026 C   0  0  0  0  0  0  0  0  0  0  0  0
    8.9229   -6.0846    9.1831 C   0  0  0  0  0  0  0  0  0  0  0  0
    7.7643   -6.5799    8.7377 C   0  0  0  0  0  0  0  0  0  0  0  0
    7.5138   -7.9331    8.9122 O   0  0  0  0  0  0  0  0  0  0  0  0
    9.1636   -5.0225    9.0672 H   0  0  0  0  0  0  0  0  0  0  0  0
    6.9798   -5.9949    8.2360 H   0  0  0  0  0  0  0  0  0  0  0  0
    6.2255   -9.4510    8.6271 H   0  0  0  0  0  0  0  0  0  0  0  0
    5.4208   -7.8246    8.9241 H   0  0  0  0  0  0  0  0  0  0  0  0
    6.1954   -8.1773    7.3013 H   0  0  0  0  0  0  0  0  0  0  0  0
    9.6782   -6.7051    9.6785 H   0  0  0  0  0  0  0  0  0  0  0  0
  1  4  1  0  0  0  0
  1  7  1  0  0  0  0
  1  8  1  0  0  0  0
  1  9  1  0  0  0  0
  2  3  2  0  0  0  0
  2  5  1  0  0  0  0
  2 10  1  0  0  0  0
  3  4  1  0  0  0  0
  3  6  1  0  0  0  0
M  END
