./000107-87-9.hin
 OpenBabel09241315583D

 16 15  0  0  0  0  0  0  0  0999 V2000
   -2.7865  -15.6102   25.0129 C   0  0  0  0  0  0  0  0  0  0  0  0
   -2.8832  -14.1005   25.0129 C   0  0  0  0  0  0  0  0  0  0  0  0
   -1.3522  -16.0696   25.0129 C   0  0  0  0  0  0  0  0  0  0  0  0
   -4.3018  -13.6070   25.0129 C   0  0  0  0  0  0  0  0  0  0  0  0
   -2.3641  -13.6840   25.9172 H   0  0  0  0  0  0  0  0  0  0  0  0
   -2.3641  -13.6840   24.1085 H   0  0  0  0  0  0  0  0  0  0  0  0
   -3.3205  -16.0145   25.9133 H   0  0  0  0  0  0  0  0  0  0  0  0
   -3.3205  -16.0145   24.1124 H   0  0  0  0  0  0  0  0  0  0  0  0
   -4.4480  -12.1178   25.0129 C   0  0  0  0  0  0  0  0  0  0  0  0
   -5.2792  -14.3616   25.0129 O   0  0  0  0  0  0  0  0  0  0  0  0
   -5.5258  -11.8246   25.0129 H   0  0  0  0  0  0  0  0  0  0  0  0
   -3.9564  -11.6902   25.9202 H   0  0  0  0  0  0  0  0  0  0  0  0
   -1.3055  -17.1855   25.0129 H   0  0  0  0  0  0  0  0  0  0  0  0
   -0.8159  -15.6946   24.1077 H   0  0  0  0  0  0  0  0  0  0  0  0
   -0.8159  -15.6946   25.9180 H   0  0  0  0  0  0  0  0  0  0  0  0
   -3.9564  -11.6902   24.1056 H   0  0  0  0  0  0  0  0  0  0  0  0
  1  2  1  0  0  0  0
  1  3  1  0  0  0  0
  1  7  1  0  0  0  0
  1  8  1  0  0  0  0
  2  4  1  0  0  0  0
  2  5  1  0  0  0  0
  2  6  1  0  0  0  0
  3 13  1  0  0  0  0
  3 14  1  0  0  0  0
  3 15  1  0  0  0  0
  4  9  1  0  0  0  0
  4 10  2  0  0  0  0
  9 11  1  0  0  0  0
  9 12  1  0  0  0  0
  9 16  1  0  0  0  0
M  END
