./000108-01-0.hin
 OpenBabel09241315583D

 17 16  0  0  0  0  0  0  0  0999 V2000
   -0.6605    3.0584   -3.4270 N   0  0  0  0  0  0  0  0  0  0  0  0
    0.6626    2.5643   -3.1188 C   0  0  0  0  0  0  0  0  0  0  0  0
   -1.2350    2.4316   -4.5955 C   0  0  0  0  0  0  0  0  0  0  0  0
    0.9888    2.9834   -2.1311 H   0  0  0  0  0  0  0  0  0  0  0  0
    0.6205    1.4465   -3.0375 H   0  0  0  0  0  0  0  0  0  0  0  0
    1.4307    2.8363   -3.8941 H   0  0  0  0  0  0  0  0  0  0  0  0
   -2.2890    2.7921   -4.7228 H   0  0  0  0  0  0  0  0  0  0  0  0
   -0.6675    2.6515   -5.5418 H   0  0  0  0  0  0  0  0  0  0  0  0
   -1.2511    1.3210   -4.4404 H   0  0  0  0  0  0  0  0  0  0  0  0
   -0.7223    4.5119   -3.4682 C   0  0  0  0  0  0  0  0  0  0  0  0
   -2.1240    5.0465   -3.1375 C   0  0  0  0  0  0  0  0  0  0  0  0
   -1.9967    6.4608   -3.1187 O   0  0  0  0  0  0  0  0  0  0  0  0
   -0.0094    4.9357   -2.7057 H   0  0  0  0  0  0  0  0  0  0  0  0
   -0.4191    4.9214   -4.4753 H   0  0  0  0  0  0  0  0  0  0  0  0
   -2.8699    4.7447   -3.9200 H   0  0  0  0  0  0  0  0  0  0  0  0
   -2.4698    4.6754   -2.1369 H   0  0  0  0  0  0  0  0  0  0  0  0
   -2.8567    6.8077   -2.8564 H   0  0  0  0  0  0  0  0  0  0  0  0
  1  2  1  0  0  0  0
  1  3  1  0  0  0  0
  1 10  1  0  0  0  0
  2  4  1  0  0  0  0
  2  5  1  0  0  0  0
  2  6  1  0  0  0  0
  3  7  1  0  0  0  0
  3  8  1  0  0  0  0
  3  9  1  0  0  0  0
 10 11  1  0  0  0  0
 10 13  1  0  0  0  0
 10 14  1  0  0  0  0
 11 12  1  0  0  0  0
 11 15  1  0  0  0  0
 11 16  1  0  0  0  0
 12 17  1  0  0  0  0
M  END
