./000108-03-2.hin
 OpenBabel09241315583D

 13 12  0  0  0  0  0  0  0  0999 V2000
    3.7162    0.2050   -0.0000 O   0  0  0  0  0  0  0  0  0  0  0  0
    4.6687    3.7152   -0.0000 C   0  0  0  0  0  0  0  0  0  0  0  0
    4.8983    2.2149   -0.0000 C   0  0  0  0  0  0  0  0  0  0  0  0
    3.6186    1.4026   -0.0000 N   0  3  0  0  0  0  0  0  0  0  0  0
    2.5570    1.9612   -0.0000 O   0  5  0  0  0  0  0  0  0  0  0  0
    5.9936    4.4335    0.0000 C   0  0  0  0  0  0  0  0  0  0  0  0
    4.0685    4.0093   -0.9018 H   0  0  0  0  0  0  0  0  0  0  0  0
    4.0685    4.0093    0.9018 H   0  0  0  0  0  0  0  0  0  0  0  0
    5.4676    1.8942   -0.9152 H   0  0  0  0  0  0  0  0  0  0  0  0
    5.4676    1.8942    0.9152 H   0  0  0  0  0  0  0  0  0  0  0  0
    5.8234    5.5376   -0.0000 H   0  0  0  0  0  0  0  0  0  0  0  0
    6.5909    4.1691    0.9061 H   0  0  0  0  0  0  0  0  0  0  0  0
    6.5909    4.1691   -0.9061 H   0  0  0  0  0  0  0  0  0  0  0  0
  1  4  2  0  0  0  0
  2  3  1  0  0  0  0
  2  6  1  0  0  0  0
  2  7  1  0  0  0  0
  2  8  1  0  0  0  0
  3  4  1  0  0  0  0
  3  9  1  0  0  0  0
  3 10  1  0  0  0  0
  4  5  1  0  0  0  0
  6 11  1  0  0  0  0
  6 12  1  0  0  0  0
  6 13  1  0  0  0  0
M  CHG   2   4   1   5  -1
M  END
