./000108-08-7.hin
 OpenBabel09241315583D

 23 22  0  0  0  0  0  0  0  0999 V2000
  -30.4187    2.6688   40.6534 C   0  0  0  0  0  0  0  0  0  0  0  0
  -29.3123    6.5960   42.1041 C   0  0  0  0  0  0  0  0  0  0  0  0
  -30.3824    4.1477   40.3239 C   0  0  0  0  0  0  0  0  0  0  0  0
  -28.9301    6.2015   40.6924 C   0  0  0  0  0  0  0  0  0  0  0  0
  -28.9719    4.6907   40.5081 C   0  0  0  0  0  0  0  0  0  0  0  0
  -28.3551    4.4085   39.6140 H   0  0  0  0  0  0  0  0  0  0  0  0
  -28.5003    4.2032   41.4023 H   0  0  0  0  0  0  0  0  0  0  0  0
  -27.5479    6.7287   40.3628 C   0  0  0  0  0  0  0  0  0  0  0  0
  -29.6667    6.6718   39.9807 H   0  0  0  0  0  0  0  0  0  0  0  0
  -31.0713    4.6854   41.0356 H   0  0  0  0  0  0  0  0  0  0  0  0
  -30.8817    4.3765   38.9122 C   0  0  0  0  0  0  0  0  0  0  0  0
  -29.3111    7.7079   42.2076 H   0  0  0  0  0  0  0  0  0  0  0  0
  -30.3320    6.2184   42.3568 H   0  0  0  0  0  0  0  0  0  0  0  0
  -28.5867    6.1728   42.8401 H   0  0  0  0  0  0  0  0  0  0  0  0
  -31.4464    2.2619   40.4954 H   0  0  0  0  0  0  0  0  0  0  0  0
  -29.7106    2.1049   39.9997 H   0  0  0  0  0  0  0  0  0  0  0  0
  -30.1295    2.4979   41.7182 H   0  0  0  0  0  0  0  0  0  0  0  0
  -27.5068    7.8333   40.5208 H   0  0  0  0  0  0  0  0  0  0  0  0
  -26.7802    6.2491   41.0166 H   0  0  0  0  0  0  0  0  0  0  0  0
  -27.2904    6.5130   39.2981 H   0  0  0  0  0  0  0  0  0  0  0  0
  -31.9296    4.0047   38.8087 H   0  0  0  0  0  0  0  0  0  0  0  0
  -30.8656    5.4637   38.6594 H   0  0  0  0  0  0  0  0  0  0  0  0
  -30.2409    3.8335   38.1762 H   0  0  0  0  0  0  0  0  0  0  0  0
  1  3  1  0  0  0  0
  1 15  1  0  0  0  0
  1 16  1  0  0  0  0
  1 17  1  0  0  0  0
  2  4  1  0  0  0  0
  2 12  1  0  0  0  0
  2 13  1  0  0  0  0
  2 14  1  0  0  0  0
  3  5  1  0  0  0  0
  3 10  1  0  0  0  0
  3 11  1  0  0  0  0
  4  5  1  0  0  0  0
  4  8  1  0  0  0  0
  4  9  1  0  0  0  0
  5  6  1  0  0  0  0
  5  7  1  0  0  0  0
  8 18  1  0  0  0  0
  8 19  1  0  0  0  0
  8 20  1  0  0  0  0
 11 21  1  0  0  0  0
 11 22  1  0  0  0  0
 11 23  1  0  0  0  0
M  END
