./000108-38-3.hin
 OpenBabel09241315583D

 18 18  0  0  0  0  0  0  0  0999 V2000
   -6.2302    6.5959   44.5421 C   0  0  0  0  0  0  0  0  0  0  0  0
   -6.2312    7.9971   44.5421 C   0  0  0  0  0  0  0  0  0  0  0  0
   -5.0140    8.6828   44.5421 C   0  0  0  0  0  0  0  0  0  0  0  0
   -3.8004    7.9842   44.5421 C   0  0  0  0  0  0  0  0  0  0  0  0
   -3.8133    6.5859   44.5421 C   0  0  0  0  0  0  0  0  0  0  0  0
   -5.0261    5.8972   44.5421 C   0  0  0  0  0  0  0  0  0  0  0  0
   -7.1857    6.0514   44.5421 H   0  0  0  0  0  0  0  0  0  0  0  0
   -7.5164    8.7334   44.5421 C   0  0  0  0  0  0  0  0  0  0  0  0
   -2.5216    8.7318   44.5421 C   0  0  0  0  0  0  0  0  0  0  0  0
   -2.8654    6.0281   44.5421 H   0  0  0  0  0  0  0  0  0  0  0  0
   -5.0302    4.7972   44.5421 H   0  0  0  0  0  0  0  0  0  0  0  0
   -1.6450    8.0389   44.5421 H   0  0  0  0  0  0  0  0  0  0  0  0
   -2.4546    9.3849   43.6362 H   0  0  0  0  0  0  0  0  0  0  0  0
   -2.4546    9.3849   45.4479 H   0  0  0  0  0  0  0  0  0  0  0  0
   -5.0042    9.7831   44.5421 H   0  0  0  0  0  0  0  0  0  0  0  0
   -7.3532    9.8388   44.5421 H   0  0  0  0  0  0  0  0  0  0  0  0
   -8.1160    8.4657   43.6362 H   0  0  0  0  0  0  0  0  0  0  0  0
   -8.1160    8.4657   45.4479 H   0  0  0  0  0  0  0  0  0  0  0  0
  1  2  2  0  0  0  0
  1  6  1  0  0  0  0
  1  7  1  0  0  0  0
  2  3  1  0  0  0  0
  2  8  1  0  0  0  0
  3  4  2  0  0  0  0
  3 15  1  0  0  0  0
  4  5  1  0  0  0  0
  4  9  1  0  0  0  0
  5  6  2  0  0  0  0
  5 10  1  0  0  0  0
  6 11  1  0  0  0  0
  8 16  1  0  0  0  0
  8 17  1  0  0  0  0
  8 18  1  0  0  0  0
  9 12  1  0  0  0  0
  9 13  1  0  0  0  0
  9 14  1  0  0  0  0
M  END
