./000108-39-4.hin
 OpenBabel09241315583D

 16 16  0  0  0  0  0  0  0  0999 V2000
   -2.1296   -0.4174   -0.0000 C   0  0  0  0  0  0  0  0  0  0  0  0
   -0.9101   -1.0929   -0.0000 C   0  0  0  0  0  0  0  0  0  0  0  0
    0.2891   -0.3866    0.0000 C   0  0  0  0  0  0  0  0  0  0  0  0
    0.2872    1.0160    0.0000 C   0  0  0  0  0  0  0  0  0  0  0  0
   -2.1278    0.9837   -0.0000 C   0  0  0  0  0  0  0  0  0  0  0  0
   -0.9245    1.7081    0.0000 C   0  0  0  0  0  0  0  0  0  0  0  0
    1.5728    1.7526    0.0000 C   0  0  0  0  0  0  0  0  0  0  0  0
   -3.2872    1.7271   -0.0000 O   0  0  0  0  0  0  0  0  0  0  0  0
   -3.0770   -0.9731   -0.0000 H   0  0  0  0  0  0  0  0  0  0  0  0
   -0.8994   -2.1931   -0.0000 H   0  0  0  0  0  0  0  0  0  0  0  0
    1.2468   -0.9266    0.0000 H   0  0  0  0  0  0  0  0  0  0  0  0
   -0.9549    2.8067    0.0000 H   0  0  0  0  0  0  0  0  0  0  0  0
    1.4099    2.8580   -0.0000 H   0  0  0  0  0  0  0  0  0  0  0  0
    2.1714    1.4836    0.9061 H   0  0  0  0  0  0  0  0  0  0  0  0
    2.1714    1.4835   -0.9061 H   0  0  0  0  0  0  0  0  0  0  0  0
   -4.0344    1.1118   -0.0000 H   0  0  0  0  0  0  0  0  0  0  0  0
  1  2  2  0  0  0  0
  1  5  1  0  0  0  0
  1  9  1  0  0  0  0
  2  3  1  0  0  0  0
  2 10  1  0  0  0  0
  3  4  2  0  0  0  0
  3 11  1  0  0  0  0
  4  6  1  0  0  0  0
  4  7  1  0  0  0  0
  5  6  2  0  0  0  0
  5  8  1  0  0  0  0
  6 12  1  0  0  0  0
  7 13  1  0  0  0  0
  7 14  1  0  0  0  0
  7 15  1  0  0  0  0
  8 16  1  0  0  0  0
M  END
