./000108-67-8.hin
 OpenBabel09241315583D

 21 21  0  0  0  0  0  0  0  0999 V2000
   -1.6181   -0.7502    0.0000 C   0  0  0  0  0  0  0  0  0  0  0  0
   -1.6091    0.6478    0.0000 C   0  0  0  0  0  0  0  0  0  0  0  0
   -0.3995    1.3509   -0.0000 C   0  0  0  0  0  0  0  0  0  0  0  0
    0.8061    0.6446   -0.0000 C   0  0  0  0  0  0  0  0  0  0  0  0
    0.8092   -0.7549   -0.0000 C   0  0  0  0  0  0  0  0  0  0  0  0
   -0.4051   -1.4470    0.0000 C   0  0  0  0  0  0  0  0  0  0  0  0
   -2.9083   -1.4785    0.0000 C   0  0  0  0  0  0  0  0  0  0  0  0
   -2.5605    1.1998    0.0000 H   0  0  0  0  0  0  0  0  0  0  0  0
   -0.4095    2.8324   -0.0000 C   0  0  0  0  0  0  0  0  0  0  0  0
    1.7622    1.1889   -0.0000 H   0  0  0  0  0  0  0  0  0  0  0  0
    2.0973   -1.4870   -0.0000 C   0  0  0  0  0  0  0  0  0  0  0  0
   -0.4075   -2.5473    0.0000 H   0  0  0  0  0  0  0  0  0  0  0  0
   -2.7517   -2.5849   -0.0000 H   0  0  0  0  0  0  0  0  0  0  0  0
   -3.5061   -1.2072    0.9059 H   0  0  0  0  0  0  0  0  0  0  0  0
   -3.5061   -1.2072   -0.9059 H   0  0  0  0  0  0  0  0  0  0  0  0
    0.6282    3.2468    0.0000 H   0  0  0  0  0  0  0  0  0  0  0  0
   -0.9422    3.2161   -0.9059 H   0  0  0  0  0  0  0  0  0  0  0  0
   -0.9422    3.2161    0.9059 H   0  0  0  0  0  0  0  0  0  0  0  0
    1.9376   -2.5929    0.0000 H   0  0  0  0  0  0  0  0  0  0  0  0
    2.6959   -1.2173   -0.9059 H   0  0  0  0  0  0  0  0  0  0  0  0
    2.6959   -1.2173    0.9059 H   0  0  0  0  0  0  0  0  0  0  0  0
  1  2  2  0  0  0  0
  1  6  1  0  0  0  0
  1  7  1  0  0  0  0
  2  3  1  0  0  0  0
  2  8  1  0  0  0  0
  3  4  2  0  0  0  0
  3  9  1  0  0  0  0
  4  5  1  0  0  0  0
  4 10  1  0  0  0  0
  5  6  2  0  0  0  0
  5 11  1  0  0  0  0
  6 12  1  0  0  0  0
  7 13  1  0  0  0  0
  7 14  1  0  0  0  0
  7 15  1  0  0  0  0
  9 16  1  0  0  0  0
  9 17  1  0  0  0  0
  9 18  1  0  0  0  0
 11 19  1  0  0  0  0
 11 20  1  0  0  0  0
 11 21  1  0  0  0  0
M  END
