./000108-68-9.hin
 OpenBabel09241315583D

 19 19  0  0  0  0  0  0  0  0999 V2000
   -4.8047   -1.2551   -0.0186 C   0  0  0  0  0  0  0  0  0  0  0  0
   -4.8089    0.1447   -0.0132 C   0  0  0  0  0  0  0  0  0  0  0  0
   -3.5906    0.8327   -0.0099 C   0  0  0  0  0  0  0  0  0  0  0  0
   -2.3657    0.1453   -0.0120 C   0  0  0  0  0  0  0  0  0  0  0  0
   -2.3725   -1.2494   -0.0175 C   0  0  0  0  0  0  0  0  0  0  0  0
   -3.5902   -1.9438   -0.0207 C   0  0  0  0  0  0  0  0  0  0  0  0
   -5.7601    0.6942   -0.0115 H   0  0  0  0  0  0  0  0  0  0  0  0
   -3.5175    2.2083   -0.0045 O   0  0  0  0  0  0  0  0  0  0  0  0
   -4.4216    2.5538   -0.0035 H   0  0  0  0  0  0  0  0  0  0  0  0
   -1.0983   -2.0062   -0.0213 C   0  0  0  0  0  0  0  0  0  0  0  0
   -1.0234   -2.6294   -0.9475 H   0  0  0  0  0  0  0  0  0  0  0  0
   -1.0516   -2.6890    0.8636 H   0  0  0  0  0  0  0  0  0  0  0  0
   -0.2167   -1.3205    0.0148 H   0  0  0  0  0  0  0  0  0  0  0  0
   -1.4254    0.7137   -0.0092 H   0  0  0  0  0  0  0  0  0  0  0  0
   -6.0922   -1.9884   -0.0224 C   0  0  0  0  0  0  0  0  0  0  0  0
   -5.9307   -3.0941   -0.0190 H   0  0  0  0  0  0  0  0  0  0  0  0
   -6.6864   -1.7214   -0.9320 H   0  0  0  0  0  0  0  0  0  0  0  0
   -6.6948   -1.7169    0.8802 H   0  0  0  0  0  0  0  0  0  0  0  0
   -3.5834   -3.0437   -0.0247 H   0  0  0  0  0  0  0  0  0  0  0  0
  1  2  2  0  0  0  0
  1  6  1  0  0  0  0
  1 15  1  0  0  0  0
  2  3  1  0  0  0  0
  2  7  1  0  0  0  0
  3  4  2  0  0  0  0
  3  8  1  0  0  0  0
  4  5  1  0  0  0  0
  4 14  1  0  0  0  0
  5  6  2  0  0  0  0
  5 10  1  0  0  0  0
  6 19  1  0  0  0  0
  8  9  1  0  0  0  0
 10 11  1  0  0  0  0
 10 12  1  0  0  0  0
 10 13  1  0  0  0  0
 15 16  1  0  0  0  0
 15 17  1  0  0  0  0
 15 18  1  0  0  0  0
M  END
