./000108-87-2.hin
 OpenBabel09241315583D

 21 21  0  0  0  0  0  0  0  0999 V2000
   -1.1761   -0.7574   -0.3977 C   0  0  0  0  0  0  0  0  0  0  0  0
    0.9861   -0.7555    0.8615 C   0  0  0  0  0  0  0  0  0  0  0  0
    1.0104    0.7585    0.8129 C   0  0  0  0  0  0  0  0  0  0  0  0
   -0.4332   -1.2830    0.8129 C   0  0  0  0  0  0  0  0  0  0  0  0
    0.2672    1.2837   -0.3977 C   0  0  0  0  0  0  0  0  0  0  0  0
   -1.1630    0.7642   -0.4369 C   0  0  0  0  0  0  0  0  0  0  0  0
   -2.2365   -1.1201   -0.3757 H   0  0  0  0  0  0  0  0  0  0  0  0
   -0.7020   -1.1568   -1.3324 H   0  0  0  0  0  0  0  0  0  0  0  0
    1.4872   -1.1097    1.7995 H   0  0  0  0  0  0  0  0  0  0  0  0
    1.5664   -1.1658   -0.0064 H   0  0  0  0  0  0  0  0  0  0  0  0
    2.0725    1.1163    0.7842 H   0  0  0  0  0  0  0  0  0  0  0  0
    0.5419    1.1691    1.7459 H   0  0  0  0  0  0  0  0  0  0  0  0
   -0.9764   -0.9782    1.7459 H   0  0  0  0  0  0  0  0  0  0  0  0
   -0.4165   -2.4036    0.7842 H   0  0  0  0  0  0  0  0  0  0  0  0
    0.8018    0.9699   -1.3324 H   0  0  0  0  0  0  0  0  0  0  0  0
    0.2557    2.4044   -0.3757 H   0  0  0  0  0  0  0  0  0  0  0  0
   -1.7019    1.1453    0.4764 H   0  0  0  0  0  0  0  0  0  0  0  0
   -1.8801    1.2713   -1.6685 C   0  0  0  0  0  0  0  0  0  0  0  0
   -1.3724    0.9122   -2.5961 H   0  0  0  0  0  0  0  0  0  0  0  0
   -2.9356    0.9071   -1.6804 H   0  0  0  0  0  0  0  0  0  0  0  0
   -1.8886    2.3878   -1.6804 H   0  0  0  0  0  0  0  0  0  0  0  0
  1  4  1  0  0  0  0
  1  6  1  0  0  0  0
  1  7  1  0  0  0  0
  1  8  1  0  0  0  0
  2  3  1  0  0  0  0
  2  4  1  0  0  0  0
  2  9  1  0  0  0  0
  2 10  1  0  0  0  0
  3  5  1  0  0  0  0
  3 11  1  0  0  0  0
  3 12  1  0  0  0  0
  4 13  1  0  0  0  0
  4 14  1  0  0  0  0
  5  6  1  0  0  0  0
  5 15  1  0  0  0  0
  5 16  1  0  0  0  0
  6 17  1  0  0  0  0
  6 18  1  0  0  0  0
 18 19  1  0  0  0  0
 18 20  1  0  0  0  0
 18 21  1  0  0  0  0
M  END
