./000108-88-3.hin
 OpenBabel09241315583D

 15 15  0  0  0  0  0  0  0  0999 V2000
   -1.6124   -0.8876    0.0000 C   0  0  0  0  0  0  0  0  0  0  0  0
   -1.6091    0.5053   -0.0000 C   0  0  0  0  0  0  0  0  0  0  0  0
   -0.3986    1.2105   -0.0000 C   0  0  0  0  0  0  0  0  0  0  0  0
    0.8065    0.4995   -0.0000 C   0  0  0  0  0  0  0  0  0  0  0  0
    0.8010   -0.8948    0.0000 C   0  0  0  0  0  0  0  0  0  0  0  0
   -0.4072   -1.5907    0.0000 C   0  0  0  0  0  0  0  0  0  0  0  0
   -2.5671   -1.4337    0.0000 H   0  0  0  0  0  0  0  0  0  0  0  0
   -2.5596    1.0589   -0.0000 H   0  0  0  0  0  0  0  0  0  0  0  0
   -0.4069    2.6914   -0.0000 C   0  0  0  0  0  0  0  0  0  0  0  0
    1.7627    1.0435   -0.0000 H   0  0  0  0  0  0  0  0  0  0  0  0
    1.7529   -1.4457    0.0000 H   0  0  0  0  0  0  0  0  0  0  0  0
   -0.4106   -2.6901    0.0000 H   0  0  0  0  0  0  0  0  0  0  0  0
    0.6313    3.1047    0.0000 H   0  0  0  0  0  0  0  0  0  0  0  0
   -0.9392    3.0759   -0.9058 H   0  0  0  0  0  0  0  0  0  0  0  0
   -0.9392    3.0759    0.9058 H   0  0  0  0  0  0  0  0  0  0  0  0
  1  2  2  0  0  0  0
  1  6  1  0  0  0  0
  1  7  1  0  0  0  0
  2  3  1  0  0  0  0
  2  8  1  0  0  0  0
  3  4  2  0  0  0  0
  3  9  1  0  0  0  0
  4  5  1  0  0  0  0
  4 10  1  0  0  0  0
  5  6  2  0  0  0  0
  5 11  1  0  0  0  0
  6 12  1  0  0  0  0
  9 13  1  0  0  0  0
  9 14  1  0  0  0  0
  9 15  1  0  0  0  0
M  END
