./000108-94-1.hin
 OpenBabel09241315583D

 17 17  0  0  0  0  0  0  0  0999 V2000
   -1.7444    0.2790   -0.6982 C   0  0  0  0  0  0  0  0  0  0  0  0
    0.3119    0.3540    0.7209 C   0  0  0  0  0  0  0  0  0  0  0  0
    0.4101    1.8447    0.5510 C   0  0  0  0  0  0  0  0  0  0  0  0
   -1.0608   -0.2353    0.5511 C   0  0  0  0  0  0  0  0  0  0  0  0
   -0.3025    2.3178   -0.6982 C   0  0  0  0  0  0  0  0  0  0  0  0
   -1.7209    1.7917   -0.7645 C   0  0  0  0  0  0  0  0  0  0  0  0
   -2.8055   -0.0833   -0.7122 H   0  0  0  0  0  0  0  0  0  0  0  0
   -1.2341   -0.1433   -1.6039 H   0  0  0  0  0  0  0  0  0  0  0  0
    1.2911   -0.3385    1.0139 O   0  0  0  0  0  0  0  0  0  0  0  0
    1.4884    2.1524    0.5160 H   0  0  0  0  0  0  0  0  0  0  0  0
   -0.0509    2.3213    1.4576 H   0  0  0  0  0  0  0  0  0  0  0  0
   -1.6639    0.0406    1.4576 H   0  0  0  0  0  0  0  0  0  0  0  0
   -0.9917   -1.3545    0.5161 H   0  0  0  0  0  0  0  0  0  0  0  0
    0.2656    1.9774   -1.6039 H   0  0  0  0  0  0  0  0  0  0  0  0
   -0.3145    3.4389   -0.7123 H   0  0  0  0  0  0  0  0  0  0  0  0
   -2.2022    2.1320   -1.7182 H   0  0  0  0  0  0  0  0  0  0  0  0
   -2.3192    2.2148    0.0847 H   0  0  0  0  0  0  0  0  0  0  0  0
  1  4  1  0  0  0  0
  1  6  1  0  0  0  0
  1  7  1  0  0  0  0
  1  8  1  0  0  0  0
  2  3  1  0  0  0  0
  2  4  1  0  0  0  0
  2  9  2  0  0  0  0
  3  5  1  0  0  0  0
  3 10  1  0  0  0  0
  3 11  1  0  0  0  0
  4 12  1  0  0  0  0
  4 13  1  0  0  0  0
  5  6  1  0  0  0  0
  5 14  1  0  0  0  0
  5 15  1  0  0  0  0
  6 16  1  0  0  0  0
  6 17  1  0  0  0  0
M  END
