./000108-95-2.hin
 OpenBabel09241315583D

 13 13  0  0  0  0  0  0  0  0999 V2000
   -1.7536   -0.8163   -0.0000 C   0  0  0  0  0  0  0  0  0  0  0  0
   -1.7441    0.5802   -0.0000 C   0  0  0  0  0  0  0  0  0  0  0  0
   -0.5420    1.2803   -0.0000 C   0  0  0  0  0  0  0  0  0  0  0  0
    0.6639    0.5587   -0.0000 C   0  0  0  0  0  0  0  0  0  0  0  0
    0.6653   -0.8432   -0.0000 C   0  0  0  0  0  0  0  0  0  0  0  0
   -0.5517   -1.5224   -0.0000 C   0  0  0  0  0  0  0  0  0  0  0  0
   -2.7098   -1.3584   -0.0000 H   0  0  0  0  0  0  0  0  0  0  0  0
   -2.6946    1.1348   -0.0000 H   0  0  0  0  0  0  0  0  0  0  0  0
   -0.5171    2.3786   -0.0000 H   0  0  0  0  0  0  0  0  0  0  0  0
    1.8226    1.3022   -0.0000 O   0  0  0  0  0  0  0  0  0  0  0  0
    1.6139   -1.3972   -0.0000 H   0  0  0  0  0  0  0  0  0  0  0  0
   -0.5595   -2.6225   -0.0000 H   0  0  0  0  0  0  0  0  0  0  0  0
    2.5705    0.6876   -0.0000 H   0  0  0  0  0  0  0  0  0  0  0  0
  1  2  2  0  0  0  0
  1  6  1  0  0  0  0
  1  7  1  0  0  0  0
  2  3  1  0  0  0  0
  2  8  1  0  0  0  0
  3  4  2  0  0  0  0
  3  9  1  0  0  0  0
  4  5  1  0  0  0  0
  4 10  1  0  0  0  0
  5  6  2  0  0  0  0
  5 11  1  0  0  0  0
  6 12  1  0  0  0  0
 10 13  1  0  0  0  0
M  END
