./000108-98-5.hin
 OpenBabel09241315583D

 13 13  0  0  0  0  0  0  0  0999 V2000
    3.0705    2.9229   14.9152 S   0  0  0  0  0  0  0  0  0  0  0  0
   -0.7810    0.6074   14.9152 C   0  0  0  0  0  0  0  0  0  0  0  0
   -0.7697    2.0034   14.9152 C   0  0  0  0  0  0  0  0  0  0  0  0
    0.4385    2.6942   14.9152 C   0  0  0  0  0  0  0  0  0  0  0  0
    1.6521    1.9925   14.9152 C   0  0  0  0  0  0  0  0  0  0  0  0
    1.6359    0.5943   14.9152 C   0  0  0  0  0  0  0  0  0  0  0  0
    0.4237   -0.0940   14.9152 C   0  0  0  0  0  0  0  0  0  0  0  0
   -1.7366    0.0639   14.9152 H   0  0  0  0  0  0  0  0  0  0  0  0
   -1.7178    2.5614   14.9152 H   0  0  0  0  0  0  0  0  0  0  0  0
    0.4466    3.7952   14.9152 H   0  0  0  0  0  0  0  0  0  0  0  0
    2.5806    0.0304   14.9152 H   0  0  0  0  0  0  0  0  0  0  0  0
    0.4215   -1.1940   14.9152 H   0  0  0  0  0  0  0  0  0  0  0  0
    3.9769    1.9611   14.9152 H   0  0  0  0  0  0  0  0  0  0  0  0
  1  5  1  0  0  0  0
  1 13  1  0  0  0  0
  2  3  2  0  0  0  0
  2  7  1  0  0  0  0
  2  8  1  0  0  0  0
  3  4  1  0  0  0  0
  3  9  1  0  0  0  0
  4  5  2  0  0  0  0
  4 10  1  0  0  0  0
  5  6  1  0  0  0  0
  6  7  2  0  0  0  0
  6 11  1  0  0  0  0
  7 12  1  0  0  0  0
M  END
