./000109-95-5.hin
 OpenBabel09241315583D

 10  9  0  0  0  0  0  0  0  0999 V2000
    6.7210    2.7352   13.2798 C   0  0  0  0  0  0  0  0  0  0  0  0
    5.5192    4.7610   13.2798 O   0  0  0  0  0  0  0  0  0  0  0  0
    4.2962    6.4218   13.2798 O   0  0  0  0  0  0  0  0  0  0  0  0
    5.4038    6.0851   13.2798 N   0  0  0  0  0  0  0  0  0  0  0  0
    6.8745    4.2366   13.2798 C   0  0  0  0  0  0  0  0  0  0  0  0
    7.7338    2.2662   13.2798 H   0  0  0  0  0  0  0  0  0  0  0  0
    6.1603    2.3984   14.1844 H   0  0  0  0  0  0  0  0  0  0  0  0
    6.1602    2.3984   12.3751 H   0  0  0  0  0  0  0  0  0  0  0  0
    7.4084    4.5956   12.3624 H   0  0  0  0  0  0  0  0  0  0  0  0
    7.4084    4.5956   14.1972 H   0  0  0  0  0  0  0  0  0  0  0  0
  1  5  1  0  0  0  0
  1  6  1  0  0  0  0
  1  7  1  0  0  0  0
  1  8  1  0  0  0  0
  2  4  1  0  0  0  0
  2  5  1  0  0  0  0
  3  4  2  0  0  0  0
  5  9  1  0  0  0  0
  5 10  1  0  0  0  0
M  END
