./000110-00-9.hin
 OpenBabel09241315583D

  9  9  0  0  0  0  0  0  0  0999 V2000
    0.0093    0.1063    2.7273 C   0  0  0  0  0  0  0  0  0  0  0  0
    0.0093    1.5542    2.7273 C   0  0  0  0  0  0  0  0  0  0  0  0
    2.1657    0.8303    2.7273 O   0  0  0  0  0  0  0  0  0  0  0  0
   -0.8732   -0.5263    2.7273 H   0  0  0  0  0  0  0  0  0  0  0  0
   -0.8732    2.1868    2.7273 H   0  0  0  0  0  0  0  0  0  0  0  0
    1.3313    1.9488    2.7273 C   0  0  0  0  0  0  0  0  0  0  0  0
    1.3313   -0.2882    2.7273 C   0  0  0  0  0  0  0  0  0  0  0  0
    1.8548    2.8995    2.7273 H   0  0  0  0  0  0  0  0  0  0  0  0
    1.8548   -1.2390    2.7273 H   0  0  0  0  0  0  0  0  0  0  0  0
  1  2  1  0  0  0  0
  1  4  1  0  0  0  0
  1  7  2  0  0  0  0
  2  5  1  0  0  0  0
  2  6  2  0  0  0  0
  3  6  1  0  0  0  0
  3  7  1  0  0  0  0
  6  8  1  0  0  0  0
  7  9  1  0  0  0  0
M  END
