./000110-01-0.hin
 OpenBabel09241315583D

 13 13  0  0  0  0  0  0  0  0999 V2000
   -0.4271  -16.0340   26.5669 C   0  0  0  0  0  0  0  0  0  0  0  0
    0.6286  -16.4867   25.5848 C   0  0  0  0  0  0  0  0  0  0  0  0
    1.0805  -14.0703   26.5717 C   0  0  0  0  0  0  0  0  0  0  0  0
   -0.3528  -14.5230   26.7292 C   0  0  0  0  0  0  0  0  0  0  0  0
    1.9310  -15.2785   25.5854 S   0  0  0  0  0  0  0  0  0  0  0  0
    1.5891  -13.9855   27.5613 H   0  0  0  0  0  0  0  0  0  0  0  0
    1.1445  -13.0793   26.0644 H   0  0  0  0  0  0  0  0  0  0  0  0
   -0.2589  -16.5275   27.5600 H   0  0  0  0  0  0  0  0  0  0  0  0
   -1.4469  -16.3340   26.2143 H   0  0  0  0  0  0  0  0  0  0  0  0
    0.2117  -16.5716   24.5531 H   0  0  0  0  0  0  0  0  0  0  0  0
    1.0545  -17.4777   25.8678 H   0  0  0  0  0  0  0  0  0  0  0  0
   -0.9946  -14.0295   25.9529 H   0  0  0  0  0  0  0  0  0  0  0  0
   -0.7522  -14.2229   27.7316 H   0  0  0  0  0  0  0  0  0  0  0  0
  1  2  1  0  0  0  0
  1  4  1  0  0  0  0
  1  8  1  0  0  0  0
  1  9  1  0  0  0  0
  2  5  1  0  0  0  0
  2 10  1  0  0  0  0
  2 11  1  0  0  0  0
  3  4  1  0  0  0  0
  3  5  1  0  0  0  0
  3  6  1  0  0  0  0
  3  7  1  0  0  0  0
  4 12  1  0  0  0  0
  4 13  1  0  0  0  0
M  END
