./000110-02-1.hin
 OpenBabel09241315583D

  9  9  0  0  0  0  0  0  0  0999 V2000
   -1.5263    0.3317    0.0000 C   0  0  0  0  0  0  0  0  0  0  0  0
    0.8970    1.0478    0.0000 S   0  0  0  0  0  0  0  0  0  0  0  0
   -2.4405   -0.2647    0.0000 H   0  0  0  0  0  0  0  0  0  0  0  0
   -1.5263    1.7639    0.0000 C   0  0  0  0  0  0  0  0  0  0  0  0
   -0.2452    2.2691    0.0000 C   0  0  0  0  0  0  0  0  0  0  0  0
   -0.2451   -0.1735    0.0000 C   0  0  0  0  0  0  0  0  0  0  0  0
   -2.4405    2.3602   -0.0000 H   0  0  0  0  0  0  0  0  0  0  0  0
    0.0210    3.3244    0.0000 H   0  0  0  0  0  0  0  0  0  0  0  0
    0.0210   -1.2287    0.0000 H   0  0  0  0  0  0  0  0  0  0  0  0
  1  3  1  0  0  0  0
  1  4  1  0  0  0  0
  1  6  2  0  0  0  0
  2  5  1  0  0  0  0
  2  6  1  0  0  0  0
  4  5  2  0  0  0  0
  4  7  1  0  0  0  0
  5  8  1  0  0  0  0
  6  9  1  0  0  0  0
M  END
