./000110-19-0.hin
 OpenBabel09241315583D

 20 19  0  0  0  0  0  0  0  0999 V2000
   -4.8110   -2.0424   -0.4072 C   0  0  0  0  0  0  0  0  0  0  0  0
   -4.6982   -0.5434   -0.2304 C   0  0  0  0  0  0  0  0  0  0  0  0
   -3.2337   -0.1691   -0.0281 C   0  0  0  0  0  0  0  0  0  0  0  0
   -3.1380    1.2469   -0.2624 O   0  0  0  0  0  0  0  0  0  0  0  0
   -1.8981    3.2795   -0.3452 C   0  0  0  0  0  0  0  0  0  0  0  0
   -1.9037    1.8115   -0.0964 C   0  0  0  0  0  0  0  0  0  0  0  0
   -0.9647    1.0830    0.2318 O   0  0  0  0  0  0  0  0  0  0  0  0
   -5.8816   -2.3313   -0.5378 H   0  0  0  0  0  0  0  0  0  0  0  0
   -4.2400   -2.3761   -1.3069 H   0  0  0  0  0  0  0  0  0  0  0  0
   -4.4073   -2.5756    0.4872 H   0  0  0  0  0  0  0  0  0  0  0  0
   -5.5398   -0.0706    0.9348 C   0  0  0  0  0  0  0  0  0  0  0  0
   -5.0639   -0.0342   -1.1668 H   0  0  0  0  0  0  0  0  0  0  0  0
   -2.5688   -0.6964   -0.7609 H   0  0  0  0  0  0  0  0  0  0  0  0
   -2.8866   -0.3907    1.0140 H   0  0  0  0  0  0  0  0  0  0  0  0
   -2.2297    3.8056    0.5837 H   0  0  0  0  0  0  0  0  0  0  0  0
   -0.8623    3.6057   -0.6057 H   0  0  0  0  0  0  0  0  0  0  0  0
   -2.5980    3.5380   -1.1760 H   0  0  0  0  0  0  0  0  0  0  0  0
   -6.6184   -0.2874    0.7458 H   0  0  0  0  0  0  0  0  0  0  0  0
   -5.2347   -0.5866    1.8770 H   0  0  0  0  0  0  0  0  0  0  0  0
   -5.4124    1.0301    1.0744 H   0  0  0  0  0  0  0  0  0  0  0  0
  1  2  1  0  0  0  0
  1  8  1  0  0  0  0
  1  9  1  0  0  0  0
  1 10  1  0  0  0  0
  2  3  1  0  0  0  0
  2 11  1  0  0  0  0
  2 12  1  0  0  0  0
  3  4  1  0  0  0  0
  3 13  1  0  0  0  0
  3 14  1  0  0  0  0
  4  6  1  0  0  0  0
  5  6  1  0  0  0  0
  5 15  1  0  0  0  0
  5 16  1  0  0  0  0
  5 17  1  0  0  0  0
  6  7  2  0  0  0  0
 11 18  1  0  0  0  0
 11 19  1  0  0  0  0
 11 20  1  0  0  0  0
M  END
