./000110-54-3.hin
 OpenBabel09241315583D

 20 19  0  0  0  0  0  0  0  0999 V2000
  -41.3088    7.6531   44.1288 C   0  0  0  0  0  0  0  0  0  0  0  0
  -46.5404    7.3766   47.6297 C   0  0  0  0  0  0  0  0  0  0  0  0
  -42.1071    7.2112   45.3279 C   0  0  0  0  0  0  0  0  0  0  0  0
  -45.7421    7.8184   46.4306 C   0  0  0  0  0  0  0  0  0  0  0  0
  -43.5256    7.7379   45.2762 C   0  0  0  0  0  0  0  0  0  0  0  0
  -44.3236    7.2917   46.4823 C   0  0  0  0  0  0  0  0  0  0  0  0
  -43.8232    7.6529   47.4193 H   0  0  0  0  0  0  0  0  0  0  0  0
  -44.3410    6.1709   46.5284 H   0  0  0  0  0  0  0  0  0  0  0  0
  -44.0260    7.3767   44.3392 H   0  0  0  0  0  0  0  0  0  0  0  0
  -43.5082    8.8588   45.2301 H   0  0  0  0  0  0  0  0  0  0  0  0
  -45.7227    8.9394   46.3829 H   0  0  0  0  0  0  0  0  0  0  0  0
  -46.2404    7.4573   45.4922 H   0  0  0  0  0  0  0  0  0  0  0  0
  -41.6088    7.5721   46.2664 H   0  0  0  0  0  0  0  0  0  0  0  0
  -42.1266    6.0902   45.3754 H   0  0  0  0  0  0  0  0  0  0  0  0
  -47.5818    7.7754   47.5715 H   0  0  0  0  0  0  0  0  0  0  0  0
  -46.5919    6.2620   47.6804 H   0  0  0  0  0  0  0  0  0  0  0  0
  -46.0727    7.7480   48.5735 H   0  0  0  0  0  0  0  0  0  0  0  0
  -40.2673    7.2543   44.1870 H   0  0  0  0  0  0  0  0  0  0  0  0
  -41.7764    7.2818   43.1849 H   0  0  0  0  0  0  0  0  0  0  0  0
  -41.2572    8.7677   44.0782 H   0  0  0  0  0  0  0  0  0  0  0  0
  1  3  1  0  0  0  0
  1 18  1  0  0  0  0
  1 19  1  0  0  0  0
  1 20  1  0  0  0  0
  2  4  1  0  0  0  0
  2 15  1  0  0  0  0
  2 16  1  0  0  0  0
  2 17  1  0  0  0  0
  3  5  1  0  0  0  0
  3 13  1  0  0  0  0
  3 14  1  0  0  0  0
  4  6  1  0  0  0  0
  4 11  1  0  0  0  0
  4 12  1  0  0  0  0
  5  6  1  0  0  0  0
  5  9  1  0  0  0  0
  5 10  1  0  0  0  0
  6  7  1  0  0  0  0
  6  8  1  0  0  0  0
M  END
