./000110-80-5.hin
 OpenBabel09241315583D

 16 15  0  0  0  0  0  0  0  0999 V2000
   -1.0394   -1.0376    0.0000 C   0  0  0  0  0  0  0  0  0  0  0  0
   -0.9259    0.4844    0.0000 C   0  0  0  0  0  0  0  0  0  0  0  0
   -2.2635    0.9751   -0.0000 O   0  0  0  0  0  0  0  0  0  0  0  0
   -2.3102    2.4020   -0.0000 C   0  0  0  0  0  0  0  0  0  0  0  0
   -3.7700    2.7913   -0.0000 C   0  0  0  0  0  0  0  0  0  0  0  0
    0.2900   -1.5332    0.0001 O   0  0  0  0  0  0  0  0  0  0  0  0
   -1.5875   -1.3873    0.9142 H   0  0  0  0  0  0  0  0  0  0  0  0
   -1.5874   -1.3874   -0.9142 H   0  0  0  0  0  0  0  0  0  0  0  0
   -0.3829    0.8402    0.9143 H   0  0  0  0  0  0  0  0  0  0  0  0
   -0.3828    0.8402   -0.9143 H   0  0  0  0  0  0  0  0  0  0  0  0
   -1.7867    2.7928   -0.9134 H   0  0  0  0  0  0  0  0  0  0  0  0
   -1.7867    2.7928    0.9134 H   0  0  0  0  0  0  0  0  0  0  0  0
   -3.8551    3.9037   -0.0000 H   0  0  0  0  0  0  0  0  0  0  0  0
   -4.2815    2.3841   -0.9046 H   0  0  0  0  0  0  0  0  0  0  0  0
   -4.2815    2.3841    0.9046 H   0  0  0  0  0  0  0  0  0  0  0  0
    0.2208   -2.4946    0.0001 H   0  0  0  0  0  0  0  0  0  0  0  0
  1  2  1  0  0  0  0
  1  6  1  0  0  0  0
  1  7  1  0  0  0  0
  1  8  1  0  0  0  0
  2  3  1  0  0  0  0
  2  9  1  0  0  0  0
  2 10  1  0  0  0  0
  3  4  1  0  0  0  0
  4  5  1  0  0  0  0
  4 11  1  0  0  0  0
  4 12  1  0  0  0  0
  5 13  1  0  0  0  0
  5 14  1  0  0  0  0
  5 15  1  0  0  0  0
  6 16  1  0  0  0  0
M  END
