./000110-86-1.hin
 OpenBabel09241315583D

 11 11  0  0  0  0  0  0  0  0999 V2000
   -1.1610   -0.3871   -0.0000 C   0  0  0  0  0  0  0  0  0  0  0  0
    0.0751   -1.0593   -0.0000 C   0  0  0  0  0  0  0  0  0  0  0  0
   -1.1584    1.0090    0.0000 C   0  0  0  0  0  0  0  0  0  0  0  0
    0.0651    1.6814    0.0000 C   0  0  0  0  0  0  0  0  0  0  0  0
    1.2481    0.9197   -0.0000 C   0  0  0  0  0  0  0  0  0  0  0  0
    1.2652   -0.4276   -0.0000 N   0  0  0  0  0  0  0  0  0  0  0  0
   -2.1011   -0.9532   -0.0000 H   0  0  0  0  0  0  0  0  0  0  0  0
    0.1185   -2.1631   -0.0000 H   0  0  0  0  0  0  0  0  0  0  0  0
   -2.1042    1.5696    0.0000 H   0  0  0  0  0  0  0  0  0  0  0  0
    0.1104    2.7779    0.0000 H   0  0  0  0  0  0  0  0  0  0  0  0
    2.2373    1.4115   -0.0000 H   0  0  0  0  0  0  0  0  0  0  0  0
  1  2  2  0  0  0  0
  1  3  1  0  0  0  0
  1  7  1  0  0  0  0
  2  6  1  0  0  0  0
  2  8  1  0  0  0  0
  3  4  2  0  0  0  0
  3  9  1  0  0  0  0
  4  5  1  0  0  0  0
  4 10  1  0  0  0  0
  5  6  2  0  0  0  0
  5 11  1  0  0  0  0
M  END
