./000111-13-7.hin
 OpenBabel09241315583D

 25 24  0  0  0  0  0  0  0  0999 V2000
   -0.4796   -3.3743   -0.0000 C   0  0  0  0  0  0  0  0  0  0  0  0
   -0.4751   -1.8604   -0.0000 C   0  0  0  0  0  0  0  0  0  0  0  0
   -1.8833   -1.3055   -0.0000 C   0  0  0  0  0  0  0  0  0  0  0  0
   -1.8738    0.2076   -0.0000 C   0  0  0  0  0  0  0  0  0  0  0  0
   -3.2805    0.7630   -0.0000 C   0  0  0  0  0  0  0  0  0  0  0  0
   -3.3136    2.2647   -0.0000 C   0  0  0  0  0  0  0  0  0  0  0  0
    0.9206   -3.9310   -0.0000 C   0  0  0  0  0  0  0  0  0  0  0  0
   -1.0331   -3.7464    0.9025 H   0  0  0  0  0  0  0  0  0  0  0  0
   -1.0331   -3.7464   -0.9026 H   0  0  0  0  0  0  0  0  0  0  0  0
    0.0765   -1.4862    0.9025 H   0  0  0  0  0  0  0  0  0  0  0  0
    0.0765   -1.4862   -0.9026 H   0  0  0  0  0  0  0  0  0  0  0  0
   -2.4347   -1.6798   -0.9028 H   0  0  0  0  0  0  0  0  0  0  0  0
   -2.4347   -1.6798    0.9027 H   0  0  0  0  0  0  0  0  0  0  0  0
   -1.3233    0.5883    0.9005 H   0  0  0  0  0  0  0  0  0  0  0  0
   -1.3233    0.5883   -0.9006 H   0  0  0  0  0  0  0  0  0  0  0  0
   -3.8368    0.3976   -0.9044 H   0  0  0  0  0  0  0  0  0  0  0  0
   -3.8368    0.3976    0.9043 H   0  0  0  0  0  0  0  0  0  0  0  0
   -4.6857    2.8616   -0.0000 C   0  0  0  0  0  0  0  0  0  0  0  0
   -2.2951    2.9628   -0.0000 O   0  0  0  0  0  0  0  0  0  0  0  0
   -4.6333    3.9774   -0.0000 H   0  0  0  0  0  0  0  0  0  0  0  0
   -5.2438    2.5253   -0.9074 H   0  0  0  0  0  0  0  0  0  0  0  0
   -5.2438    2.5253    0.9073 H   0  0  0  0  0  0  0  0  0  0  0  0
    0.8947   -5.0474   -0.0000 H   0  0  0  0  0  0  0  0  0  0  0  0
    1.4802   -3.5910   -0.9050 H   0  0  0  0  0  0  0  0  0  0  0  0
    1.4802   -3.5910    0.9049 H   0  0  0  0  0  0  0  0  0  0  0  0
  1  2  1  0  0  0  0
  1  7  1  0  0  0  0
  1  8  1  0  0  0  0
  1  9  1  0  0  0  0
  2  3  1  0  0  0  0
  2 10  1  0  0  0  0
  2 11  1  0  0  0  0
  3  4  1  0  0  0  0
  3 12  1  0  0  0  0
  3 13  1  0  0  0  0
  4  5  1  0  0  0  0
  4 14  1  0  0  0  0
  4 15  1  0  0  0  0
  5  6  1  0  0  0  0
  5 16  1  0  0  0  0
  5 17  1  0  0  0  0
  6 18  1  0  0  0  0
  6 19  2  0  0  0  0
  7 23  1  0  0  0  0
  7 24  1  0  0  0  0
  7 25  1  0  0  0  0
 18 20  1  0  0  0  0
 18 21  1  0  0  0  0
 18 22  1  0  0  0  0
M  END
