./000111-15-9.hin
 OpenBabel09241315583D

 21 20  0  0  0  0  0  0  0  0999 V2000
  -38.5153    0.6600   46.3846 C   0  0  0  0  0  0  0  0  0  0  0  0
  -37.8754    1.0039   45.5290 H   0  0  0  0  0  0  0  0  0  0  0  0
  -39.9460    1.1677   46.2391 C   0  0  0  0  0  0  0  0  0  0  0  0
  -40.4545    0.6796   45.3659 H   0  0  0  0  0  0  0  0  0  0  0  0
  -40.5307    0.9609   47.1744 H   0  0  0  0  0  0  0  0  0  0  0  0
  -38.4877   -0.7654   46.2724 O   0  0  0  0  0  0  0  0  0  0  0  0
  -39.8426    2.5699   46.0135 O   0  0  0  0  0  0  0  0  0  0  0  0
  -38.0776    0.9857   47.3623 H   0  0  0  0  0  0  0  0  0  0  0  0
  -41.1221    3.2028   45.9745 C   0  0  0  0  0  0  0  0  0  0  0  0
  -41.7372    2.7495   45.1517 H   0  0  0  0  0  0  0  0  0  0  0  0
  -41.6485    3.0417   46.9532 H   0  0  0  0  0  0  0  0  0  0  0  0
  -40.8739    4.6719   45.7241 C   0  0  0  0  0  0  0  0  0  0  0  0
  -41.8507    5.2097   45.6869 H   0  0  0  0  0  0  0  0  0  0  0  0
  -40.2474    5.1052   46.5399 H   0  0  0  0  0  0  0  0  0  0  0  0
  -40.3379    4.8172   44.7561 H   0  0  0  0  0  0  0  0  0  0  0  0
  -38.8451   -1.5028   47.3703 C   0  0  0  0  0  0  0  0  0  0  0  0
  -38.7266   -2.9693   47.1411 C   0  0  0  0  0  0  0  0  0  0  0  0
  -39.2102   -0.9090   48.3862 O   0  0  0  0  0  0  0  0  0  0  0  0
  -38.9967   -3.5135   48.0780 H   0  0  0  0  0  0  0  0  0  0  0  0
  -39.4139   -3.2762   46.3154 H   0  0  0  0  0  0  0  0  0  0  0  0
  -37.6784   -3.2211   46.8471 H   0  0  0  0  0  0  0  0  0  0  0  0
  1  2  1  0  0  0  0
  1  3  1  0  0  0  0
  1  6  1  0  0  0  0
  1  8  1  0  0  0  0
  3  4  1  0  0  0  0
  3  5  1  0  0  0  0
  3  7  1  0  0  0  0
  6 16  1  0  0  0  0
  7  9  1  0  0  0  0
  9 10  1  0  0  0  0
  9 11  1  0  0  0  0
  9 12  1  0  0  0  0
 12 13  1  0  0  0  0
 12 14  1  0  0  0  0
 12 15  1  0  0  0  0
 16 17  1  0  0  0  0
 16 18  2  0  0  0  0
 17 19  1  0  0  0  0
 17 20  1  0  0  0  0
 17 21  1  0  0  0  0
M  END
