./000111-27-3.hin
 OpenBabel09241315583D

 21 20  0  0  0  0  0  0  0  0999 V2000
    1.2502   -3.0245    0.0000 C   0  0  0  0  0  0  0  0  0  0  0  0
    1.2287   -1.5178    0.0000 C   0  0  0  0  0  0  0  0  0  0  0  0
   -0.1876   -0.9829    0.0000 C   0  0  0  0  0  0  0  0  0  0  0  0
   -0.2043    0.5307    0.0000 C   0  0  0  0  0  0  0  0  0  0  0  0
   -1.6210    1.0598   -0.0000 C   0  0  0  0  0  0  0  0  0  0  0  0
   -1.6241    2.5787    0.0000 C   0  0  0  0  0  0  0  0  0  0  0  0
   -2.9816    2.9928   -0.0000 O   0  0  0  0  0  0  0  0  0  0  0  0
    2.3027   -3.3978    0.0000 H   0  0  0  0  0  0  0  0  0  0  0  0
    0.7334   -3.4264    0.9049 H   0  0  0  0  0  0  0  0  0  0  0  0
    0.7334   -3.4264   -0.9049 H   0  0  0  0  0  0  0  0  0  0  0  0
    1.7734   -1.1331    0.9025 H   0  0  0  0  0  0  0  0  0  0  0  0
    1.7734   -1.1331   -0.9025 H   0  0  0  0  0  0  0  0  0  0  0  0
   -0.7336   -1.3650   -0.9026 H   0  0  0  0  0  0  0  0  0  0  0  0
   -0.7336   -1.3650    0.9026 H   0  0  0  0  0  0  0  0  0  0  0  0
    0.3418    0.9124    0.9029 H   0  0  0  0  0  0  0  0  0  0  0  0
    0.3418    0.9124   -0.9029 H   0  0  0  0  0  0  0  0  0  0  0  0
   -2.1743    0.6896   -0.9021 H   0  0  0  0  0  0  0  0  0  0  0  0
   -2.1743    0.6896    0.9021 H   0  0  0  0  0  0  0  0  0  0  0  0
   -2.9748    3.9565    0.0000 H   0  0  0  0  0  0  0  0  0  0  0  0
   -1.1035    2.9754    0.9130 H   0  0  0  0  0  0  0  0  0  0  0  0
   -1.1035    2.9754   -0.9130 H   0  0  0  0  0  0  0  0  0  0  0  0
  1  2  1  0  0  0  0
  1  8  1  0  0  0  0
  1  9  1  0  0  0  0
  1 10  1  0  0  0  0
  2  3  1  0  0  0  0
  2 11  1  0  0  0  0
  2 12  1  0  0  0  0
  3  4  1  0  0  0  0
  3 13  1  0  0  0  0
  3 14  1  0  0  0  0
  4  5  1  0  0  0  0
  4 15  1  0  0  0  0
  4 16  1  0  0  0  0
  5  6  1  0  0  0  0
  5 17  1  0  0  0  0
  5 18  1  0  0  0  0
  6  7  1  0  0  0  0
  6 20  1  0  0  0  0
  6 21  1  0  0  0  0
  7 19  1  0  0  0  0
M  END
