./000111-30-8.hin
 OpenBabel09241315583D

 15 14  0  0  0  0  0  0  0  0999 V2000
   -4.8296   34.7146  -37.3273 C   0  0  0  0  0  0  0  0  0  0  0  0
   -3.7407   34.6006  -37.0750 H   0  0  0  0  0  0  0  0  0  0  0  0
   -5.0296   34.0818  -38.2339 H   0  0  0  0  0  0  0  0  0  0  0  0
   -5.6812   34.2453  -36.1700 C   0  0  0  0  0  0  0  0  0  0  0  0
   -5.3949   32.7993  -35.8360 C   0  0  0  0  0  0  0  0  0  0  0  0
   -6.2168   32.2835  -34.6963 C   0  0  0  0  0  0  0  0  0  0  0  0
   -4.3109   32.6732  -35.5689 H   0  0  0  0  0  0  0  0  0  0  0  0
   -5.5951   32.1504  -36.7312 H   0  0  0  0  0  0  0  0  0  0  0  0
   -7.0498   32.9481  -34.0816 O   0  0  0  0  0  0  0  0  0  0  0  0
   -5.0729   36.1446  -37.6964 C   0  0  0  0  0  0  0  0  0  0  0  0
   -6.0172   31.2191  -34.4321 H   0  0  0  0  0  0  0  0  0  0  0  0
   -5.8754   36.8838  -37.1281 O   0  0  0  0  0  0  0  0  0  0  0  0
   -4.4565   36.5086  -38.5510 H   0  0  0  0  0  0  0  0  0  0  0  0
   -5.4894   34.8889  -35.2708 H   0  0  0  0  0  0  0  0  0  0  0  0
   -6.7678   34.3698  -36.4219 H   0  0  0  0  0  0  0  0  0  0  0  0
  1  2  1  0  0  0  0
  1  3  1  0  0  0  0
  1  4  1  0  0  0  0
  1 10  1  0  0  0  0
  4  5  1  0  0  0  0
  4 14  1  0  0  0  0
  4 15  1  0  0  0  0
  5  6  1  0  0  0  0
  5  7  1  0  0  0  0
  5  8  1  0  0  0  0
  6  9  2  0  0  0  0
  6 11  1  0  0  0  0
 10 12  2  0  0  0  0
 10 13  1  0  0  0  0
M  END
