./000111-35-3.hin
 OpenBabel09241315583D

 19 18  0  0  0  0  0  0  0  0999 V2000
   -4.4188   32.2370  -35.9755 C   0  0  0  0  0  0  0  0  0  0  0  0
   -4.3082   33.7501  -35.9658 C   0  0  0  0  0  0  0  0  0  0  0  0
   -5.6412   34.2543  -35.9625 O   0  0  0  0  0  0  0  0  0  0  0  0
   -5.6778   35.6807  -35.9534 C   0  0  0  0  0  0  0  0  0  0  0  0
   -7.1347   36.0810  -35.9507 C   0  0  0  0  0  0  0  0  0  0  0  0
   -4.9888   31.8885  -35.0761 H   0  0  0  0  0  0  0  0  0  0  0  0
   -4.9893   31.8999  -36.8789 H   0  0  0  0  0  0  0  0  0  0  0  0
   -3.7662   34.1095  -35.0501 H   0  0  0  0  0  0  0  0  0  0  0  0
   -3.7665   34.1211  -36.8771 H   0  0  0  0  0  0  0  0  0  0  0  0
   -5.1518   36.0747  -36.8642 H   0  0  0  0  0  0  0  0  0  0  0  0
   -5.1516   36.0631  -35.0379 H   0  0  0  0  0  0  0  0  0  0  0  0
   -7.2122   37.1938  -35.9437 H   0  0  0  0  0  0  0  0  0  0  0  0
   -7.6491   35.6827  -36.8577 H   0  0  0  0  0  0  0  0  0  0  0  0
   -3.0319   31.6198  -35.9797 C   0  0  0  0  0  0  0  0  0  0  0  0
   -3.2062   30.2118  -35.9887 O   0  0  0  0  0  0  0  0  0  0  0  0
   -7.6489   35.6714  -35.0487 H   0  0  0  0  0  0  0  0  0  0  0  0
   -2.4580   31.9399  -36.8911 H   0  0  0  0  0  0  0  0  0  0  0  0
   -2.4575   31.9283  -35.0647 H   0  0  0  0  0  0  0  0  0  0  0  0
   -2.3229   29.8260  -35.9914 H   0  0  0  0  0  0  0  0  0  0  0  0
  1  2  1  0  0  0  0
  1  6  1  0  0  0  0
  1  7  1  0  0  0  0
  1 14  1  0  0  0  0
  2  3  1  0  0  0  0
  2  8  1  0  0  0  0
  2  9  1  0  0  0  0
  3  4  1  0  0  0  0
  4  5  1  0  0  0  0
  4 10  1  0  0  0  0
  4 11  1  0  0  0  0
  5 12  1  0  0  0  0
  5 13  1  0  0  0  0
  5 16  1  0  0  0  0
 14 15  1  0  0  0  0
 14 17  1  0  0  0  0
 14 18  1  0  0  0  0
 15 19  1  0  0  0  0
M  END
