./000111-46-6.hin
 OpenBabel09241315583D

 17 16  0  0  0  0  0  0  0  0999 V2000
   -4.2525   31.1730  -36.2473 C   0  0  0  0  0  0  0  0  0  0  0  0
   -4.1919   32.6892  -36.4016 C   0  0  0  0  0  0  0  0  0  0  0  0
   -5.5378   33.1532  -36.3120 O   0  0  0  0  0  0  0  0  0  0  0  0
   -5.6358   34.5694  -36.4521 C   0  0  0  0  0  0  0  0  0  0  0  0
   -7.1196   34.9064  -36.3470 C   0  0  0  0  0  0  0  0  0  0  0  0
   -7.8442   34.4206  -37.4572 O   0  0  0  0  0  0  0  0  0  0  0  0
   -3.2124   30.7519  -36.2317 H   0  0  0  0  0  0  0  0  0  0  0  0
   -4.7909   30.9046  -35.2998 H   0  0  0  0  0  0  0  0  0  0  0  0
   -3.5779   33.1448  -35.5817 H   0  0  0  0  0  0  0  0  0  0  0  0
   -3.7621   32.9716  -37.3987 H   0  0  0  0  0  0  0  0  0  0  0  0
   -5.2265   34.8780  -37.4500 H   0  0  0  0  0  0  0  0  0  0  0  0
   -5.0581   35.0726  -35.6336 H   0  0  0  0  0  0  0  0  0  0  0  0
   -7.5422   34.4877  -35.3952 H   0  0  0  0  0  0  0  0  0  0  0  0
   -7.2580   36.0198  -36.3727 H   0  0  0  0  0  0  0  0  0  0  0  0
   -7.6968   33.4669  -37.4938 H   0  0  0  0  0  0  0  0  0  0  0  0
   -4.8798   30.5613  -37.3545 O   0  0  0  0  0  0  0  0  0  0  0  0
   -5.7617   30.9479  -37.4271 H   0  0  0  0  0  0  0  0  0  0  0  0
  1  2  1  0  0  0  0
  1  7  1  0  0  0  0
  1  8  1  0  0  0  0
  1 16  1  0  0  0  0
  2  3  1  0  0  0  0
  2  9  1  0  0  0  0
  2 10  1  0  0  0  0
  3  4  1  0  0  0  0
  4  5  1  0  0  0  0
  4 11  1  0  0  0  0
  4 12  1  0  0  0  0
  5  6  1  0  0  0  0
  5 13  1  0  0  0  0
  5 14  1  0  0  0  0
  6 15  1  0  0  0  0
 16 17  1  0  0  0  0
M  END
