./000111-76-2.hin
 OpenBabel09241315583D

 22 21  0  0  0  0  0  0  0  0999 V2000
  -39.8016    0.0316   45.7611 C   0  0  0  0  0  0  0  0  0  0  0  0
  -40.4425   -0.2761   44.8929 H   0  0  0  0  0  0  0  0  0  0  0  0
  -38.3789   -0.4808   45.5608 C   0  0  0  0  0  0  0  0  0  0  0  0
  -38.3721   -1.5971   45.4570 H   0  0  0  0  0  0  0  0  0  0  0  0
  -37.9125   -0.0146   44.6532 H   0  0  0  0  0  0  0  0  0  0  0  0
  -39.8499    1.4427   45.7734 O   0  0  0  0  0  0  0  0  0  0  0  0
  -37.6526   -0.0978   46.7261 O   0  0  0  0  0  0  0  0  0  0  0  0
  -40.2254   -0.3774   46.7165 H   0  0  0  0  0  0  0  0  0  0  0  0
  -39.2470    1.7382   46.4680 H   0  0  0  0  0  0  0  0  0  0  0  0
  -36.2777   -0.4732   46.6557 C   0  0  0  0  0  0  0  0  0  0  0  0
  -35.6349   -0.0160   47.9528 C   0  0  0  0  0  0  0  0  0  0  0  0
  -34.1659   -0.3779   47.9718 C   0  0  0  0  0  0  0  0  0  0  0  0
  -33.5084    0.0688   49.2520 C   0  0  0  0  0  0  0  0  0  0  0  0
  -36.1989   -1.5868   46.5369 H   0  0  0  0  0  0  0  0  0  0  0  0
  -35.7979    0.0231   45.7703 H   0  0  0  0  0  0  0  0  0  0  0  0
  -35.7617    1.0928   48.0596 H   0  0  0  0  0  0  0  0  0  0  0  0
  -36.1630   -0.4948   48.8180 H   0  0  0  0  0  0  0  0  0  0  0  0
  -34.0515   -1.4884   47.8569 H   0  0  0  0  0  0  0  0  0  0  0  0
  -33.6504    0.0998   47.0968 H   0  0  0  0  0  0  0  0  0  0  0  0
  -32.4262   -0.2068   49.2481 H   0  0  0  0  0  0  0  0  0  0  0  0
  -33.5905    1.1762   49.3720 H   0  0  0  0  0  0  0  0  0  0  0  0
  -33.9931   -0.4155   50.1341 H   0  0  0  0  0  0  0  0  0  0  0  0
  1  2  1  0  0  0  0
  1  3  1  0  0  0  0
  1  6  1  0  0  0  0
  1  8  1  0  0  0  0
  3  4  1  0  0  0  0
  3  5  1  0  0  0  0
  3  7  1  0  0  0  0
  6  9  1  0  0  0  0
  7 10  1  0  0  0  0
 10 11  1  0  0  0  0
 10 14  1  0  0  0  0
 10 15  1  0  0  0  0
 11 12  1  0  0  0  0
 11 16  1  0  0  0  0
 11 17  1  0  0  0  0
 12 13  1  0  0  0  0
 12 18  1  0  0  0  0
 12 19  1  0  0  0  0
 13 20  1  0  0  0  0
 13 21  1  0  0  0  0
 13 22  1  0  0  0  0
M  END
