./000112-36-7.hin
 OpenBabel09241315583D

 29 28  0  0  0  0  0  0  0  0999 V2000
  -13.6930    5.0440   12.3624 O   0  0  0  0  0  0  0  0  0  0  0  0
  -15.2696    6.7995   12.3461 C   0  0  0  0  0  0  0  0  0  0  0  0
  -13.8554    6.4107   11.9834 C   0  0  0  0  0  0  0  0  0  0  0  0
  -10.9020    1.2513   12.5998 C   0  0  0  0  0  0  0  0  0  0  0  0
   -9.4440    0.9004   12.3201 C   0  0  0  0  0  0  0  0  0  0  0  0
   -8.8235    0.7127   13.5895 O   0  0  0  0  0  0  0  0  0  0  0  0
  -11.5874    0.6036   11.9923 H   0  0  0  0  0  0  0  0  0  0  0  0
  -11.1386    1.1319   13.6905 H   0  0  0  0  0  0  0  0  0  0  0  0
  -11.0712    2.6115   12.2035 O   0  0  0  0  0  0  0  0  0  0  0  0
   -8.9364    1.7280   11.7564 H   0  0  0  0  0  0  0  0  0  0  0  0
   -7.4132    0.5256   13.4800 C   0  0  0  0  0  0  0  0  0  0  0  0
  -12.3607    3.1120   12.5485 C   0  0  0  0  0  0  0  0  0  0  0  0
   -6.8877    0.3248   14.8823 C   0  0  0  0  0  0  0  0  0  0  0  0
  -12.3852    4.5603   12.0687 C   0  0  0  0  0  0  0  0  0  0  0  0
  -15.4424    7.8656   12.0667 H   0  0  0  0  0  0  0  0  0  0  0  0
  -16.0018    6.1547   11.8041 H   0  0  0  0  0  0  0  0  0  0  0  0
  -15.4382    6.6755   13.4425 H   0  0  0  0  0  0  0  0  0  0  0  0
  -13.6767    6.5158   10.8796 H   0  0  0  0  0  0  0  0  0  0  0  0
  -13.1078    7.0426   12.5338 H   0  0  0  0  0  0  0  0  0  0  0  0
   -7.2040   -0.3712   12.8372 H   0  0  0  0  0  0  0  0  0  0  0  0
   -6.9518    1.4306   13.0010 H   0  0  0  0  0  0  0  0  0  0  0  0
  -13.1568    2.5109   12.0364 H   0  0  0  0  0  0  0  0  0  0  0  0
  -12.5119    3.0592   13.6582 H   0  0  0  0  0  0  0  0  0  0  0  0
   -5.7824    0.1780   14.8450 H   0  0  0  0  0  0  0  0  0  0  0  0
   -7.1187    1.2149   15.5149 H   0  0  0  0  0  0  0  0  0  0  0  0
   -7.3612   -0.5704   15.3512 H   0  0  0  0  0  0  0  0  0  0  0  0
  -11.6156    5.1699   12.6103 H   0  0  0  0  0  0  0  0  0  0  0  0
  -12.1921    4.6161   10.9655 H   0  0  0  0  0  0  0  0  0  0  0  0
   -9.3750   -0.0519   11.7312 H   0  0  0  0  0  0  0  0  0  0  0  0
  1  3  1  0  0  0  0
  1 14  1  0  0  0  0
  2  3  1  0  0  0  0
  2 15  1  0  0  0  0
  2 16  1  0  0  0  0
  2 17  1  0  0  0  0
  3 18  1  0  0  0  0
  3 19  1  0  0  0  0
  4  5  1  0  0  0  0
  4  7  1  0  0  0  0
  4  8  1  0  0  0  0
  4  9  1  0  0  0  0
  5  6  1  0  0  0  0
  5 10  1  0  0  0  0
  5 29  1  0  0  0  0
  6 11  1  0  0  0  0
  9 12  1  0  0  0  0
 11 13  1  0  0  0  0
 11 20  1  0  0  0  0
 11 21  1  0  0  0  0
 12 14  1  0  0  0  0
 12 22  1  0  0  0  0
 12 23  1  0  0  0  0
 13 24  1  0  0  0  0
 13 25  1  0  0  0  0
 13 26  1  0  0  0  0
 14 27  1  0  0  0  0
 14 28  1  0  0  0  0
M  END
