./000115-07-1.hin
 OpenBabel09241315583D

  9  8  0  0  0  0  0  0  0  0999 V2000
   -1.7843   -0.4403    0.0125 C   0  0  0  0  0  0  0  0  0  0  0  0
   -1.8418    1.0336    0.0755 C   0  0  0  0  0  0  0  0  0  0  0  0
   -2.9562    1.7470   -0.0692 C   0  0  0  0  0  0  0  0  0  0  0  0
   -1.3872   -0.8507    0.9749 H   0  0  0  0  0  0  0  0  0  0  0  0
   -2.7913   -0.8887   -0.1718 H   0  0  0  0  0  0  0  0  0  0  0  0
   -1.0992   -0.7631   -0.8113 H   0  0  0  0  0  0  0  0  0  0  0  0
   -0.8722    1.5285    0.2562 H   0  0  0  0  0  0  0  0  0  0  0  0
   -2.9615    2.8432   -0.0163 H   0  0  0  0  0  0  0  0  0  0  0  0
   -3.9369    1.2877   -0.2499 H   0  0  0  0  0  0  0  0  0  0  0  0
  1  2  1  0  0  0  0
  1  4  1  0  0  0  0
  1  5  1  0  0  0  0
  1  6  1  0  0  0  0
  2  3  2  0  0  0  0
  2  7  1  0  0  0  0
  3  8  1  0  0  0  0
  3  9  1  0  0  0  0
M  END
