./000116-09-6.hin
 OpenBabel09241315583D

 11 10  0  0  0  0  0  0  0  0999 V2000
   -1.6552   -1.3592    2.6720 C   0  0  0  0  0  0  0  0  0  0  0  0
   -1.7243    0.1323    2.4185 C   0  0  0  0  0  0  0  0  0  0  0  0
   -0.8021   -1.5752    3.3711 H   0  0  0  0  0  0  0  0  0  0  0  0
   -2.8797   -1.7849    3.2444 O   0  0  0  0  0  0  0  0  0  0  0  0
   -2.9876    0.8244    2.7952 C   0  0  0  0  0  0  0  0  0  0  0  0
   -2.9318    1.9154    2.5670 H   0  0  0  0  0  0  0  0  0  0  0  0
   -3.8404    0.3664    2.2351 H   0  0  0  0  0  0  0  0  0  0  0  0
   -3.1770    0.6780    3.8876 H   0  0  0  0  0  0  0  0  0  0  0  0
   -0.7541    0.7118    1.9198 O   0  0  0  0  0  0  0  0  0  0  0  0
   -1.4744   -1.8906    1.6982 H   0  0  0  0  0  0  0  0  0  0  0  0
   -2.7962   -2.7348    3.3900 H   0  0  0  0  0  0  0  0  0  0  0  0
  1  2  1  0  0  0  0
  1  3  1  0  0  0  0
  1  4  1  0  0  0  0
  1 10  1  0  0  0  0
  2  5  1  0  0  0  0
  2  9  2  0  0  0  0
  4 11  1  0  0  0  0
  5  6  1  0  0  0  0
  5  7  1  0  0  0  0
  5  8  1  0  0  0  0
M  END
