./000120-82-1.hin
 OpenBabel09241315583D

 12 12  0  0  0  0  0  0  0  0999 V2000
   -1.2205    9.2556   35.5395 Cl  0  0  0  0  0  0  0  0  0  0  0  0
   -2.3998    5.4650   35.5395 C   0  0  0  0  0  0  0  0  0  0  0  0
   -2.3967    6.8565   35.5395 C   0  0  0  0  0  0  0  0  0  0  0  0
   -1.1850    4.7709   35.5395 C   0  0  0  0  0  0  0  0  0  0  0  0
    0.0297    5.4602   35.5395 C   0  0  0  0  0  0  0  0  0  0  0  0
    0.0283    6.8593   35.5395 C   0  0  0  0  0  0  0  0  0  0  0  0
   -1.1871    7.5612   35.5395 C   0  0  0  0  0  0  0  0  0  0  0  0
   -3.3515    7.4059   35.5395 H   0  0  0  0  0  0  0  0  0  0  0  0
    1.5129    7.6775   35.5395 Cl  0  0  0  0  0  0  0  0  0  0  0  0
   -1.1838    3.0731   35.5395 Cl  0  0  0  0  0  0  0  0  0  0  0  0
    0.9843    4.9097   35.5395 H   0  0  0  0  0  0  0  0  0  0  0  0
   -3.3547    4.9171   35.5395 H   0  0  0  0  0  0  0  0  0  0  0  0
  1  7  1  0  0  0  0
  2  3  2  0  0  0  0
  2  4  1  0  0  0  0
  2 12  1  0  0  0  0
  3  7  1  0  0  0  0
  3  8  1  0  0  0  0
  4  5  2  0  0  0  0
  4 10  1  0  0  0  0
  5  6  1  0  0  0  0
  5 11  1  0  0  0  0
  6  7  2  0  0  0  0
  6  9  1  0  0  0  0
M  END
