./000120-92-3.hin
 OpenBabel09241315583D

 14 14  0  0  0  0  0  0  0  0999 V2000
    0.4768    2.0028   -0.6822 O   0  0  0  0  0  0  0  0  0  0  0  0
   -2.8054    1.2631    0.6586 C   0  0  0  0  0  0  0  0  0  0  0  0
   -1.3856    0.8208    0.3396 C   0  0  0  0  0  0  0  0  0  0  0  0
   -0.6857    2.0026   -0.2789 C   0  0  0  0  0  0  0  0  0  0  0  0
   -1.6186    3.1842   -0.3310 C   0  0  0  0  0  0  0  0  0  0  0  0
   -2.9309    2.7415    0.2975 C   0  0  0  0  0  0  0  0  0  0  0  0
   -3.0317    1.1054    1.7426 H   0  0  0  0  0  0  0  0  0  0  0  0
   -3.5425    0.6572    0.0742 H   0  0  0  0  0  0  0  0  0  0  0  0
   -1.3733   -0.0422   -0.3734 H   0  0  0  0  0  0  0  0  0  0  0  0
   -0.8375    0.5024    1.2626 H   0  0  0  0  0  0  0  0  0  0  0  0
   -1.7598    3.5026   -1.3952 H   0  0  0  0  0  0  0  0  0  0  0  0
   -1.1677    4.0473    0.2213 H   0  0  0  0  0  0  0  0  0  0  0  0
   -3.7798    2.8989   -0.4136 H   0  0  0  0  0  0  0  0  0  0  0  0
   -3.1480    3.3472    1.2128 H   0  0  0  0  0  0  0  0  0  0  0  0
  1  4  2  0  0  0  0
  2  3  1  0  0  0  0
  2  6  1  0  0  0  0
  2  7  1  0  0  0  0
  2  8  1  0  0  0  0
  3  4  1  0  0  0  0
  3  9  1  0  0  0  0
  3 10  1  0  0  0  0
  4  5  1  0  0  0  0
  5  6  1  0  0  0  0
  5 11  1  0  0  0  0
  5 12  1  0  0  0  0
  6 13  1  0  0  0  0
  6 14  1  0  0  0  0
M  END
