./000123-72-8.hin
 OpenBabel09241315583D

 13 12  0  0  0  0  0  0  0  0999 V2000
  -14.5139    1.6773   35.3547 C   0  0  0  0  0  0  0  0  0  0  0  0
  -15.9599    5.2210   35.4036 C   0  0  0  0  0  0  0  0  0  0  0  0
  -14.5256    3.1838   35.3232 C   0  0  0  0  0  0  0  0  0  0  0  0
  -15.9362    3.7241   35.4077 C   0  0  0  0  0  0  0  0  0  0  0  0
  -16.4237    3.3744   36.3584 H   0  0  0  0  0  0  0  0  0  0  0  0
  -16.5530    3.3301   34.5567 H   0  0  0  0  0  0  0  0  0  0  0  0
  -14.0431    3.5443   34.3763 H   0  0  0  0  0  0  0  0  0  0  0  0
  -13.9171    3.5831   36.1778 H   0  0  0  0  0  0  0  0  0  0  0  0
  -15.0548    5.7177   35.8218 H   0  0  0  0  0  0  0  0  0  0  0  0
  -16.9134    5.8757   34.9811 O   0  0  0  0  0  0  0  0  0  0  0  0
  -13.4656    1.2978   35.2891 H   0  0  0  0  0  0  0  0  0  0  0  0
  -14.9681    1.2985   36.3022 H   0  0  0  0  0  0  0  0  0  0  0  0
  -15.0947    1.2602   34.4966 H   0  0  0  0  0  0  0  0  0  0  0  0
  1  3  1  0  0  0  0
  1 11  1  0  0  0  0
  1 12  1  0  0  0  0
  1 13  1  0  0  0  0
  2  4  1  0  0  0  0
  2  9  1  0  0  0  0
  2 10  2  0  0  0  0
  3  4  1  0  0  0  0
  3  7  1  0  0  0  0
  3  8  1  0  0  0  0
  4  5  1  0  0  0  0
  4  6  1  0  0  0  0
M  END
