./000123-86-4.hin
 OpenBabel09241315583D

 20 19  0  0  0  0  0  0  0  0999 V2000
   -0.8065    3.3429   29.8221 C   0  0  0  0  0  0  0  0  0  0  0  0
   -1.1197    4.7945   29.9379 C   0  0  0  0  0  0  0  0  0  0  0  0
   -2.0790    5.0191   29.4116 H   0  0  0  0  0  0  0  0  0  0  0  0
   -0.2911    5.3895   29.4838 H   0  0  0  0  0  0  0  0  0  0  0  0
    0.2231    2.8117   29.4018 O   0  0  0  0  0  0  0  0  0  0  0  0
   -1.8339    2.5451   30.2464 O   0  0  0  0  0  0  0  0  0  0  0  0
   -1.6511    1.1248   30.1862 C   0  0  0  0  0  0  0  0  0  0  0  0
   -2.7044    0.7348   30.1956 H   0  0  0  0  0  0  0  0  0  0  0  0
   -1.1393    0.8440   29.2292 H   0  0  0  0  0  0  0  0  0  0  0  0
   -0.8658    0.6334   31.3868 C   0  0  0  0  0  0  0  0  0  0  0  0
   -1.2301    5.0660   31.0162 H   0  0  0  0  0  0  0  0  0  0  0  0
   -0.8027   -0.8781   31.4000 C   0  0  0  0  0  0  0  0  0  0  0  0
    0.1706    1.0621   31.3453 H   0  0  0  0  0  0  0  0  0  0  0  0
   -1.3473    1.0062   32.3282 H   0  0  0  0  0  0  0  0  0  0  0  0
   -0.0196   -1.3841   32.5838 C   0  0  0  0  0  0  0  0  0  0  0  0
   -1.8435   -1.2970   31.4297 H   0  0  0  0  0  0  0  0  0  0  0  0
   -0.3263   -1.2404   30.4505 H   0  0  0  0  0  0  0  0  0  0  0  0
    0.0160   -2.5003   32.5759 H   0  0  0  0  0  0  0  0  0  0  0  0
    1.0278   -0.9971   32.5575 H   0  0  0  0  0  0  0  0  0  0  0  0
   -0.4915   -1.0525   33.5402 H   0  0  0  0  0  0  0  0  0  0  0  0
  1  2  1  0  0  0  0
  1  5  2  0  0  0  0
  1  6  1  0  0  0  0
  2  3  1  0  0  0  0
  2  4  1  0  0  0  0
  2 11  1  0  0  0  0
  6  7  1  0  0  0  0
  7  8  1  0  0  0  0
  7  9  1  0  0  0  0
  7 10  1  0  0  0  0
 10 12  1  0  0  0  0
 10 13  1  0  0  0  0
 10 14  1  0  0  0  0
 12 15  1  0  0  0  0
 12 16  1  0  0  0  0
 12 17  1  0  0  0  0
 15 18  1  0  0  0  0
 15 19  1  0  0  0  0
 15 20  1  0  0  0  0
M  END
