./000124-18-5.hin
 OpenBabel09241315583D

 32 31  0  0  0  0  0  0  0  0999 V2000
   -2.7735  -10.8037   22.8171 C   0  0  0  0  0  0  0  0  0  0  0  0
   -3.2417  -11.2037   21.8792 H   0  0  0  0  0  0  0  0  0  0  0  0
   -2.7079   -9.2931   22.7471 C   0  0  0  0  0  0  0  0  0  0  0  0
   -3.6364  -12.7749   24.0885 C   0  0  0  0  0  0  0  0  0  0  0  0
   -4.4339  -13.2355   25.2896 C   0  0  0  0  0  0  0  0  0  0  0  0
   -3.5708  -11.2643   24.0184 C   0  0  0  0  0  0  0  0  0  0  0  0
   -4.5003  -14.7463   25.3609 C   0  0  0  0  0  0  0  0  0  0  0  0
   -3.9660  -12.8358   26.2278 H   0  0  0  0  0  0  0  0  0  0  0  0
   -5.4731  -12.8164   25.2346 H   0  0  0  0  0  0  0  0  0  0  0  0
   -2.5972  -13.1942   24.1437 H   0  0  0  0  0  0  0  0  0  0  0  0
   -3.7471   -8.8737   22.6922 H   0  0  0  0  0  0  0  0  0  0  0  0
   -2.2396   -8.8932   23.6849 H   0  0  0  0  0  0  0  0  0  0  0  0
   -1.9108   -8.8325   21.5457 C   0  0  0  0  0  0  0  0  0  0  0  0
   -4.1045  -13.1748   23.1505 H   0  0  0  0  0  0  0  0  0  0  0  0
   -1.7343  -11.2231   22.8722 H   0  0  0  0  0  0  0  0  0  0  0  0
   -5.2934  -15.2095   26.5554 C   0  0  0  0  0  0  0  0  0  0  0  0
   -4.9670  -15.1443   24.4212 H   0  0  0  0  0  0  0  0  0  0  0  0
   -3.4599  -15.1637   25.4144 H   0  0  0  0  0  0  0  0  0  0  0  0
   -0.8715   -9.2516   21.6004 H   0  0  0  0  0  0  0  0  0  0  0  0
   -2.3789   -9.2321   20.6077 H   0  0  0  0  0  0  0  0  0  0  0  0
   -1.8443   -7.3217   21.4745 C   0  0  0  0  0  0  0  0  0  0  0  0
   -5.3297  -16.3251   26.5887 H   0  0  0  0  0  0  0  0  0  0  0  0
   -4.8295  -14.8432   27.5031 H   0  0  0  0  0  0  0  0  0  0  0  0
   -6.3406  -14.8238   26.5072 H   0  0  0  0  0  0  0  0  0  0  0  0
   -1.0516   -6.8585   20.2797 C   0  0  0  0  0  0  0  0  0  0  0  0
   -2.8846   -6.9042   21.4215 H   0  0  0  0  0  0  0  0  0  0  0  0
   -1.3772   -6.9238   22.4140 H   0  0  0  0  0  0  0  0  0  0  0  0
   -4.6100  -10.8449   23.9634 H   0  0  0  0  0  0  0  0  0  0  0  0
   -3.1027  -10.8643   24.9564 H   0  0  0  0  0  0  0  0  0  0  0  0
   -1.0152   -5.7429   20.2464 H   0  0  0  0  0  0  0  0  0  0  0  0
   -0.0045   -7.2442   20.3274 H   0  0  0  0  0  0  0  0  0  0  0  0
   -1.5160   -7.2246   19.3322 H   0  0  0  0  0  0  0  0  0  0  0  0
  1  2  1  0  0  0  0
  1  3  1  0  0  0  0
  1  6  1  0  0  0  0
  1 15  1  0  0  0  0
  3 11  1  0  0  0  0
  3 12  1  0  0  0  0
  3 13  1  0  0  0  0
  4  5  1  0  0  0  0
  4  6  1  0  0  0  0
  4 10  1  0  0  0  0
  4 14  1  0  0  0  0
  5  7  1  0  0  0  0
  5  8  1  0  0  0  0
  5  9  1  0  0  0  0
  6 28  1  0  0  0  0
  6 29  1  0  0  0  0
  7 16  1  0  0  0  0
  7 17  1  0  0  0  0
  7 18  1  0  0  0  0
 13 19  1  0  0  0  0
 13 20  1  0  0  0  0
 13 21  1  0  0  0  0
 16 22  1  0  0  0  0
 16 23  1  0  0  0  0
 16 24  1  0  0  0  0
 21 25  1  0  0  0  0
 21 26  1  0  0  0  0
 21 27  1  0  0  0  0
 25 30  1  0  0  0  0
 25 31  1  0  0  0  0
 25 32  1  0  0  0  0
M  END
