./000127-18-4.hin
 OpenBabel09241315583D

  6  5  0  0  0  0  0  0  0  0999 V2000
    1.3573   -1.6240    0.2603 C   0  0  0  0  0  0  0  0  0  0  0  0
    1.3573   -0.2727    0.2603 C   0  0  0  0  0  0  0  0  0  0  0  0
    2.7893   -2.5227    0.2603 Cl  0  0  0  0  0  0  0  0  0  0  0  0
   -0.0748   -2.5227    0.2603 Cl  0  0  0  0  0  0  0  0  0  0  0  0
   -0.0748    0.6260    0.2603 Cl  0  0  0  0  0  0  0  0  0  0  0  0
    2.7893    0.6260    0.2603 Cl  0  0  0  0  0  0  0  0  0  0  0  0
  1  2  2  0  0  0  0
  1  3  1  0  0  0  0
  1  4  1  0  0  0  0
  2  5  1  0  0  0  0
  2  6  1  0  0  0  0
M  END
