./000127-91-3.hin
 OpenBabel09241315583D

 26 27  0  0  1  0  0  0  0  0999 V2000
   -3.6919    0.4503    0.5628 C   0  0  0  0  0  0  0  0  0  0  0  0
   -3.6113    1.8396   -0.0753 C   0  0  0  0  0  0  0  0  0  0  0  0
   -2.1975    2.3887   -0.0667 C   0  0  1  0  0  0  0  0  0  0  0  0
   -2.3717   -0.2430    0.7397 C   0  0  0  0  0  0  0  0  0  0  0  0
   -1.1787    0.6450    0.6130 C   0  0  2  0  0  0  0  0  0  0  0  0
   -1.5488    1.9992    1.2904 C   0  0  0  0  0  0  0  0  0  0  0  0
   -1.2333    1.3763   -0.7789 C   0  0  0  0  0  0  0  0  0  0  0  0
    0.0915    2.0098   -1.1330 C   0  0  0  0  0  0  0  0  0  0  0  0
   -1.7588    0.6145   -1.9619 C   0  0  0  0  0  0  0  0  0  0  0  0
   -2.2840   -1.5459    1.0156 C   0  0  0  0  0  0  0  0  0  0  0  0
   -4.3710   -0.1971   -0.0533 H   0  0  0  0  0  0  0  0  0  0  0  0
   -4.1656    0.5452    1.5781 H   0  0  0  0  0  0  0  0  0  0  0  0
   -4.2829    2.5397    0.4865 H   0  0  0  0  0  0  0  0  0  0  0  0
   -3.9845    1.7947   -1.1314 H   0  0  0  0  0  0  0  0  0  0  0  0
   -2.1233    3.4439   -0.3864 H   0  0  0  0  0  0  0  0  0  0  0  0
   -0.2151    0.1788    0.8880 H   0  0  0  0  0  0  0  0  0  0  0  0
   -0.6655    2.6143    1.5595 H   0  0  0  0  0  0  0  0  0  0  0  0
   -2.2411    1.9334    2.1528 H   0  0  0  0  0  0  0  0  0  0  0  0
    0.4867    2.6248   -0.2895 H   0  0  0  0  0  0  0  0  0  0  0  0
    0.8426    1.2186   -1.3738 H   0  0  0  0  0  0  0  0  0  0  0  0
   -0.0281    2.6709   -2.0255 H   0  0  0  0  0  0  0  0  0  0  0  0
   -2.0500    1.3277   -2.7719 H   0  0  0  0  0  0  0  0  0  0  0  0
   -0.9680   -0.0687   -2.3595 H   0  0  0  0  0  0  0  0  0  0  0  0
   -2.6500   -0.0054   -1.7015 H   0  0  0  0  0  0  0  0  0  0  0  0
   -3.1693   -2.1873    1.1084 H   0  0  0  0  0  0  0  0  0  0  0  0
   -1.3211   -2.0501    1.1650 H   0  0  0  0  0  0  0  0  0  0  0  0
  1  2  1  0  0  0  0
  1  4  1  0  0  0  0
  1 11  1  0  0  0  0
  1 12  1  0  0  0  0
  2  3  1  0  0  0  0
  2 13  1  0  0  0  0
  2 14  1  0  0  0  0
  3  6  1  0  0  0  0
  3  7  1  0  0  0  0
  3 15  1  6  0  0  0
  4  5  1  0  0  0  0
  4 10  2  0  0  0  0
  5  6  1  0  0  0  0
  5  7  1  0  0  0  0
  5 16  1  1  0  0  0
  6 17  1  0  0  0  0
  6 18  1  0  0  0  0
  7  8  1  0  0  0  0
  7  9  1  0  0  0  0
  8 19  1  0  0  0  0
  8 20  1  0  0  0  0
  8 21  1  0  0  0  0
  9 22  1  0  0  0  0
  9 23  1  0  0  0  0
  9 24  1  0  0  0  0
 10 25  1  0  0  0  0
 10 26  1  0  0  0  0
M  END
