./000130-15-4.hin
 OpenBabel02061415193D

 18 19  0  0  0  0  0  0  0  0999 V2000
    5.0775    3.6106   -2.0104 O   0  0  0  0  0  0  0  0  0  0  0  0
    0.2738    2.0851   -2.0104 C   0  0  0  0  0  0  0  0  0  0  0  0
    0.2727    3.4814   -2.0104 C   0  0  0  0  0  0  0  0  0  0  0  0
    1.4792    4.1875   -2.0104 C   0  0  0  0  0  0  0  0  0  0  0  0
    2.6980    3.4838   -2.0104 C   0  0  0  0  0  0  0  0  0  0  0  0
    2.6897    2.0859   -2.0104 C   0  0  0  0  0  0  0  0  0  0  0  0
    1.4799    1.3888   -2.0104 C   0  0  0  0  0  0  0  0  0  0  0  0
    1.4552    5.6662   -2.0104 C   0  0  0  0  0  0  0  0  0  0  0  0
    2.7667    6.3469   -2.0104 C   0  0  0  0  0  0  0  0  0  0  0  0
    3.9243    5.6786   -2.0104 C   0  0  0  0  0  0  0  0  0  0  0  0
    3.9905    4.2024   -2.0104 C   0  0  0  0  0  0  0  0  0  0  0  0
   -0.6813    1.5381   -2.0104 H   0  0  0  0  0  0  0  0  0  0  0  0
   -0.6772    4.0417   -2.0104 H   0  0  0  0  0  0  0  0  0  0  0  0
    2.7262    7.4496   -2.0104 H   0  0  0  0  0  0  0  0  0  0  0  0
    4.8995    6.1948   -2.0104 H   0  0  0  0  0  0  0  0  0  0  0  0
    0.3992    6.3116   -2.0104 O   0  0  0  0  0  0  0  0  0  0  0  0
    3.6499    1.5434   -2.0104 H   0  0  0  0  0  0  0  0  0  0  0  0
    1.4838    0.2881   -2.0104 H   0  0  0  0  0  0  0  0  0  0  0  0
  1 11  2  0  0  0  0
  2  3  2  0  0  0  0
  2  7  1  0  0  0  0
  2 12  1  0  0  0  0
  3  4  1  0  0  0  0
  3 13  1  0  0  0  0
  4  5  2  0  0  0  0
  4  8  1  0  0  0  0
  5  6  1  0  0  0  0
  5 11  1  0  0  0  0
  6  7  2  0  0  0  0
  6 17  1  0  0  0  0
  7 18  1  0  0  0  0
  8  9  1  0  0  0  0
  8 16  2  0  0  0  0
  9 10  2  0  0  0  0
  9 14  1  0  0  0  0
 10 11  1  0  0  0  0
 10 15  1  0  0  0  0
M  END
