./000141-46-8.hin
 OpenBabel09241315583D

  8  7  0  0  0  0  0  0  0  0999 V2000
    1.7950    1.9231    4.7620 O   0  0  0  0  0  0  0  0  0  0  0  0
    0.3935    2.0771    1.5390 O   0  0  0  0  0  0  0  0  0  0  0  0
    1.8174    2.4173    3.4336 C   0  0  0  0  0  0  0  0  0  0  0  0
    0.6299    1.8220    2.7189 C   0  0  0  0  0  0  0  0  0  0  0  0
    2.7666    2.1109    2.9164 H   0  0  0  0  0  0  0  0  0  0  0  0
   -0.0060    1.1455    3.3296 H   0  0  0  0  0  0  0  0  0  0  0  0
    2.5562    2.3077    5.2118 H   0  0  0  0  0  0  0  0  0  0  0  0
    1.7418    3.5383    3.4302 H   0  0  0  0  0  0  0  0  0  0  0  0
  1  3  1  0  0  0  0
  1  7  1  0  0  0  0
  2  4  2  0  0  0  0
  3  4  1  0  0  0  0
  3  5  1  0  0  0  0
  3  8  1  0  0  0  0
  4  6  1  0  0  0  0
M  END
