./000141-78-6.hin
 OpenBabel09241315583D

 14 13  0  0  0  0  0  0  0  0999 V2000
   -5.4818    2.7283    4.2820 O   0  0  0  0  0  0  0  0  0  0  0  0
   -5.5985    4.1623    4.2820 C   0  0  0  0  0  0  0  0  0  0  0  0
   -7.0764    4.4673    4.2820 C   0  0  0  0  0  0  0  0  0  0  0  0
   -5.0863    4.5639    5.1951 H   0  0  0  0  0  0  0  0  0  0  0  0
   -5.0863    4.5639    3.3690 H   0  0  0  0  0  0  0  0  0  0  0  0
   -7.2188    5.5743    4.2820 H   0  0  0  0  0  0  0  0  0  0  0  0
   -7.5665    4.0350    3.3772 H   0  0  0  0  0  0  0  0  0  0  0  0
   -7.5665    4.0350    5.1868 H   0  0  0  0  0  0  0  0  0  0  0  0
   -4.2142    2.2164    4.2820 C   0  0  0  0  0  0  0  0  0  0  0  0
   -4.1859    0.7279    4.2820 C   0  0  0  0  0  0  0  0  0  0  0  0
   -5.2201    0.3072    4.2820 H   0  0  0  0  0  0  0  0  0  0  0  0
   -3.6404    0.3769    5.1921 H   0  0  0  0  0  0  0  0  0  0  0  0
   -3.6404    0.3769    3.3719 H   0  0  0  0  0  0  0  0  0  0  0  0
   -3.2652    3.0038    4.2820 O   0  0  0  0  0  0  0  0  0  0  0  0
  1  2  1  0  0  0  0
  1  9  1  0  0  0  0
  2  3  1  0  0  0  0
  2  4  1  0  0  0  0
  2  5  1  0  0  0  0
  3  6  1  0  0  0  0
  3  7  1  0  0  0  0
  3  8  1  0  0  0  0
  9 10  1  0  0  0  0
  9 14  2  0  0  0  0
 10 11  1  0  0  0  0
 10 12  1  0  0  0  0
 10 13  1  0  0  0  0
M  END
