./000142-68-7.hin
 OpenBabel09241315583D

 16 16  0  0  0  0  0  0  0  0999 V2000
   -0.5087  -15.9989   25.4329 C   0  0  0  0  0  0  0  0  0  0  0  0
    0.2933  -16.5092   26.6178 C   0  0  0  0  0  0  0  0  0  0  0  0
    1.6852  -14.5852   26.6178 C   0  0  0  0  0  0  0  0  0  0  0  0
    0.9494  -13.9832   25.4329 C   0  0  0  0  0  0  0  0  0  0  0  0
    1.6255  -16.0074   26.6176 O   0  0  0  0  0  0  0  0  0  0  0  0
    1.2601  -14.1954   27.5813 H   0  0  0  0  0  0  0  0  0  0  0  0
    2.7839  -14.3618   26.5701 H   0  0  0  0  0  0  0  0  0  0  0  0
   -1.5647  -16.3614   25.5172 H   0  0  0  0  0  0  0  0  0  0  0  0
   -0.0757  -16.4149   24.4862 H   0  0  0  0  0  0  0  0  0  0  0  0
    0.4250  -17.6227   26.5701 H   0  0  0  0  0  0  0  0  0  0  0  0
   -0.2099  -16.2276   27.5813 H   0  0  0  0  0  0  0  0  0  0  0  0
    1.4800  -14.2642   24.4862 H   0  0  0  0  0  0  0  0  0  0  0  0
    0.9633  -12.8668   25.5172 H   0  0  0  0  0  0  0  0  0  0  0  0
   -0.4789  -14.4852   25.3792 C   0  0  0  0  0  0  0  0  0  0  0  0
   -0.9730  -14.1277   24.4396 H   0  0  0  0  0  0  0  0  0  0  0  0
   -1.0569  -14.0671   26.2448 H   0  0  0  0  0  0  0  0  0  0  0  0
  1  2  1  0  0  0  0
  1  8  1  0  0  0  0
  1  9  1  0  0  0  0
  1 14  1  0  0  0  0
  2  5  1  0  0  0  0
  2 10  1  0  0  0  0
  2 11  1  0  0  0  0
  3  4  1  0  0  0  0
  3  5  1  0  0  0  0
  3  6  1  0  0  0  0
  3  7  1  0  0  0  0
  4 12  1  0  0  0  0
  4 13  1  0  0  0  0
  4 14  1  0  0  0  0
 14 15  1  0  0  0  0
 14 16  1  0  0  0  0
M  END
