./000142-96-1.hin
 OpenBabel09241315583D

 27 26  0  0  0  0  0  0  0  0999 V2000
   -4.2535  -11.4335   23.7438 C   0  0  0  0  0  0  0  0  0  0  0  0
   -4.1437   -9.9193   23.7438 C   0  0  0  0  0  0  0  0  0  0  0  0
   -2.8873  -13.3658   23.7438 C   0  0  0  0  0  0  0  0  0  0  0  0
   -1.4232  -13.7671   23.7438 C   0  0  0  0  0  0  0  0  0  0  0  0
   -2.9204  -11.9401   23.7438 O   0  0  0  0  0  0  0  0  0  0  0  0
   -1.2863  -15.2739   23.7438 C   0  0  0  0  0  0  0  0  0  0  0  0
   -0.9194  -13.3322   22.8417 H   0  0  0  0  0  0  0  0  0  0  0  0
   -0.9194  -13.3322   24.6460 H   0  0  0  0  0  0  0  0  0  0  0  0
   -3.4117  -13.7553   22.8305 H   0  0  0  0  0  0  0  0  0  0  0  0
   -3.4117  -13.7553   24.6572 H   0  0  0  0  0  0  0  0  0  0  0  0
   -4.7956  -11.7980   24.6572 H   0  0  0  0  0  0  0  0  0  0  0  0
    0.1612  -15.6928   23.7438 C   0  0  0  0  0  0  0  0  0  0  0  0
   -1.8010  -15.6974   24.6467 H   0  0  0  0  0  0  0  0  0  0  0  0
   -1.8010  -15.6974   22.8410 H   0  0  0  0  0  0  0  0  0  0  0  0
    0.2424  -16.8066   23.7438 H   0  0  0  0  0  0  0  0  0  0  0  0
    0.6852  -15.3004   22.8389 H   0  0  0  0  0  0  0  0  0  0  0  0
    0.6852  -15.3004   24.6488 H   0  0  0  0  0  0  0  0  0  0  0  0
   -5.5186   -9.2879   23.7438 C   0  0  0  0  0  0  0  0  0  0  0  0
   -5.4310   -7.7835   23.7438 C   0  0  0  0  0  0  0  0  0  0  0  0
   -4.7956  -11.7980   22.8305 H   0  0  0  0  0  0  0  0  0  0  0  0
   -3.5658   -9.5894   24.6460 H   0  0  0  0  0  0  0  0  0  0  0  0
   -3.5658   -9.5894   22.8417 H   0  0  0  0  0  0  0  0  0  0  0  0
   -6.0896   -9.6320   22.8410 H   0  0  0  0  0  0  0  0  0  0  0  0
   -6.0896   -9.6320   24.6467 H   0  0  0  0  0  0  0  0  0  0  0  0
   -4.8863   -7.4204   24.6488 H   0  0  0  0  0  0  0  0  0  0  0  0
   -4.8863   -7.4204   22.8389 H   0  0  0  0  0  0  0  0  0  0  0  0
   -6.4539   -7.3357   23.7438 H   0  0  0  0  0  0  0  0  0  0  0  0
  1  2  1  0  0  0  0
  1  5  1  0  0  0  0
  1 11  1  0  0  0  0
  1 20  1  0  0  0  0
  2 18  1  0  0  0  0
  2 21  1  0  0  0  0
  2 22  1  0  0  0  0
  3  4  1  0  0  0  0
  3  5  1  0  0  0  0
  3  9  1  0  0  0  0
  3 10  1  0  0  0  0
  4  6  1  0  0  0  0
  4  7  1  0  0  0  0
  4  8  1  0  0  0  0
  6 12  1  0  0  0  0
  6 13  1  0  0  0  0
  6 14  1  0  0  0  0
 12 15  1  0  0  0  0
 12 16  1  0  0  0  0
 12 17  1  0  0  0  0
 18 19  1  0  0  0  0
 18 23  1  0  0  0  0
 18 24  1  0  0  0  0
 19 25  1  0  0  0  0
 19 26  1  0  0  0  0
 19 27  1  0  0  0  0
M  END
