./000152-20-5.hin
 OpenBabel09241315583D

 17 16  0  0  0  0  0  0  0  0999 V2000
   -9.4316    0.4891   34.1148 P   0  0  0  0  0  0  0  0  0  0  0  0
   -9.6898    2.3279   35.1978 S   0  0  0  0  0  0  0  0  0  0  0  0
   -7.8582    0.2177   34.2301 O   0  0  0  0  0  0  0  0  0  0  0  0
  -10.2999   -0.6074   34.5079 O   0  0  0  0  0  0  0  0  0  0  0  0
   -9.5590    0.8493   32.5586 O   0  0  0  0  0  0  0  0  0  0  0  0
   -8.4055    3.5813   35.0374 C   0  0  0  0  0  0  0  0  0  0  0  0
  -10.7701    0.5551   31.8986 C   0  0  0  0  0  0  0  0  0  0  0  0
   -7.4709   -1.0836   33.8425 C   0  0  0  0  0  0  0  0  0  0  0  0
   -8.7412    4.3923   35.7197 H   0  0  0  0  0  0  0  0  0  0  0  0
   -7.4271    3.1739   35.3644 H   0  0  0  0  0  0  0  0  0  0  0  0
   -8.3557    3.9456   33.9912 H   0  0  0  0  0  0  0  0  0  0  0  0
  -10.5071    0.0066   30.9559 H   0  0  0  0  0  0  0  0  0  0  0  0
  -11.4291   -0.0766   32.5482 H   0  0  0  0  0  0  0  0  0  0  0  0
  -11.2735    1.5212   31.6306 H   0  0  0  0  0  0  0  0  0  0  0  0
   -6.3815   -1.1744   34.0806 H   0  0  0  0  0  0  0  0  0  0  0  0
   -8.0724   -1.8321   34.4194 H   0  0  0  0  0  0  0  0  0  0  0  0
   -7.6471   -1.1960   32.7434 H   0  0  0  0  0  0  0  0  0  0  0  0
  1  2  1  0  0  0  0
  1  3  1  0  0  0  0
  1  4  2  0  0  0  0
  1  5  1  0  0  0  0
  2  6  1  0  0  0  0
  3  8  1  0  0  0  0
  5  7  1  0  0  0  0
  6  9  1  0  0  0  0
  6 10  1  0  0  0  0
  6 11  1  0  0  0  0
  7 12  1  0  0  0  0
  7 13  1  0  0  0  0
  7 14  1  0  0  0  0
  8 15  1  0  0  0  0
  8 16  1  0  0  0  0
  8 17  1  0  0  0  0
M  END
