./000156-60-5.hin
 OpenBabel09241315583D

  6  5  0  0  0  0  0  0  0  0999 V2000
   -1.0356    0.0625    0.0000 C   0  0  0  0  0  0  0  0  0  0  0  0
   -1.0439    1.3979    0.0000 C   0  0  0  0  0  0  0  0  0  0  0  0
   -2.4822    2.2859   -0.0000 Cl  0  0  0  0  0  0  0  0  0  0  0  0
    0.4027   -0.8255    0.0000 Cl  0  0  0  0  0  0  0  0  0  0  0  0
   -1.9348   -0.5684    0.0000 H   0  0  0  0  0  0  0  0  0  0  0  0
   -0.1447    2.0288   -0.0000 H   0  0  0  0  0  0  0  0  0  0  0  0
  1  2  2  0  0  0  0
  1  4  1  0  0  0  0
  1  5  1  0  0  0  0
  2  3  1  0  0  0  0
  2  6  1  0  0  0  0
M  END
