./000208-96-8.hin
 OpenBabel09241315583D

 20 22  0  0  0  0  0  0  0  0999 V2000
   -5.2278   -1.5151   -0.0000 C   0  0  0  0  0  0  0  0  0  0  0  0
   -4.0615   -2.2505   -0.0000 C   0  0  0  0  0  0  0  0  0  0  0  0
   -5.2491   -0.0892    0.0000 C   0  0  0  0  0  0  0  0  0  0  0  0
   -4.0552    0.5824    0.0000 C   0  0  0  0  0  0  0  0  0  0  0  0
   -2.8474   -0.1989    0.0000 C   0  0  0  0  0  0  0  0  0  0  0  0
   -2.7992   -1.5892    0.0000 C   0  0  0  0  0  0  0  0  0  0  0  0
   -1.6965    0.6642    0.0000 C   0  0  0  0  0  0  0  0  0  0  0  0
   -1.4940   -2.1615    0.0000 C   0  0  0  0  0  0  0  0  0  0  0  0
   -0.3815   -1.3470    0.0000 C   0  0  0  0  0  0  0  0  0  0  0  0
   -0.4590    0.0768    0.0000 C   0  0  0  0  0  0  0  0  0  0  0  0
   -2.2390    2.0363    0.0000 C   0  0  0  0  0  0  0  0  0  0  0  0
   -1.3895   -3.2561    0.0000 H   0  0  0  0  0  0  0  0  0  0  0  0
    0.6216   -1.8018    0.0000 H   0  0  0  0  0  0  0  0  0  0  0  0
    0.4692    0.6650    0.0000 H   0  0  0  0  0  0  0  0  0  0  0  0
   -4.0900   -3.3497   -0.0000 H   0  0  0  0  0  0  0  0  0  0  0  0
   -3.6091    1.9888    0.0000 C   0  0  0  0  0  0  0  0  0  0  0  0
   -6.1969   -2.0381   -0.0000 H   0  0  0  0  0  0  0  0  0  0  0  0
   -6.2158    0.4332    0.0000 H   0  0  0  0  0  0  0  0  0  0  0  0
   -1.6090    2.9245    0.0000 H   0  0  0  0  0  0  0  0  0  0  0  0
   -4.2991    2.8312    0.0000 H   0  0  0  0  0  0  0  0  0  0  0  0
  1  2  2  0  0  0  0
  1  3  1  0  0  0  0
  1 17  1  0  0  0  0
  2  6  1  0  0  0  0
  2 15  1  0  0  0  0
  3  4  2  0  0  0  0
  3 18  1  0  0  0  0
  4  5  1  0  0  0  0
  4 16  1  0  0  0  0
  5  6  2  0  0  0  0
  5  7  1  0  0  0  0
  6  8  1  0  0  0  0
  7 10  2  0  0  0  0
  7 11  1  0  0  0  0
  8  9  2  0  0  0  0
  8 12  1  0  0  0  0
  9 10  1  0  0  0  0
  9 13  1  0  0  0  0
 10 14  1  0  0  0  0
 11 16  2  0  0  0  0
 11 19  1  0  0  0  0
 16 20  1  0  0  0  0
M  END
