./000271-89-6.hin
 OpenBabel09241315583D

 15 16  0  0  0  0  0  0  0  0999 V2000
   -6.4844   -0.2174    0.0000 C   0  0  0  0  0  0  0  0  0  0  0  0
   -6.4663    1.1764   -0.0000 C   0  0  0  0  0  0  0  0  0  0  0  0
   -5.2122    1.7768   -0.0000 C   0  0  0  0  0  0  0  0  0  0  0  0
   -5.2989   -0.9678    0.0000 C   0  0  0  0  0  0  0  0  0  0  0  0
   -4.0465   -0.3575    0.0000 C   0  0  0  0  0  0  0  0  0  0  0  0
   -3.9898    1.0335   -0.0000 C   0  0  0  0  0  0  0  0  0  0  0  0
   -4.9408    3.1470   -0.0000 O   0  0  0  0  0  0  0  0  0  0  0  0
   -2.9288    2.0262   -0.0000 C   0  0  0  0  0  0  0  0  0  0  0  0
   -3.5386    3.2558   -0.0000 C   0  0  0  0  0  0  0  0  0  0  0  0
   -7.4519   -0.7417    0.0000 H   0  0  0  0  0  0  0  0  0  0  0  0
   -7.3876    1.7720   -0.0000 H   0  0  0  0  0  0  0  0  0  0  0  0
   -5.3636   -2.0663    0.0000 H   0  0  0  0  0  0  0  0  0  0  0  0
   -3.1257   -0.9569    0.0000 H   0  0  0  0  0  0  0  0  0  0  0  0
   -1.8642    1.8101   -0.0000 H   0  0  0  0  0  0  0  0  0  0  0  0
   -3.1874    4.2845   -0.0000 H   0  0  0  0  0  0  0  0  0  0  0  0
  1  2  2  0  0  0  0
  1  4  1  0  0  0  0
  1 10  1  0  0  0  0
  2  3  1  0  0  0  0
  2 11  1  0  0  0  0
  3  6  2  0  0  0  0
  3  7  1  0  0  0  0
  4  5  2  0  0  0  0
  4 12  1  0  0  0  0
  5  6  1  0  0  0  0
  5 13  1  0  0  0  0
  6  8  1  0  0  0  0
  7  9  1  0  0  0  0
  8  9  2  0  0  0  0
  8 14  1  0  0  0  0
  9 15  1  0  0  0  0
M  END
