./000279-23-2.hin
 OpenBabel09241315583D

 19 20  0  0  1  0  0  0  0  0999 V2000
   -1.3761    0.7857   -0.3356 C   0  0  2  0  0  0  0  0  0  0  0  0
    0.7559    1.6523    0.4287 C   0  0  0  0  0  0  0  0  0  0  0  0
    0.8490    0.3151   -0.3329 C   0  0  1  0  0  0  0  0  0  0  0  0
   -0.7515    1.9711    0.4269 C   0  0  0  0  0  0  0  0  0  0  0  0
    0.2433   -0.7712    0.5780 C   0  0  0  0  0  0  0  0  0  0  0  0
   -1.2642   -0.4524    0.5762 C   0  0  0  0  0  0  0  0  0  0  0  0
   -2.3909    0.9760   -0.7309 H   0  0  0  0  0  0  0  0  0  0  0  0
    1.3333    2.4463   -0.1020 H   0  0  0  0  0  0  0  0  0  0  0  0
    1.1561    1.5606    1.4654 H   0  0  0  0  0  0  0  0  0  0  0  0
   -0.2754    0.4881   -1.3865 C   0  0  0  0  0  0  0  0  0  0  0  0
    1.8549    0.0781   -0.7257 H   0  0  0  0  0  0  0  0  0  0  0  0
   -0.9567    2.9306   -0.1047 H   0  0  0  0  0  0  0  0  0  0  0  0
   -1.1569    2.0497    1.4626 H   0  0  0  0  0  0  0  0  0  0  0  0
    0.6720   -0.7277    1.6063 H   0  0  0  0  0  0  0  0  0  0  0  0
    0.4378   -1.7870    0.1588 H   0  0  0  0  0  0  0  0  0  0  0  0
   -1.6410   -0.2386    1.6035 H   0  0  0  0  0  0  0  0  0  0  0  0
   -1.8522   -1.3027    0.1560 H   0  0  0  0  0  0  0  0  0  0  0  0
   -0.4705   -0.4377   -1.9695 H   0  0  0  0  0  0  0  0  0  0  0  0
   -0.0948    1.3384   -2.0789 H   0  0  0  0  0  0  0  0  0  0  0  0
  1  4  1  0  0  0  0
  1  6  1  0  0  0  0
  1  7  1  6  0  0  0
  1 10  1  0  0  0  0
  2  3  1  0  0  0  0
  2  4  1  0  0  0  0
  2  8  1  0  0  0  0
  2  9  1  0  0  0  0
  3  5  1  0  0  0  0
  3 10  1  0  0  0  0
  3 11  1  6  0  0  0
  4 12  1  0  0  0  0
  4 13  1  0  0  0  0
  5  6  1  0  0  0  0
  5 14  1  0  0  0  0
  5 15  1  0  0  0  0
  6 16  1  0  0  0  0
  6 17  1  0  0  0  0
 10 18  1  0  0  0  0
 10 19  1  0  0  0  0
M  END
