./000287-23-0.hin
 OpenBabel09241315583D

 12 12  0  0  0  0  0  0  0  0999 V2000
   -5.5040    0.9117   -0.0000 C   0  0  0  0  0  0  0  0  0  0  0  0
   -5.5040    2.4550    0.0000 C   0  0  0  0  0  0  0  0  0  0  0  0
   -3.9608    2.4550   -0.0000 C   0  0  0  0  0  0  0  0  0  0  0  0
   -3.9608    0.9117   -0.0000 C   0  0  0  0  0  0  0  0  0  0  0  0
   -5.9570    0.4588   -0.9066 H   0  0  0  0  0  0  0  0  0  0  0  0
   -5.9569    0.4588    0.9066 H   0  0  0  0  0  0  0  0  0  0  0  0
   -5.9569    2.9079    0.9066 H   0  0  0  0  0  0  0  0  0  0  0  0
   -5.9570    2.9079   -0.9065 H   0  0  0  0  0  0  0  0  0  0  0  0
   -3.5078    2.9079    0.9066 H   0  0  0  0  0  0  0  0  0  0  0  0
   -3.5078    2.9079   -0.9066 H   0  0  0  0  0  0  0  0  0  0  0  0
   -3.5078    0.4588    0.9066 H   0  0  0  0  0  0  0  0  0  0  0  0
   -3.5078    0.4588   -0.9066 H   0  0  0  0  0  0  0  0  0  0  0  0
  1  2  1  0  0  0  0
  1  4  1  0  0  0  0
  1  5  1  0  0  0  0
  1  6  1  0  0  0  0
  2  3  1  0  0  0  0
  2  7  1  0  0  0  0
  2  8  1  0  0  0  0
  3  4  1  0  0  0  0
  3  9  1  0  0  0  0
  3 10  1  0  0  0  0
  4 11  1  0  0  0  0
  4 12  1  0  0  0  0
M  END
