./000288-42-6.hin
 OpenBabel09241315583D

  8  8  0  0  0  0  0  0  0  0999 V2000
   -0.3921  -15.9858   26.0154 N   0  0  0  0  0  0  0  0  0  0  0  0
    0.8791  -16.3687   26.0154 C   0  0  0  0  0  0  0  0  0  0  0  0
    0.9491  -14.1486   26.0154 C   0  0  0  0  0  0  0  0  0  0  0  0
   -0.3693  -14.5806   26.0154 C   0  0  0  0  0  0  0  0  0  0  0  0
    1.7651  -15.2814   26.0154 O   0  0  0  0  0  0  0  0  0  0  0  0
    1.4702  -13.1986   26.0154 H   0  0  0  0  0  0  0  0  0  0  0  0
    1.3351  -17.3590   26.0154 H   0  0  0  0  0  0  0  0  0  0  0  0
   -1.2944  -14.0047   26.0154 H   0  0  0  0  0  0  0  0  0  0  0  0
  1  2  2  0  0  0  0
  1  4  1  0  0  0  0
  2  5  1  0  0  0  0
  2  7  1  0  0  0  0
  3  4  2  0  0  0  0
  3  5  1  0  0  0  0
  3  6  1  0  0  0  0
  4  8  1  0  0  0  0
M  END
