./000288-47-1.hin
 OpenBabel09241315583D

  8  8  0  0  0  0  0  0  0  0999 V2000
   -2.6116   -1.1043   -0.0000 C   0  0  0  0  0  0  0  0  0  0  0  0
   -0.4586   -0.0221   -0.0000 C   0  0  0  0  0  0  0  0  0  0  0  0
   -1.4109    0.9041   -0.0000 N   0  0  0  0  0  0  0  0  0  0  0  0
   -2.6518    0.2830    0.0000 C   0  0  0  0  0  0  0  0  0  0  0  0
   -3.4764   -1.7627   -0.0000 H   0  0  0  0  0  0  0  0  0  0  0  0
    0.6023    0.2415   -0.0000 H   0  0  0  0  0  0  0  0  0  0  0  0
   -3.5527    0.9068    0.0000 H   0  0  0  0  0  0  0  0  0  0  0  0
   -1.0224   -1.6378   -0.0000 S   0  0  0  0  0  0  0  0  0  0  0  0
  1  4  2  0  0  0  0
  1  5  1  0  0  0  0
  1  8  1  0  0  0  0
  2  3  2  0  0  0  0
  2  6  1  0  0  0  0
  2  8  1  0  0  0  0
  3  4  1  0  0  0  0
  4  7  1  0  0  0  0
M  END
