./000291-64-5.hin
 OpenBabel09241315583D

 21 21  0  0  0  0  0  0  0  0999 V2000
   -3.8849    0.4838   -0.3428 C   0  0  0  0  0  0  0  0  0  0  0  0
   -4.0749    1.9841   -0.3428 C   0  0  0  0  0  0  0  0  0  0  0  0
   -3.3923    2.7020    0.8036 C   0  0  0  0  0  0  0  0  0  0  0  0
   -2.1202    2.0488    1.2940 C   0  0  0  0  0  0  0  0  0  0  0  0
   -1.0513    1.8895    0.2368 C   0  0  0  0  0  0  0  0  0  0  0  0
   -1.4670    1.0746   -0.9711 C   0  0  0  0  0  0  0  0  0  0  0  0
   -2.4857   -0.0039   -0.6776 C   0  0  0  0  0  0  0  0  0  0  0  0
   -4.6038    0.0444   -1.0867 H   0  0  0  0  0  0  0  0  0  0  0  0
   -4.1817    0.0838    0.6638 H   0  0  0  0  0  0  0  0  0  0  0  0
   -5.1771    2.1996   -0.2870 H   0  0  0  0  0  0  0  0  0  0  0  0
   -3.7210    2.4085   -1.3192 H   0  0  0  0  0  0  0  0  0  0  0  0
   -4.1046    2.7639    1.6706 H   0  0  0  0  0  0  0  0  0  0  0  0
   -3.1694    3.7557    0.4871 H   0  0  0  0  0  0  0  0  0  0  0  0
   -2.3636    1.0432    1.7304 H   0  0  0  0  0  0  0  0  0  0  0  0
   -1.7011    2.6735    2.1293 H   0  0  0  0  0  0  0  0  0  0  0  0
   -0.1612    1.4003    0.7174 H   0  0  0  0  0  0  0  0  0  0  0  0
   -0.7196    2.9044   -0.1102 H   0  0  0  0  0  0  0  0  0  0  0  0
   -0.5493    0.5854   -1.3986 H   0  0  0  0  0  0  0  0  0  0  0  0
   -1.8606    1.7565   -1.7703 H   0  0  0  0  0  0  0  0  0  0  0  0
   -2.1055   -0.6370    0.1686 H   0  0  0  0  0  0  0  0  0  0  0  0
   -2.5473   -0.6751   -1.5770 H   0  0  0  0  0  0  0  0  0  0  0  0
  1  2  1  0  0  0  0
  1  7  1  0  0  0  0
  1  8  1  0  0  0  0
  1  9  1  0  0  0  0
  2  3  1  0  0  0  0
  2 10  1  0  0  0  0
  2 11  1  0  0  0  0
  3  4  1  0  0  0  0
  3 12  1  0  0  0  0
  3 13  1  0  0  0  0
  4  5  1  0  0  0  0
  4 14  1  0  0  0  0
  4 15  1  0  0  0  0
  5  6  1  0  0  0  0
  5 16  1  0  0  0  0
  5 17  1  0  0  0  0
  6  7  1  0  0  0  0
  6 18  1  0  0  0  0
  6 19  1  0  0  0  0
  7 20  1  0  0  0  0
  7 21  1  0  0  0  0
M  END
