./000292-64-8.hin
 OpenBabel09241315583D

 24 24  0  0  0  0  0  0  0  0999 V2000
    0.8864    1.4394   -1.5444 C   0  0  0  0  0  0  0  0  0  0  0  0
    1.1233    2.8563   -1.0637 C   0  0  0  0  0  0  0  0  0  0  0  0
    0.6782    3.1312    0.3576 C   0  0  0  0  0  0  0  0  0  0  0  0
    2.0831    0.5184   -1.3850 C   0  0  0  0  0  0  0  0  0  0  0  0
    1.1081    2.1139    1.3934 C   0  0  0  0  0  0  0  0  0  0  0  0
    2.5786    1.7542    1.3284 C   0  0  0  0  0  0  0  0  0  0  0  0
    2.8408    0.2904    1.0434 C   0  0  0  0  0  0  0  0  0  0  0  0
    2.0685   -0.3065   -0.1145 C   0  0  0  0  0  0  0  0  0  0  0  0
    0.6301    1.4837   -2.6384 H   0  0  0  0  0  0  0  0  0  0  0  0
   -0.0068    1.0073   -1.0215 H   0  0  0  0  0  0  0  0  0  0  0  0
    0.5571    3.5596   -1.7347 H   0  0  0  0  0  0  0  0  0  0  0  0
    2.2085    3.1189   -1.1783 H   0  0  0  0  0  0  0  0  0  0  0  0
   -0.4434    3.1952    0.3800 H   0  0  0  0  0  0  0  0  0  0  0  0
    1.0713    4.1411    0.6540 H   0  0  0  0  0  0  0  0  0  0  0  0
    3.0355    1.1081   -1.4416 H   0  0  0  0  0  0  0  0  0  0  0  0
    2.0899   -0.1906   -2.2577 H   0  0  0  0  0  0  0  0  0  0  0  0
    0.4793    1.1912    1.2829 H   0  0  0  0  0  0  0  0  0  0  0  0
    0.8756    2.5349    2.4090 H   0  0  0  0  0  0  0  0  0  0  0  0
    3.0644    2.0081    2.3093 H   0  0  0  0  0  0  0  0  0  0  0  0
    3.0946    2.3766    0.5504 H   0  0  0  0  0  0  0  0  0  0  0  0
    2.6022   -0.3082    1.9637 H   0  0  0  0  0  0  0  0  0  0  0  0
    3.9404    0.1677    0.8471 H   0  0  0  0  0  0  0  0  0  0  0  0
    1.0083   -0.5023    0.1980 H   0  0  0  0  0  0  0  0  0  0  0  0
    2.5213   -1.3119   -0.3373 H   0  0  0  0  0  0  0  0  0  0  0  0
  1  2  1  0  0  0  0
  1  4  1  0  0  0  0
  1  9  1  0  0  0  0
  1 10  1  0  0  0  0
  2  3  1  0  0  0  0
  2 11  1  0  0  0  0
  2 12  1  0  0  0  0
  3  5  1  0  0  0  0
  3 13  1  0  0  0  0
  3 14  1  0  0  0  0
  4  8  1  0  0  0  0
  4 15  1  0  0  0  0
  4 16  1  0  0  0  0
  5  6  1  0  0  0  0
  5 17  1  0  0  0  0
  5 18  1  0  0  0  0
  6  7  1  0  0  0  0
  6 19  1  0  0  0  0
  6 20  1  0  0  0  0
  7  8  1  0  0  0  0
  7 21  1  0  0  0  0
  7 22  1  0  0  0  0
  8 23  1  0  0  0  0
  8 24  1  0  0  0  0
M  END
