./000306-83-2.hin
 OpenBabel09241315583D

  8  7  0  0  0  0  0  0  0  0999 V2000
   -0.5627    0.9902   -0.3435 Cl  0  0  0  0  0  0  0  0  0  0  0  0
    1.6485    2.8655   -1.4130 F   0  0  0  0  0  0  0  0  0  0  0  0
    1.7268    2.8868    0.7631 F   0  0  0  0  0  0  0  0  0  0  0  0
    1.0233    4.6338   -0.3302 F   0  0  0  0  0  0  0  0  0  0  0  0
    0.9551    3.2648   -0.2998 C   0  0  0  0  0  0  0  0  0  0  0  0
   -0.5234    2.7307   -0.2811 C   0  0  0  0  0  0  0  0  0  0  0  0
   -1.0322    3.1144   -1.2016 H   0  0  0  0  0  0  0  0  0  0  0  0
   -1.3946    3.3432    1.0974 Cl  0  0  0  0  0  0  0  0  0  0  0  0
  1  6  1  0  0  0  0
  2  5  1  0  0  0  0
  3  5  1  0  0  0  0
  4  5  1  0  0  0  0
  5  6  1  0  0  0  0
  6  7  1  0  0  0  0
  6  8  1  0  0  0  0
M  END
