./000353-36-6.hin
 OpenBabel09241315583D

  8  7  0  0  0  0  0  0  0  0999 V2000
   -0.9111   -1.2020    0.4195 C   0  0  0  0  0  0  0  0  0  0  0  0
   -0.9061    0.3168    0.4108 C   0  0  0  0  0  0  0  0  0  0  0  0
    0.1333   -1.5951    0.4201 H   0  0  0  0  0  0  0  0  0  0  0  0
   -1.4381   -1.5660    1.3323 H   0  0  0  0  0  0  0  0  0  0  0  0
   -1.4338   -1.5951   -0.4846 H   0  0  0  0  0  0  0  0  0  0  0  0
   -1.9635    0.7031    0.4164 H   0  0  0  0  0  0  0  0  0  0  0  0
   -0.3822    0.7031    1.3294 H   0  0  0  0  0  0  0  0  0  0  0  0
   -0.2635    0.8265   -0.7021 F   0  0  0  0  0  0  0  0  0  0  0  0
  1  2  1  0  0  0  0
  1  3  1  0  0  0  0
  1  4  1  0  0  0  0
  1  5  1  0  0  0  0
  2  6  1  0  0  0  0
  2  7  1  0  0  0  0
  2  8  1  0  0  0  0
M  END
