./000392-56-3.hin
 OpenBabel09241315583D

 12 12  0  0  0  0  0  0  0  0999 V2000
   -5.0890   -1.3464   -0.4013 C   0  0  0  0  0  0  0  0  0  0  0  0
   -5.0890    0.0699   -0.4013 C   0  0  0  0  0  0  0  0  0  0  0  0
   -3.8624    0.7780   -0.4013 C   0  0  0  0  0  0  0  0  0  0  0  0
   -2.6359    0.0699   -0.4013 C   0  0  0  0  0  0  0  0  0  0  0  0
   -2.6359   -1.3464   -0.4013 C   0  0  0  0  0  0  0  0  0  0  0  0
   -3.8624   -2.0546   -0.4013 C   0  0  0  0  0  0  0  0  0  0  0  0
   -6.2567   -2.0206   -0.4013 F   0  0  0  0  0  0  0  0  0  0  0  0
   -3.8624   -3.4029   -0.4013 F   0  0  0  0  0  0  0  0  0  0  0  0
   -1.4682   -2.0206   -0.4013 F   0  0  0  0  0  0  0  0  0  0  0  0
   -1.4682    0.7440   -0.4013 F   0  0  0  0  0  0  0  0  0  0  0  0
   -3.8624    2.1263   -0.4013 F   0  0  0  0  0  0  0  0  0  0  0  0
   -6.2567    0.7440   -0.4013 F   0  0  0  0  0  0  0  0  0  0  0  0
  1  2  2  0  0  0  0
  1  6  1  0  0  0  0
  1  7  1  0  0  0  0
  2  3  1  0  0  0  0
  2 12  1  0  0  0  0
  3  4  2  0  0  0  0
  3 11  1  0  0  0  0
  4  5  1  0  0  0  0
  4 10  1  0  0  0  0
  5  6  2  0  0  0  0
  5  9  1  0  0  0  0
  6  8  1  0  0  0  0
M  END
