./000430-66-0.hin
 OpenBabel09241315583D

  8  7  0  0  0  0  0  0  0  0999 V2000
   -0.7407   -1.4372    0.2034 C   0  0  0  0  0  0  0  0  0  0  0  0
   -0.7462    0.1292    0.2152 C   0  0  0  0  0  0  0  0  0  0  0  0
   -1.9604   -1.9241    0.6138 F   0  0  0  0  0  0  0  0  0  0  0  0
   -0.5234   -1.7991   -0.8375 H   0  0  0  0  0  0  0  0  0  0  0  0
    0.0601   -1.7953    0.9056 H   0  0  0  0  0  0  0  0  0  0  0  0
    0.4989    0.6258    0.5248 F   0  0  0  0  0  0  0  0  0  0  0  0
   -0.9842    0.6517   -1.0344 F   0  0  0  0  0  0  0  0  0  0  0  0
   -1.5172    0.5064    0.9511 H   0  0  0  0  0  0  0  0  0  0  0  0
  1  2  1  0  0  0  0
  1  3  1  0  0  0  0
  1  4  1  0  0  0  0
  1  5  1  0  0  0  0
  2  6  1  0  0  0  0
  2  7  1  0  0  0  0
  2  8  1  0  0  0  0
M  END
