./000431-47-0.hin
 OpenBabel09241315583D

 11 10  0  0  0  0  0  0  0  0999 V2000
   -1.2841    2.7641   30.2660 C   0  0  0  0  0  0  0  0  0  0  0  0
   -1.0871    4.3063   30.2661 C   0  0  0  0  0  0  0  0  0  0  0  0
    0.2199    4.7057   30.2659 F   0  0  0  0  0  0  0  0  0  0  0  0
   -1.6543    4.9065   31.3577 F   0  0  0  0  0  0  0  0  0  0  0  0
   -2.3548    2.1713   30.2660 O   0  0  0  0  0  0  0  0  0  0  0  0
   -0.1012    2.1055   30.2660 O   0  0  0  0  0  0  0  0  0  0  0  0
   -0.1684    0.6723   30.2661 C   0  0  0  0  0  0  0  0  0  0  0  0
    0.9075    0.3678   30.2661 H   0  0  0  0  0  0  0  0  0  0  0  0
   -0.6988    0.3204   31.1830 H   0  0  0  0  0  0  0  0  0  0  0  0
   -0.6988    0.3204   29.3491 H   0  0  0  0  0  0  0  0  0  0  0  0
   -1.6547    4.9066   29.1748 F   0  0  0  0  0  0  0  0  0  0  0  0
  1  2  1  0  0  0  0
  1  5  2  0  0  0  0
  1  6  1  0  0  0  0
  2  3  1  0  0  0  0
  2  4  1  0  0  0  0
  2 11  1  0  0  0  0
  6  7  1  0  0  0  0
  7  8  1  0  0  0  0
  7  9  1  0  0  0  0
  7 10  1  0  0  0  0
M  END
