./000460-12-8.hin
 OpenBabel09241315583D

  6  5  0  0  0  0  0  0  0  0999 V2000
   -1.5356    0.7960    0.0271 C   0  0  0  0  0  0  0  0  0  0  0  0
   -1.5356    2.1524    0.0271 C   0  0  0  0  0  0  0  0  0  0  0  0
   -1.5356    3.3510    0.0271 C   0  0  0  0  0  0  0  0  0  0  0  0
   -1.5356    4.4112    0.0271 H   0  0  0  0  0  0  0  0  0  0  0  0
   -1.5356   -0.4025    0.0271 C   0  0  0  0  0  0  0  0  0  0  0  0
   -1.5356   -1.4627    0.0271 H   0  0  0  0  0  0  0  0  0  0  0  0
  1  2  1  0  0  0  0
  1  5  3  0  0  0  0
  2  3  3  0  0  0  0
  3  4  1  0  0  0  0
  5  6  1  0  0  0  0
M  END
