./000462-95-3.hin
 OpenBabel09241315583D

 19 18  0  0  0  0  0  0  0  0999 V2000
    9.1285  -10.3861    3.4686 C   0  0  0  0  0  0  0  0  0  0  0  0
    6.8064   -9.8646    3.2374 C   0  0  0  0  0  0  0  0  0  0  0  0
    7.9256   -9.9395    4.0906 O   0  0  0  0  0  0  0  0  0  0  0  0
    9.9335  -10.0273    4.1658 H   0  0  0  0  0  0  0  0  0  0  0  0
    9.1609  -11.8912    3.3411 C   0  0  0  0  0  0  0  0  0  0  0  0
    9.2500   -9.8932    2.4683 H   0  0  0  0  0  0  0  0  0  0  0  0
    7.0275   -8.7897    2.3534 O   0  0  0  0  0  0  0  0  0  0  0  0
    6.9611   -7.5039    2.9753 C   0  0  0  0  0  0  0  0  0  0  0  0
    6.6912  -10.7674    2.5815 H   0  0  0  0  0  0  0  0  0  0  0  0
    7.3001   -6.4845    1.9136 C   0  0  0  0  0  0  0  0  0  0  0  0
    5.9232   -7.3450    3.3734 H   0  0  0  0  0  0  0  0  0  0  0  0
    5.9281   -9.6994    3.9165 H   0  0  0  0  0  0  0  0  0  0  0  0
   10.1611  -12.2144    2.9663 H   0  0  0  0  0  0  0  0  0  0  0  0
    8.9736  -12.3705    4.3318 H   0  0  0  0  0  0  0  0  0  0  0  0
    8.3802  -12.2463    2.6265 H   0  0  0  0  0  0  0  0  0  0  0  0
    7.6905   -7.4660    3.8272 H   0  0  0  0  0  0  0  0  0  0  0  0
    7.2462   -5.4610    2.3544 H   0  0  0  0  0  0  0  0  0  0  0  0
    8.3296   -6.6600    1.5198 H   0  0  0  0  0  0  0  0  0  0  0  0
    6.5828   -6.5550    1.0615 H   0  0  0  0  0  0  0  0  0  0  0  0
  1  3  1  0  0  0  0
  1  4  1  0  0  0  0
  1  5  1  0  0  0  0
  1  6  1  0  0  0  0
  2  3  1  0  0  0  0
  2  7  1  0  0  0  0
  2  9  1  0  0  0  0
  2 12  1  0  0  0  0
  5 13  1  0  0  0  0
  5 14  1  0  0  0  0
  5 15  1  0  0  0  0
  7  8  1  0  0  0  0
  8 10  1  0  0  0  0
  8 11  1  0  0  0  0
  8 16  1  0  0  0  0
 10 17  1  0  0  0  0
 10 18  1  0  0  0  0
 10 19  1  0  0  0  0
M  END
