./000463-49-0.hin
 OpenBabel09241315583D

  7  6  0  0  0  0  0  0  0  0999 V2000
   -3.1631    0.0602   -0.0000 C   0  0  0  0  0  0  0  0  0  0  0  0
   -3.1631    1.3584    0.0000 C   0  0  0  0  0  0  0  0  0  0  0  0
   -3.1631    2.6566    0.0000 C   0  0  0  0  0  0  0  0  0  0  0  0
   -2.5094   -0.5271    0.6610 H   0  0  0  0  0  0  0  0  0  0  0  0
   -3.8167   -0.5270   -0.6611 H   0  0  0  0  0  0  0  0  0  0  0  0
   -2.5020    3.2438   -0.6536 H   0  0  0  0  0  0  0  0  0  0  0  0
   -3.8241    3.2438    0.6537 H   0  0  0  0  0  0  0  0  0  0  0  0
  1  2  2  0  0  0  0
  1  4  1  0  0  0  0
  1  5  1  0  0  0  0
  2  3  2  0  0  0  0
  3  6  1  0  0  0  0
  3  7  1  0  0  0  0
M  END
