./000493-01-6.hin
 OpenBabel09241315583D

 28 29  0  0  1  0  0  0  0  0999 V2000
    0.2861   16.6533    2.4498 H   0  0  0  0  0  0  0  0  0  0  0  0
    0.2825   14.3182    2.1116 H   0  0  0  0  0  0  0  0  0  0  0  0
   -1.4427   15.8699    4.2744 C   0  0  0  0  0  0  0  0  0  0  0  0
   -0.5350   16.2750    1.7723 C   0  0  2  0  0  0  0  0  0  0  0  0
   -1.7865   17.0793    2.0833 C   0  0  0  0  0  0  0  0  0  0  0  0
   -2.1650   16.9883    3.5506 C   0  0  0  0  0  0  0  0  0  0  0  0
   -0.0583   16.4909    0.3445 C   0  0  0  0  0  0  0  0  0  0  0  0
   -1.3973   14.6000    3.4532 C   0  0  0  0  0  0  0  0  0  0  0  0
   -0.7399   14.7925    2.0886 C   0  0  1  0  0  0  0  0  0  0  0  0
   -1.5555   14.0778    1.0193 C   0  0  0  0  0  0  0  0  0  0  0  0
   -0.9815   14.2877   -0.3647 C   0  0  0  0  0  0  0  0  0  0  0  0
   -2.6319   16.7029    1.4490 H   0  0  0  0  0  0  0  0  0  0  0  0
   -3.2725   16.8305    3.6353 H   0  0  0  0  0  0  0  0  0  0  0  0
   -1.9335   17.9589    4.0629 H   0  0  0  0  0  0  0  0  0  0  0  0
    1.0033   16.1331    0.2668 H   0  0  0  0  0  0  0  0  0  0  0  0
   -2.4469   14.2236    3.3205 H   0  0  0  0  0  0  0  0  0  0  0  0
   -0.8381   13.8124    4.0230 H   0  0  0  0  0  0  0  0  0  0  0  0
   -2.6130   14.4532    1.0404 H   0  0  0  0  0  0  0  0  0  0  0  0
   -1.5832   12.9817    1.2544 H   0  0  0  0  0  0  0  0  0  0  0  0
   -1.6280   13.7723   -1.1216 H   0  0  0  0  0  0  0  0  0  0  0  0
    0.0400   13.8285   -0.4250 H   0  0  0  0  0  0  0  0  0  0  0  0
   -0.8950   15.7644   -0.6857 C   0  0  0  0  0  0  0  0  0  0  0  0
   -1.9613   15.6630    5.2475 H   0  0  0  0  0  0  0  0  0  0  0  0
   -0.3975   16.1939    4.5220 H   0  0  0  0  0  0  0  0  0  0  0  0
   -0.0594   17.5895    0.1180 H   0  0  0  0  0  0  0  0  0  0  0  0
   -1.9270   16.2037   -0.7123 H   0  0  0  0  0  0  0  0  0  0  0  0
   -0.4428   15.9057   -1.7018 H   0  0  0  0  0  0  0  0  0  0  0  0
   -1.6181   18.1519    1.8032 H   0  0  0  0  0  0  0  0  0  0  0  0
  3  6  1  0  0  0  0
  3  8  1  0  0  0  0
  3 23  1  0  0  0  0
  3 24  1  0  0  0  0
  4  1  1  1  0  0  0
  4  5  1  0  0  0  0
  4  7  1  0  0  0  0
  4  9  1  0  0  0  0
  5  6  1  0  0  0  0
  5 12  1  0  0  0  0
  5 28  1  0  0  0  0
  6 13  1  0  0  0  0
  6 14  1  0  0  0  0
  7 15  1  0  0  0  0
  7 22  1  0  0  0  0
  7 25  1  0  0  0  0
  8  9  1  0  0  0  0
  8 16  1  0  0  0  0
  8 17  1  0  0  0  0
  9  2  1  1  0  0  0
  9 10  1  0  0  0  0
 10 11  1  0  0  0  0
 10 18  1  0  0  0  0
 10 19  1  0  0  0  0
 11 20  1  0  0  0  0
 11 21  1  0  0  0  0
 11 22  1  0  0  0  0
 22 26  1  0  0  0  0
 22 27  1  0  0  0  0
M  END
