./000493-02-7.hin
 OpenBabel09241315583D

 28 29  0  0  1  0  0  0  0  0999 V2000
    4.9242    1.5027   -1.2014 C   0  0  0  0  0  0  0  0  0  0  0  0
    2.3712    0.6399   -0.9605 C   0  0  1  0  0  0  0  0  0  0  0  0
    3.3005    0.0650    0.0927 C   0  0  0  0  0  0  0  0  0  0  0  0
    4.7556    0.3474   -0.2341 C   0  0  0  0  0  0  0  0  0  0  0  0
    0.9236    0.2412   -0.7106 C   0  0  0  0  0  0  0  0  0  0  0  0
    3.9415    2.6216   -0.9307 C   0  0  0  0  0  0  0  0  0  0  0  0
    2.4911    2.1633   -1.0081 C   0  0  1  0  0  0  0  0  0  0  0  0
    1.7881    2.6868   -2.2537 C   0  0  0  0  0  0  0  0  0  0  0  0
    0.5442    1.8805   -2.5827 C   0  0  0  0  0  0  0  0  0  0  0  0
    2.6796    0.2316   -1.9651 H   0  0  0  0  0  0  0  0  0  0  0  0
    3.1358   -1.0409    0.1724 H   0  0  0  0  0  0  0  0  0  0  0  0
    3.0444    0.5108    1.0900 H   0  0  0  0  0  0  0  0  0  0  0  0
    5.2287   -0.5674   -0.6784 H   0  0  0  0  0  0  0  0  0  0  0  0
    5.3073    0.5720    0.7164 H   0  0  0  0  0  0  0  0  0  0  0  0
    0.7229    0.2030    0.3921 H   0  0  0  0  0  0  0  0  0  0  0  0
    4.1387    3.0331    0.0949 H   0  0  0  0  0  0  0  0  0  0  0  0
    4.1198    3.4557   -1.6589 H   0  0  0  0  0  0  0  0  0  0  0  0
    1.9514    2.5762   -0.1079 H   0  0  0  0  0  0  0  0  0  0  0  0
    2.4892    2.6518   -3.1285 H   0  0  0  0  0  0  0  0  0  0  0  0
    1.5160    3.7621   -2.0909 H   0  0  0  0  0  0  0  0  0  0  0  0
    0.8005    1.0935   -3.3406 H   0  0  0  0  0  0  0  0  0  0  0  0
   -0.2237    2.5511   -3.0491 H   0  0  0  0  0  0  0  0  0  0  0  0
   -0.0480    1.2096   -1.3610 C   0  0  0  0  0  0  0  0  0  0  0  0
    4.7847    1.1356   -2.2527 H   0  0  0  0  0  0  0  0  0  0  0  0
    5.9704    1.9001   -1.1264 H   0  0  0  0  0  0  0  0  0  0  0  0
    0.7586   -0.7927   -1.1115 H   0  0  0  0  0  0  0  0  0  0  0  0
   -0.9827    0.6628   -1.6515 H   0  0  0  0  0  0  0  0  0  0  0  0
   -0.3431    1.9978   -0.6187 H   0  0  0  0  0  0  0  0  0  0  0  0
  1  4  1  0  0  0  0
  1  6  1  0  0  0  0
  1 24  1  0  0  0  0
  1 25  1  0  0  0  0
  2  3  1  0  0  0  0
  2  5  1  0  0  0  0
  2  7  1  0  0  0  0
  2 10  1  6  0  0  0
  3  4  1  0  0  0  0
  3 11  1  0  0  0  0
  3 12  1  0  0  0  0
  4 13  1  0  0  0  0
  4 14  1  0  0  0  0
  5 15  1  0  0  0  0
  5 23  1  0  0  0  0
  5 26  1  0  0  0  0
  6  7  1  0  0  0  0
  6 16  1  0  0  0  0
  6 17  1  0  0  0  0
  7  8  1  0  0  0  0
  7 18  1  1  0  0  0
  8  9  1  0  0  0  0
  8 19  1  0  0  0  0
  8 20  1  0  0  0  0
  9 21  1  0  0  0  0
  9 22  1  0  0  0  0
  9 23  1  0  0  0  0
 23 27  1  0  0  0  0
 23 28  1  0  0  0  0
M  END
