./000493-09-4.hin
 OpenBabel09241315583D

 18 19  0  0  0  0  0  0  0  0999 V2000
   -0.5968   -0.6984    1.2404 C   0  0  0  0  0  0  0  0  0  0  0  0
   -0.5375    0.8180    1.3252 C   0  0  0  0  0  0  0  0  0  0  0  0
   -1.6554   -1.0668    1.2223 H   0  0  0  0  0  0  0  0  0  0  0  0
   -0.0319   -1.1651    2.0893 H   0  0  0  0  0  0  0  0  0  0  0  0
   -0.8926    1.1869    2.3224 H   0  0  0  0  0  0  0  0  0  0  0  0
   -1.1334    1.2847    0.4977 H   0  0  0  0  0  0  0  0  0  0  0  0
   -0.0452   -1.1712    0.0071 O   0  0  0  0  0  0  0  0  0  0  0  0
    3.1220   -0.5420   -1.7063 C   0  0  0  0  0  0  0  0  0  0  0  0
    3.5285    0.6585   -1.1201 C   0  0  0  0  0  0  0  0  0  0  0  0
    1.9334   -1.1566   -1.3197 C   0  0  0  0  0  0  0  0  0  0  0  0
    1.1459   -0.5490   -0.3340 C   0  0  0  0  0  0  0  0  0  0  0  0
    1.5490    0.6671    0.2473 C   0  0  0  0  0  0  0  0  0  0  0  0
    2.7490    1.2739   -0.1436 C   0  0  0  0  0  0  0  0  0  0  0  0
    3.7467   -1.0118   -2.4802 H   0  0  0  0  0  0  0  0  0  0  0  0
    4.4729    1.1278   -1.4330 H   0  0  0  0  0  0  0  0  0  0  0  0
    1.6031   -2.1023   -1.7713 H   0  0  0  0  0  0  0  0  0  0  0  0
    3.0561    2.2196    0.3241 H   0  0  0  0  0  0  0  0  0  0  0  0
    0.8112    1.2901    1.2423 O   0  0  0  0  0  0  0  0  0  0  0  0
  1  2  1  0  0  0  0
  1  3  1  0  0  0  0
  1  4  1  0  0  0  0
  1  7  1  0  0  0  0
  2  5  1  0  0  0  0
  2  6  1  0  0  0  0
  2 18  1  0  0  0  0
  7 11  1  0  0  0  0
  8  9  2  0  0  0  0
  8 10  1  0  0  0  0
  8 14  1  0  0  0  0
  9 13  1  0  0  0  0
  9 15  1  0  0  0  0
 10 11  2  0  0  0  0
 10 16  1  0  0  0  0
 11 12  1  0  0  0  0
 12 13  2  0  0  0  0
 12 18  1  0  0  0  0
 13 17  1  0  0  0  0
M  END
