./000513-53-1.hin
 OpenBabel09241315583D

 15 14  0  0  1  0  0  0  0  0999 V2000
   -5.1130   11.0502   -9.1923 C   0  0  0  0  0  0  0  0  0  0  0  0
   -3.6709   13.0772   -8.9555 C   0  0  0  0  0  0  0  0  0  0  0  0
   -3.0059   12.6729   -9.7572 H   0  0  0  0  0  0  0  0  0  0  0  0
   -5.0785   12.5619   -9.1196 C   0  0  1  0  0  0  0  0  0  0  0  0
   -5.7086   12.9066   -8.2586 H   0  0  0  0  0  0  0  0  0  0  0  0
   -5.6831   13.3525  -10.6052 S   0  0  0  0  0  0  0  0  0  0  0  0
   -6.4771   10.4819   -8.8948 C   0  0  0  0  0  0  0  0  0  0  0  0
   -4.7735   10.7167  -10.2089 H   0  0  0  0  0  0  0  0  0  0  0  0
   -4.3777   10.6378   -8.4484 H   0  0  0  0  0  0  0  0  0  0  0  0
   -6.4428    9.3661   -8.9355 H   0  0  0  0  0  0  0  0  0  0  0  0
   -6.8208   10.7860   -7.8764 H   0  0  0  0  0  0  0  0  0  0  0  0
   -7.2316   10.8343   -9.6393 H   0  0  0  0  0  0  0  0  0  0  0  0
   -3.2606   12.7631   -7.9643 H   0  0  0  0  0  0  0  0  0  0  0  0
   -3.6544   14.1937   -9.0077 H   0  0  0  0  0  0  0  0  0  0  0  0
   -6.8638   12.7703  -10.7034 H   0  0  0  0  0  0  0  0  0  0  0  0
  1  4  1  0  0  0  0
  1  7  1  0  0  0  0
  1  8  1  0  0  0  0
  1  9  1  0  0  0  0
  2  3  1  0  0  0  0
  2  4  1  0  0  0  0
  2 13  1  0  0  0  0
  2 14  1  0  0  0  0
  4  5  1  1  0  0  0
  4  6  1  0  0  0  0
  6 15  1  0  0  0  0
  7 10  1  0  0  0  0
  7 11  1  0  0  0  0
  7 12  1  0  0  0  0
M  END
