./000513-81-5.hin
 OpenBabel09241315583D

 16 15  0  0  0  0  0  0  0  0999 V2000
   -0.8729   -1.3499   -0.0000 C   0  0  0  0  0  0  0  0  0  0  0  0
   -0.8719   -0.0066    0.0000 C   0  0  0  0  0  0  0  0  0  0  0  0
   -2.1151    0.7688   -0.0000 C   0  0  0  0  0  0  0  0  0  0  0  0
   -2.1733    2.1080    0.0000 C   0  0  0  0  0  0  0  0  0  0  0  0
    0.4401    0.6974    0.0000 C   0  0  0  0  0  0  0  0  0  0  0  0
   -3.3820   -0.0167   -0.0000 C   0  0  0  0  0  0  0  0  0  0  0  0
    0.0640   -1.9227   -0.0000 H   0  0  0  0  0  0  0  0  0  0  0  0
   -1.7848   -1.9582   -0.0000 H   0  0  0  0  0  0  0  0  0  0  0  0
   -3.1356    2.6387    0.0000 H   0  0  0  0  0  0  0  0  0  0  0  0
   -1.2983    2.7671    0.0000 H   0  0  0  0  0  0  0  0  0  0  0  0
    0.3451    1.8076   -0.0000 H   0  0  0  0  0  0  0  0  0  0  0  0
    1.0285    0.4040    0.9058 H   0  0  0  0  0  0  0  0  0  0  0  0
    1.0285    0.4040   -0.9058 H   0  0  0  0  0  0  0  0  0  0  0  0
   -4.2759    0.6543   -0.0000 H   0  0  0  0  0  0  0  0  0  0  0  0
   -3.4346   -0.6678   -0.9078 H   0  0  0  0  0  0  0  0  0  0  0  0
   -3.4346   -0.6678    0.9078 H   0  0  0  0  0  0  0  0  0  0  0  0
  1  2  2  0  0  0  0
  1  7  1  0  0  0  0
  1  8  1  0  0  0  0
  2  3  1  0  0  0  0
  2  5  1  0  0  0  0
  3  4  2  0  0  0  0
  3  6  1  0  0  0  0
  4  9  1  0  0  0  0
  4 10  1  0  0  0  0
  5 11  1  0  0  0  0
  5 12  1  0  0  0  0
  5 13  1  0  0  0  0
  6 14  1  0  0  0  0
  6 15  1  0  0  0  0
  6 16  1  0  0  0  0
M  END
