./000526-73-8.hin
 OpenBabel09241315583D

 21 21  0  0  0  0  0  0  0  0999 V2000
   -1.6632   -0.7749    0.0000 C   0  0  0  0  0  0  0  0  0  0  0  0
   -1.6516    0.6157   -0.0000 C   0  0  0  0  0  0  0  0  0  0  0  0
   -0.4398    1.3182   -0.0000 C   0  0  0  0  0  0  0  0  0  0  0  0
    0.7774    0.6142   -0.0000 C   0  0  0  0  0  0  0  0  0  0  0  0
    0.7614   -0.7932   -0.0000 C   0  0  0  0  0  0  0  0  0  0  0  0
   -0.4601   -1.4755   -0.0000 C   0  0  0  0  0  0  0  0  0  0  0  0
   -2.5993    1.1747    0.0000 H   0  0  0  0  0  0  0  0  0  0  0  0
   -0.5033    2.8005   -0.0000 C   0  0  0  0  0  0  0  0  0  0  0  0
    2.0596    1.3610   -0.0000 C   0  0  0  0  0  0  0  0  0  0  0  0
    2.0183   -1.5812   -0.0000 C   0  0  0  0  0  0  0  0  0  0  0  0
   -0.4695   -2.5759    0.0000 H   0  0  0  0  0  0  0  0  0  0  0  0
    0.5073    3.2742    0.0000 H   0  0  0  0  0  0  0  0  0  0  0  0
   -1.0548    3.1581   -0.9060 H   0  0  0  0  0  0  0  0  0  0  0  0
   -1.0548    3.1581    0.9060 H   0  0  0  0  0  0  0  0  0  0  0  0
    1.8063   -2.6790   -0.0000 H   0  0  0  0  0  0  0  0  0  0  0  0
    2.6286   -1.3457   -0.9077 H   0  0  0  0  0  0  0  0  0  0  0  0
    2.6286   -1.3457    0.9077 H   0  0  0  0  0  0  0  0  0  0  0  0
   -2.6185   -1.3195    0.0000 H   0  0  0  0  0  0  0  0  0  0  0  0
    2.9462    0.6822   -0.0000 H   0  0  0  0  0  0  0  0  0  0  0  0
    2.1265    2.0127   -0.9078 H   0  0  0  0  0  0  0  0  0  0  0  0
    2.1265    2.0127    0.9078 H   0  0  0  0  0  0  0  0  0  0  0  0
  1  2  2  0  0  0  0
  1  6  1  0  0  0  0
  1 18  1  0  0  0  0
  2  3  1  0  0  0  0
  2  7  1  0  0  0  0
  3  4  2  0  0  0  0
  3  8  1  0  0  0  0
  4  5  1  0  0  0  0
  4  9  1  0  0  0  0
  5  6  2  0  0  0  0
  5 10  1  0  0  0  0
  6 11  1  0  0  0  0
  8 12  1  0  0  0  0
  8 13  1  0  0  0  0
  8 14  1  0  0  0  0
  9 19  1  0  0  0  0
  9 20  1  0  0  0  0
  9 21  1  0  0  0  0
 10 15  1  0  0  0  0
 10 16  1  0  0  0  0
 10 17  1  0  0  0  0
M  END
