./000526-75-0.hin
 OpenBabel09241315583D

 19 19  0  0  0  0  0  0  0  0999 V2000
   -2.2404    1.0054   -0.0908 C   0  0  0  0  0  0  0  0  0  0  0  0
   -2.2412    2.3973   -0.0718 C   0  0  0  0  0  0  0  0  0  0  0  0
   -1.0186    3.0827   -0.0667 C   0  0  0  0  0  0  0  0  0  0  0  0
    0.2099    2.3922   -0.0792 C   0  0  0  0  0  0  0  0  0  0  0  0
    0.1847    0.9881   -0.0987 C   0  0  0  0  0  0  0  0  0  0  0  0
   -1.0374    0.3051   -0.1045 C   0  0  0  0  0  0  0  0  0  0  0  0
   -3.1954    0.4594   -0.0952 H   0  0  0  0  0  0  0  0  0  0  0  0
   -3.1877    2.9552   -0.0612 H   0  0  0  0  0  0  0  0  0  0  0  0
   -0.9618    4.4604   -0.0499 O   0  0  0  0  0  0  0  0  0  0  0  0
    1.4959    3.1248   -0.0768 C   0  0  0  0  0  0  0  0  0  0  0  0
    1.4572    0.2285   -0.1099 C   0  0  0  0  0  0  0  0  0  0  0  0
   -1.0453   -0.7947   -0.1200 H   0  0  0  0  0  0  0  0  0  0  0  0
   -1.8706    4.7933   -0.0325 H   0  0  0  0  0  0  0  0  0  0  0  0
    1.3376    4.2243    0.0475 H   0  0  0  0  0  0  0  0  0  0  0  0
    2.1470    2.7617    0.7580 H   0  0  0  0  0  0  0  0  0  0  0  0
    2.0380    2.9515   -1.0410 H   0  0  0  0  0  0  0  0  0  0  0  0
    2.1024    0.5646   -0.9605 H   0  0  0  0  0  0  0  0  0  0  0  0
    2.0194    0.4059    0.8419 H   0  0  0  0  0  0  0  0  0  0  0  0
    1.2755   -0.8690   -0.2140 H   0  0  0  0  0  0  0  0  0  0  0  0
  1  2  2  0  0  0  0
  1  6  1  0  0  0  0
  1  7  1  0  0  0  0
  2  3  1  0  0  0  0
  2  8  1  0  0  0  0
  3  4  2  0  0  0  0
  3  9  1  0  0  0  0
  4  5  1  0  0  0  0
  4 10  1  0  0  0  0
  5  6  2  0  0  0  0
  5 11  1  0  0  0  0
  6 12  1  0  0  0  0
  9 13  1  0  0  0  0
 10 14  1  0  0  0  0
 10 15  1  0  0  0  0
 10 16  1  0  0  0  0
 11 17  1  0  0  0  0
 11 18  1  0  0  0  0
 11 19  1  0  0  0  0
M  END
