./000540-54-5.hin
 OpenBabel09241315583D

 11 10  0  0  0  0  0  0  0  0999 V2000
   -2.3558  -14.3851   23.7499 Cl  0  0  0  0  0  0  0  0  0  0  0  0
   -0.8928  -12.1072   23.7499 C   0  0  0  0  0  0  0  0  0  0  0  0
   -2.3100  -12.6290   23.7499 C   0  0  0  0  0  0  0  0  0  0  0  0
   -0.8833  -10.5993   23.7499 C   0  0  0  0  0  0  0  0  0  0  0  0
   -0.3471  -12.4895   24.6530 H   0  0  0  0  0  0  0  0  0  0  0  0
   -0.3471  -12.4895   22.8469 H   0  0  0  0  0  0  0  0  0  0  0  0
   -2.8610  -12.2972   24.6623 H   0  0  0  0  0  0  0  0  0  0  0  0
   -2.8610  -12.2972   22.8375 H   0  0  0  0  0  0  0  0  0  0  0  0
    0.1681  -10.2229   23.7499 H   0  0  0  0  0  0  0  0  0  0  0  0
   -1.4010  -10.1999   22.8444 H   0  0  0  0  0  0  0  0  0  0  0  0
   -1.4010  -10.1999   24.6554 H   0  0  0  0  0  0  0  0  0  0  0  0
  1  3  1  0  0  0  0
  2  3  1  0  0  0  0
  2  4  1  0  0  0  0
  2  5  1  0  0  0  0
  2  6  1  0  0  0  0
  3  7  1  0  0  0  0
  3  8  1  0  0  0  0
  4  9  1  0  0  0  0
  4 10  1  0  0  0  0
  4 11  1  0  0  0  0
M  END
