./000540-80-7.hin
 OpenBabel09241315583D

 16 15  0  0  0  0  0  0  0  0999 V2000
    5.3146    5.3154   13.2518 O   0  0  0  0  0  0  0  0  0  0  0  0
    4.2841    3.5314   13.2518 O   0  0  0  0  0  0  0  0  0  0  0  0
    4.1506    4.6831   13.2517 N   0  0  0  0  0  0  0  0  0  0  0  0
    5.2829    6.7837   13.2517 C   0  0  0  0  0  0  0  0  0  0  0  0
    6.7612    7.1534   13.2518 C   0  0  0  0  0  0  0  0  0  0  0  0
    4.5963    7.2897   11.9957 C   0  0  0  0  0  0  0  0  0  0  0  0
    4.5962    7.2897   14.5077 C   0  0  0  0  0  0  0  0  0  0  0  0
    7.2614    6.7369   14.1581 H   0  0  0  0  0  0  0  0  0  0  0  0
    7.2614    6.7369   12.3454 H   0  0  0  0  0  0  0  0  0  0  0  0
    6.8609    8.2642   13.2517 H   0  0  0  0  0  0  0  0  0  0  0  0
    3.4988    7.0895   14.4713 H   0  0  0  0  0  0  0  0  0  0  0  0
    5.0235    6.7864   15.4079 H   0  0  0  0  0  0  0  0  0  0  0  0
    4.7548    8.3908   14.5989 H   0  0  0  0  0  0  0  0  0  0  0  0
    3.4989    7.0895   12.0321 H   0  0  0  0  0  0  0  0  0  0  0  0
    4.7549    8.3908   11.9045 H   0  0  0  0  0  0  0  0  0  0  0  0
    5.0236    6.7863   11.0956 H   0  0  0  0  0  0  0  0  0  0  0  0
  1  3  1  0  0  0  0
  1  4  1  0  0  0  0
  2  3  2  0  0  0  0
  4  5  1  0  0  0  0
  4  6  1  0  0  0  0
  4  7  1  0  0  0  0
  5  8  1  0  0  0  0
  5  9  1  0  0  0  0
  5 10  1  0  0  0  0
  6 14  1  0  0  0  0
  6 15  1  0  0  0  0
  6 16  1  0  0  0  0
  7 11  1  0  0  0  0
  7 12  1  0  0  0  0
  7 13  1  0  0  0  0
M  END
