./000541-73-1.hin
 OpenBabel09241315583D

 12 12  0  0  0  0  0  0  0  0999 V2000
   -1.2765   -0.4908    0.0000 C   0  0  0  0  0  0  0  0  0  0  0  0
   -1.2839    0.9031   -0.0000 C   0  0  0  0  0  0  0  0  0  0  0  0
   -0.0730   -1.1943   -0.0000 C   0  0  0  0  0  0  0  0  0  0  0  0
    1.1347   -0.4888   -0.0000 C   0  0  0  0  0  0  0  0  0  0  0  0
    1.1485    0.9092    0.0000 C   0  0  0  0  0  0  0  0  0  0  0  0
   -0.0691    1.5963    0.0000 C   0  0  0  0  0  0  0  0  0  0  0  0
   -2.2297   -1.0412    0.0000 H   0  0  0  0  0  0  0  0  0  0  0  0
   -2.2376    1.4522    0.0000 H   0  0  0  0  0  0  0  0  0  0  0  0
   -0.0743   -2.2948   -0.0000 H   0  0  0  0  0  0  0  0  0  0  0  0
    2.6068   -1.3379   -0.0000 Cl  0  0  0  0  0  0  0  0  0  0  0  0
    2.1020    1.4597    0.0000 H   0  0  0  0  0  0  0  0  0  0  0  0
   -0.0684    3.2957   -0.0000 Cl  0  0  0  0  0  0  0  0  0  0  0  0
  1  2  2  0  0  0  0
  1  3  1  0  0  0  0
  1  7  1  0  0  0  0
  2  6  1  0  0  0  0
  2  8  1  0  0  0  0
  3  4  2  0  0  0  0
  3  9  1  0  0  0  0
  4  5  1  0  0  0  0
  4 10  1  0  0  0  0
  5  6  2  0  0  0  0
  5 11  1  0  0  0  0
  6 12  1  0  0  0  0
M  END
