./000542-56-3.hin
 OpenBabel09241315583D

 16 15  0  0  0  0  0  0  0  0999 V2000
    6.6409    3.0141   13.2799 C   0  0  0  0  0  0  0  0  0  0  0  0
    5.8457    5.2539   13.8806 O   0  0  0  0  0  0  0  0  0  0  0  0
    3.9495    6.0565   13.7551 O   0  0  0  0  0  0  0  0  0  0  0  0
    4.7536    5.4769   13.1567 N   0  0  0  0  0  0  0  0  0  0  0  0
    6.9146    4.5134   13.2452 C   0  0  0  0  0  0  0  0  0  0  0  0
    7.9371    2.2646   13.5111 C   0  0  0  0  0  0  0  0  0  0  0  0
    5.9467    2.8053   14.1434 H   0  0  0  0  0  0  0  0  0  0  0  0
    5.9820    2.5419   12.0018 C   0  0  0  0  0  0  0  0  0  0  0  0
    7.0854    4.8790   12.2011 H   0  0  0  0  0  0  0  0  0  0  0  0
    7.7921    4.7822   13.8945 H   0  0  0  0  0  0  0  0  0  0  0  0
    7.7463    1.1644   13.5206 H   0  0  0  0  0  0  0  0  0  0  0  0
    8.6710    2.4885   12.6999 H   0  0  0  0  0  0  0  0  0  0  0  0
    8.3888    2.5541   14.4904 H   0  0  0  0  0  0  0  0  0  0  0  0
    5.7721    1.4465   12.0614 H   0  0  0  0  0  0  0  0  0  0  0  0
    5.0175    3.0768   11.8318 H   0  0  0  0  0  0  0  0  0  0  0  0
    6.6484    2.7250   11.1243 H   0  0  0  0  0  0  0  0  0  0  0  0
  1  5  1  0  0  0  0
  1  6  1  0  0  0  0
  1  7  1  0  0  0  0
  1  8  1  0  0  0  0
  2  4  1  0  0  0  0
  2  5  1  0  0  0  0
  3  4  2  0  0  0  0
  5  9  1  0  0  0  0
  5 10  1  0  0  0  0
  6 11  1  0  0  0  0
  6 12  1  0  0  0  0
  6 13  1  0  0  0  0
  8 14  1  0  0  0  0
  8 15  1  0  0  0  0
  8 16  1  0  0  0  0
M  END
