./000543-29-3.hin
  ACCLDraw05131600513D

 17 16  0  0  0  0  0  0  0  0999 V2000
  -11.5063   -0.0644   30.8226 C   0  0  3  0  0  0  0  0  0  0  0  0
  -11.7591    1.3593   31.2966 C   0  0  3  0  0  0  0  0  0  0  0  0
  -11.3577   -0.9824   31.9355 O   0  0  0  0  0  0  0  0  0  0  0  0
  -12.4435   -1.4088   32.5999 N   0  3  0  0  0  0  0  0  0  0  0  0
  -13.5130   -1.0447   32.2161 O   0  0  0  0  0  0  0  0  0  0  0  0
  -12.1912   -2.1270   33.5126 O   0  5  0  0  0  0  0  0  0  0  0  0
  -12.3201   -0.4159   30.1374 H   0  0  0  0  0  0  0  0  0  0  0  0
  -10.5959    1.8723   32.1173 C   0  0  3  0  0  0  0  0  0  0  0  0
  -12.6860    1.3582   31.9388 H   0  0  0  0  0  0  0  0  0  0  0  0
  -10.4982   -0.1694   30.3348 H   0  0  0  0  0  0  0  0  0  0  0  0
  -12.0043    2.2464   30.0942 C   0  0  3  0  0  0  0  0  0  0  0  0
  -10.8354    2.8789   32.5364 H   0  0  0  0  0  0  0  0  0  0  0  0
  -10.3808    1.1729   32.9613 H   0  0  0  0  0  0  0  0  0  0  0  0
   -9.6778    1.9600   31.4876 H   0  0  0  0  0  0  0  0  0  0  0  0
  -12.1866    3.2961   30.4286 H   0  0  0  0  0  0  0  0  0  0  0  0
  -11.1195    2.2417   29.4129 H   0  0  0  0  0  0  0  0  0  0  0  0
  -12.8972    1.8955   29.5228 H   0  0  0  0  0  0  0  0  0  0  0  0
  1  2  1  0  0  0  0
  1  3  1  0  0  0  0
  1  7  1  0  0  0  0
  1 10  1  0  0  0  0
  2  8  1  0  0  0  0
  2  9  1  0  0  0  0
  2 11  1  0  0  0  0
  3  4  1  0  0  0  0
  4  5  2  0  0  0  0
  4  6  1  0  0  0  0
  8 12  1  0  0  0  0
  8 13  1  0  0  0  0
  8 14  1  0  0  0  0
 11 15  1  0  0  0  0
 11 16  1  0  0  0  0
 11 17  1  0  0  0  0
M  CHG  2   4   1   6  -1
M  END