./000544-16-1.hin
 OpenBabel09241315583D

 16 15  0  0  0  0  0  0  0  0999 V2000
    6.5922    2.9802   13.2798 C   0  0  0  0  0  0  0  0  0  0  0  0
    5.2964    4.9505   13.2798 O   0  0  0  0  0  0  0  0  0  0  0  0
    3.9936    6.5494   13.2798 O   0  0  0  0  0  0  0  0  0  0  0  0
    5.1164    6.2676   13.2798 N   0  0  0  0  0  0  0  0  0  0  0  0
    6.6755    4.4949   13.2798 C   0  0  0  0  0  0  0  0  0  0  0  0
    7.9818    2.3804   13.2798 C   0  0  0  0  0  0  0  0  0  0  0  0
    6.0216    2.6372   14.1821 H   0  0  0  0  0  0  0  0  0  0  0  0
    6.0216    2.6372   12.3775 H   0  0  0  0  0  0  0  0  0  0  0  0
    7.1925    4.8765   12.3621 H   0  0  0  0  0  0  0  0  0  0  0  0
    7.1926    4.8765   14.1974 H   0  0  0  0  0  0  0  0  0  0  0  0
    7.9252    0.8745   13.2798 C   0  0  0  0  0  0  0  0  0  0  0  0
    8.5448    2.7365   12.3765 H   0  0  0  0  0  0  0  0  0  0  0  0
    8.5448    2.7365   14.1830 H   0  0  0  0  0  0  0  0  0  0  0  0
    8.9578    0.4493   13.2798 H   0  0  0  0  0  0  0  0  0  0  0  0
    7.3886    0.4999   14.1849 H   0  0  0  0  0  0  0  0  0  0  0  0
    7.3886    0.4999   12.3747 H   0  0  0  0  0  0  0  0  0  0  0  0
  1  5  1  0  0  0  0
  1  6  1  0  0  0  0
  1  7  1  0  0  0  0
  1  8  1  0  0  0  0
  2  4  1  0  0  0  0
  2  5  1  0  0  0  0
  3  4  2  0  0  0  0
  5  9  1  0  0  0  0
  5 10  1  0  0  0  0
  6 11  1  0  0  0  0
  6 12  1  0  0  0  0
  6 13  1  0  0  0  0
 11 14  1  0  0  0  0
 11 15  1  0  0  0  0
 11 16  1  0  0  0  0
M  END
