./000555-10-2.hin
 OpenBabel02061415193D

 26 26  0  0  1  0  0  0  0  0999 V2000
   -0.7438    0.4151    0.4318 C   0  0  0  0  0  0  0  0  0  0  0  0
   -0.7910   -1.0772    0.4490 C   0  0  0  0  0  0  0  0  0  0  0  0
   -1.9811   -1.6766    1.0378 C   0  0  0  0  0  0  0  0  0  0  0  0
   -2.9342   -0.9543    1.6431 C   0  0  0  0  0  0  0  0  0  0  0  0
   -2.8783    0.5320    1.7450 C   0  0  2  0  0  0  0  0  0  0  0  0
   -1.4414    1.0242    1.6326 C   0  0  0  0  0  0  0  0  0  0  0  0
   -1.2412    0.7745   -0.5104 H   0  0  0  0  0  0  0  0  0  0  0  0
   -0.8781    0.7572    2.5645 H   0  0  0  0  0  0  0  0  0  0  0  0
   -1.4343    2.1411    1.5379 H   0  0  0  0  0  0  0  0  0  0  0  0
   -3.5810    1.0263    3.0113 C   0  0  0  0  0  0  0  0  0  0  0  0
   -2.8956    0.5608    4.2780 C   0  0  0  0  0  0  0  0  0  0  0  0
   -3.7201    2.5342    3.0072 C   0  0  0  0  0  0  0  0  0  0  0  0
   -3.4544    0.9455    0.8629 H   0  0  0  0  0  0  0  0  0  0  0  0
   -4.6204    0.5842    2.9993 H   0  0  0  0  0  0  0  0  0  0  0  0
   -3.5435    0.7723    5.1630 H   0  0  0  0  0  0  0  0  0  0  0  0
   -2.6993   -0.5377    4.2317 H   0  0  0  0  0  0  0  0  0  0  0  0
   -1.9230    1.0893    4.4247 H   0  0  0  0  0  0  0  0  0  0  0  0
   -4.3442    2.8620    3.8735 H   0  0  0  0  0  0  0  0  0  0  0  0
   -2.7209    3.0260    3.0902 H   0  0  0  0  0  0  0  0  0  0  0  0
   -4.2088    2.8810    2.0652 H   0  0  0  0  0  0  0  0  0  0  0  0
    0.3206    0.7695    0.4036 H   0  0  0  0  0  0  0  0  0  0  0  0
   -2.0612   -2.7738    0.9664 H   0  0  0  0  0  0  0  0  0  0  0  0
   -3.8222   -1.4361    2.0808 H   0  0  0  0  0  0  0  0  0  0  0  0
    0.1977   -1.8209   -0.0645 C   0  0  0  0  0  0  0  0  0  0  0  0
    1.0987   -1.3743   -0.5031 H   0  0  0  0  0  0  0  0  0  0  0  0
    0.1629   -2.9174   -0.0754 H   0  0  0  0  0  0  0  0  0  0  0  0
  1  2  1  0  0  0  0
  1  6  1  0  0  0  0
  1  7  1  0  0  0  0
  1 21  1  0  0  0  0
  2  3  1  0  0  0  0
  2 24  2  0  0  0  0
  3  4  2  0  0  0  0
  3 22  1  0  0  0  0
  4  5  1  0  0  0  0
  4 23  1  0  0  0  0
  5  6  1  0  0  0  0
  5 10  1  0  0  0  0
  5 13  1  6  0  0  0
  6  8  1  0  0  0  0
  6  9  1  0  0  0  0
 10 11  1  0  0  0  0
 10 12  1  0  0  0  0
 10 14  1  0  0  0  0
 11 15  1  0  0  0  0
 11 16  1  0  0  0  0
 11 17  1  0  0  0  0
 12 18  1  0  0  0  0
 12 19  1  0  0  0  0
 12 20  1  0  0  0  0
 24 25  1  0  0  0  0
 24 26  1  0  0  0  0
M  END
