./000557-91-5.hin
 OpenBabel09241315583D

  8  7  0  0  0  0  0  0  0  0999 V2000
   -3.4613    4.1499    2.3673 Br  0  0  0  0  0  0  0  0  0  0  0  0
   -1.9695    6.5893    2.3318 C   0  0  0  0  0  0  0  0  0  0  0  0
   -3.3821    6.0757    2.3086 C   0  0  0  0  0  0  0  0  0  0  0  0
   -4.3729    6.7282    0.7884 Br  0  0  0  0  0  0  0  0  0  0  0  0
   -1.4440    6.2290    3.2516 H   0  0  0  0  0  0  0  0  0  0  0  0
   -1.3914    6.2468    1.4387 H   0  0  0  0  0  0  0  0  0  0  0  0
   -3.9411    6.4283    3.2071 H   0  0  0  0  0  0  0  0  0  0  0  0
   -1.9670    7.7082    2.3457 H   0  0  0  0  0  0  0  0  0  0  0  0
  1  3  1  0  0  0  0
  2  3  1  0  0  0  0
  2  5  1  0  0  0  0
  2  6  1  0  0  0  0
  2  8  1  0  0  0  0
  3  4  1  0  0  0  0
  3  7  1  0  0  0  0
M  END
