./000563-46-2.hin
 OpenBabel09241315583D

 15 14  0  0  0  0  0  0  0  0999 V2000
   -5.4635   -0.1954    0.2266 C   0  0  0  0  0  0  0  0  0  0  0  0
   -6.5998    1.9778   -0.0290 C   0  0  0  0  0  0  0  0  0  0  0  0
   -5.3850    1.1247    0.0399 C   0  0  0  0  0  0  0  0  0  0  0  0
   -4.1075    1.8753   -0.1166 C   0  0  0  0  0  0  0  0  0  0  0  0
   -2.8629    1.0287   -0.0503 C   0  0  0  0  0  0  0  0  0  0  0  0
   -4.5811   -0.8449    0.2808 H   0  0  0  0  0  0  0  0  0  0  0  0
   -6.4257   -0.7123    0.3377 H   0  0  0  0  0  0  0  0  0  0  0  0
   -6.5722    2.7525    0.7774 H   0  0  0  0  0  0  0  0  0  0  0  0
   -6.6457    2.5029   -1.0156 H   0  0  0  0  0  0  0  0  0  0  0  0
   -7.5323    1.3747    0.0932 H   0  0  0  0  0  0  0  0  0  0  0  0
   -4.1342    2.4154   -1.1032 H   0  0  0  0  0  0  0  0  0  0  0  0
   -4.0609    2.6634    0.6850 H   0  0  0  0  0  0  0  0  0  0  0  0
   -2.7881    0.5069    0.9344 H   0  0  0  0  0  0  0  0  0  0  0  0
   -2.8618    0.2581   -0.8586 H   0  0  0  0  0  0  0  0  0  0  0  0
   -1.9584    1.6722   -0.1767 H   0  0  0  0  0  0  0  0  0  0  0  0
  1  3  2  0  0  0  0
  1  6  1  0  0  0  0
  1  7  1  0  0  0  0
  2  3  1  0  0  0  0
  2  8  1  0  0  0  0
  2  9  1  0  0  0  0
  2 10  1  0  0  0  0
  3  4  1  0  0  0  0
  4  5  1  0  0  0  0
  4 11  1  0  0  0  0
  4 12  1  0  0  0  0
  5 13  1  0  0  0  0
  5 14  1  0  0  0  0
  5 15  1  0  0  0  0
M  END
