./000571-58-4.hin
 OpenBabel09241315583D

 24 25  0  0  0  0  0  0  0  0999 V2000
   -1.3945    4.7453   -0.0000 C   0  0  0  0  0  0  0  0  0  0  0  0
   -1.3825    0.4642   -0.0000 C   0  0  0  0  0  0  0  0  0  0  0  0
   -1.3649    1.8358   -0.0000 C   0  0  0  0  0  0  0  0  0  0  0  0
   -0.1368    2.5561   -0.0000 C   0  0  0  0  0  0  0  0  0  0  0  0
    1.0897    1.8341   -0.0000 C   0  0  0  0  0  0  0  0  0  0  0  0
    1.0332    0.4111   -0.0000 C   0  0  0  0  0  0  0  0  0  0  0  0
   -0.1661   -0.2563   -0.0000 C   0  0  0  0  0  0  0  0  0  0  0  0
   -0.1226    3.9842   -0.0000 C   0  0  0  0  0  0  0  0  0  0  0  0
    1.0844    4.6496   -0.0000 C   0  0  0  0  0  0  0  0  0  0  0  0
    2.2991    3.9366   -0.0000 C   0  0  0  0  0  0  0  0  0  0  0  0
    2.3224    2.5554   -0.0000 C   0  0  0  0  0  0  0  0  0  0  0  0
   -1.2048    5.8471    0.0000 H   0  0  0  0  0  0  0  0  0  0  0  0
   -1.9994    4.4950   -0.9075 H   0  0  0  0  0  0  0  0  0  0  0  0
   -1.9994    4.4950    0.9075 H   0  0  0  0  0  0  0  0  0  0  0  0
   -2.3342   -0.0870   -0.0000 H   0  0  0  0  0  0  0  0  0  0  0  0
   -2.3105    2.3995   -0.0000 H   0  0  0  0  0  0  0  0  0  0  0  0
    1.9670   -0.1699   -0.0000 H   0  0  0  0  0  0  0  0  0  0  0  0
   -0.1946   -1.3559   -0.0000 H   0  0  0  0  0  0  0  0  0  0  0  0
    1.1147    5.7500   -0.0000 H   0  0  0  0  0  0  0  0  0  0  0  0
    3.2445    4.5009    0.0000 H   0  0  0  0  0  0  0  0  0  0  0  0
    3.6485    1.8898   -0.0000 C   0  0  0  0  0  0  0  0  0  0  0  0
    3.5871    0.7772    0.0000 H   0  0  0  0  0  0  0  0  0  0  0  0
    4.2281    2.2013   -0.9061 H   0  0  0  0  0  0  0  0  0  0  0  0
    4.2281    2.2013    0.9060 H   0  0  0  0  0  0  0  0  0  0  0  0
  1  8  1  0  0  0  0
  1 12  1  0  0  0  0
  1 13  1  0  0  0  0
  1 14  1  0  0  0  0
  2  3  2  0  0  0  0
  2  7  1  0  0  0  0
  2 15  1  0  0  0  0
  3  4  1  0  0  0  0
  3 16  1  0  0  0  0
  4  5  2  0  0  0  0
  4  8  1  0  0  0  0
  5  6  1  0  0  0  0
  5 11  1  0  0  0  0
  6  7  2  0  0  0  0
  6 17  1  0  0  0  0
  7 18  1  0  0  0  0
  8  9  2  0  0  0  0
  9 10  1  0  0  0  0
  9 19  1  0  0  0  0
 10 11  2  0  0  0  0
 10 20  1  0  0  0  0
 11 21  1  0  0  0  0
 21 22  1  0  0  0  0
 21 23  1  0  0  0  0
 21 24  1  0  0  0  0
M  END
