./000576-24-9.hin
 OpenBabel09241315583D

 13 13  0  0  0  0  0  0  0  0999 V2000
   -4.3300    0.3108   -0.0274 C   0  0  0  0  0  0  0  0  0  0  0  0
   -4.3440    1.7137   -0.0377 C   0  0  0  0  0  0  0  0  0  0  0  0
   -3.1440    2.4159   -0.0782 C   0  0  0  0  0  0  0  0  0  0  0  0
   -1.9298    1.7349   -0.1085 C   0  0  0  0  0  0  0  0  0  0  0  0
   -1.9138    0.3362   -0.0983 C   0  0  0  0  0  0  0  0  0  0  0  0
   -5.4934   -0.4210    0.0122 O   0  0  0  0  0  0  0  0  0  0  0  0
   -5.3031    2.2509   -0.0137 H   0  0  0  0  0  0  0  0  0  0  0  0
   -3.1540    3.5165   -0.0863 H   0  0  0  0  0  0  0  0  0  0  0  0
   -6.2355    0.2022    0.0291 H   0  0  0  0  0  0  0  0  0  0  0  0
   -0.4148   -0.4592   -0.1361 Cl  0  0  0  0  0  0  0  0  0  0  0  0
   -3.1100   -0.3975   -0.0577 C   0  0  0  0  0  0  0  0  0  0  0  0
   -3.0806   -2.0904   -0.0456 Cl  0  0  0  0  0  0  0  0  0  0  0  0
   -0.9828    2.2947   -0.1405 H   0  0  0  0  0  0  0  0  0  0  0  0
  1  2  2  0  0  0  0
  1  6  1  0  0  0  0
  1 11  1  0  0  0  0
  2  3  1  0  0  0  0
  2  7  1  0  0  0  0
  3  4  2  0  0  0  0
  3  8  1  0  0  0  0
  4  5  1  0  0  0  0
  4 13  1  0  0  0  0
  5 10  1  0  0  0  0
  5 11  2  0  0  0  0
  6  9  1  0  0  0  0
 11 12  1  0  0  0  0
M  END
