./000581-40-8.hin
 OpenBabel09241315583D

 24 25  0  0  0  0  0  0  0  0999 V2000
   -1.3352    0.2469    0.0000 C   0  0  0  0  0  0  0  0  0  0  0  0
   -1.3400    1.6197    0.0000 C   0  0  0  0  0  0  0  0  0  0  0  0
   -0.1164    2.3449   -0.0000 C   0  0  0  0  0  0  0  0  0  0  0  0
    1.1092    1.6328   -0.0000 C   0  0  0  0  0  0  0  0  0  0  0  0
    1.0848    0.2106    0.0000 C   0  0  0  0  0  0  0  0  0  0  0  0
   -0.1104   -0.4648    0.0000 C   0  0  0  0  0  0  0  0  0  0  0  0
   -0.0855    3.7628   -0.0000 C   0  0  0  0  0  0  0  0  0  0  0  0
    1.1066    4.4574   -0.0000 C   0  0  0  0  0  0  0  0  0  0  0  0
    2.3401    3.7402   -0.0000 C   0  0  0  0  0  0  0  0  0  0  0  0
    2.3267    2.3611   -0.0000 C   0  0  0  0  0  0  0  0  0  0  0  0
   -2.2793   -0.3173    0.0000 H   0  0  0  0  0  0  0  0  0  0  0  0
   -2.2858    2.1817    0.0000 H   0  0  0  0  0  0  0  0  0  0  0  0
    2.0413   -0.3331    0.0000 H   0  0  0  0  0  0  0  0  0  0  0  0
   -0.1332   -1.5645    0.0000 H   0  0  0  0  0  0  0  0  0  0  0  0
    1.0687    5.9402   -0.0000 C   0  0  0  0  0  0  0  0  0  0  0  0
    3.6344    4.4636   -0.0000 C   0  0  0  0  0  0  0  0  0  0  0  0
    3.2721    1.7963   -0.0000 H   0  0  0  0  0  0  0  0  0  0  0  0
   -1.0417    4.3089   -0.0000 H   0  0  0  0  0  0  0  0  0  0  0  0
    2.0894    6.3920    0.0000 H   0  0  0  0  0  0  0  0  0  0  0  0
    0.5248    6.3093   -0.9059 H   0  0  0  0  0  0  0  0  0  0  0  0
    0.5248    6.3093    0.9059 H   0  0  0  0  0  0  0  0  0  0  0  0
    4.4959    3.7510   -0.0000 H   0  0  0  0  0  0  0  0  0  0  0  0
    3.7188    5.1125   -0.9077 H   0  0  0  0  0  0  0  0  0  0  0  0
    3.7188    5.1125    0.9077 H   0  0  0  0  0  0  0  0  0  0  0  0
  1  2  2  0  0  0  0
  1  6  1  0  0  0  0
  1 11  1  0  0  0  0
  2  3  1  0  0  0  0
  2 12  1  0  0  0  0
  3  4  2  0  0  0  0
  3  7  1  0  0  0  0
  4  5  1  0  0  0  0
  4 10  1  0  0  0  0
  5  6  2  0  0  0  0
  5 13  1  0  0  0  0
  6 14  1  0  0  0  0
  7  8  2  0  0  0  0
  7 18  1  0  0  0  0
  8  9  1  0  0  0  0
  8 15  1  0  0  0  0
  9 10  2  0  0  0  0
  9 16  1  0  0  0  0
 10 17  1  0  0  0  0
 15 19  1  0  0  0  0
 15 20  1  0  0  0  0
 15 21  1  0  0  0  0
 16 22  1  0  0  0  0
 16 23  1  0  0  0  0
 16 24  1  0  0  0  0
M  END
