./000581-89-5.hin
 OpenBabel09241315583D

 20 21  0  0  0  0  0  0  0  0999 V2000
    1.5304    7.5858    3.0797 N   0  3  0  0  0  0  0  0  0  0  0  0
   -0.9126    1.9026    3.0797 C   0  0  0  0  0  0  0  0  0  0  0  0
   -0.9236    3.2756    3.0797 C   0  0  0  0  0  0  0  0  0  0  0  0
    0.2985    4.0041    3.0797 C   0  0  0  0  0  0  0  0  0  0  0  0
    1.5288    3.2972    3.0797 C   0  0  0  0  0  0  0  0  0  0  0  0
    1.5092    1.8757    3.0797 C   0  0  0  0  0  0  0  0  0  0  0  0
    0.3153    1.1966    3.0797 C   0  0  0  0  0  0  0  0  0  0  0  0
    0.3065    5.4235    3.0797 C   0  0  0  0  0  0  0  0  0  0  0  0
    1.5137    6.0994    3.0797 C   0  0  0  0  0  0  0  0  0  0  0  0
    2.7541    5.3978    3.0797 C   0  0  0  0  0  0  0  0  0  0  0  0
    2.7497    4.0268    3.0797 C   0  0  0  0  0  0  0  0  0  0  0  0
   -1.8552    1.3346    3.0797 H   0  0  0  0  0  0  0  0  0  0  0  0
   -1.8721    3.8344    3.0797 H   0  0  0  0  0  0  0  0  0  0  0  0
    2.4677    1.3347    3.0797 H   0  0  0  0  0  0  0  0  0  0  0  0
    0.2974    0.0959    3.0797 H   0  0  0  0  0  0  0  0  0  0  0  0
    3.6987    5.9678    3.0797 H   0  0  0  0  0  0  0  0  0  0  0  0
    3.6988    3.4682    3.0797 H   0  0  0  0  0  0  0  0  0  0  0  0
   -0.6535    5.9694    3.0797 H   0  0  0  0  0  0  0  0  0  0  0  0
    2.5873    8.1578    3.0797 O   0  0  0  0  0  0  0  0  0  0  0  0
    0.4842    8.1791    3.0797 O   0  5  0  0  0  0  0  0  0  0  0  0
  1  9  1  0  0  0  0
  1 19  2  0  0  0  0
  1 20  1  0  0  0  0
  2  3  2  0  0  0  0
  2  7  1  0  0  0  0
  2 12  1  0  0  0  0
  3  4  1  0  0  0  0
  3 13  1  0  0  0  0
  4  5  2  0  0  0  0
  4  8  1  0  0  0  0
  5  6  1  0  0  0  0
  5 11  1  0  0  0  0
  6  7  2  0  0  0  0
  6 14  1  0  0  0  0
  7 15  1  0  0  0  0
  8  9  2  0  0  0  0
  8 18  1  0  0  0  0
  9 10  1  0  0  0  0
 10 11  2  0  0  0  0
 10 16  1  0  0  0  0
 11 17  1  0  0  0  0
M  CHG  2   1   1  20  -1
M  END
