./000589-38-8.hin
 OpenBabel09241315583D

 19 18  0  0  0  0  0  0  0  0999 V2000
   -6.0273    1.6804   -0.2779 C   0  0  0  0  0  0  0  0  0  0  0  0
   -6.1970    3.1764   -0.2896 C   0  0  0  0  0  0  0  0  0  0  0  0
   -7.2810    3.4423   -0.2789 H   0  0  0  0  0  0  0  0  0  0  0  0
   -5.7040    3.6320    0.6032 H   0  0  0  0  0  0  0  0  0  0  0  0
   -5.7262    3.6154   -1.2024 H   0  0  0  0  0  0  0  0  0  0  0  0
   -4.5851    1.2534   -0.2873 C   0  0  0  0  0  0  0  0  0  0  0  0
   -4.3846   -0.2364   -0.2969 C   0  0  0  0  0  0  0  0  0  0  0  0
   -2.9243   -0.6311   -0.2861 C   0  0  0  0  0  0  0  0  0  0  0  0
   -2.4307   -0.1961    0.6231 H   0  0  0  0  0  0  0  0  0  0  0  0
   -2.4132   -0.1803   -1.1777 H   0  0  0  0  0  0  0  0  0  0  0  0
   -3.6483    2.0568   -0.2869 O   0  0  0  0  0  0  0  0  0  0  0  0
   -4.9044   -0.6700    0.5987 H   0  0  0  0  0  0  0  0  0  0  0  0
   -4.8865   -0.6549   -1.2099 H   0  0  0  0  0  0  0  0  0  0  0  0
   -2.7591   -2.1281   -0.2974 C   0  0  0  0  0  0  0  0  0  0  0  0
   -3.2247   -2.5714   -1.2109 H   0  0  0  0  0  0  0  0  0  0  0  0
   -1.6749   -2.3958   -0.2895 H   0  0  0  0  0  0  0  0  0  0  0  0
   -3.2417   -2.5869    0.5993 H   0  0  0  0  0  0  0  0  0  0  0  0
   -6.5147    1.2457    0.6356 H   0  0  0  0  0  0  0  0  0  0  0  0
   -6.5329    1.2292   -1.1731 H   0  0  0  0  0  0  0  0  0  0  0  0
  1  2  1  0  0  0  0
  1  6  1  0  0  0  0
  1 18  1  0  0  0  0
  1 19  1  0  0  0  0
  2  3  1  0  0  0  0
  2  4  1  0  0  0  0
  2  5  1  0  0  0  0
  6  7  1  0  0  0  0
  6 11  2  0  0  0  0
  7  8  1  0  0  0  0
  7 12  1  0  0  0  0
  7 13  1  0  0  0  0
  8  9  1  0  0  0  0
  8 10  1  0  0  0  0
  8 14  1  0  0  0  0
 14 15  1  0  0  0  0
 14 16  1  0  0  0  0
 14 17  1  0  0  0  0
M  END
