./000590-18-1.hin
 OpenBabel09241315583D

 12 11  0  0  0  0  0  0  0  0999 V2000
   -0.3425   -0.7468    0.1039 C   0  0  0  0  0  0  0  0  0  0  0  0
   -0.4716    0.7217    0.1317 C   0  0  0  0  0  0  0  0  0  0  0  0
    0.5117   -1.0425   -0.5565 H   0  0  0  0  0  0  0  0  0  0  0  0
   -0.1313   -1.1294    1.1349 H   0  0  0  0  0  0  0  0  0  0  0  0
   -1.2635   -1.2526   -0.2745 H   0  0  0  0  0  0  0  0  0  0  0  0
   -1.5877    1.4325   -0.0529 C   0  0  0  0  0  0  0  0  0  0  0  0
    0.4763    1.2527    0.3331 H   0  0  0  0  0  0  0  0  0  0  0  0
   -2.9374    0.9069   -0.3279 C   0  0  0  0  0  0  0  0  0  0  0  0
   -1.5353    2.5354   -0.0082 H   0  0  0  0  0  0  0  0  0  0  0  0
   -3.6810    1.3848    0.3589 H   0  0  0  0  0  0  0  0  0  0  0  0
   -3.2322    1.1500   -1.3804 H   0  0  0  0  0  0  0  0  0  0  0  0
   -3.0043   -0.1999   -0.1932 H   0  0  0  0  0  0  0  0  0  0  0  0
  1  2  1  0  0  0  0
  1  3  1  0  0  0  0
  1  4  1  0  0  0  0
  1  5  1  0  0  0  0
  2  6  2  0  0  0  0
  2  7  1  0  0  0  0
  6  8  1  0  0  0  0
  6  9  1  0  0  0  0
  8 10  1  0  0  0  0
  8 11  1  0  0  0  0
  8 12  1  0  0  0  0
M  END
