./000590-19-2.hin
 OpenBabel09241315583D

 10  9  0  0  0  0  0  0  0  0999 V2000
   -3.2982    3.0822   -3.4245 C   0  0  0  0  0  0  0  0  0  0  0  0
   -3.2516    3.7512   -4.2962 H   0  0  0  0  0  0  0  0  0  0  0  0
   -2.4117    3.0936   -2.7736 H   0  0  0  0  0  0  0  0  0  0  0  0
   -4.3279    2.3320   -3.1804 C   0  0  0  0  0  0  0  0  0  0  0  0
   -5.5525    0.2099   -3.4212 C   0  0  0  0  0  0  0  0  0  0  0  0
   -5.3695    1.5905   -2.9261 C   0  0  0  0  0  0  0  0  0  0  0  0
   -6.4817    0.1494   -4.0419 H   0  0  0  0  0  0  0  0  0  0  0  0
   -4.6892   -0.1288   -4.0439 H   0  0  0  0  0  0  0  0  0  0  0  0
   -5.6622   -0.4920   -2.5567 H   0  0  0  0  0  0  0  0  0  0  0  0
   -6.1913    1.9861   -2.3019 H   0  0  0  0  0  0  0  0  0  0  0  0
  1  2  1  0  0  0  0
  1  3  1  0  0  0  0
  1  4  2  0  0  0  0
  4  6  2  0  0  0  0
  5  6  1  0  0  0  0
  5  7  1  0  0  0  0
  5  8  1  0  0  0  0
  5  9  1  0  0  0  0
  6 10  1  0  0  0  0
M  END
