./000591-50-4.hin
 OpenBabel09241315583D

 12 12  0  0  0  0  0  0  0  0999 V2000
   -2.1704   -1.0754   -0.0000 C   0  0  0  0  0  0  0  0  0  0  0  0
   -2.1688    0.3193   -0.0000 C   0  0  0  0  0  0  0  0  0  0  0  0
   -0.9611    1.0178   -0.0000 C   0  0  0  0  0  0  0  0  0  0  0  0
    0.2479    0.3208   -0.0000 C   0  0  0  0  0  0  0  0  0  0  0  0
    0.2470   -1.0747   -0.0000 C   0  0  0  0  0  0  0  0  0  0  0  0
   -0.9617   -1.7714   -0.0000 C   0  0  0  0  0  0  0  0  0  0  0  0
   -3.1231   -1.6254   -0.0000 H   0  0  0  0  0  0  0  0  0  0  0  0
   -3.1198    0.8722   -0.0000 H   0  0  0  0  0  0  0  0  0  0  0  0
   -0.9718    2.1189   -0.0000 H   0  0  0  0  0  0  0  0  0  0  0  0
    1.9980    1.3312   -0.0000 I   0  0  0  0  0  0  0  0  0  0  0  0
    1.1953   -1.6345   -0.0000 H   0  0  0  0  0  0  0  0  0  0  0  0
   -0.9584   -2.8714   -0.0000 H   0  0  0  0  0  0  0  0  0  0  0  0
  1  2  2  0  0  0  0
  1  6  1  0  0  0  0
  1  7  1  0  0  0  0
  2  3  1  0  0  0  0
  2  8  1  0  0  0  0
  3  4  2  0  0  0  0
  3  9  1  0  0  0  0
  4  5  1  0  0  0  0
  4 10  1  0  0  0  0
  5  6  2  0  0  0  0
  5 11  1  0  0  0  0
  6 12  1  0  0  0  0
M  END
