./000591-78-6.hin
 OpenBabel09241315583D

 19 18  0  0  0  0  0  0  0  0999 V2000
   -2.9323    2.3093   -0.4052 C   0  0  0  0  0  0  0  0  0  0  0  0
   -2.9752    3.7787   -0.1255 C   0  0  0  0  0  0  0  0  0  0  0  0
   -3.6644    4.2798   -0.8479 H   0  0  0  0  0  0  0  0  0  0  0  0
   -3.3538    3.9557    0.9104 H   0  0  0  0  0  0  0  0  0  0  0  0
   -1.9585    4.2311   -0.2221 H   0  0  0  0  0  0  0  0  0  0  0  0
   -1.8862    1.7316   -0.7162 O   0  0  0  0  0  0  0  0  0  0  0  0
   -4.2529    1.6053   -0.2767 C   0  0  0  0  0  0  0  0  0  0  0  0
   -4.1633    0.1288   -0.5912 C   0  0  0  0  0  0  0  0  0  0  0  0
   -5.5107   -0.5452   -0.4474 C   0  0  0  0  0  0  0  0  0  0  0  0
   -6.2500   -0.0565   -1.1360 H   0  0  0  0  0  0  0  0  0  0  0  0
   -5.8911   -0.4038    0.5989 H   0  0  0  0  0  0  0  0  0  0  0  0
   -4.6297    1.7516    0.7710 H   0  0  0  0  0  0  0  0  0  0  0  0
   -4.9864    2.1006   -0.9676 H   0  0  0  0  0  0  0  0  0  0  0  0
   -3.7765   -0.0069   -1.6356 H   0  0  0  0  0  0  0  0  0  0  0  0
   -3.4181   -0.3536    0.0950 H   0  0  0  0  0  0  0  0  0  0  0  0
   -5.4249   -2.0169   -0.7598 C   0  0  0  0  0  0  0  0  0  0  0  0
   -4.7111   -2.5257   -0.0676 H   0  0  0  0  0  0  0  0  0  0  0  0
   -6.4274   -2.4962   -0.6485 H   0  0  0  0  0  0  0  0  0  0  0  0
   -5.0706   -2.1775   -1.8068 H   0  0  0  0  0  0  0  0  0  0  0  0
  1  2  1  0  0  0  0
  1  6  2  0  0  0  0
  1  7  1  0  0  0  0
  2  3  1  0  0  0  0
  2  4  1  0  0  0  0
  2  5  1  0  0  0  0
  7  8  1  0  0  0  0
  7 12  1  0  0  0  0
  7 13  1  0  0  0  0
  8  9  1  0  0  0  0
  8 14  1  0  0  0  0
  8 15  1  0  0  0  0
  9 10  1  0  0  0  0
  9 11  1  0  0  0  0
  9 16  1  0  0  0  0
 16 17  1  0  0  0  0
 16 18  1  0  0  0  0
 16 19  1  0  0  0  0
M  END
