./000591-93-5.hin
 OpenBabel09241315583D

 13 12  0  0  0  0  0  0  0  0999 V2000
   -0.5884    3.1683   15.0695 C   0  0  0  0  0  0  0  0  0  0  0  0
   -4.5529    4.8801   15.0695 C   0  0  0  0  0  0  0  0  0  0  0  0
   -3.3269    4.3593   15.0695 C   0  0  0  0  0  0  0  0  0  0  0  0
   -2.1009    5.1944   15.0695 C   0  0  0  0  0  0  0  0  0  0  0  0
   -5.4542    4.2540   15.0695 H   0  0  0  0  0  0  0  0  0  0  0  0
   -4.7400    5.9617   15.0695 H   0  0  0  0  0  0  0  0  0  0  0  0
   -0.8021    4.4808   15.0695 C   0  0  0  0  0  0  0  0  0  0  0  0
   -2.1238    5.8697   14.1660 H   0  0  0  0  0  0  0  0  0  0  0  0
    0.0614    5.1726   15.0695 H   0  0  0  0  0  0  0  0  0  0  0  0
    0.4288    2.7528   15.0695 H   0  0  0  0  0  0  0  0  0  0  0  0
   -1.3834    2.4128   15.0695 H   0  0  0  0  0  0  0  0  0  0  0  0
   -3.1846    3.2670   15.0695 H   0  0  0  0  0  0  0  0  0  0  0  0
   -2.1238    5.8697   15.9731 H   0  0  0  0  0  0  0  0  0  0  0  0
  1  7  2  0  0  0  0
  1 10  1  0  0  0  0
  1 11  1  0  0  0  0
  2  3  2  0  0  0  0
  2  5  1  0  0  0  0
  2  6  1  0  0  0  0
  3  4  1  0  0  0  0
  3 12  1  0  0  0  0
  4  7  1  0  0  0  0
  4  8  1  0  0  0  0
  4 13  1  0  0  0  0
  7  9  1  0  0  0  0
M  END
