./000592-41-6.hin
 OpenBabel09241315583D

 18 17  0  0  0  0  0  0  0  0999 V2000
   -2.5982   -2.1599    0.2153 C   0  0  0  0  0  0  0  0  0  0  0  0
   -2.7231   -0.8921   -0.1697 C   0  0  0  0  0  0  0  0  0  0  0  0
   -3.9973   -0.1340   -0.1255 C   0  0  0  0  0  0  0  0  0  0  0  0
   -4.2243    0.6506   -1.4027 C   0  0  0  0  0  0  0  0  0  0  0  0
   -5.5186    1.4336   -1.3411 C   0  0  0  0  0  0  0  0  0  0  0  0
   -5.7501    2.2180   -2.6066 C   0  0  0  0  0  0  0  0  0  0  0  0
   -1.6369   -2.6889    0.1852 H   0  0  0  0  0  0  0  0  0  0  0  0
   -3.4426   -2.7556    0.5860 H   0  0  0  0  0  0  0  0  0  0  0  0
   -1.8553   -0.3218   -0.5421 H   0  0  0  0  0  0  0  0  0  0  0  0
   -4.8646   -0.8258    0.0478 H   0  0  0  0  0  0  0  0  0  0  0  0
   -3.9634    0.5764    0.7459 H   0  0  0  0  0  0  0  0  0  0  0  0
   -3.3670    1.3544   -1.5706 H   0  0  0  0  0  0  0  0  0  0  0  0
   -4.2514   -0.0527   -2.2759 H   0  0  0  0  0  0  0  0  0  0  0  0
   -6.3747    0.7277   -1.1733 H   0  0  0  0  0  0  0  0  0  0  0  0
   -5.4911    2.1328   -0.4637 H   0  0  0  0  0  0  0  0  0  0  0  0
   -6.7089    2.7868   -2.5409 H   0  0  0  0  0  0  0  0  0  0  0  0
   -4.9197    2.9451   -2.7776 H   0  0  0  0  0  0  0  0  0  0  0  0
   -5.8045    1.5357   -3.4892 H   0  0  0  0  0  0  0  0  0  0  0  0
  1  2  2  0  0  0  0
  1  7  1  0  0  0  0
  1  8  1  0  0  0  0
  2  3  1  0  0  0  0
  2  9  1  0  0  0  0
  3  4  1  0  0  0  0
  3 10  1  0  0  0  0
  3 11  1  0  0  0  0
  4  5  1  0  0  0  0
  4 12  1  0  0  0  0
  4 13  1  0  0  0  0
  5  6  1  0  0  0  0
  5 14  1  0  0  0  0
  5 15  1  0  0  0  0
  6 16  1  0  0  0  0
  6 17  1  0  0  0  0
  6 18  1  0  0  0  0
M  END
