./000592-42-7.hin
 OpenBabel09241315583D

 16 15  0  0  0  0  0  0  0  0999 V2000
   -0.2777   22.1924    7.2404 C   0  0  0  0  0  0  0  0  0  0  0  0
   -0.5594   20.9410    6.8858 C   0  0  0  0  0  0  0  0  0  0  0  0
   -1.8679   16.4686    8.2534 C   0  0  0  0  0  0  0  0  0  0  0  0
   -1.5867   17.7200    8.6081 C   0  0  0  0  0  0  0  0  0  0  0  0
   -1.6836   18.8825    7.6917 C   0  0  0  0  0  0  0  0  0  0  0  0
   -1.8028   15.6312    8.9601 H   0  0  0  0  0  0  0  0  0  0  0  0
   -2.1819   16.1935    7.2380 H   0  0  0  0  0  0  0  0  0  0  0  0
   -0.4625   19.7785    7.8021 C   0  0  0  0  0  0  0  0  0  0  0  0
   -1.8038   18.5414    6.6288 H   0  0  0  0  0  0  0  0  0  0  0  0
   -0.3422   20.1196    8.8651 H   0  0  0  0  0  0  0  0  0  0  0  0
   -0.8767   20.6979    5.8576 H   0  0  0  0  0  0  0  0  0  0  0  0
   -0.3428   23.0298    6.5338 H   0  0  0  0  0  0  0  0  0  0  0  0
    0.0367   22.4673    8.2558 H   0  0  0  0  0  0  0  0  0  0  0  0
   -2.6028   19.4740    7.9552 H   0  0  0  0  0  0  0  0  0  0  0  0
    0.4567   19.1870    7.5387 H   0  0  0  0  0  0  0  0  0  0  0  0
   -1.2698   17.9632    9.6364 H   0  0  0  0  0  0  0  0  0  0  0  0
  1  2  2  0  0  0  0
  1 12  1  0  0  0  0
  1 13  1  0  0  0  0
  2  8  1  0  0  0  0
  2 11  1  0  0  0  0
  3  4  2  0  0  0  0
  3  6  1  0  0  0  0
  3  7  1  0  0  0  0
  4  5  1  0  0  0  0
  4 16  1  0  0  0  0
  5  8  1  0  0  0  0
  5  9  1  0  0  0  0
  5 14  1  0  0  0  0
  8 10  1  0  0  0  0
  8 15  1  0  0  0  0
M  END
