./000592-57-4.hin
 OpenBabel09241315583D

 14 14  0  0  0  0  0  0  0  0999 V2000
   -2.3365   -0.0128    0.3957 C   0  0  0  0  0  0  0  0  0  0  0  0
   -1.3221   -0.5665   -0.5342 C   0  0  0  0  0  0  0  0  0  0  0  0
   -0.1836    0.0813   -0.8295 C   0  0  0  0  0  0  0  0  0  0  0  0
    0.0864    1.3892   -0.2660 C   0  0  0  0  0  0  0  0  0  0  0  0
   -0.8564    2.0364    0.4377 C   0  0  0  0  0  0  0  0  0  0  0  0
   -2.2162    1.4819    0.6473 C   0  0  0  0  0  0  0  0  0  0  0  0
   -2.2417   -0.5645    1.3728 H   0  0  0  0  0  0  0  0  0  0  0  0
   -3.3644   -0.2329   -0.0006 H   0  0  0  0  0  0  0  0  0  0  0  0
   -1.5432   -1.5627   -0.9458 H   0  0  0  0  0  0  0  0  0  0  0  0
    0.5745   -0.3488   -1.5000 H   0  0  0  0  0  0  0  0  0  0  0  0
    1.0836    1.8199   -0.4380 H   0  0  0  0  0  0  0  0  0  0  0  0
   -0.6741    3.0325    0.8679 H   0  0  0  0  0  0  0  0  0  0  0  0
   -2.9195    2.0334   -0.0377 H   0  0  0  0  0  0  0  0  0  0  0  0
   -2.5501    1.7016    1.6972 H   0  0  0  0  0  0  0  0  0  0  0  0
  1  2  1  0  0  0  0
  1  6  1  0  0  0  0
  1  7  1  0  0  0  0
  1  8  1  0  0  0  0
  2  3  2  0  0  0  0
  2  9  1  0  0  0  0
  3  4  1  0  0  0  0
  3 10  1  0  0  0  0
  4  5  2  0  0  0  0
  4 11  1  0  0  0  0
  5  6  1  0  0  0  0
  5 12  1  0  0  0  0
  6 13  1  0  0  0  0
  6 14  1  0  0  0  0
M  END
