./000592-76-7.hin
 OpenBabel09241315583D

 21 20  0  0  0  0  0  0  0  0999 V2000
   -2.3639   -2.6097   -0.1319 C   0  0  0  0  0  0  0  0  0  0  0  0
   -2.4583   -1.3060    0.1181 C   0  0  0  0  0  0  0  0  0  0  0  0
   -3.7327   -0.5474    0.0941 C   0  0  0  0  0  0  0  0  0  0  0  0
   -3.8552    0.3754    1.2907 C   0  0  0  0  0  0  0  0  0  0  0  0
   -5.1510    1.1564    1.2470 C   0  0  0  0  0  0  0  0  0  0  0  0
   -5.2769    2.0808    2.4395 C   0  0  0  0  0  0  0  0  0  0  0  0
   -6.5657    2.8604    2.4011 C   0  0  0  0  0  0  0  0  0  0  0  0
   -1.4028   -3.1397   -0.1218 H   0  0  0  0  0  0  0  0  0  0  0  0
   -3.2352   -3.2362   -0.3633 H   0  0  0  0  0  0  0  0  0  0  0  0
   -1.5635   -0.7047    0.3521 H   0  0  0  0  0  0  0  0  0  0  0  0
   -3.7711    0.0621   -0.8506 H   0  0  0  0  0  0  0  0  0  0  0  0
   -4.6105   -1.2472    0.0698 H   0  0  0  0  0  0  0  0  0  0  0  0
   -3.8100   -0.2272    2.2356 H   0  0  0  0  0  0  0  0  0  0  0  0
   -2.9875    1.0862    1.3091 H   0  0  0  0  0  0  0  0  0  0  0  0
   -5.1974    1.7567    0.3002 H   0  0  0  0  0  0  0  0  0  0  0  0
   -6.0189    0.4456    1.2302 H   0  0  0  0  0  0  0  0  0  0  0  0
   -5.2284    1.4787    3.3852 H   0  0  0  0  0  0  0  0  0  0  0  0
   -4.4075    2.7901    2.4555 H   0  0  0  0  0  0  0  0  0  0  0  0
   -6.6381    3.5348    3.2882 H   0  0  0  0  0  0  0  0  0  0  0  0
   -6.6212    3.4856    1.4773 H   0  0  0  0  0  0  0  0  0  0  0  0
   -7.4443    2.1708    2.4097 H   0  0  0  0  0  0  0  0  0  0  0  0
  1  2  2  0  0  0  0
  1  8  1  0  0  0  0
  1  9  1  0  0  0  0
  2  3  1  0  0  0  0
  2 10  1  0  0  0  0
  3  4  1  0  0  0  0
  3 11  1  0  0  0  0
  3 12  1  0  0  0  0
  4  5  1  0  0  0  0
  4 13  1  0  0  0  0
  4 14  1  0  0  0  0
  5  6  1  0  0  0  0
  5 15  1  0  0  0  0
  5 16  1  0  0  0  0
  6  7  1  0  0  0  0
  6 17  1  0  0  0  0
  6 18  1  0  0  0  0
  7 19  1  0  0  0  0
  7 20  1  0  0  0  0
  7 21  1  0  0  0  0
M  END
