./000592-84-7.hin
 OpenBabel09241315583D

 17 16  0  0  0  0  0  0  0  0999 V2000
   -0.8367   -1.7249   -0.0000 C   0  0  0  0  0  0  0  0  0  0  0  0
   -0.9243   -0.2143   -0.0000 C   0  0  0  0  0  0  0  0  0  0  0  0
   -2.3748    0.2310   -0.0000 C   0  0  0  0  0  0  0  0  0  0  0  0
    0.5974   -2.1878   -0.0000 C   0  0  0  0  0  0  0  0  0  0  0  0
   -1.3640   -2.1322    0.9032 H   0  0  0  0  0  0  0  0  0  0  0  0
   -1.3640   -2.1322   -0.9032 H   0  0  0  0  0  0  0  0  0  0  0  0
   -0.4074    0.2054   -0.9022 H   0  0  0  0  0  0  0  0  0  0  0  0
   -0.4074    0.2054    0.9022 H   0  0  0  0  0  0  0  0  0  0  0  0
   -2.3569    1.6653   -0.0000 O   0  0  0  0  0  0  0  0  0  0  0  0
   -2.9108   -0.1323   -0.9159 H   0  0  0  0  0  0  0  0  0  0  0  0
   -2.9108   -0.1323    0.9159 H   0  0  0  0  0  0  0  0  0  0  0  0
   -3.5901    2.2650   -0.0000 C   0  0  0  0  0  0  0  0  0  0  0  0
   -3.5420    3.4912   -0.0000 O   0  0  0  0  0  0  0  0  0  0  0  0
   -4.4892    1.6229    0.0000 H   0  0  0  0  0  0  0  0  0  0  0  0
    0.6434   -3.3036   -0.0000 H   0  0  0  0  0  0  0  0  0  0  0  0
    1.1332   -1.8119   -0.9051 H   0  0  0  0  0  0  0  0  0  0  0  0
    1.1332   -1.8119    0.9051 H   0  0  0  0  0  0  0  0  0  0  0  0
  1  2  1  0  0  0  0
  1  4  1  0  0  0  0
  1  5  1  0  0  0  0
  1  6  1  0  0  0  0
  2  3  1  0  0  0  0
  2  7  1  0  0  0  0
  2  8  1  0  0  0  0
  3  9  1  0  0  0  0
  3 10  1  0  0  0  0
  3 11  1  0  0  0  0
  4 15  1  0  0  0  0
  4 16  1  0  0  0  0
  4 17  1  0  0  0  0
  9 12  1  0  0  0  0
 12 13  2  0  0  0  0
 12 14  1  0  0  0  0
M  END
