./000593-70-4.hin
 OpenBabel09241315583D

  5  4  0  0  0  0  0  0  0  0999 V2000
   -5.3194   13.1927    5.5996 F   0  0  0  0  0  0  0  0  0  0  0  0
   -5.2829   14.5632    5.5996 C   0  0  0  0  0  0  0  0  0  0  0  0
   -3.6282   15.2178    5.5996 Cl  0  0  0  0  0  0  0  0  0  0  0  0
   -5.7702   14.9563    6.5286 H   0  0  0  0  0  0  0  0  0  0  0  0
   -5.7703   14.9563    4.6705 H   0  0  0  0  0  0  0  0  0  0  0  0
  1  2  1  0  0  0  0
  2  3  1  0  0  0  0
  2  4  1  0  0  0  0
  2  5  1  0  0  0  0
M  END
