./000594-20-7.hin
 OpenBabel09241315583D

 11 10  0  0  0  0  0  0  0  0999 V2000
   -1.4885  -10.0779   23.7499 H   0  0  0  0  0  0  0  0  0  0  0  0
   -0.4099  -11.9738   23.7499 C   0  0  0  0  0  0  0  0  0  0  0  0
   -0.4388  -10.4596   23.7499 C   0  0  0  0  0  0  0  0  0  0  0  0
    1.0081  -12.5058   23.7499 C   0  0  0  0  0  0  0  0  0  0  0  0
   -1.2594  -12.5745   25.1910 Cl  0  0  0  0  0  0  0  0  0  0  0  0
   -1.2597  -12.5747   22.3092 Cl  0  0  0  0  0  0  0  0  0  0  0  0
    0.0839  -10.0703   24.6579 H   0  0  0  0  0  0  0  0  0  0  0  0
    0.0839  -10.0704   22.8419 H   0  0  0  0  0  0  0  0  0  0  0  0
    1.0180  -13.6227   23.7499 H   0  0  0  0  0  0  0  0  0  0  0  0
    1.5492  -12.1427   22.8418 H   0  0  0  0  0  0  0  0  0  0  0  0
    1.5493  -12.1427   24.6579 H   0  0  0  0  0  0  0  0  0  0  0  0
  1  3  1  0  0  0  0
  2  3  1  0  0  0  0
  2  4  1  0  0  0  0
  2  5  1  0  0  0  0
  2  6  1  0  0  0  0
  3  7  1  0  0  0  0
  3  8  1  0  0  0  0
  4  9  1  0  0  0  0
  4 10  1  0  0  0  0
  4 11  1  0  0  0  0
M  END
