./000598-25-4.hin
 OpenBabel09241315583D

 13 12  0  0  0  0  0  0  0  0999 V2000
   -2.9347   -0.4484   -0.0000 C   0  0  0  0  0  0  0  0  0  0  0  0
   -2.9347    0.8520   -0.0000 C   0  0  0  0  0  0  0  0  0  0  0  0
   -2.9347    2.1751   -0.0000 C   0  0  0  0  0  0  0  0  0  0  0  0
   -2.0125   -1.0440    0.0019 H   0  0  0  0  0  0  0  0  0  0  0  0
   -3.8569   -1.0440   -0.0019 H   0  0  0  0  0  0  0  0  0  0  0  0
   -1.6559    2.9237    0.0007 C   0  0  0  0  0  0  0  0  0  0  0  0
   -1.8569    4.0228    0.0001 H   0  0  0  0  0  0  0  0  0  0  0  0
   -1.0487    2.6791    0.9061 H   0  0  0  0  0  0  0  0  0  0  0  0
   -1.0466    2.6791   -0.9082 H   0  0  0  0  0  0  0  0  0  0  0  0
   -4.2135    2.9237   -0.0007 C   0  0  0  0  0  0  0  0  0  0  0  0
   -4.0125    4.0228   -0.0001 H   0  0  0  0  0  0  0  0  0  0  0  0
   -4.8207    2.6791   -0.9061 H   0  0  0  0  0  0  0  0  0  0  0  0
   -4.8228    2.6791    0.9081 H   0  0  0  0  0  0  0  0  0  0  0  0
  1  2  2  0  0  0  0
  1  4  1  0  0  0  0
  1  5  1  0  0  0  0
  2  3  2  0  0  0  0
  3  6  1  0  0  0  0
  3 10  1  0  0  0  0
  6  7  1  0  0  0  0
  6  8  1  0  0  0  0
  6  9  1  0  0  0  0
 10 11  1  0  0  0  0
 10 12  1  0  0  0  0
 10 13  1  0  0  0  0
M  END
