./000598-26-5.hin
 OpenBabel09241315583D

 11 10  0  0  0  0  0  0  0  0999 V2000
    0.4545    0.9888   -0.0000 O   0  0  0  0  0  0  0  0  0  0  0  0
    0.4545    3.5016   -0.0000 C   0  0  0  0  0  0  0  0  0  0  0  0
    0.4545    2.1800   -0.0000 C   0  0  0  0  0  0  0  0  0  0  0  0
    1.7356    4.2459    0.0000 C   0  0  0  0  0  0  0  0  0  0  0  0
    1.5432    5.3468   -0.0000 H   0  0  0  0  0  0  0  0  0  0  0  0
    2.3428    3.9981    0.9066 H   0  0  0  0  0  0  0  0  0  0  0  0
    2.3428    3.9981   -0.9066 H   0  0  0  0  0  0  0  0  0  0  0  0
   -0.8266    4.2459   -0.0000 C   0  0  0  0  0  0  0  0  0  0  0  0
   -0.6341    5.3468    0.0000 H   0  0  0  0  0  0  0  0  0  0  0  0
   -1.4337    3.9981   -0.9066 H   0  0  0  0  0  0  0  0  0  0  0  0
   -1.4337    3.9981    0.9066 H   0  0  0  0  0  0  0  0  0  0  0  0
  1  3  2  0  0  0  0
  2  3  2  0  0  0  0
  2  4  1  0  0  0  0
  2  8  1  0  0  0  0
  4  5  1  0  0  0  0
  4  6  1  0  0  0  0
  4  7  1  0  0  0  0
  8  9  1  0  0  0  0
  8 10  1  0  0  0  0
  8 11  1  0  0  0  0
M  END
