./000598-58-3.hin
 OpenBabel09241315583D

  8  7  0  0  0  0  0  0  0  0999 V2000
  -10.0145    0.7570   30.1731 C   0  0  0  0  0  0  0  0  0  0  0  0
  -10.1451    1.8459   30.3993 H   0  0  0  0  0  0  0  0  0  0  0  0
   -8.9376    0.4659   30.1460 H   0  0  0  0  0  0  0  0  0  0  0  0
  -10.6687    0.1493   31.3062 O   0  0  0  0  0  0  0  0  0  0  0  0
  -10.7147   -1.1931   31.3859 N   0  3  0  0  0  0  0  0  0  0  0  0
  -11.2734   -1.5945   32.3535 O   0  0  0  0  0  0  0  0  0  0  0  0
  -10.2053   -1.8128   30.5035 O   0  5  0  0  0  0  0  0  0  0  0  0
  -10.5294    0.4659   29.2269 H   0  0  0  0  0  0  0  0  0  0  0  0
  1  2  1  0  0  0  0
  1  3  1  0  0  0  0
  1  4  1  0  0  0  0
  1  8  1  0  0  0  0
  4  5  1  0  0  0  0
  5  6  2  0  0  0  0
  5  7  1  0  0  0  0
M  CHG  2   5   1   7  -1
M  END
