./000598-75-4.hin
 OpenBabel09241315583D

 18 17  0  0  1  0  0  0  0  0999 V2000
  -44.3327    4.2013   44.6683 C   0  0  0  0  0  0  0  0  0  0  0  0
  -41.8349    5.0922   47.4713 C   0  0  0  0  0  0  0  0  0  0  0  0
  -43.8380    4.4105   46.0842 C   0  0  0  0  0  0  0  0  0  0  0  0
  -42.3804    4.8912   46.0688 C   0  0  2  0  0  0  0  0  0  0  0  0
  -42.3034    5.8492   45.4791 H   0  0  0  0  0  0  0  0  0  0  0  0
  -43.8714    3.4221   46.6242 H   0  0  0  0  0  0  0  0  0  0  0  0
  -44.7266    5.3931   46.8143 C   0  0  0  0  0  0  0  0  0  0  0  0
  -45.3462    3.7339   44.6767 H   0  0  0  0  0  0  0  0  0  0  0  0
  -44.3954    5.1767   44.1284 H   0  0  0  0  0  0  0  0  0  0  0  0
  -43.6301    3.5349   44.1110 H   0  0  0  0  0  0  0  0  0  0  0  0
  -41.5566    3.9874   45.3451 O   0  0  0  0  0  0  0  0  0  0  0  0
  -42.0459    4.2009   48.1091 H   0  0  0  0  0  0  0  0  0  0  0  0
  -40.7294    5.2436   47.4263 H   0  0  0  0  0  0  0  0  0  0  0  0
  -42.3024    5.9891   47.9418 H   0  0  0  0  0  0  0  0  0  0  0  0
  -41.6001    3.1367   45.7968 H   0  0  0  0  0  0  0  0  0  0  0  0
  -45.7966    5.0877   46.7170 H   0  0  0  0  0  0  0  0  0  0  0  0
  -44.4675    5.4285   47.8999 H   0  0  0  0  0  0  0  0  0  0  0  0
  -44.6123    6.4189   46.3879 H   0  0  0  0  0  0  0  0  0  0  0  0
  1  3  1  0  0  0  0
  1  8  1  0  0  0  0
  1  9  1  0  0  0  0
  1 10  1  0  0  0  0
  2  4  1  0  0  0  0
  2 12  1  0  0  0  0
  2 13  1  0  0  0  0
  2 14  1  0  0  0  0
  3  4  1  0  0  0  0
  3  6  1  0  0  0  0
  3  7  1  0  0  0  0
  4  5  1  6  0  0  0
  4 11  1  0  0  0  0
  7 16  1  0  0  0  0
  7 17  1  0  0  0  0
  7 18  1  0  0  0  0
 11 15  1  0  0  0  0
M  END
