./000611-14-3.hin
 OpenBabel09241315583D

 21 21  0  0  0  0  0  0  0  0999 V2000
   -3.7854   -0.2862   -0.7753 C   0  0  0  0  0  0  0  0  0  0  0  0
   -2.5428   -0.9208   -0.8963 C   0  0  0  0  0  0  0  0  0  0  0  0
   -1.3604   -0.1865   -0.8545 C   0  0  0  0  0  0  0  0  0  0  0  0
   -1.4092    1.1975   -0.6912 C   0  0  0  0  0  0  0  0  0  0  0  0
   -2.6395    1.8382   -0.5701 C   0  0  0  0  0  0  0  0  0  0  0  0
   -3.8345    1.1087   -0.6099 C   0  0  0  0  0  0  0  0  0  0  0  0
   -5.0262   -1.1097   -0.8300 C   0  0  0  0  0  0  0  0  0  0  0  0
   -5.8658   -0.5077   -1.2713 H   0  0  0  0  0  0  0  0  0  0  0  0
   -4.8598   -1.9871   -1.5125 H   0  0  0  0  0  0  0  0  0  0  0  0
   -5.4314   -1.6139    0.5351 C   0  0  0  0  0  0  0  0  0  0  0  0
   -6.3555   -2.2356    0.4548 H   0  0  0  0  0  0  0  0  0  0  0  0
   -4.6194   -2.2388    0.9792 H   0  0  0  0  0  0  0  0  0  0  0  0
   -5.6359   -0.7613    1.2268 H   0  0  0  0  0  0  0  0  0  0  0  0
   -5.1285    1.8203   -0.4834 C   0  0  0  0  0  0  0  0  0  0  0  0
   -2.5043   -2.0130   -1.0255 H   0  0  0  0  0  0  0  0  0  0  0  0
   -0.3915   -0.6974   -0.9504 H   0  0  0  0  0  0  0  0  0  0  0  0
   -0.4787    1.7825   -0.6582 H   0  0  0  0  0  0  0  0  0  0  0  0
   -2.6753    2.9305   -0.4412 H   0  0  0  0  0  0  0  0  0  0  0  0
   -5.7663    1.3383    0.2996 H   0  0  0  0  0  0  0  0  0  0  0  0
   -4.9762    2.8914   -0.2026 H   0  0  0  0  0  0  0  0  0  0  0  0
   -5.6836    1.7887   -1.4550 H   0  0  0  0  0  0  0  0  0  0  0  0
  1  2  2  0  0  0  0
  1  6  1  0  0  0  0
  1  7  1  0  0  0  0
  2  3  1  0  0  0  0
  2 15  1  0  0  0  0
  3  4  2  0  0  0  0
  3 16  1  0  0  0  0
  4  5  1  0  0  0  0
  4 17  1  0  0  0  0
  5  6  2  0  0  0  0
  5 18  1  0  0  0  0
  6 14  1  0  0  0  0
  7  8  1  0  0  0  0
  7  9  1  0  0  0  0
  7 10  1  0  0  0  0
 10 11  1  0  0  0  0
 10 12  1  0  0  0  0
 10 13  1  0  0  0  0
 14 19  1  0  0  0  0
 14 20  1  0  0  0  0
 14 21  1  0  0  0  0
M  END
