./000620-14-4.hin
 OpenBabel09241315583D

 21 21  0  0  0  0  0  0  0  0999 V2000
   -4.1382    0.2324   -0.3101 C   0  0  0  0  0  0  0  0  0  0  0  0
   -4.0298    1.6049   -0.0620 C   0  0  0  0  0  0  0  0  0  0  0  0
   -2.7751    2.2111   -0.0195 C   0  0  0  0  0  0  0  0  0  0  0  0
   -1.6224    1.4559   -0.2221 C   0  0  0  0  0  0  0  0  0  0  0  0
   -1.7170    0.0809   -0.4693 C   0  0  0  0  0  0  0  0  0  0  0  0
   -2.9776   -0.5225   -0.5124 C   0  0  0  0  0  0  0  0  0  0  0  0
   -5.4729   -0.4269   -0.3521 C   0  0  0  0  0  0  0  0  0  0  0  0
   -5.4383   -1.3666    0.2634 H   0  0  0  0  0  0  0  0  0  0  0  0
   -6.2446    0.2438    0.1127 H   0  0  0  0  0  0  0  0  0  0  0  0
   -5.8914   -0.7685   -1.7624 C   0  0  0  0  0  0  0  0  0  0  0  0
   -6.8815   -1.2849   -1.7540 H   0  0  0  0  0  0  0  0  0  0  0  0
   -5.9784    0.1553   -2.3833 H   0  0  0  0  0  0  0  0  0  0  0  0
   -5.1413   -1.4436   -2.2411 H   0  0  0  0  0  0  0  0  0  0  0  0
   -4.9361    2.2068    0.0993 H   0  0  0  0  0  0  0  0  0  0  0  0
   -2.6956    3.2909    0.1747 H   0  0  0  0  0  0  0  0  0  0  0  0
   -0.6344    1.9379   -0.1886 H   0  0  0  0  0  0  0  0  0  0  0  0
   -0.4924   -0.7282   -0.6681 C   0  0  0  0  0  0  0  0  0  0  0  0
   -3.0605   -1.6022   -0.7088 H   0  0  0  0  0  0  0  0  0  0  0  0
   -0.7006   -1.6229   -1.3049 H   0  0  0  0  0  0  0  0  0  0  0  0
    0.3102   -0.1241   -1.1586 H   0  0  0  0  0  0  0  0  0  0  0  0
   -0.1066   -1.0847    0.3205 H   0  0  0  0  0  0  0  0  0  0  0  0
  1  2  2  0  0  0  0
  1  6  1  0  0  0  0
  1  7  1  0  0  0  0
  2  3  1  0  0  0  0
  2 14  1  0  0  0  0
  3  4  2  0  0  0  0
  3 15  1  0  0  0  0
  4  5  1  0  0  0  0
  4 16  1  0  0  0  0
  5  6  2  0  0  0  0
  5 17  1  0  0  0  0
  6 18  1  0  0  0  0
  7  8  1  0  0  0  0
  7  9  1  0  0  0  0
  7 10  1  0  0  0  0
 10 11  1  0  0  0  0
 10 12  1  0  0  0  0
 10 13  1  0  0  0  0
 17 19  1  0  0  0  0
 17 20  1  0  0  0  0
 17 21  1  0  0  0  0
M  END
