./000622-14-0.hin
 OpenBabel09241315583D

 29 30  0  0  0  0  0  0  0  0999 V2000
    0.8456    5.3626    0.6551 C   0  0  0  0  0  0  0  0  0  0  0  0
    0.7732    6.7095    0.3072 C   0  0  0  0  0  0  0  0  0  0  0  0
    1.5051    7.1747   -0.7847 C   0  0  0  0  0  0  0  0  0  0  0  0
    2.3003    6.3087   -1.5257 C   0  0  0  0  0  0  0  0  0  0  0  0
    2.3894    4.9390   -1.1773 C   0  0  0  0  0  0  0  0  0  0  0  0
    1.6375    4.4799   -0.0734 C   0  0  0  0  0  0  0  0  0  0  0  0
    0.2715    4.9864    1.5156 H   0  0  0  0  0  0  0  0  0  0  0  0
    0.1453    7.3996    0.8877 H   0  0  0  0  0  0  0  0  0  0  0  0
    1.4537    8.2373   -1.0669 H   0  0  0  0  0  0  0  0  0  0  0  0
    2.8695    6.6999   -2.3827 H   0  0  0  0  0  0  0  0  0  0  0  0
    3.2847    4.1026   -1.8777 N   0  0  0  0  0  0  0  0  0  0  0  0
    3.0376    2.6747   -1.8990 C   0  0  0  0  0  0  0  0  0  0  0  0
    1.6772    3.4241    0.2325 H   0  0  0  0  0  0  0  0  0  0  0  0
    3.8691    2.2156   -2.5182 H   0  0  0  0  0  0  0  0  0  0  0  0
    3.1374    2.2932   -0.8352 H   0  0  0  0  0  0  0  0  0  0  0  0
    1.7765    2.2285   -2.4943 N   0  0  0  0  0  0  0  0  0  0  0  0
    1.4240    0.8798   -2.3214 C   0  0  0  0  0  0  0  0  0  0  0  0
    0.0681    0.4902   -2.4590 C   0  0  0  0  0  0  0  0  0  0  0  0
   -0.2903   -0.8498   -2.3875 C   0  0  0  0  0  0  0  0  0  0  0  0
    0.6732   -1.8343   -2.1685 C   0  0  0  0  0  0  0  0  0  0  0  0
    2.0076   -1.4637   -2.0222 C   0  0  0  0  0  0  0  0  0  0  0  0
    2.3890   -0.1271   -2.0926 C   0  0  0  0  0  0  0  0  0  0  0  0
    3.5031    4.4668   -2.7860 H   0  0  0  0  0  0  0  0  0  0  0  0
    1.0097    2.8526   -2.3355 H   0  0  0  0  0  0  0  0  0  0  0  0
   -0.7098    1.2489   -2.6329 H   0  0  0  0  0  0  0  0  0  0  0  0
   -1.3473   -1.1339   -2.5030 H   0  0  0  0  0  0  0  0  0  0  0  0
    0.3812   -2.8919   -2.1115 H   0  0  0  0  0  0  0  0  0  0  0  0
    2.7747   -2.2336   -1.8478 H   0  0  0  0  0  0  0  0  0  0  0  0
    3.4518    0.1301   -1.9762 H   0  0  0  0  0  0  0  0  0  0  0  0
  1  2  2  0  0  0  0
  1  6  1  0  0  0  0
  1  7  1  0  0  0  0
  2  3  1  0  0  0  0
  2  8  1  0  0  0  0
  3  4  2  0  0  0  0
  3  9  1  0  0  0  0
  4  5  1  0  0  0  0
  4 10  1  0  0  0  0
  5  6  2  0  0  0  0
  5 11  1  0  0  0  0
  6 13  1  0  0  0  0
 11 12  1  0  0  0  0
 11 23  1  0  0  0  0
 12 14  1  0  0  0  0
 12 15  1  0  0  0  0
 12 16  1  0  0  0  0
 16 17  1  0  0  0  0
 16 24  1  0  0  0  0
 17 18  2  0  0  0  0
 17 22  1  0  0  0  0
 18 19  1  0  0  0  0
 18 25  1  0  0  0  0
 19 20  2  0  0  0  0
 19 26  1  0  0  0  0
 20 21  1  0  0  0  0
 20 27  1  0  0  0  0
 21 22  2  0  0  0  0
 21 28  1  0  0  0  0
 22 29  1  0  0  0  0
M  END
