./000622-96-8.hin
 OpenBabel09241315583D

 21 21  0  0  0  0  0  0  0  0999 V2000
   -4.2063    0.0768   -0.2513 C   0  0  0  0  0  0  0  0  0  0  0  0
   -4.1556    1.4665   -0.0871 C   0  0  0  0  0  0  0  0  0  0  0  0
   -2.9339    2.1332   -0.0882 C   0  0  0  0  0  0  0  0  0  0  0  0
   -1.7381    1.4238   -0.2546 C   0  0  0  0  0  0  0  0  0  0  0  0
   -1.7888    0.0351   -0.4171 C   0  0  0  0  0  0  0  0  0  0  0  0
   -3.0117   -0.6322   -0.4154 C   0  0  0  0  0  0  0  0  0  0  0  0
   -5.5152   -0.6322   -0.2451 C   0  0  0  0  0  0  0  0  0  0  0  0
   -5.3600   -1.7148    0.0110 H   0  0  0  0  0  0  0  0  0  0  0  0
   -6.1703   -0.1940    0.5561 H   0  0  0  0  0  0  0  0  0  0  0  0
   -6.2192   -0.5294   -1.5774 C   0  0  0  0  0  0  0  0  0  0  0  0
   -7.2043   -1.0532   -1.5320 H   0  0  0  0  0  0  0  0  0  0  0  0
   -6.3964    0.5401   -1.8457 H   0  0  0  0  0  0  0  0  0  0  0  0
   -5.6056   -0.9967   -2.3847 H   0  0  0  0  0  0  0  0  0  0  0  0
   -5.0900    2.0325    0.0439 H   0  0  0  0  0  0  0  0  0  0  0  0
   -2.9047    3.2250    0.0436 H   0  0  0  0  0  0  0  0  0  0  0  0
   -3.0378   -1.7248   -0.5431 H   0  0  0  0  0  0  0  0  0  0  0  0
   -0.4421    2.1398   -0.2686 C   0  0  0  0  0  0  0  0  0  0  0  0
   -0.8561   -0.5339   -0.5463 H   0  0  0  0  0  0  0  0  0  0  0  0
    0.4057    1.4451   -0.0501 H   0  0  0  0  0  0  0  0  0  0  0  0
   -0.2694    2.5974   -1.2755 H   0  0  0  0  0  0  0  0  0  0  0  0
   -0.4332    2.9589    0.4924 H   0  0  0  0  0  0  0  0  0  0  0  0
  1  2  2  0  0  0  0
  1  6  1  0  0  0  0
  1  7  1  0  0  0  0
  2  3  1  0  0  0  0
  2 14  1  0  0  0  0
  3  4  2  0  0  0  0
  3 15  1  0  0  0  0
  4  5  1  0  0  0  0
  4 17  1  0  0  0  0
  5  6  2  0  0  0  0
  5 18  1  0  0  0  0
  6 16  1  0  0  0  0
  7  8  1  0  0  0  0
  7  9  1  0  0  0  0
  7 10  1  0  0  0  0
 10 11  1  0  0  0  0
 10 12  1  0  0  0  0
 10 13  1  0  0  0  0
 17 19  1  0  0  0  0
 17 20  1  0  0  0  0
 17 21  1  0  0  0  0
M  END
