./000623-42-7.hin
 OpenBabel09241315583D

 17 16  0  0  0  0  0  0  0  0999 V2000
    0.2406    2.5684   29.8108 C   0  0  0  0  0  0  0  0  0  0  0  0
    0.1648    4.0410   30.0612 C   0  0  0  0  0  0  0  0  0  0  0  0
    1.3420    4.7669   29.4456 C   0  0  0  0  0  0  0  0  0  0  0  0
    1.0338    1.9284   29.1184 O   0  0  0  0  0  0  0  0  0  0  0  0
   -0.7424    1.8748   30.4679 O   0  0  0  0  0  0  0  0  0  0  0  0
   -0.7609    0.4592   30.2866 C   0  0  0  0  0  0  0  0  0  0  0  0
   -1.6336    0.1247   30.8996 H   0  0  0  0  0  0  0  0  0  0  0  0
   -0.9013    0.2148   29.2063 H   0  0  0  0  0  0  0  0  0  0  0  0
    0.1943    0.0155   30.6572 H   0  0  0  0  0  0  0  0  0  0  0  0
    0.1293    4.2150   31.1696 H   0  0  0  0  0  0  0  0  0  0  0  0
   -0.8004    4.4192   29.6294 H   0  0  0  0  0  0  0  0  0  0  0  0
    1.2404    6.2524   29.6736 C   0  0  0  0  0  0  0  0  0  0  0  0
    2.2949    4.3739   29.8891 H   0  0  0  0  0  0  0  0  0  0  0  0
    1.3805    4.5467   28.3457 H   0  0  0  0  0  0  0  0  0  0  0  0
    2.1166    6.7712   29.2149 H   0  0  0  0  0  0  0  0  0  0  0  0
    0.3082    6.6614   29.2139 H   0  0  0  0  0  0  0  0  0  0  0  0
    1.2244    6.4858   30.7658 H   0  0  0  0  0  0  0  0  0  0  0  0
  1  2  1  0  0  0  0
  1  4  2  0  0  0  0
  1  5  1  0  0  0  0
  2  3  1  0  0  0  0
  2 10  1  0  0  0  0
  2 11  1  0  0  0  0
  3 12  1  0  0  0  0
  3 13  1  0  0  0  0
  3 14  1  0  0  0  0
  5  6  1  0  0  0  0
  6  7  1  0  0  0  0
  6  8  1  0  0  0  0
  6  9  1  0  0  0  0
 12 15  1  0  0  0  0
 12 16  1  0  0  0  0
 12 17  1  0  0  0  0
M  END
