./000624-72-6.hin
 OpenBabel09241315583D

  8  7  0  0  0  0  0  0  0  0999 V2000
   -1.2596   -1.4118    0.0129 C   0  0  0  0  0  0  0  0  0  0  0  0
   -1.2574    0.1316    0.0090 C   0  0  0  0  0  0  0  0  0  0  0  0
   -0.0032   -1.9294   -0.2227 F   0  0  0  0  0  0  0  0  0  0  0  0
   -1.6254   -1.7846    1.0086 H   0  0  0  0  0  0  0  0  0  0  0  0
   -1.9533   -1.7691   -0.7969 H   0  0  0  0  0  0  0  0  0  0  0  0
   -2.3055    0.4888   -0.1870 H   0  0  0  0  0  0  0  0  0  0  0  0
   -0.8333    0.6493    1.2148 F   0  0  0  0  0  0  0  0  0  0  0  0
   -0.5779    0.5045   -0.8057 H   0  0  0  0  0  0  0  0  0  0  0  0
  1  2  1  0  0  0  0
  1  3  1  0  0  0  0
  1  4  1  0  0  0  0
  1  5  1  0  0  0  0
  2  6  1  0  0  0  0
  2  7  1  0  0  0  0
  2  8  1  0  0  0  0
M  END
