./000624-89-5.hin
 OpenBabel09241315583D

 12 11  0  0  0  0  0  0  0  0999 V2000
   -1.6075    0.1122   15.0000 C   0  0  0  0  0  0  0  0  0  0  0  0
   -1.4752    1.8584   15.0000 S   0  0  0  0  0  0  0  0  0  0  0  0
   -3.1727    2.3631   15.0000 C   0  0  0  0  0  0  0  0  0  0  0  0
   -0.5643   -0.2806   15.0000 H   0  0  0  0  0  0  0  0  0  0  0  0
   -2.1368   -0.2647   15.9033 H   0  0  0  0  0  0  0  0  0  0  0  0
   -2.1368   -0.2647   14.0967 H   0  0  0  0  0  0  0  0  0  0  0  0
   -3.2026    3.8628   15.0000 C   0  0  0  0  0  0  0  0  0  0  0  0
   -3.6928    1.9571   14.0984 H   0  0  0  0  0  0  0  0  0  0  0  0
   -3.6928    1.9571   15.9016 H   0  0  0  0  0  0  0  0  0  0  0  0
   -4.2605    4.2246   15.0000 H   0  0  0  0  0  0  0  0  0  0  0  0
   -2.6918    4.2708   15.9065 H   0  0  0  0  0  0  0  0  0  0  0  0
   -2.6918    4.2708   14.0935 H   0  0  0  0  0  0  0  0  0  0  0  0
  1  2  1  0  0  0  0
  1  4  1  0  0  0  0
  1  5  1  0  0  0  0
  1  6  1  0  0  0  0
  2  3  1  0  0  0  0
  3  7  1  0  0  0  0
  3  8  1  0  0  0  0
  3  9  1  0  0  0  0
  7 10  1  0  0  0  0
  7 11  1  0  0  0  0
  7 12  1  0  0  0  0
M  END
