./000624-92-0.hin
 OpenBabel09241315583D

 10  9  0  0  0  0  0  0  0  0999 V2000
    0.9516   -2.2349    0.0000 C   0  0  0  0  0  0  0  0  0  0  0  0
    1.0833   -0.4913   -0.0000 S   0  0  0  0  0  0  0  0  0  0  0  0
   -1.0062    0.0812   -0.0000 S   0  0  0  0  0  0  0  0  0  0  0  0
   -0.8745    1.8248    0.0000 C   0  0  0  0  0  0  0  0  0  0  0  0
    2.0063   -2.6033    0.0000 H   0  0  0  0  0  0  0  0  0  0  0  0
    0.4320   -2.6190    0.9059 H   0  0  0  0  0  0  0  0  0  0  0  0
    0.4320   -2.6190   -0.9059 H   0  0  0  0  0  0  0  0  0  0  0  0
   -1.9291    2.1932    0.0000 H   0  0  0  0  0  0  0  0  0  0  0  0
   -0.3549    2.2089    0.9059 H   0  0  0  0  0  0  0  0  0  0  0  0
   -0.3549    2.2089   -0.9059 H   0  0  0  0  0  0  0  0  0  0  0  0
  1  2  1  0  0  0  0
  1  5  1  0  0  0  0
  1  6  1  0  0  0  0
  1  7  1  0  0  0  0
  2  3  1  0  0  0  0
  3  4  1  0  0  0  0
  4  8  1  0  0  0  0
  4  9  1  0  0  0  0
  4 10  1  0  0  0  0
M  END
