./000625-27-4.hin
 OpenBabel09241315583D

 18 17  0  0  0  0  0  0  0  0999 V2000
   -4.0220   -0.4167   -0.2090 C   0  0  0  0  0  0  0  0  0  0  0  0
   -4.0125    1.0693   -0.2090 C   0  0  0  0  0  0  0  0  0  0  0  0
   -5.1636    1.7597   -0.2090 C   0  0  0  0  0  0  0  0  0  0  0  0
   -5.2666    3.2376   -0.2090 C   0  0  0  0  0  0  0  0  0  0  0  0
   -6.6993    3.7112   -0.2090 C   0  0  0  0  0  0  0  0  0  0  0  0
   -2.9831   -0.8280   -0.2090 H   0  0  0  0  0  0  0  0  0  0  0  0
   -4.5523   -0.8042    0.6963 H   0  0  0  0  0  0  0  0  0  0  0  0
   -4.5523   -0.8042   -1.1143 H   0  0  0  0  0  0  0  0  0  0  0  0
   -2.6712    1.6982   -0.2090 C   0  0  0  0  0  0  0  0  0  0  0  0
   -6.1240    1.2166   -0.2090 H   0  0  0  0  0  0  0  0  0  0  0  0
   -4.7386    3.6510    0.6941 H   0  0  0  0  0  0  0  0  0  0  0  0
   -4.7386    3.6510   -1.1121 H   0  0  0  0  0  0  0  0  0  0  0  0
   -6.7356    4.8273   -0.2090 H   0  0  0  0  0  0  0  0  0  0  0  0
   -7.2380    3.3400   -1.1140 H   0  0  0  0  0  0  0  0  0  0  0  0
   -7.2380    3.3400    0.6961 H   0  0  0  0  0  0  0  0  0  0  0  0
   -2.7320    2.8138   -0.2090 H   0  0  0  0  0  0  0  0  0  0  0  0
   -2.0985    1.3767    0.6971 H   0  0  0  0  0  0  0  0  0  0  0  0
   -2.0985    1.3767   -1.1150 H   0  0  0  0  0  0  0  0  0  0  0  0
  1  2  1  0  0  0  0
  1  6  1  0  0  0  0
  1  7  1  0  0  0  0
  1  8  1  0  0  0  0
  2  3  2  0  0  0  0
  2  9  1  0  0  0  0
  3  4  1  0  0  0  0
  3 10  1  0  0  0  0
  4  5  1  0  0  0  0
  4 11  1  0  0  0  0
  4 12  1  0  0  0  0
  5 13  1  0  0  0  0
  5 14  1  0  0  0  0
  5 15  1  0  0  0  0
  9 16  1  0  0  0  0
  9 17  1  0  0  0  0
  9 18  1  0  0  0  0
M  END
