./000625-58-1.hin
 OpenBabel09241315583D

 11 10  0  0  0  0  0  0  0  0999 V2000
   -9.9865    0.5947   30.1245 C   0  0  0  0  0  0  0  0  0  0  0  0
  -10.0898    2.0887   30.3035 C   0  0  0  0  0  0  0  0  0  0  0  0
   -8.9246    0.2373   30.1204 H   0  0  0  0  0  0  0  0  0  0  0  0
  -10.6627    0.0448   31.2959 O   0  0  0  0  0  0  0  0  0  0  0  0
  -10.7401   -1.2865   31.4299 N   0  3  0  0  0  0  0  0  0  0  0  0
  -11.3079   -1.6366   32.4133 O   0  0  0  0  0  0  0  0  0  0  0  0
  -10.2468   -1.9581   30.5755 O   0  5  0  0  0  0  0  0  0  0  0  0
  -10.5138    0.2373   29.2029 H   0  0  0  0  0  0  0  0  0  0  0  0
  -11.1586    2.4090   30.3437 H   0  0  0  0  0  0  0  0  0  0  0  0
   -9.5902    2.4090   31.2492 H   0  0  0  0  0  0  0  0  0  0  0  0
   -9.5895    2.5846   29.4369 H   0  0  0  0  0  0  0  0  0  0  0  0
  1  2  1  0  0  0  0
  1  3  1  0  0  0  0
  1  4  1  0  0  0  0
  1  8  1  0  0  0  0
  2  9  1  0  0  0  0
  2 10  1  0  0  0  0
  2 11  1  0  0  0  0
  4  5  1  0  0  0  0
  5  6  2  0  0  0  0
  5  7  1  0  0  0  0
M  CHG  2   5   1   7  -1
M  END
