./000627-20-3.hin
 OpenBabel09241315583D

 15 14  0  0  0  0  0  0  0  0999 V2000
   -3.2909    0.4284    0.3189 C   0  0  0  0  0  0  0  0  0  0  0  0
   -3.4721    1.7681   -0.2719 C   0  0  0  0  0  0  0  0  0  0  0  0
   -4.6514    2.3252   -0.5645 C   0  0  0  0  0  0  0  0  0  0  0  0
   -5.9656    1.6808   -0.3271 C   0  0  0  0  0  0  0  0  0  0  0  0
   -7.1041    2.4531   -0.9453 C   0  0  0  0  0  0  0  0  0  0  0  0
   -2.4076    0.4173    1.0044 H   0  0  0  0  0  0  0  0  0  0  0  0
   -4.1915    0.1093    0.9004 H   0  0  0  0  0  0  0  0  0  0  0  0
   -3.1138   -0.3254   -0.4901 H   0  0  0  0  0  0  0  0  0  0  0  0
   -2.5382    2.3168   -0.4819 H   0  0  0  0  0  0  0  0  0  0  0  0
   -4.6904    3.3334   -1.0100 H   0  0  0  0  0  0  0  0  0  0  0  0
   -5.9536    0.6360   -0.7425 H   0  0  0  0  0  0  0  0  0  0  0  0
   -6.1348    1.5869    0.7812 H   0  0  0  0  0  0  0  0  0  0  0  0
   -8.0729    1.9338   -0.7484 H   0  0  0  0  0  0  0  0  0  0  0  0
   -7.1620    3.4831   -0.5175 H   0  0  0  0  0  0  0  0  0  0  0  0
   -6.9677    2.5401   -2.0503 H   0  0  0  0  0  0  0  0  0  0  0  0
  1  2  1  0  0  0  0
  1  6  1  0  0  0  0
  1  7  1  0  0  0  0
  1  8  1  0  0  0  0
  2  3  2  0  0  0  0
  2  9  1  0  0  0  0
  3  4  1  0  0  0  0
  3 10  1  0  0  0  0
  4  5  1  0  0  0  0
  4 11  1  0  0  0  0
  4 12  1  0  0  0  0
  5 13  1  0  0  0  0
  5 14  1  0  0  0  0
  5 15  1  0  0  0  0
M  END
