./000627-58-7.hin
 OpenBabel09241315583D

 22 21  0  0  0  0  0  0  0  0999 V2000
    0.5638   16.0359    7.6752 C   0  0  0  0  0  0  0  0  0  0  0  0
    0.0652   16.9597    8.5022 C   0  0  0  0  0  0  0  0  0  0  0  0
    0.6047   19.9590    6.2481 C   0  0  0  0  0  0  0  0  0  0  0  0
   -0.5310   19.2874    6.4613 C   0  0  0  0  0  0  0  0  0  0  0  0
   -1.0863   19.0963    7.8319 C   0  0  0  0  0  0  0  0  0  0  0  0
    1.0088   20.1245    5.2414 H   0  0  0  0  0  0  0  0  0  0  0  0
    1.2021   20.3818    7.0657 H   0  0  0  0  0  0  0  0  0  0  0  0
   -1.2352   17.6388    8.2337 C   0  0  0  0  0  0  0  0  0  0  0  0
   -0.4424   19.6232    8.5862 H   0  0  0  0  0  0  0  0  0  0  0  0
   -1.8607   17.5927    9.1673 H   0  0  0  0  0  0  0  0  0  0  0  0
    1.5114   15.5193    7.8729 H   0  0  0  0  0  0  0  0  0  0  0  0
    0.0569   15.7431    6.7468 H   0  0  0  0  0  0  0  0  0  0  0  0
   -2.1028   19.5772    7.8685 H   0  0  0  0  0  0  0  0  0  0  0  0
   -1.7972   17.0910    7.4301 H   0  0  0  0  0  0  0  0  0  0  0  0
   -1.3235   18.7106    5.3471 C   0  0  0  0  0  0  0  0  0  0  0  0
   -1.1725   17.6018    5.3070 H   0  0  0  0  0  0  0  0  0  0  0  0
   -2.4135   18.9100    5.4954 H   0  0  0  0  0  0  0  0  0  0  0  0
   -1.0149   19.1410    4.3630 H   0  0  0  0  0  0  0  0  0  0  0  0
    0.7558   17.3526    9.7552 C   0  0  0  0  0  0  0  0  0  0  0  0
    1.6693   16.7331    9.9297 H   0  0  0  0  0  0  0  0  0  0  0  0
    1.0647   18.4269    9.7048 H   0  0  0  0  0  0  0  0  0  0  0  0
    0.0712   17.2272   10.6308 H   0  0  0  0  0  0  0  0  0  0  0  0
  1  2  2  0  0  0  0
  1 11  1  0  0  0  0
  1 12  1  0  0  0  0
  2  8  1  0  0  0  0
  2 19  1  0  0  0  0
  3  4  2  0  0  0  0
  3  6  1  0  0  0  0
  3  7  1  0  0  0  0
  4  5  1  0  0  0  0
  4 15  1  0  0  0  0
  5  8  1  0  0  0  0
  5  9  1  0  0  0  0
  5 13  1  0  0  0  0
  8 10  1  0  0  0  0
  8 14  1  0  0  0  0
 15 16  1  0  0  0  0
 15 17  1  0  0  0  0
 15 18  1  0  0  0  0
 19 20  1  0  0  0  0
 19 21  1  0  0  0  0
 19 22  1  0  0  0  0
M  END
