./000628-05-7.hin
 OpenBabel09241315583D

 19 18  0  0  0  0  0  0  0  0999 V2000
    2.8136    0.8608    1.1357 O   0  0  0  0  0  0  0  0  0  0  0  0
    4.2335    3.9892    0.5579 C   0  0  0  0  0  0  0  0  0  0  0  0
    4.3760    2.4783    0.4939 C   0  0  0  0  0  0  0  0  0  0  0  0
    3.0435    1.7633    0.3778 N   0  3  0  0  0  0  0  0  0  0  0  0
    2.2690    2.1030   -0.4739 O   0  5  0  0  0  0  0  0  0  0  0  0
    5.6064    4.6287    0.5545 C   0  0  0  0  0  0  0  0  0  0  0  0
    3.6369    4.3562   -0.3199 H   0  0  0  0  0  0  0  0  0  0  0  0
    3.6796    4.2833    1.4881 H   0  0  0  0  0  0  0  0  0  0  0  0
    4.9625    2.1764   -0.4167 H   0  0  0  0  0  0  0  0  0  0  0  0
    4.8784    2.0801    1.4174 H   0  0  0  0  0  0  0  0  0  0  0  0
    6.2128    4.2316    1.4111 H   0  0  0  0  0  0  0  0  0  0  0  0
    6.1478    4.3596   -0.3907 H   0  0  0  0  0  0  0  0  0  0  0  0
    5.4993    6.1352    0.6654 C   0  0  0  0  0  0  0  0  0  0  0  0
    6.8593    6.7839    0.6563 C   0  0  0  0  0  0  0  0  0  0  0  0
    4.8862    6.5300   -0.1875 H   0  0  0  0  0  0  0  0  0  0  0  0
    4.9597    6.4030    1.6122 H   0  0  0  0  0  0  0  0  0  0  0  0
    6.7586    7.8927    0.7438 H   0  0  0  0  0  0  0  0  0  0  0  0
    7.4779    6.4173    1.5110 H   0  0  0  0  0  0  0  0  0  0  0  0
    7.4010    6.5528   -0.2928 H   0  0  0  0  0  0  0  0  0  0  0  0
  1  4  2  0  0  0  0
  2  3  1  0  0  0  0
  2  6  1  0  0  0  0
  2  7  1  0  0  0  0
  2  8  1  0  0  0  0
  3  4  1  0  0  0  0
  3  9  1  0  0  0  0
  3 10  1  0  0  0  0
  4  5  1  0  0  0  0
  6 11  1  0  0  0  0
  6 12  1  0  0  0  0
  6 13  1  0  0  0  0
 13 14  1  0  0  0  0
 13 15  1  0  0  0  0
 13 16  1  0  0  0  0
 14 17  1  0  0  0  0
 14 18  1  0  0  0  0
 14 19  1  0  0  0  0
M  CHG   2   4   1   5  -1
M  END
