./000628-28-4.hin
 OpenBabel09241315583D

 18 17  0  0  0  0  0  0  0  0999 V2000
   -0.7108  -16.2543   23.7438 C   0  0  0  0  0  0  0  0  0  0  0  0
   -2.1643  -14.3894   23.7438 C   0  0  0  0  0  0  0  0  0  0  0  0
   -2.1177  -12.8722   23.7438 C   0  0  0  0  0  0  0  0  0  0  0  0
   -0.8107  -14.8416   23.7438 O   0  0  0  0  0  0  0  0  0  0  0  0
   -3.5175  -12.2983   23.7438 C   0  0  0  0  0  0  0  0  0  0  0  0
   -1.5539  -12.5185   24.6460 H   0  0  0  0  0  0  0  0  0  0  0  0
   -1.5539  -12.5185   22.8417 H   0  0  0  0  0  0  0  0  0  0  0  0
   -2.6897  -14.7769   24.6573 H   0  0  0  0  0  0  0  0  0  0  0  0
   -2.6898  -14.7769   22.8304 H   0  0  0  0  0  0  0  0  0  0  0  0
    0.3891  -16.4574   23.7438 H   0  0  0  0  0  0  0  0  0  0  0  0
   -3.4923  -10.7916   23.7438 C   0  0  0  0  0  0  0  0  0  0  0  0
   -4.0738  -12.6658   22.8410 H   0  0  0  0  0  0  0  0  0  0  0  0
   -4.0738  -12.6658   24.6467 H   0  0  0  0  0  0  0  0  0  0  0  0
   -4.5329  -10.3865   23.7438 H   0  0  0  0  0  0  0  0  0  0  0  0
   -2.9632  -10.4062   24.6488 H   0  0  0  0  0  0  0  0  0  0  0  0
   -2.9631  -10.4062   22.8389 H   0  0  0  0  0  0  0  0  0  0  0  0
   -1.1887  -16.6846   24.6587 H   0  0  0  0  0  0  0  0  0  0  0  0
   -1.1887  -16.6846   22.8290 H   0  0  0  0  0  0  0  0  0  0  0  0
  1  4  1  0  0  0  0
  1 10  1  0  0  0  0
  1 17  1  0  0  0  0
  1 18  1  0  0  0  0
  2  3  1  0  0  0  0
  2  4  1  0  0  0  0
  2  8  1  0  0  0  0
  2  9  1  0  0  0  0
  3  5  1  0  0  0  0
  3  6  1  0  0  0  0
  3  7  1  0  0  0  0
  5 11  1  0  0  0  0
  5 12  1  0  0  0  0
  5 13  1  0  0  0  0
 11 14  1  0  0  0  0
 11 15  1  0  0  0  0
 11 16  1  0  0  0  0
M  END
