./000628-41-1.hin
 OpenBabel09241315583D

 14 14  0  0  0  0  0  0  0  0999 V2000
   -2.7446   -0.1844   -0.0360 C   0  0  0  0  0  0  0  0  0  0  0  0
   -2.6011    1.2240   -0.4818 C   0  0  0  0  0  0  0  0  0  0  0  0
   -1.4364    1.8792   -0.4815 C   0  0  0  0  0  0  0  0  0  0  0  0
   -0.1583    1.2704   -0.0355 C   0  0  0  0  0  0  0  0  0  0  0  0
   -0.3018   -0.1381    0.4104 C   0  0  0  0  0  0  0  0  0  0  0  0
   -1.4665   -0.7932    0.4102 C   0  0  0  0  0  0  0  0  0  0  0  0
   -3.1701   -0.7969   -0.8799 H   0  0  0  0  0  0  0  0  0  0  0  0
   -3.4892   -0.2302    0.8077 H   0  0  0  0  0  0  0  0  0  0  0  0
   -3.5306    1.7079   -0.8200 H   0  0  0  0  0  0  0  0  0  0  0  0
   -1.3671    2.9249   -0.8195 H   0  0  0  0  0  0  0  0  0  0  0  0
    0.2673    1.8829    0.8084 H   0  0  0  0  0  0  0  0  0  0  0  0
    0.5863    1.3162   -0.8792 H   0  0  0  0  0  0  0  0  0  0  0  0
    0.6277   -0.6219    0.7486 H   0  0  0  0  0  0  0  0  0  0  0  0
   -1.5358   -1.8389    0.7482 H   0  0  0  0  0  0  0  0  0  0  0  0
  1  2  1  0  0  0  0
  1  6  1  0  0  0  0
  1  7  1  0  0  0  0
  1  8  1  0  0  0  0
  2  3  2  0  0  0  0
  2  9  1  0  0  0  0
  3  4  1  0  0  0  0
  3 10  1  0  0  0  0
  4  5  1  0  0  0  0
  4 11  1  0  0  0  0
  4 12  1  0  0  0  0
  5  6  2  0  0  0  0
  5 13  1  0  0  0  0
  6 14  1  0  0  0  0
M  END
