./000628-55-7.hin
 OpenBabel09241315583D

 27 26  0  0  0  0  0  0  0  0999 V2000
   -0.9952  -10.3748   21.4790 C   0  0  0  0  0  0  0  0  0  0  0  0
   -1.0950   -8.8538   21.3948 C   0  0  0  0  0  0  0  0  0  0  0  0
   -2.3590  -12.3034   21.6075 C   0  0  0  0  0  0  0  0  0  0  0  0
   -3.8263  -12.7163   21.6917 C   0  0  0  0  0  0  0  0  0  0  0  0
   -2.3281  -10.8788   21.5432 O   0  0  0  0  0  0  0  0  0  0  0  0
   -3.9562  -14.1922   21.3846 C   0  0  0  0  0  0  0  0  0  0  0  0
   -4.3964  -12.1275   20.9185 H   0  0  0  0  0  0  0  0  0  0  0  0
   -1.7912  -12.6548   22.5096 H   0  0  0  0  0  0  0  0  0  0  0  0
   -1.8806  -12.7286   20.6846 H   0  0  0  0  0  0  0  0  0  0  0  0
   -0.4747  -10.7930   20.5769 H   0  0  0  0  0  0  0  0  0  0  0  0
   -5.0252  -14.5059   21.4608 H   0  0  0  0  0  0  0  0  0  0  0  0
   -3.5943  -14.4123   20.3515 H   0  0  0  0  0  0  0  0  0  0  0  0
   -3.3580  -14.7988   22.1066 H   0  0  0  0  0  0  0  0  0  0  0  0
    0.2532   -8.2393   21.7019 C   0  0  0  0  0  0  0  0  0  0  0  0
   -0.4349  -10.6840   22.4019 H   0  0  0  0  0  0  0  0  0  0  0  0
   -1.5881   -8.4249   20.0302 C   0  0  0  0  0  0  0  0  0  0  0  0
   -1.8402   -8.5125   22.1679 H   0  0  0  0  0  0  0  0  0  0  0  0
    0.1926   -7.1269   21.6256 H   0  0  0  0  0  0  0  0  0  0  0  0
    0.5812   -8.5071   22.7350 H   0  0  0  0  0  0  0  0  0  0  0  0
    1.0245   -8.6011   20.9799 H   0  0  0  0  0  0  0  0  0  0  0  0
   -4.3950  -12.3944   23.0563 C   0  0  0  0  0  0  0  0  0  0  0  0
   -1.7382   -7.3191   20.0026 H   0  0  0  0  0  0  0  0  0  0  0  0
   -0.8505   -8.7020   19.2389 H   0  0  0  0  0  0  0  0  0  0  0  0
   -2.5595   -8.9275   19.8035 H   0  0  0  0  0  0  0  0  0  0  0  0
   -5.4876  -12.6215   23.0839 H   0  0  0  0  0  0  0  0  0  0  0  0
   -3.8879  -12.9974   23.8476 H   0  0  0  0  0  0  0  0  0  0  0  0
   -4.2449  -11.3110   23.2830 H   0  0  0  0  0  0  0  0  0  0  0  0
  1  2  1  0  0  0  0
  1  5  1  0  0  0  0
  1 10  1  0  0  0  0
  1 15  1  0  0  0  0
  2 14  1  0  0  0  0
  2 16  1  0  0  0  0
  2 17  1  0  0  0  0
  3  4  1  0  0  0  0
  3  5  1  0  0  0  0
  3  8  1  0  0  0  0
  3  9  1  0  0  0  0
  4  6  1  0  0  0  0
  4  7  1  0  0  0  0
  4 21  1  0  0  0  0
  6 11  1  0  0  0  0
  6 12  1  0  0  0  0
  6 13  1  0  0  0  0
 14 18  1  0  0  0  0
 14 19  1  0  0  0  0
 14 20  1  0  0  0  0
 16 22  1  0  0  0  0
 16 23  1  0  0  0  0
 16 24  1  0  0  0  0
 21 25  1  0  0  0  0
 21 26  1  0  0  0  0
 21 27  1  0  0  0  0
M  END
