./000629-50-5.hin
 OpenBabel09241315583D

 41 40  0  0  0  0  0  0  0  0999 V2000
   -1.3203   -3.3065   -0.0000 C   0  0  0  0  0  0  0  0  0  0  0  0
   -1.3334   -1.7926    0.0000 C   0  0  0  0  0  0  0  0  0  0  0  0
   -2.7478   -1.2537   -0.0000 C   0  0  0  0  0  0  0  0  0  0  0  0
   -2.7595    0.2599    0.0000 C   0  0  0  0  0  0  0  0  0  0  0  0
   -4.1740    0.7987   -0.0000 C   0  0  0  0  0  0  0  0  0  0  0  0
   -4.1857    2.3123    0.0000 C   0  0  0  0  0  0  0  0  0  0  0  0
   -5.6003    2.8510   -0.0000 C   0  0  0  0  0  0  0  0  0  0  0  0
   -5.6120    4.3646    0.0000 C   0  0  0  0  0  0  0  0  0  0  0  0
   -7.0265    4.9034   -0.0000 C   0  0  0  0  0  0  0  0  0  0  0  0
   -7.0385    6.4169    0.0000 C   0  0  0  0  0  0  0  0  0  0  0  0
   -8.4528    6.9571   -0.0000 C   0  0  0  0  0  0  0  0  0  0  0  0
   -8.4695    8.4638    0.0000 C   0  0  0  0  0  0  0  0  0  0  0  0
    0.0861   -3.8476    0.0000 C   0  0  0  0  0  0  0  0  0  0  0  0
   -1.8696   -3.6847    0.9025 H   0  0  0  0  0  0  0  0  0  0  0  0
   -1.8696   -3.6847   -0.9025 H   0  0  0  0  0  0  0  0  0  0  0  0
   -0.7859   -1.4126    0.9025 H   0  0  0  0  0  0  0  0  0  0  0  0
   -0.7859   -1.4126   -0.9025 H   0  0  0  0  0  0  0  0  0  0  0  0
   -3.2952   -1.6340   -0.9026 H   0  0  0  0  0  0  0  0  0  0  0  0
   -3.2952   -1.6340    0.9026 H   0  0  0  0  0  0  0  0  0  0  0  0
   -2.2122    0.6402    0.9026 H   0  0  0  0  0  0  0  0  0  0  0  0
   -2.2122    0.6402   -0.9026 H   0  0  0  0  0  0  0  0  0  0  0  0
   -4.7213    0.4183   -0.9026 H   0  0  0  0  0  0  0  0  0  0  0  0
   -4.7213    0.4183    0.9026 H   0  0  0  0  0  0  0  0  0  0  0  0
   -3.6384    2.6926    0.9026 H   0  0  0  0  0  0  0  0  0  0  0  0
   -3.6384    2.6926   -0.9026 H   0  0  0  0  0  0  0  0  0  0  0  0
   -6.1475    2.4707   -0.9026 H   0  0  0  0  0  0  0  0  0  0  0  0
   -6.1475    2.4707    0.9026 H   0  0  0  0  0  0  0  0  0  0  0  0
   -5.0647    4.7450    0.9026 H   0  0  0  0  0  0  0  0  0  0  0  0
   -5.0647    4.7450   -0.9026 H   0  0  0  0  0  0  0  0  0  0  0  0
   -7.5738    4.5229   -0.9026 H   0  0  0  0  0  0  0  0  0  0  0  0
   -7.5738    4.5229    0.9026 H   0  0  0  0  0  0  0  0  0  0  0  0
   -6.4914    6.7975    0.9025 H   0  0  0  0  0  0  0  0  0  0  0  0
   -6.4914    6.7975   -0.9025 H   0  0  0  0  0  0  0  0  0  0  0  0
   -8.9988    6.5740   -0.9025 H   0  0  0  0  0  0  0  0  0  0  0  0
   -8.9988    6.5740    0.9025 H   0  0  0  0  0  0  0  0  0  0  0  0
   -9.5207    8.8406   -0.0000 H   0  0  0  0  0  0  0  0  0  0  0  0
   -7.9514    8.8640    0.9049 H   0  0  0  0  0  0  0  0  0  0  0  0
   -7.9514    8.8640   -0.9049 H   0  0  0  0  0  0  0  0  0  0  0  0
    0.6418   -3.5015    0.9049 H   0  0  0  0  0  0  0  0  0  0  0  0
    0.6418   -3.5015   -0.9049 H   0  0  0  0  0  0  0  0  0  0  0  0
    0.0727   -4.9642    0.0000 H   0  0  0  0  0  0  0  0  0  0  0  0
  1  2  1  0  0  0  0
  1 13  1  0  0  0  0
  1 14  1  0  0  0  0
  1 15  1  0  0  0  0
  2  3  1  0  0  0  0
  2 16  1  0  0  0  0
  2 17  1  0  0  0  0
  3  4  1  0  0  0  0
  3 18  1  0  0  0  0
  3 19  1  0  0  0  0
  4  5  1  0  0  0  0
  4 20  1  0  0  0  0
  4 21  1  0  0  0  0
  5  6  1  0  0  0  0
  5 22  1  0  0  0  0
  5 23  1  0  0  0  0
  6  7  1  0  0  0  0
  6 24  1  0  0  0  0
  6 25  1  0  0  0  0
  7  8  1  0  0  0  0
  7 26  1  0  0  0  0
  7 27  1  0  0  0  0
  8  9  1  0  0  0  0
  8 28  1  0  0  0  0
  8 29  1  0  0  0  0
  9 10  1  0  0  0  0
  9 30  1  0  0  0  0
  9 31  1  0  0  0  0
 10 11  1  0  0  0  0
 10 32  1  0  0  0  0
 10 33  1  0  0  0  0
 11 12  1  0  0  0  0
 11 34  1  0  0  0  0
 11 35  1  0  0  0  0
 12 36  1  0  0  0  0
 12 37  1  0  0  0  0
 12 38  1  0  0  0  0
 13 39  1  0  0  0  0
 13 40  1  0  0  0  0
 13 41  1  0  0  0  0
M  END
