./000637-92-3.hin
 OpenBabel09241315583D

 21 20  0  0  0  0  0  0  0  0999 V2000
   -0.7019    0.2617    0.2929 C   0  0  0  0  0  0  0  0  0  0  0  0
   -1.3755   -0.2354    1.4597 O   0  0  0  0  0  0  0  0  0  0  0  0
   -0.7875    1.7805    0.4412 C   0  0  0  0  0  0  0  0  0  0  0  0
    0.7561   -0.1776    0.2717 C   0  0  0  0  0  0  0  0  0  0  0  0
   -1.4125   -0.1776   -0.9803 C   0  0  0  0  0  0  0  0  0  0  0  0
   -1.4367   -1.6537    1.5657 C   0  0  0  0  0  0  0  0  0  0  0  0
   -0.2864    2.2687   -0.4267 H   0  0  0  0  0  0  0  0  0  0  0  0
   -1.8558    2.0988    0.4792 H   0  0  0  0  0  0  0  0  0  0  0  0
   -0.2862    2.0988    1.3854 H   0  0  0  0  0  0  0  0  0  0  0  0
    1.3185    0.4225   -0.4822 H   0  0  0  0  0  0  0  0  0  0  0  0
    1.2149   -0.0213    1.2770 H   0  0  0  0  0  0  0  0  0  0  0  0
    0.8431   -1.2567    0.0013 H   0  0  0  0  0  0  0  0  0  0  0  0
   -1.0408    0.4225   -1.8443 H   0  0  0  0  0  0  0  0  0  0  0  0
   -1.2218   -1.2567   -1.1909 H   0  0  0  0  0  0  0  0  0  0  0  0
   -2.5125   -0.0213   -0.8750 H   0  0  0  0  0  0  0  0  0  0  0  0
   -2.1777   -1.9572    2.8492 C   0  0  0  0  0  0  0  0  0  0  0  0
   -1.9815   -2.0801    0.6818 H   0  0  0  0  0  0  0  0  0  0  0  0
   -0.3988   -2.0801    1.5956 H   0  0  0  0  0  0  0  0  0  0  0  0
   -2.2527   -3.0626    2.9790 H   0  0  0  0  0  0  0  0  0  0  0  0
   -1.6378   -1.5206    3.7228 H   0  0  0  0  0  0  0  0  0  0  0  0
   -3.2043   -1.5206    2.8185 H   0  0  0  0  0  0  0  0  0  0  0  0
  1  2  1  0  0  0  0
  1  3  1  0  0  0  0
  1  4  1  0  0  0  0
  1  5  1  0  0  0  0
  2  6  1  0  0  0  0
  3  7  1  0  0  0  0
  3  8  1  0  0  0  0
  3  9  1  0  0  0  0
  4 10  1  0  0  0  0
  4 11  1  0  0  0  0
  4 12  1  0  0  0  0
  5 13  1  0  0  0  0
  5 14  1  0  0  0  0
  5 15  1  0  0  0  0
  6 16  1  0  0  0  0
  6 17  1  0  0  0  0
  6 18  1  0  0  0  0
 16 19  1  0  0  0  0
 16 20  1  0  0  0  0
 16 21  1  0  0  0  0
M  END
