./000646-04-8.hin
 OpenBabel09241315583D

 15 14  0  0  0  0  0  0  0  0999 V2000
   -3.9938   -0.4370    0.0373 C   0  0  0  0  0  0  0  0  0  0  0  0
   -4.0231    1.0378    0.0778 C   0  0  0  0  0  0  0  0  0  0  0  0
   -5.1224    1.7673   -0.1323 C   0  0  0  0  0  0  0  0  0  0  0  0
   -5.1508    3.2485   -0.0704 C   0  0  0  0  0  0  0  0  0  0  0  0
   -5.9306    3.8435   -1.2175 C   0  0  0  0  0  0  0  0  0  0  0  0
   -3.6548   -0.8415    1.0243 H   0  0  0  0  0  0  0  0  0  0  0  0
   -4.9987   -0.8688   -0.1926 H   0  0  0  0  0  0  0  0  0  0  0  0
   -3.2740   -0.7854   -0.7457 H   0  0  0  0  0  0  0  0  0  0  0  0
   -3.0555    1.5191    0.2986 H   0  0  0  0  0  0  0  0  0  0  0  0
   -6.0903    1.2893   -0.3581 H   0  0  0  0  0  0  0  0  0  0  0  0
   -5.6261    3.5563    0.9020 H   0  0  0  0  0  0  0  0  0  0  0  0
   -4.1076    3.6645   -0.0712 H   0  0  0  0  0  0  0  0  0  0  0  0
   -5.9464    4.9570   -1.1353 H   0  0  0  0  0  0  0  0  0  0  0  0
   -5.4662    3.5675   -2.1947 H   0  0  0  0  0  0  0  0  0  0  0  0
   -6.9843    3.4734   -1.2133 H   0  0  0  0  0  0  0  0  0  0  0  0
  1  2  1  0  0  0  0
  1  6  1  0  0  0  0
  1  7  1  0  0  0  0
  1  8  1  0  0  0  0
  2  3  2  0  0  0  0
  2  9  1  0  0  0  0
  3  4  1  0  0  0  0
  3 10  1  0  0  0  0
  4  5  1  0  0  0  0
  4 11  1  0  0  0  0
  4 12  1  0  0  0  0
  5 13  1  0  0  0  0
  5 14  1  0  0  0  0
  5 15  1  0  0  0  0
M  END
