./000690-08-4.hin
 OpenBabel09241315583D

 21 20  0  0  0  0  0  0  0  0999 V2000
   -5.7176   -0.5643   -0.0748 C   0  0  0  0  0  0  0  0  0  0  0  0
   -5.7194    0.9128   -0.0748 C   0  0  0  0  0  0  0  0  0  0  0  0
   -4.6021    1.6463   -0.0748 C   0  0  0  0  0  0  0  0  0  0  0  0
   -4.5782    3.1443   -0.0748 C   0  0  0  0  0  0  0  0  0  0  0  0
   -3.1343    3.6337   -0.0748 C   0  0  0  0  0  0  0  0  0  0  0  0
   -6.7606   -0.9648   -0.0747 H   0  0  0  0  0  0  0  0  0  0  0  0
   -5.1917   -0.9595   -0.9800 H   0  0  0  0  0  0  0  0  0  0  0  0
   -5.1915   -0.9595    0.8302 H   0  0  0  0  0  0  0  0  0  0  0  0
   -6.7123    1.3923   -0.0749 H   0  0  0  0  0  0  0  0  0  0  0  0
   -3.6123    1.1601   -0.0747 H   0  0  0  0  0  0  0  0  0  0  0  0
   -5.2803    3.6776   -1.3183 C   0  0  0  0  0  0  0  0  0  0  0  0
   -5.2803    3.6776    1.1686 C   0  0  0  0  0  0  0  0  0  0  0  0
   -3.1079    4.7496   -0.0748 H   0  0  0  0  0  0  0  0  0  0  0  0
   -2.5992    3.2640    0.8323 H   0  0  0  0  0  0  0  0  0  0  0  0
   -2.5992    3.2639   -0.9818 H   0  0  0  0  0  0  0  0  0  0  0  0
   -5.2573    4.7937   -1.3227 H   0  0  0  0  0  0  0  0  0  0  0  0
   -4.7716    3.3054   -2.2392 H   0  0  0  0  0  0  0  0  0  0  0  0
   -6.3444    3.3411   -1.3368 H   0  0  0  0  0  0  0  0  0  0  0  0
   -5.2573    4.7937    1.1730 H   0  0  0  0  0  0  0  0  0  0  0  0
   -6.3445    3.3411    1.1871 H   0  0  0  0  0  0  0  0  0  0  0  0
   -4.7717    3.3055    2.0896 H   0  0  0  0  0  0  0  0  0  0  0  0
  1  2  1  0  0  0  0
  1  6  1  0  0  0  0
  1  7  1  0  0  0  0
  1  8  1  0  0  0  0
  2  3  2  0  0  0  0
  2  9  1  0  0  0  0
  3  4  1  0  0  0  0
  3 10  1  0  0  0  0
  4  5  1  0  0  0  0
  4 11  1  0  0  0  0
  4 12  1  0  0  0  0
  5 13  1  0  0  0  0
  5 14  1  0  0  0  0
  5 15  1  0  0  0  0
 11 16  1  0  0  0  0
 11 17  1  0  0  0  0
 11 18  1  0  0  0  0
 12 19  1  0  0  0  0
 12 20  1  0  0  0  0
 12 21  1  0  0  0  0
M  END
