./000693-65-2.hin
 OpenBabel09241315583D

 33 32  0  0  0  0  0  0  0  0999 V2000
   -4.3371  -11.6009   23.8712 C   0  0  0  0  0  0  0  0  0  0  0  0
   -4.2272  -10.0865   23.8712 C   0  0  0  0  0  0  0  0  0  0  0  0
   -2.9709  -13.5330   23.8712 C   0  0  0  0  0  0  0  0  0  0  0  0
   -1.5065  -13.9342   23.8712 C   0  0  0  0  0  0  0  0  0  0  0  0
   -3.0040  -12.1073   23.8712 O   0  0  0  0  0  0  0  0  0  0  0  0
   -1.3708  -15.4406   23.8712 C   0  0  0  0  0  0  0  0  0  0  0  0
   -1.0032  -13.4989   22.9690 H   0  0  0  0  0  0  0  0  0  0  0  0
   -1.0032  -13.4989   24.7734 H   0  0  0  0  0  0  0  0  0  0  0  0
   -3.4951  -13.9226   22.9579 H   0  0  0  0  0  0  0  0  0  0  0  0
   -3.4951  -13.9226   24.7845 H   0  0  0  0  0  0  0  0  0  0  0  0
   -4.8792  -11.9652   24.7845 H   0  0  0  0  0  0  0  0  0  0  0  0
    0.0846  -15.8580   23.8712 C   0  0  0  0  0  0  0  0  0  0  0  0
   -1.8830  -15.8665   24.7741 H   0  0  0  0  0  0  0  0  0  0  0  0
   -1.8830  -15.8665   22.9683 H   0  0  0  0  0  0  0  0  0  0  0  0
    0.2290  -17.3578   23.8712 C   0  0  0  0  0  0  0  0  0  0  0  0
    0.5957  -15.4296   22.9686 H   0  0  0  0  0  0  0  0  0  0  0  0
    0.5957  -15.4296   24.7738 H   0  0  0  0  0  0  0  0  0  0  0  0
   -5.6022   -9.4565   23.8712 C   0  0  0  0  0  0  0  0  0  0  0  0
   -5.5106   -7.9451   23.8712 C   0  0  0  0  0  0  0  0  0  0  0  0
   -4.8792  -11.9652   22.9579 H   0  0  0  0  0  0  0  0  0  0  0  0
   -3.6490   -9.7570   24.7734 H   0  0  0  0  0  0  0  0  0  0  0  0
   -3.6490   -9.7570   22.9690 H   0  0  0  0  0  0  0  0  0  0  0  0
   -6.1746   -9.7974   22.9683 H   0  0  0  0  0  0  0  0  0  0  0  0
   -6.1746   -9.7974   24.7741 H   0  0  0  0  0  0  0  0  0  0  0  0
   -6.8766   -7.3090   23.8712 C   0  0  0  0  0  0  0  0  0  0  0  0
   -4.9364   -7.6061   24.7738 H   0  0  0  0  0  0  0  0  0  0  0  0
    1.3086  -17.6436   23.8712 H   0  0  0  0  0  0  0  0  0  0  0  0
   -0.2530  -17.8008   24.7762 H   0  0  0  0  0  0  0  0  0  0  0  0
   -0.2530  -17.8008   22.9662 H   0  0  0  0  0  0  0  0  0  0  0  0
   -4.9364   -7.6061   22.9686 H   0  0  0  0  0  0  0  0  0  0  0  0
   -6.7861   -6.1960   23.8712 H   0  0  0  0  0  0  0  0  0  0  0  0
   -7.4549   -7.6158   22.9662 H   0  0  0  0  0  0  0  0  0  0  0  0
   -7.4549   -7.6158   24.7762 H   0  0  0  0  0  0  0  0  0  0  0  0
  1  2  1  0  0  0  0
  1  5  1  0  0  0  0
  1 11  1  0  0  0  0
  1 20  1  0  0  0  0
  2 18  1  0  0  0  0
  2 21  1  0  0  0  0
  2 22  1  0  0  0  0
  3  4  1  0  0  0  0
  3  5  1  0  0  0  0
  3  9  1  0  0  0  0
  3 10  1  0  0  0  0
  4  6  1  0  0  0  0
  4  7  1  0  0  0  0
  4  8  1  0  0  0  0
  6 12  1  0  0  0  0
  6 13  1  0  0  0  0
  6 14  1  0  0  0  0
 12 15  1  0  0  0  0
 12 16  1  0  0  0  0
 12 17  1  0  0  0  0
 15 27  1  0  0  0  0
 15 28  1  0  0  0  0
 15 29  1  0  0  0  0
 18 19  1  0  0  0  0
 18 23  1  0  0  0  0
 18 24  1  0  0  0  0
 19 25  1  0  0  0  0
 19 26  1  0  0  0  0
 19 30  1  0  0  0  0
 25 31  1  0  0  0  0
 25 32  1  0  0  0  0
 25 33  1  0  0  0  0
M  END
