./000694-72-4.hin
 OpenBabel09241315583D

 22 23  0  0  1  0  0  0  0  0999 V2000
    1.6267    0.7031    0.0826 C   0  0  1  0  0  0  0  0  0  0  0  0
    2.5365    0.4494    1.2674 C   0  0  0  0  0  0  0  0  0  0  0  0
    3.6720    1.4740    1.0651 C   0  0  0  0  0  0  0  0  0  0  0  0
    0.1358    0.4495   -0.0102 C   0  0  0  0  0  0  0  0  0  0  0  0
    3.2056    2.4986    0.0103 C   0  0  0  0  0  0  0  0  0  0  0  0
    1.7146    2.2449   -0.0825 C   0  0  1  0  0  0  0  0  0  0  0  0
    0.8049    2.4986   -1.2673 C   0  0  0  0  0  0  0  0  0  0  0  0
   -0.3306    1.4741   -1.0650 C   0  0  0  0  0  0  0  0  0  0  0  0
    2.1037    0.2126   -0.8137 H   0  0  0  0  0  0  0  0  0  0  0  0
    2.9309   -0.5942    1.2793 H   0  0  0  0  0  0  0  0  0  0  0  0
    2.0066    0.6319    2.2339 H   0  0  0  0  0  0  0  0  0  0  0  0
    4.6009    0.9610    0.7176 H   0  0  0  0  0  0  0  0  0  0  0  0
    3.9027    1.9869    2.0297 H   0  0  0  0  0  0  0  0  0  0  0  0
   -0.3698    0.6320    0.9692 H   0  0  0  0  0  0  0  0  0  0  0  0
   -0.0944   -0.5941   -0.3307 H   0  0  0  0  0  0  0  0  0  0  0  0
    3.7112    2.3161   -0.9691 H   0  0  0  0  0  0  0  0  0  0  0  0
    3.4358    3.5422    0.3308 H   0  0  0  0  0  0  0  0  0  0  0  0
    1.2377    2.7355    0.8138 H   0  0  0  0  0  0  0  0  0  0  0  0
    1.3348    2.3161   -2.2338 H   0  0  0  0  0  0  0  0  0  0  0  0
    0.4105    3.5423   -1.2792 H   0  0  0  0  0  0  0  0  0  0  0  0
   -0.5613    0.9612   -2.0296 H   0  0  0  0  0  0  0  0  0  0  0  0
   -1.2595    1.9870   -0.7175 H   0  0  0  0  0  0  0  0  0  0  0  0
  1  2  1  0  0  0  0
  1  4  1  0  0  0  0
  1  6  1  0  0  0  0
  1  9  1  6  0  0  0
  2  3  1  0  0  0  0
  2 10  1  0  0  0  0
  2 11  1  0  0  0  0
  3  5  1  0  0  0  0
  3 12  1  0  0  0  0
  3 13  1  0  0  0  0
  4  8  1  0  0  0  0
  4 14  1  0  0  0  0
  4 15  1  0  0  0  0
  5  6  1  0  0  0  0
  5 16  1  0  0  0  0
  5 17  1  0  0  0  0
  6  7  1  0  0  0  0
  6 18  1  1  0  0  0
  7  8  1  0  0  0  0
  7 19  1  0  0  0  0
  7 20  1  0  0  0  0
  8 21  1  0  0  0  0
  8 22  1  0  0  0  0
M  END
