./000763-29-1.hin
 OpenBabel09241315583D

 18 17  0  0  0  0  0  0  0  0999 V2000
   -3.3015   -1.4071   -0.2732 C   0  0  0  0  0  0  0  0  0  0  0  0
   -3.2317   -0.0682   -0.2732 C   0  0  0  0  0  0  0  0  0  0  0  0
   -4.4944    0.7255   -0.2732 C   0  0  0  0  0  0  0  0  0  0  0  0
   -4.3424    2.2309   -0.2732 C   0  0  0  0  0  0  0  0  0  0  0  0
   -5.6899    2.9089   -0.2732 C   0  0  0  0  0  0  0  0  0  0  0  0
   -2.4057   -2.0399   -0.2732 H   0  0  0  0  0  0  0  0  0  0  0  0
   -4.2569   -1.9459   -0.2732 H   0  0  0  0  0  0  0  0  0  0  0  0
   -1.9067    0.5998   -0.2732 C   0  0  0  0  0  0  0  0  0  0  0  0
   -5.0978    0.4276   -1.1757 H   0  0  0  0  0  0  0  0  0  0  0  0
   -5.0978    0.4276    0.6294 H   0  0  0  0  0  0  0  0  0  0  0  0
   -3.7642    2.5553    0.6322 H   0  0  0  0  0  0  0  0  0  0  0  0
   -3.7642    2.5553   -1.1785 H   0  0  0  0  0  0  0  0  0  0  0  0
   -5.5637    4.0184   -0.2732 H   0  0  0  0  0  0  0  0  0  0  0  0
   -6.2775    2.6208   -1.1782 H   0  0  0  0  0  0  0  0  0  0  0  0
   -6.2775    2.6208    0.6319 H   0  0  0  0  0  0  0  0  0  0  0  0
   -1.9763    1.7128   -0.2732 H   0  0  0  0  0  0  0  0  0  0  0  0
   -1.3242    0.2921    0.6320 H   0  0  0  0  0  0  0  0  0  0  0  0
   -1.3242    0.2921   -1.1783 H   0  0  0  0  0  0  0  0  0  0  0  0
  1  2  2  0  0  0  0
  1  6  1  0  0  0  0
  1  7  1  0  0  0  0
  2  3  1  0  0  0  0
  2  8  1  0  0  0  0
  3  4  1  0  0  0  0
  3  9  1  0  0  0  0
  3 10  1  0  0  0  0
  4  5  1  0  0  0  0
  4 11  1  0  0  0  0
  4 12  1  0  0  0  0
  5 13  1  0  0  0  0
  5 14  1  0  0  0  0
  5 15  1  0  0  0  0
  8 16  1  0  0  0  0
  8 17  1  0  0  0  0
  8 18  1  0  0  0  0
M  END
