./000763-30-4.hin
 OpenBabel09241315583D

 16 15  0  0  0  0  0  0  0  0999 V2000
   -0.3130    3.4021   15.0695 C   0  0  0  0  0  0  0  0  0  0  0  0
   -4.5640    4.9945   15.0695 C   0  0  0  0  0  0  0  0  0  0  0  0
   -3.3753    4.3723   15.0695 C   0  0  0  0  0  0  0  0  0  0  0  0
   -2.1406    5.2096   15.0695 C   0  0  0  0  0  0  0  0  0  0  0  0
   -5.5147    4.4476   15.0695 H   0  0  0  0  0  0  0  0  0  0  0  0
   -4.6554    6.0878   15.0695 H   0  0  0  0  0  0  0  0  0  0  0  0
   -0.7720    4.6488   15.0695 C   0  0  0  0  0  0  0  0  0  0  0  0
   -2.2043    5.8864   14.1652 H   0  0  0  0  0  0  0  0  0  0  0  0
   -0.0225    5.4690   15.0695 H   0  0  0  0  0  0  0  0  0  0  0  0
   -0.9224    2.4932   15.0695 H   0  0  0  0  0  0  0  0  0  0  0  0
    0.7698    3.2059   15.0695 H   0  0  0  0  0  0  0  0  0  0  0  0
   -3.3114    2.8938   15.0695 C   0  0  0  0  0  0  0  0  0  0  0  0
   -2.2043    5.8864   15.9738 H   0  0  0  0  0  0  0  0  0  0  0  0
   -4.3373    2.4467   15.0695 H   0  0  0  0  0  0  0  0  0  0  0  0
   -2.7774    2.5270   15.9816 H   0  0  0  0  0  0  0  0  0  0  0  0
   -2.7774    2.5270   14.1575 H   0  0  0  0  0  0  0  0  0  0  0  0
  1  7  2  0  0  0  0
  1 10  1  0  0  0  0
  1 11  1  0  0  0  0
  2  3  2  0  0  0  0
  2  5  1  0  0  0  0
  2  6  1  0  0  0  0
  3  4  1  0  0  0  0
  3 12  1  0  0  0  0
  4  7  1  0  0  0  0
  4  8  1  0  0  0  0
  4 13  1  0  0  0  0
  7  9  1  0  0  0  0
 12 14  1  0  0  0  0
 12 15  1  0  0  0  0
 12 16  1  0  0  0  0
M  END
