./000764-13-6.hin
 OpenBabel09241315583D

 22 21  0  0  0  0  0  0  0  0999 V2000
   -1.4990   18.6804   12.1250 C   0  0  0  0  0  0  0  0  0  0  0  0
   -0.6205   19.7255   12.7030 C   0  0  0  0  0  0  0  0  0  0  0  0
   -1.8902   19.0048   11.1282 H   0  0  0  0  0  0  0  0  0  0  0  0
   -0.9315   17.7267   11.9817 H   0  0  0  0  0  0  0  0  0  0  0  0
   -2.3712   18.4712   12.7918 H   0  0  0  0  0  0  0  0  0  0  0  0
   -1.0561   20.2789   14.0082 C   0  0  0  0  0  0  0  0  0  0  0  0
   -1.1150   19.4614   14.7700 H   0  0  0  0  0  0  0  0  0  0  0  0
   -2.0725   20.7366   13.9098 H   0  0  0  0  0  0  0  0  0  0  0  0
   -0.3521   21.0610   14.3840 H   0  0  0  0  0  0  0  0  0  0  0  0
    2.5557   19.5472    8.9284 C   0  0  0  0  0  0  0  0  0  0  0  0
    2.1210   20.0993   10.2344 C   0  0  0  0  0  0  0  0  0  0  0  0
    0.9922   19.6712   10.8325 C   0  0  0  0  0  0  0  0  0  0  0  0
    0.3780   18.8945   10.3426 H   0  0  0  0  0  0  0  0  0  0  0  0
    3.5665   19.0776    9.0288 H   0  0  0  0  0  0  0  0  0  0  0  0
    1.8445   18.7749    8.5461 H   0  0  0  0  0  0  0  0  0  0  0  0
    3.0057   21.1361   10.8180 C   0  0  0  0  0  0  0  0  0  0  0  0
    3.3849   20.8096   11.8189 H   0  0  0  0  0  0  0  0  0  0  0  0
    3.8859   21.3345   10.1584 H   0  0  0  0  0  0  0  0  0  0  0  0
    2.4472   22.0960   10.9545 H   0  0  0  0  0  0  0  0  0  0  0  0
    0.5038   20.1597   12.1009 C   0  0  0  0  0  0  0  0  0  0  0  0
    2.6269   20.3676    8.1707 H   0  0  0  0  0  0  0  0  0  0  0  0
    1.1138   20.9421   12.5870 H   0  0  0  0  0  0  0  0  0  0  0  0
  1  2  1  0  0  0  0
  1  3  1  0  0  0  0
  1  4  1  0  0  0  0
  1  5  1  0  0  0  0
  2  6  1  0  0  0  0
  2 20  2  0  0  0  0
  6  7  1  0  0  0  0
  6  8  1  0  0  0  0
  6  9  1  0  0  0  0
 10 11  1  0  0  0  0
 10 14  1  0  0  0  0
 10 15  1  0  0  0  0
 10 21  1  0  0  0  0
 11 12  2  0  0  0  0
 11 16  1  0  0  0  0
 12 13  1  0  0  0  0
 12 20  1  0  0  0  0
 16 17  1  0  0  0  0
 16 18  1  0  0  0  0
 16 19  1  0  0  0  0
 20 22  1  0  0  0  0
M  END
