./000811-97-2.hin
 OpenBabel09241315583D

  8  7  0  0  0  0  0  0  0  0999 V2000
   -0.4329   -1.0778   -0.2035 C   0  0  0  0  0  0  0  0  0  0  0  0
   -0.4361    0.4969   -0.2089 C   0  0  0  0  0  0  0  0  0  0  0  0
   -1.5038   -1.4165   -0.2106 H   0  0  0  0  0  0  0  0  0  0  0  0
    0.0964   -1.4165   -1.1345 H   0  0  0  0  0  0  0  0  0  0  0  0
    0.8131    1.0557   -0.2242 F   0  0  0  0  0  0  0  0  0  0  0  0
   -1.0728    1.0049   -1.3119 F   0  0  0  0  0  0  0  0  0  0  0  0
   -1.0738    1.0557    0.8652 F   0  0  0  0  0  0  0  0  0  0  0  0
    0.2071   -1.5684    0.9051 F   0  0  0  0  0  0  0  0  0  0  0  0
  1  2  1  0  0  0  0
  1  3  1  0  0  0  0
  1  4  1  0  0  0  0
  1  8  1  0  0  0  0
  2  5  1  0  0  0  0
  2  6  1  0  0  0  0
  2  7  1  0  0  0  0
M  END
