./000820-69-9.hin
 OpenBabel09241315583D

 16 15  0  0  0  0  0  0  0  0999 V2000
   -4.0535    2.5137   -4.9567 C   0  0  0  0  0  0  0  0  0  0  0  0
   -4.4018    3.9666   -4.9369 C   0  0  0  0  0  0  0  0  0  0  0  0
   -3.4936    4.5939   -5.1077 H   0  0  0  0  0  0  0  0  0  0  0  0
   -4.8484    4.2330   -3.9475 H   0  0  0  0  0  0  0  0  0  0  0  0
   -5.1515    4.1848   -5.7365 H   0  0  0  0  0  0  0  0  0  0  0  0
   -6.1882   -0.6543   -4.5091 C   0  0  0  0  0  0  0  0  0  0  0  0
   -5.8397   -2.1071   -4.5282 C   0  0  0  0  0  0  0  0  0  0  0  0
   -6.7480   -2.7344   -4.3574 H   0  0  0  0  0  0  0  0  0  0  0  0
   -5.3929   -2.3739   -5.5173 H   0  0  0  0  0  0  0  0  0  0  0  0
   -5.0902   -2.3249   -3.7283 H   0  0  0  0  0  0  0  0  0  0  0  0
   -5.0515    0.2638   -4.7266 C   0  0  0  0  0  0  0  0  0  0  0  0
   -5.1902    1.5956   -4.7393 C   0  0  0  0  0  0  0  0  0  0  0  0
   -6.1760    2.0687   -4.5852 H   0  0  0  0  0  0  0  0  0  0  0  0
   -2.8982    2.1116   -5.1417 O   0  0  0  0  0  0  0  0  0  0  0  0
   -7.3436   -0.2521   -4.3247 O   0  0  0  0  0  0  0  0  0  0  0  0
   -4.0656   -0.2093   -4.8807 H   0  0  0  0  0  0  0  0  0  0  0  0
  1  2  1  0  0  0  0
  1 12  1  0  0  0  0
  1 14  2  0  0  0  0
  2  3  1  0  0  0  0
  2  4  1  0  0  0  0
  2  5  1  0  0  0  0
  6  7  1  0  0  0  0
  6 11  1  0  0  0  0
  6 15  2  0  0  0  0
  7  8  1  0  0  0  0
  7  9  1  0  0  0  0
  7 10  1  0  0  0  0
 11 12  2  0  0  0  0
 11 16  1  0  0  0  0
 12 13  1  0  0  0  0
M  END
