./000821-07-8.hin
 OpenBabel09241315583D

 14 13  0  0  0  0  0  0  0  0999 V2000
   -2.5047    0.9713   22.9450 H   0  0  0  0  0  0  0  0  0  0  0  0
   -3.1898    0.2600   22.4506 C   0  0  0  0  0  0  0  0  0  0  0  0
   -4.1253   -0.3833   23.1540 C   0  0  0  0  0  0  0  0  0  0  0  0
   -3.0025    0.0831   21.0254 C   0  0  0  0  0  0  0  0  0  0  0  0
   -1.8704    0.5580   18.8997 C   0  0  0  0  0  0  0  0  0  0  0  0
   -2.0578    0.7349   20.3249 C   0  0  0  0  0  0  0  0  0  0  0  0
   -1.3751    1.4450   20.8234 H   0  0  0  0  0  0  0  0  0  0  0  0
   -0.9347    1.2012   18.1963 C   0  0  0  0  0  0  0  0  0  0  0  0
   -2.5556   -0.1532   18.4052 H   0  0  0  0  0  0  0  0  0  0  0  0
   -3.6851   -0.6269   20.5269 H   0  0  0  0  0  0  0  0  0  0  0  0
   -4.8248   -1.0974   22.7001 H   0  0  0  0  0  0  0  0  0  0  0  0
   -4.2484   -0.2329   24.2341 H   0  0  0  0  0  0  0  0  0  0  0  0
   -0.2352    1.9152   18.6502 H   0  0  0  0  0  0  0  0  0  0  0  0
   -0.8117    1.0508   17.1163 H   0  0  0  0  0  0  0  0  0  0  0  0
  1  2  1  0  0  0  0
  2  3  2  0  0  0  0
  2  4  1  0  0  0  0
  3 11  1  0  0  0  0
  3 12  1  0  0  0  0
  4  6  2  0  0  0  0
  4 10  1  0  0  0  0
  5  6  1  0  0  0  0
  5  8  2  0  0  0  0
  5  9  1  0  0  0  0
  6  7  1  0  0  0  0
  8 13  1  0  0  0  0
  8 14  1  0  0  0  0
M  END
