./000821-55-6.hin
 OpenBabel09241315583D

 28 27  0  0  0  0  0  0  0  0999 V2000
   -0.5324   -3.2083   -0.0000 C   0  0  0  0  0  0  0  0  0  0  0  0
   -0.5282   -1.6948   -0.0000 C   0  0  0  0  0  0  0  0  0  0  0  0
   -1.9373   -1.1416   -0.0000 C   0  0  0  0  0  0  0  0  0  0  0  0
   -1.9295    0.3714   -0.0000 C   0  0  0  0  0  0  0  0  0  0  0  0
   -3.3368    0.9252   -0.0000 C   0  0  0  0  0  0  0  0  0  0  0  0
   -3.3716    2.4269   -0.0000 C   0  0  0  0  0  0  0  0  0  0  0  0
    0.8765   -3.7628   -0.0000 C   0  0  0  0  0  0  0  0  0  0  0  0
   -1.0832   -3.5835    0.9025 H   0  0  0  0  0  0  0  0  0  0  0  0
   -1.0832   -3.5835   -0.9026 H   0  0  0  0  0  0  0  0  0  0  0  0
    0.0227   -1.3196    0.9025 H   0  0  0  0  0  0  0  0  0  0  0  0
    0.0227   -1.3196   -0.9026 H   0  0  0  0  0  0  0  0  0  0  0  0
   -2.4881   -1.5166   -0.9028 H   0  0  0  0  0  0  0  0  0  0  0  0
   -2.4881   -1.5166    0.9027 H   0  0  0  0  0  0  0  0  0  0  0  0
   -1.3795    0.7528    0.9005 H   0  0  0  0  0  0  0  0  0  0  0  0
   -1.3795    0.7528   -0.9006 H   0  0  0  0  0  0  0  0  0  0  0  0
   -3.8926    0.5592   -0.9044 H   0  0  0  0  0  0  0  0  0  0  0  0
   -3.8926    0.5592    0.9044 H   0  0  0  0  0  0  0  0  0  0  0  0
   -4.7444    3.0222   -0.0000 C   0  0  0  0  0  0  0  0  0  0  0  0
   -2.3539    3.1261   -0.0000 O   0  0  0  0  0  0  0  0  0  0  0  0
   -4.6933    4.1381   -0.0000 H   0  0  0  0  0  0  0  0  0  0  0  0
   -5.3021    2.6853   -0.9074 H   0  0  0  0  0  0  0  0  0  0  0  0
   -5.3021    2.6853    0.9073 H   0  0  0  0  0  0  0  0  0  0  0  0
    0.8778   -5.2696   -0.0000 C   0  0  0  0  0  0  0  0  0  0  0  0
    1.4262   -3.3852   -0.9025 H   0  0  0  0  0  0  0  0  0  0  0  0
    1.4262   -3.3852    0.9025 H   0  0  0  0  0  0  0  0  0  0  0  0
    1.9252   -5.6569   -0.0000 H   0  0  0  0  0  0  0  0  0  0  0  0
    0.3558   -5.6646    0.9049 H   0  0  0  0  0  0  0  0  0  0  0  0
    0.3558   -5.6646   -0.9050 H   0  0  0  0  0  0  0  0  0  0  0  0
  1  2  1  0  0  0  0
  1  7  1  0  0  0  0
  1  8  1  0  0  0  0
  1  9  1  0  0  0  0
  2  3  1  0  0  0  0
  2 10  1  0  0  0  0
  2 11  1  0  0  0  0
  3  4  1  0  0  0  0
  3 12  1  0  0  0  0
  3 13  1  0  0  0  0
  4  5  1  0  0  0  0
  4 14  1  0  0  0  0
  4 15  1  0  0  0  0
  5  6  1  0  0  0  0
  5 16  1  0  0  0  0
  5 17  1  0  0  0  0
  6 18  1  0  0  0  0
  6 19  2  0  0  0  0
  7 23  1  0  0  0  0
  7 24  1  0  0  0  0
  7 25  1  0  0  0  0
 18 20  1  0  0  0  0
 18 21  1  0  0  0  0
 18 22  1  0  0  0  0
 23 26  1  0  0  0  0
 23 27  1  0  0  0  0
 23 28  1  0  0  0  0
M  END
