./000926-42-1.hin
 OpenBabel09241315583D

 20 19  0  0  0  0  0  0  0  0999 V2000
  -10.9066   -1.0961   35.1576 C   0  0  0  0  0  0  0  0  0  0  0  0
   -9.2927    0.7511   35.0071 C   0  0  0  0  0  0  0  0  0  0  0  0
   -9.2102    2.2061   34.9456 O   0  0  0  0  0  0  0  0  0  0  0  0
   -7.9989    2.7750   34.8646 N   0  3  0  0  0  0  0  0  0  0  0  0
   -8.0313    3.9623   34.8193 O   0  0  0  0  0  0  0  0  0  0  0  0
   -7.0472    2.0553   34.8471 O   0  5  0  0  0  0  0  0  0  0  0  0
   -8.8311    0.3243   34.0800 H   0  0  0  0  0  0  0  0  0  0  0  0
   -8.7427    0.3969   35.9163 H   0  0  0  0  0  0  0  0  0  0  0  0
  -10.7867    0.4206   35.0921 C   0  0  0  0  0  0  0  0  0  0  0  0
  -11.3874    1.0389   36.3437 C   0  0  0  0  0  0  0  0  0  0  0  0
  -11.5071    0.9409   33.8592 C   0  0  0  0  0  0  0  0  0  0  0  0
  -12.5921    0.6841   33.9135 H   0  0  0  0  0  0  0  0  0  0  0  0
  -11.0773    0.4847   32.9355 H   0  0  0  0  0  0  0  0  0  0  0  0
  -11.9835   -1.3841   35.2209 H   0  0  0  0  0  0  0  0  0  0  0  0
  -10.4654   -1.5642   34.2452 H   0  0  0  0  0  0  0  0  0  0  0  0
  -10.3780   -1.4927   36.0574 H   0  0  0  0  0  0  0  0  0  0  0  0
  -12.4716    0.7828   36.4140 H   0  0  0  0  0  0  0  0  0  0  0  0
  -10.8693    0.6548   37.2549 H   0  0  0  0  0  0  0  0  0  0  0  0
  -11.2815    2.1503   36.3120 H   0  0  0  0  0  0  0  0  0  0  0  0
  -11.4029    2.0510   33.7932 H   0  0  0  0  0  0  0  0  0  0  0  0
  1  9  1  0  0  0  0
  1 14  1  0  0  0  0
  1 15  1  0  0  0  0
  1 16  1  0  0  0  0
  2  3  1  0  0  0  0
  2  7  1  0  0  0  0
  2  8  1  0  0  0  0
  2  9  1  0  0  0  0
  3  4  1  0  0  0  0
  4  5  2  0  0  0  0
  4  6  1  0  0  0  0
  9 10  1  0  0  0  0
  9 11  1  0  0  0  0
 10 17  1  0  0  0  0
 10 18  1  0  0  0  0
 10 19  1  0  0  0  0
 11 12  1  0  0  0  0
 11 13  1  0  0  0  0
 11 20  1  0  0  0  0
M  CHG   2   4   1   6  -1
M  END
