./000926-56-7.hin
 OpenBabel09241315583D

 16 15  0  0  0  0  0  0  0  0999 V2000
   -1.5164   -1.1705   20.9535 H   0  0  0  0  0  0  0  0  0  0  0  0
   -1.5720   -0.0685   20.9535 C   0  0  0  0  0  0  0  0  0  0  0  0
   -0.4491    0.6560   20.9535 C   0  0  0  0  0  0  0  0  0  0  0  0
   -2.8916    0.5256   20.9535 C   0  0  0  0  0  0  0  0  0  0  0  0
   -4.2183   -1.6077   20.9535 C   0  0  0  0  0  0  0  0  0  0  0  0
   -4.0638   -0.1344   20.9535 C   0  0  0  0  0  0  0  0  0  0  0  0
   -5.3509    0.6091   20.9535 C   0  0  0  0  0  0  0  0  0  0  0  0
   -3.2399   -2.1441   20.9535 H   0  0  0  0  0  0  0  0  0  0  0  0
   -4.7923   -1.9288   21.8594 H   0  0  0  0  0  0  0  0  0  0  0  0
   -4.7923   -1.9288   20.0475 H   0  0  0  0  0  0  0  0  0  0  0  0
    0.5442    0.1898   20.9535 H   0  0  0  0  0  0  0  0  0  0  0  0
   -0.4482    1.7536   20.9535 H   0  0  0  0  0  0  0  0  0  0  0  0
   -2.9027    1.6320   20.9535 H   0  0  0  0  0  0  0  0  0  0  0  0
   -5.1929    1.7151   20.9535 H   0  0  0  0  0  0  0  0  0  0  0  0
   -5.9489    0.3382   20.0475 H   0  0  0  0  0  0  0  0  0  0  0  0
   -5.9489    0.3382   21.8594 H   0  0  0  0  0  0  0  0  0  0  0  0
  1  2  1  0  0  0  0
  2  3  2  0  0  0  0
  2  4  1  0  0  0  0
  3 11  1  0  0  0  0
  3 12  1  0  0  0  0
  4  6  2  0  0  0  0
  4 13  1  0  0  0  0
  5  6  1  0  0  0  0
  5  8  1  0  0  0  0
  5  9  1  0  0  0  0
  5 10  1  0  0  0  0
  6  7  1  0  0  0  0
  7 14  1  0  0  0  0
  7 15  1  0  0  0  0
  7 16  1  0  0  0  0
M  END
