./000928-45-0.hin
 OpenBabel09241315583D

 17 16  0  0  0  0  0  0  0  0999 V2000
  -12.5716    0.3484   31.3168 C   0  0  0  0  0  0  0  0  0  0  0  0
  -12.6880    1.8590   31.3790 C   0  0  0  0  0  0  0  0  0  0  0  0
  -13.4567   -0.1214   32.3771 O   0  0  0  0  0  0  0  0  0  0  0  0
  -13.5740   -1.4414   32.5799 N   0  3  0  0  0  0  0  0  0  0  0  0
  -12.9418   -2.1680   31.8755 O   0  0  0  0  0  0  0  0  0  0  0  0
  -14.3162   -1.7253   33.4634 O   0  5  0  0  0  0  0  0  0  0  0  0
  -12.9258   -0.0647   30.3378 H   0  0  0  0  0  0  0  0  0  0  0  0
  -13.7572    2.1609   31.2264 H   0  0  0  0  0  0  0  0  0  0  0  0
  -12.3823    2.2187   32.3962 H   0  0  0  0  0  0  0  0  0  0  0  0
  -11.8099    2.4848   30.3158 C   0  0  0  0  0  0  0  0  0  0  0  0
  -11.5304   -0.0061   31.5286 H   0  0  0  0  0  0  0  0  0  0  0  0
  -11.9033    3.9884   30.3530 C   0  0  0  0  0  0  0  0  0  0  0  0
  -10.7447    2.1685   30.4737 H   0  0  0  0  0  0  0  0  0  0  0  0
  -12.1208    2.1119   29.3039 H   0  0  0  0  0  0  0  0  0  0  0  0
  -11.2510    4.4340   29.5635 H   0  0  0  0  0  0  0  0  0  0  0  0
  -12.9537    4.3235   30.1742 H   0  0  0  0  0  0  0  0  0  0  0  0
  -11.5744    4.3802   31.3458 H   0  0  0  0  0  0  0  0  0  0  0  0
  1  2  1  0  0  0  0
  1  3  1  0  0  0  0
  1  7  1  0  0  0  0
  1 11  1  0  0  0  0
  2  8  1  0  0  0  0
  2  9  1  0  0  0  0
  2 10  1  0  0  0  0
  3  4  1  0  0  0  0
  4  5  2  0  0  0  0
  4  6  1  0  0  0  0
 10 12  1  0  0  0  0
 10 13  1  0  0  0  0
 10 14  1  0  0  0  0
 12 15  1  0  0  0  0
 12 16  1  0  0  0  0
 12 17  1  0  0  0  0
M  CHG  2   4   1   6  -1
M  END
