./000930-27-8.hin
 OpenBabel02061415193D

 12 12  0  0  0  0  0  0  0  0999 V2000
    0.1296    0.0203    2.7273 C   0  0  0  0  0  0  0  0  0  0  0  0
    0.1374    1.4723    2.7273 C   0  0  0  0  0  0  0  0  0  0  0  0
    2.2908    0.7302    2.7273 O   0  0  0  0  0  0  0  0  0  0  0  0
   -0.7589   -0.6035    2.7273 H   0  0  0  0  0  0  0  0  0  0  0  0
   -1.0483    2.3291    2.7273 C   0  0  0  0  0  0  0  0  0  0  0  0
    1.4659    1.8547    2.7273 C   0  0  0  0  0  0  0  0  0  0  0  0
    1.4478   -0.3821    2.7273 C   0  0  0  0  0  0  0  0  0  0  0  0
    1.9941    2.8027    2.7273 H   0  0  0  0  0  0  0  0  0  0  0  0
    1.9642   -1.3369    2.7273 H   0  0  0  0  0  0  0  0  0  0  0  0
   -1.6744    2.1285    3.6335 H   0  0  0  0  0  0  0  0  0  0  0  0
   -0.7632    3.4102    2.7273 H   0  0  0  0  0  0  0  0  0  0  0  0
   -1.6744    2.1285    1.8212 H   0  0  0  0  0  0  0  0  0  0  0  0
  1  2  1  0  0  0  0
  1  4  1  0  0  0  0
  1  7  2  0  0  0  0
  2  5  1  0  0  0  0
  2  6  2  0  0  0  0
  3  6  1  0  0  0  0
  3  7  1  0  0  0  0
  5 10  1  0  0  0  0
  5 11  1  0  0  0  0
  5 12  1  0  0  0  0
  6  8  1  0  0  0  0
  7  9  1  0  0  0  0
M  END
