./000931-64-6.hin
 OpenBabel09241315583D

 20 21  0  0  1  0  0  0  0  0999 V2000
   -1.5783    0.0320   -0.1835 C   0  0  2  0  0  0  0  0  0  0  0  0
   -0.1367    2.0795   -0.1837 C   0  0  0  0  0  0  0  0  0  0  0  0
    0.8384    0.8939   -0.1836 C   0  0  1  0  0  0  0  0  0  0  0  0
   -1.5736    1.5670   -0.1837 C   0  0  0  0  0  0  0  0  0  0  0  0
    0.5000    0.0244    0.9936 C   0  0  0  0  0  0  0  0  0  0  0  0
   -0.7660   -0.4271    0.9936 C   0  0  0  0  0  0  0  0  0  0  0  0
   -2.6239   -0.3609   -0.1521 H   0  0  0  0  0  0  0  0  0  0  0  0
   -0.8597   -0.4348   -1.4571 C   0  0  0  0  0  0  0  0  0  0  0  0
    0.0508    2.7123   -1.0876 H   0  0  0  0  0  0  0  0  0  0  0  0
    0.0492    2.7135    0.7193 H   0  0  0  0  0  0  0  0  0  0  0  0
    0.5772    0.0777   -1.4571 C   0  0  0  0  0  0  0  0  0  0  0  0
    1.8966    1.2514   -0.1522 H   0  0  0  0  0  0  0  0  0  0  0  0
   -2.1192    1.9383   -1.0876 H   0  0  0  0  0  0  0  0  0  0  0  0
   -2.1187    1.9403    0.7193 H   0  0  0  0  0  0  0  0  0  0  0  0
    1.2581   -0.1872    1.7512 H   0  0  0  0  0  0  0  0  0  0  0  0
   -1.4096   -0.0516   -2.3534 H   0  0  0  0  0  0  0  0  0  0  0  0
   -0.8730   -1.5527   -1.5027 H   0  0  0  0  0  0  0  0  0  0  0  0
    1.2950   -0.7795   -1.5028 H   0  0  0  0  0  0  0  0  0  0  0  0
    0.7605    0.7224   -2.3535 H   0  0  0  0  0  0  0  0  0  0  0  0
   -1.2190   -1.0707    1.7513 H   0  0  0  0  0  0  0  0  0  0  0  0
  1  4  1  0  0  0  0
  1  6  1  0  0  0  0
  1  7  1  1  0  0  0
  1  8  1  0  0  0  0
  2  3  1  0  0  0  0
  2  4  1  0  0  0  0
  2  9  1  0  0  0  0
  2 10  1  0  0  0  0
  3  5  1  0  0  0  0
  3 11  1  0  0  0  0
  3 12  1  1  0  0  0
  4 13  1  0  0  0  0
  4 14  1  0  0  0  0
  5  6  2  0  0  0  0
  5 15  1  0  0  0  0
  6 20  1  0  0  0  0
  8 11  1  0  0  0  0
  8 16  1  0  0  0  0
  8 17  1  0  0  0  0
 11 18  1  0  0  0  0
 11 19  1  0  0  0  0
M  END
