./000994-05-8.hin
 OpenBabel09241315583D

 21 20  0  0  0  0  0  0  0  0999 V2000
   -1.1663   -0.0219    0.6236 C   0  0  0  0  0  0  0  0  0  0  0  0
   -1.8603   -0.4123    1.8256 O   0  0  0  0  0  0  0  0  0  0  0  0
   -1.2118    1.5127    0.7024 C   0  0  0  0  0  0  0  0  0  0  0  0
    0.2660   -0.5359    0.6435 C   0  0  0  0  0  0  0  0  0  0  0  0
   -1.8997   -0.5359   -0.6068 C   0  0  0  0  0  0  0  0  0  0  0  0
   -1.9849   -1.8025    2.0415 C   0  0  0  0  0  0  0  0  0  0  0  0
   -0.5467    2.2150   -0.4496 C   0  0  0  0  0  0  0  0  0  0  0  0
    0.8385   -0.1038   -0.2108 H   0  0  0  0  0  0  0  0  0  0  0  0
    0.7620   -0.2470    1.6004 H   0  0  0  0  0  0  0  0  0  0  0  0
    0.2862   -1.6480    0.5499 H   0  0  0  0  0  0  0  0  0  0  0  0
   -1.4461   -0.1038   -1.5298 H   0  0  0  0  0  0  0  0  0  0  0  0
   -1.8287   -1.6481   -0.6711 H   0  0  0  0  0  0  0  0  0  0  0  0
   -2.9763   -0.2470   -0.5580 H   0  0  0  0  0  0  0  0  0  0  0  0
   -2.5439   -1.8768    3.0096 H   0  0  0  0  0  0  0  0  0  0  0  0
   -2.5697   -2.2895    1.2231 H   0  0  0  0  0  0  0  0  0  0  0  0
   -0.9838   -2.2895    2.1387 H   0  0  0  0  0  0  0  0  0  0  0  0
   -2.2893    1.8213    0.7616 H   0  0  0  0  0  0  0  0  0  0  0  0
   -0.7244    1.8213    1.6651 H   0  0  0  0  0  0  0  0  0  0  0  0
   -0.6282    3.3211   -0.3084 H   0  0  0  0  0  0  0  0  0  0  0  0
    0.5370    1.9535   -0.5146 H   0  0  0  0  0  0  0  0  0  0  0  0
   -1.0322    1.9535   -1.4206 H   0  0  0  0  0  0  0  0  0  0  0  0
  1  2  1  0  0  0  0
  1  3  1  0  0  0  0
  1  4  1  0  0  0  0
  1  5  1  0  0  0  0
  2  6  1  0  0  0  0
  3  7  1  0  0  0  0
  3 17  1  0  0  0  0
  3 18  1  0  0  0  0
  4  8  1  0  0  0  0
  4  9  1  0  0  0  0
  4 10  1  0  0  0  0
  5 11  1  0  0  0  0
  5 12  1  0  0  0  0
  5 13  1  0  0  0  0
  6 14  1  0  0  0  0
  6 15  1  0  0  0  0
  6 16  1  0  0  0  0
  7 19  1  0  0  0  0
  7 20  1  0  0  0  0
  7 21  1  0  0  0  0
M  END
