./001120-21-4.hin
 OpenBabel09241315583D

 35 34  0  0  0  0  0  0  0  0999 V2000
   -2.7779  -10.7848   22.8235 C   0  0  0  0  0  0  0  0  0  0  0  0
   -3.2485  -11.1900   21.8891 H   0  0  0  0  0  0  0  0  0  0  0  0
   -2.7033   -9.2752   22.7406 C   0  0  0  0  0  0  0  0  0  0  0  0
   -3.6523  -12.7398   24.1118 C   0  0  0  0  0  0  0  0  0  0  0  0
   -4.4524  -13.1854   25.3170 C   0  0  0  0  0  0  0  0  0  0  0  0
   -3.5778  -11.2303   24.0288 C   0  0  0  0  0  0  0  0  0  0  0  0
   -4.5270  -14.6948   25.3999 C   0  0  0  0  0  0  0  0  0  0  0  0
   -3.9818  -12.7802   26.2514 H   0  0  0  0  0  0  0  0  0  0  0  0
   -5.4890  -12.7602   25.2583 H   0  0  0  0  0  0  0  0  0  0  0  0
   -2.6157  -13.1649   24.1704 H   0  0  0  0  0  0  0  0  0  0  0  0
   -3.7401   -8.8502   22.6821 H   0  0  0  0  0  0  0  0  0  0  0  0
   -2.2326   -8.8701   23.6750 H   0  0  0  0  0  0  0  0  0  0  0  0
   -1.9036   -8.8296   21.5353 C   0  0  0  0  0  0  0  0  0  0  0  0
   -4.1229  -13.1450   23.1773 H   0  0  0  0  0  0  0  0  0  0  0  0
   -1.7412  -11.2098   22.8821 H   0  0  0  0  0  0  0  0  0  0  0  0
   -5.3271  -15.1418   26.6050 C   0  0  0  0  0  0  0  0  0  0  0  0
   -4.9976  -15.1003   24.4656 H   0  0  0  0  0  0  0  0  0  0  0  0
   -3.4905  -15.1202   25.4588 H   0  0  0  0  0  0  0  0  0  0  0  0
   -0.8668   -9.2544   21.5936 H   0  0  0  0  0  0  0  0  0  0  0  0
   -2.3741   -9.2346   20.6008 H   0  0  0  0  0  0  0  0  0  0  0  0
   -1.8283   -7.3199   21.4511 C   0  0  0  0  0  0  0  0  0  0  0  0
   -5.4041  -16.6442   26.6916 C   0  0  0  0  0  0  0  0  0  0  0  0
   -4.8558  -14.7341   27.5382 H   0  0  0  0  0  0  0  0  0  0  0  0
   -6.3628  -14.7142   26.5451 H   0  0  0  0  0  0  0  0  0  0  0  0
   -1.0329   -6.8717   20.2524 C   0  0  0  0  0  0  0  0  0  0  0  0
   -2.8661   -6.8968   21.3945 H   0  0  0  0  0  0  0  0  0  0  0  0
   -1.3588   -6.9167   22.3872 H   0  0  0  0  0  0  0  0  0  0  0  0
   -4.6145  -10.8052   23.9703 H   0  0  0  0  0  0  0  0  0  0  0  0
   -3.1071  -10.8251   24.9633 H   0  0  0  0  0  0  0  0  0  0  0  0
   -0.9900   -5.7566   20.2095 H   0  0  0  0  0  0  0  0  0  0  0  0
    0.0119   -7.2631   20.3034 H   0  0  0  0  0  0  0  0  0  0  0  0
   -1.4995   -7.2432   19.3080 H   0  0  0  0  0  0  0  0  0  0  0  0
   -4.3823  -17.0872   26.7769 H   0  0  0  0  0  0  0  0  0  0  0  0
   -5.8934  -17.0672   25.7811 H   0  0  0  0  0  0  0  0  0  0  0  0
   -5.9976  -16.9518   27.5861 H   0  0  0  0  0  0  0  0  0  0  0  0
  1  2  1  0  0  0  0
  1  3  1  0  0  0  0
  1  6  1  0  0  0  0
  1 15  1  0  0  0  0
  3 11  1  0  0  0  0
  3 12  1  0  0  0  0
  3 13  1  0  0  0  0
  4  5  1  0  0  0  0
  4  6  1  0  0  0  0
  4 10  1  0  0  0  0
  4 14  1  0  0  0  0
  5  7  1  0  0  0  0
  5  8  1  0  0  0  0
  5  9  1  0  0  0  0
  6 28  1  0  0  0  0
  6 29  1  0  0  0  0
  7 16  1  0  0  0  0
  7 17  1  0  0  0  0
  7 18  1  0  0  0  0
 13 19  1  0  0  0  0
 13 20  1  0  0  0  0
 13 21  1  0  0  0  0
 16 22  1  0  0  0  0
 16 23  1  0  0  0  0
 16 24  1  0  0  0  0
 21 25  1  0  0  0  0
 21 26  1  0  0  0  0
 21 27  1  0  0  0  0
 22 33  1  0  0  0  0
 22 34  1  0  0  0  0
 22 35  1  0  0  0  0
 25 30  1  0  0  0  0
 25 31  1  0  0  0  0
 25 32  1  0  0  0  0
M  END
