./001191-95-3.hin
 OpenBabel09241315583D

 11 11  0  0  0  0  0  0  0  0999 V2000
    0.2326  -26.7324   15.0275 C   0  0  0  0  0  0  0  0  0  0  0  0
    1.7801  -26.7504   15.0275 C   0  0  0  0  0  0  0  0  0  0  0  0
    0.2465  -25.1850   15.0275 C   0  0  0  0  0  0  0  0  0  0  0  0
    1.7700  -25.2264   15.0275 C   0  0  0  0  0  0  0  0  0  0  0  0
    2.6402  -24.3739   15.0275 O   0  0  0  0  0  0  0  0  0  0  0  0
   -0.2227  -27.1785   14.1193 H   0  0  0  0  0  0  0  0  0  0  0  0
   -0.2227  -27.1785   15.9356 H   0  0  0  0  0  0  0  0  0  0  0  0
    2.2387  -27.1956   15.9360 H   0  0  0  0  0  0  0  0  0  0  0  0
    2.2387  -27.1956   14.1190 H   0  0  0  0  0  0  0  0  0  0  0  0
   -0.1892  -24.7173   14.1190 H   0  0  0  0  0  0  0  0  0  0  0  0
   -0.1892  -24.7173   15.9360 H   0  0  0  0  0  0  0  0  0  0  0  0
  1  2  1  0  0  0  0
  1  3  1  0  0  0  0
  1  6  1  0  0  0  0
  1  7  1  0  0  0  0
  2  4  1  0  0  0  0
  2  8  1  0  0  0  0
  2  9  1  0  0  0  0
  3  4  1  0  0  0  0
  3 10  1  0  0  0  0
  3 11  1  0  0  0  0
  4  5  2  0  0  0  0
M  END
