./001634-04-4.hin
 OpenBabel09241315583D

 18 17  0  0  0  0  0  0  0  0999 V2000
   -0.7625    0.2044    0.3979 C   0  0  0  0  0  0  0  0  0  0  0  0
   -1.4461   -0.2396    1.5820 O   0  0  0  0  0  0  0  0  0  0  0  0
   -0.8165    1.7282    0.4915 C   0  0  0  0  0  0  0  0  0  0  0  0
    0.6849   -0.2681    0.3949 C   0  0  0  0  0  0  0  0  0  0  0  0
   -1.4835   -0.2681   -0.8571 C   0  0  0  0  0  0  0  0  0  0  0  0
   -1.5369   -1.6413    1.7392 C   0  0  0  0  0  0  0  0  0  0  0  0
   -0.3057    2.1745   -0.3933 H   0  0  0  0  0  0  0  0  0  0  0  0
   -1.8780    2.0701    0.5176 H   0  0  0  0  0  0  0  0  0  0  0  0
   -0.3084    2.0701    1.4238 H   0  0  0  0  0  0  0  0  0  0  0  0
    1.2579    0.2798   -0.3900 H   0  0  0  0  0  0  0  0  0  0  0  0
    1.1510   -0.0720    1.3898 H   0  0  0  0  0  0  0  0  0  0  0  0
    0.7453   -1.3615    0.1799 H   0  0  0  0  0  0  0  0  0  0  0  0
   -1.0902    0.2798   -1.7457 H   0  0  0  0  0  0  0  0  0  0  0  0
   -1.3275   -1.3615   -1.0169 H   0  0  0  0  0  0  0  0  0  0  0  0
   -2.5782   -0.0720   -0.7633 H   0  0  0  0  0  0  0  0  0  0  0  0
   -2.0931   -1.7718    2.7025 H   0  0  0  0  0  0  0  0  0  0  0  0
   -2.1085   -2.1051    0.8982 H   0  0  0  0  0  0  0  0  0  0  0  0
   -0.5227   -2.1051    1.8137 H   0  0  0  0  0  0  0  0  0  0  0  0
  1  2  1  0  0  0  0
  1  3  1  0  0  0  0
  1  4  1  0  0  0  0
  1  5  1  0  0  0  0
  2  6  1  0  0  0  0
  3  7  1  0  0  0  0
  3  8  1  0  0  0  0
  3  9  1  0  0  0  0
  4 10  1  0  0  0  0
  4 11  1  0  0  0  0
  4 12  1  0  0  0  0
  5 13  1  0  0  0  0
  5 14  1  0  0  0  0
  5 15  1  0  0  0  0
  6 16  1  0  0  0  0
  6 17  1  0  0  0  0
  6 18  1  0  0  0  0
M  END
