./001712-64-7.hin
 OpenBabel09241315583D

 14 13  0  0  0  0  0  0  0  0999 V2000
  -10.0092    0.5651   30.1866 C   0  0  0  0  0  0  0  0  0  0  0  0
  -10.2133    2.0613   30.3125 C   0  0  0  0  0  0  0  0  0  0  0  0
   -8.5506    0.1701   30.2037 C   0  0  0  0  0  0  0  0  0  0  0  0
  -10.6750    0.0346   31.3843 O   0  0  0  0  0  0  0  0  0  0  0  0
  -10.9986   -1.2618   31.4424 N   0  3  0  0  0  0  0  0  0  0  0  0
  -11.5040   -1.5822   32.4703 O   0  0  0  0  0  0  0  0  0  0  0  0
  -10.7641   -1.9438   30.4910 O   0  5  0  0  0  0  0  0  0  0  0  0
  -10.5267    0.1594   29.2741 H   0  0  0  0  0  0  0  0  0  0  0  0
  -11.3019    2.3049   30.3507 H   0  0  0  0  0  0  0  0  0  0  0  0
   -9.7299    2.4468   31.2419 H   0  0  0  0  0  0  0  0  0  0  0  0
   -9.7539    2.5592   29.4252 H   0  0  0  0  0  0  0  0  0  0  0  0
   -8.4460   -0.9352   30.0784 H   0  0  0  0  0  0  0  0  0  0  0  0
   -8.0200    0.6798   29.3641 H   0  0  0  0  0  0  0  0  0  0  0  0
   -8.0735    0.4697   31.1678 H   0  0  0  0  0  0  0  0  0  0  0  0
  1  2  1  0  0  0  0
  1  3  1  0  0  0  0
  1  4  1  0  0  0  0
  1  8  1  0  0  0  0
  2  9  1  0  0  0  0
  2 10  1  0  0  0  0
  2 11  1  0  0  0  0
  3 12  1  0  0  0  0
  3 13  1  0  0  0  0
  3 14  1  0  0  0  0
  4  5  1  0  0  0  0
  5  6  2  0  0  0  0
  5  7  1  0  0  0  0
M  CHG  2   5   1   7  -1
M  END
