./001825-31-6.hin
 OpenBabel09241315583D

 18 19  0  0  0  0  0  0  0  0999 V2000
    5.4303    3.3756   -2.0104 Cl  0  0  0  0  0  0  0  0  0  0  0  0
    0.2697    2.0510   -2.0104 C   0  0  0  0  0  0  0  0  0  0  0  0
    0.2641    3.4239   -2.0104 C   0  0  0  0  0  0  0  0  0  0  0  0
    1.4817    4.1588   -2.0104 C   0  0  0  0  0  0  0  0  0  0  0  0
    2.7136    3.4476   -2.0104 C   0  0  0  0  0  0  0  0  0  0  0  0
    2.6860    2.0256   -2.0104 C   0  0  0  0  0  0  0  0  0  0  0  0
    1.4942    1.3440   -2.0104 C   0  0  0  0  0  0  0  0  0  0  0  0
    1.5128    5.5855   -2.0104 C   0  0  0  0  0  0  0  0  0  0  0  0
    2.7077    6.2710   -2.0104 C   0  0  0  0  0  0  0  0  0  0  0  0
    3.9298    5.5654   -2.0104 C   0  0  0  0  0  0  0  0  0  0  0  0
    3.9336    4.1879   -2.0104 C   0  0  0  0  0  0  0  0  0  0  0  0
   -0.6757    1.4879   -2.0104 H   0  0  0  0  0  0  0  0  0  0  0  0
   -0.6902    3.9739   -2.0104 H   0  0  0  0  0  0  0  0  0  0  0  0
    3.6394    1.4742   -2.0104 H   0  0  0  0  0  0  0  0  0  0  0  0
    1.4792    0.2438   -2.0104 H   0  0  0  0  0  0  0  0  0  0  0  0
    2.7301    7.3720   -2.0104 H   0  0  0  0  0  0  0  0  0  0  0  0
    4.8721    6.1353   -2.0104 H   0  0  0  0  0  0  0  0  0  0  0  0
    0.0611    6.4755   -2.0104 Cl  0  0  0  0  0  0  0  0  0  0  0  0
  1 11  1  0  0  0  0
  2  3  2  0  0  0  0
  2  7  1  0  0  0  0
  2 12  1  0  0  0  0
  3  4  1  0  0  0  0
  3 13  1  0  0  0  0
  4  5  2  0  0  0  0
  4  8  1  0  0  0  0
  5  6  1  0  0  0  0
  5 11  1  0  0  0  0
  6  7  2  0  0  0  0
  6 14  1  0  0  0  0
  7 15  1  0  0  0  0
  8  9  2  0  0  0  0
  8 18  1  0  0  0  0
  9 10  1  0  0  0  0
  9 16  1  0  0  0  0
 10 11  2  0  0  0  0
 10 17  1  0  0  0  0
M  END
