./001878-18-8.hin
 OpenBabel09241315583D

 18 17  0  0  1  0  0  0  0  0999 V2000
   -6.1213   10.3787   -9.1326 C   0  0  0  0  0  0  0  0  0  0  0  0
   -4.6114   12.3630   -9.3162 C   0  0  0  0  0  0  0  0  0  0  0  0
   -4.0193   11.9947  -10.9486 S   0  0  0  0  0  0  0  0  0  0  0  0
   -6.0520   11.8983   -9.2161 C   0  0  2  0  0  0  0  0  0  0  0  0
   -6.7087   12.5452   -8.0127 C   0  0  0  0  0  0  0  0  0  0  0  0
   -6.5996   12.2310  -10.1447 H   0  0  0  0  0  0  0  0  0  0  0  0
   -7.4981    9.8483   -9.4375 C   0  0  0  0  0  0  0  0  0  0  0  0
   -5.3875    9.9448   -9.8658 H   0  0  0  0  0  0  0  0  0  0  0  0
   -5.8061   10.0486   -8.1079 H   0  0  0  0  0  0  0  0  0  0  0  0
   -7.4956    8.7320   -9.3962 H   0  0  0  0  0  0  0  0  0  0  0  0
   -8.2461   10.2245   -8.6984 H   0  0  0  0  0  0  0  0  0  0  0  0
   -7.8256   10.1618  -10.4584 H   0  0  0  0  0  0  0  0  0  0  0  0
   -3.9831   11.8472   -8.5512 H   0  0  0  0  0  0  0  0  0  0  0  0
   -7.7686   12.2058   -7.9231 H   0  0  0  0  0  0  0  0  0  0  0  0
   -6.1682   12.2708   -7.0750 H   0  0  0  0  0  0  0  0  0  0  0  0
   -6.7008   13.6572   -8.1146 H   0  0  0  0  0  0  0  0  0  0  0  0
   -4.5489   13.4626   -9.1315 H   0  0  0  0  0  0  0  0  0  0  0  0
   -2.8133   12.5239  -10.8516 H   0  0  0  0  0  0  0  0  0  0  0  0
  1  4  1  0  0  0  0
  1  7  1  0  0  0  0
  1  8  1  0  0  0  0
  1  9  1  0  0  0  0
  2  3  1  0  0  0  0
  2  4  1  0  0  0  0
  2 13  1  0  0  0  0
  2 17  1  0  0  0  0
  3 18  1  0  0  0  0
  4  5  1  0  0  0  0
  4  6  1  6  0  0  0
  5 14  1  0  0  0  0
  5 15  1  0  0  0  0
  5 16  1  0  0  0  0
  7 10  1  0  0  0  0
  7 11  1  0  0  0  0
  7 12  1  0  0  0  0
M  END
