./002051-60-7.hin
 OpenBabel09241315583D

 22 23  0  0  0  0  0  0  0  0999 V2000
  -12.6466   10.4559   11.5418 C   0  0  0  0  0  0  0  0  0  0  0  0
  -12.5467   11.6912   12.1906 C   0  0  0  0  0  0  0  0  0  0  0  0
  -13.6598   12.2288   12.8447 C   0  0  0  0  0  0  0  0  0  0  0  0
  -14.8687   11.5341   12.8421 C   0  0  0  0  0  0  0  0  0  0  0  0
  -14.9685   10.3024   12.1950 C   0  0  0  0  0  0  0  0  0  0  0  0
  -13.8570    9.7641   11.5465 C   0  0  0  0  0  0  0  0  0  0  0  0
  -11.7685   10.0328   11.0319 H   0  0  0  0  0  0  0  0  0  0  0  0
  -13.5788   13.1970   13.3608 H   0  0  0  0  0  0  0  0  0  0  0  0
  -15.7441   11.9591   13.3548 H   0  0  0  0  0  0  0  0  0  0  0  0
  -13.9332    8.7913   11.0392 H   0  0  0  0  0  0  0  0  0  0  0  0
  -11.2421   12.4279   12.1773 C   0  0  0  0  0  0  0  0  0  0  0  0
  -10.5444   12.7379   13.3529 C   0  0  0  0  0  0  0  0  0  0  0  0
   -9.3302   13.4331   13.2920 C   0  0  0  0  0  0  0  0  0  0  0  0
   -8.8121   13.8193   12.0585 C   0  0  0  0  0  0  0  0  0  0  0  0
   -9.4988   13.5112   10.8837 C   0  0  0  0  0  0  0  0  0  0  0  0
  -10.7051   12.8183   10.9439 C   0  0  0  0  0  0  0  0  0  0  0  0
  -11.1327   12.2723   14.8795 Cl  0  0  0  0  0  0  0  0  0  0  0  0
   -7.8590   14.3667   12.0136 H   0  0  0  0  0  0  0  0  0  0  0  0
   -9.0883   13.8154    9.9096 H   0  0  0  0  0  0  0  0  0  0  0  0
  -11.2499   12.5725   10.0195 H   0  0  0  0  0  0  0  0  0  0  0  0
  -15.9225    9.7553   12.1974 H   0  0  0  0  0  0  0  0  0  0  0  0
   -8.7861   13.6722   14.2185 H   0  0  0  0  0  0  0  0  0  0  0  0
  1  2  2  0  0  0  0
  1  6  1  0  0  0  0
  1  7  1  0  0  0  0
  2  3  1  0  0  0  0
  2 11  1  0  0  0  0
  3  4  2  0  0  0  0
  3  8  1  0  0  0  0
  4  5  1  0  0  0  0
  4  9  1  0  0  0  0
  5  6  2  0  0  0  0
  5 21  1  0  0  0  0
  6 10  1  0  0  0  0
 11 12  2  0  0  0  0
 11 16  1  0  0  0  0
 12 13  1  0  0  0  0
 12 17  1  0  0  0  0
 13 14  2  0  0  0  0
 13 22  1  0  0  0  0
 14 15  1  0  0  0  0
 14 18  1  0  0  0  0
 15 16  2  0  0  0  0
 15 19  1  0  0  0  0
 16 20  1  0  0  0  0
M  END
