./002051-62-9.hin
 OpenBabel09241315583D

 22 23  0  0  0  0  0  0  0  0999 V2000
  -12.6307   10.2124   12.1379 C   0  0  0  0  0  0  0  0  0  0  0  0
  -12.6308   11.6109   12.1380 C   0  0  0  0  0  0  0  0  0  0  0  0
  -13.8419   12.3102   12.1381 C   0  0  0  0  0  0  0  0  0  0  0  0
  -15.0477   11.6103   12.1365 C   0  0  0  0  0  0  0  0  0  0  0  0
  -15.0481   10.2153   12.1380 C   0  0  0  0  0  0  0  0  0  0  0  0
  -13.8397    9.5181   12.1395 C   0  0  0  0  0  0  0  0  0  0  0  0
  -11.6770    9.6641   12.1414 H   0  0  0  0  0  0  0  0  0  0  0  0
  -13.8399   13.4103   12.1347 H   0  0  0  0  0  0  0  0  0  0  0  0
  -15.9999   12.1608   12.1334 H   0  0  0  0  0  0  0  0  0  0  0  0
  -13.8391    8.4182   12.1426 H   0  0  0  0  0  0  0  0  0  0  0  0
  -11.3251   12.3648   12.1380 C   0  0  0  0  0  0  0  0  0  0  0  0
  -11.1470   13.4560   12.9941 C   0  0  0  0  0  0  0  0  0  0  0  0
   -9.9412   14.1543   12.9981 C   0  0  0  0  0  0  0  0  0  0  0  0
   -8.9121   13.7579   12.1380 C   0  0  0  0  0  0  0  0  0  0  0  0
   -9.0833   12.6684   11.2779 C   0  0  0  0  0  0  0  0  0  0  0  0
  -10.2909   11.9734   11.2819 C   0  0  0  0  0  0  0  0  0  0  0  0
   -7.4394   14.6082   12.1380 Cl  0  0  0  0  0  0  0  0  0  0  0  0
   -8.2718   12.3607   10.6014 H   0  0  0  0  0  0  0  0  0  0  0  0
  -10.4328   11.1164   10.6061 H   0  0  0  0  0  0  0  0  0  0  0  0
  -16.0005    9.6654   12.1380 H   0  0  0  0  0  0  0  0  0  0  0  0
  -11.9600   13.7617   13.6699 H   0  0  0  0  0  0  0  0  0  0  0  0
   -9.8019   15.0110   13.6746 H   0  0  0  0  0  0  0  0  0  0  0  0
  1  2  2  0  0  0  0
  1  6  1  0  0  0  0
  1  7  1  0  0  0  0
  2  3  1  0  0  0  0
  2 11  1  0  0  0  0
  3  4  2  0  0  0  0
  3  8  1  0  0  0  0
  4  5  1  0  0  0  0
  4  9  1  0  0  0  0
  5  6  2  0  0  0  0
  5 20  1  0  0  0  0
  6 10  1  0  0  0  0
 11 12  2  0  0  0  0
 11 16  1  0  0  0  0
 12 13  1  0  0  0  0
 12 21  1  0  0  0  0
 13 14  2  0  0  0  0
 13 22  1  0  0  0  0
 14 15  1  0  0  0  0
 14 17  1  0  0  0  0
 15 16  2  0  0  0  0
 15 18  1  0  0  0  0
 16 19  1  0  0  0  0
M  END
