./002216-34-4.hin
 OpenBabel09241315583D

 29 28  0  0  1  0  0  0  0  0999 V2000
   -3.7587   -2.5586    0.4587 C   0  0  0  0  0  0  0  0  0  0  0  0
   -2.3836   -1.9972    0.2050 C   0  0  0  0  0  0  0  0  0  0  0  0
   -2.4094   -0.4858    0.1099 C   0  0  0  0  0  0  0  0  0  0  0  0
   -1.0262    0.0690   -0.1556 C   0  0  0  0  0  0  0  0  0  0  0  0
   -1.0064    1.5921   -0.1845 C   0  0  1  0  0  0  0  0  0  0  0  0
    0.4284    2.0907   -0.0684 C   0  0  0  0  0  0  0  0  0  0  0  0
    0.5036    3.5595    0.2919 C   0  0  0  0  0  0  0  0  0  0  0  0
    1.9316    4.0094    0.4664 C   0  0  0  0  0  0  0  0  0  0  0  0
   -3.7169   -3.6724    0.5274 H   0  0  0  0  0  0  0  0  0  0  0  0
   -4.1765   -2.1616    1.4154 H   0  0  0  0  0  0  0  0  0  0  0  0
   -1.6915   -2.3081    1.0318 H   0  0  0  0  0  0  0  0  0  0  0  0
   -1.9718   -2.4241   -0.7475 H   0  0  0  0  0  0  0  0  0  0  0  0
   -3.1093   -0.1770   -0.7105 H   0  0  0  0  0  0  0  0  0  0  0  0
   -2.8111   -0.0575    1.0660 H   0  0  0  0  0  0  0  0  0  0  0  0
   -0.3305   -0.2954    0.6468 H   0  0  0  0  0  0  0  0  0  0  0  0
   -0.6417   -0.3268   -1.1320 H   0  0  0  0  0  0  0  0  0  0  0  0
   -1.6609    2.1174   -1.4454 C   0  0  0  0  0  0  0  0  0  0  0  0
   -1.5866    1.9711    0.7042 H   0  0  0  0  0  0  0  0  0  0  0  0
    0.9644    1.4983    0.7206 H   0  0  0  0  0  0  0  0  0  0  0  0
    0.9642    1.9124   -1.0374 H   0  0  0  0  0  0  0  0  0  0  0  0
    0.0144    4.1725   -0.5105 H   0  0  0  0  0  0  0  0  0  0  0  0
    1.9675    5.0952    0.7250 H   0  0  0  0  0  0  0  0  0  0  0  0
    2.4294    3.4355    1.2851 H   0  0  0  0  0  0  0  0  0  0  0  0
   -4.4565   -2.2823   -0.3686 H   0  0  0  0  0  0  0  0  0  0  0  0
    2.5125    3.8513   -0.4743 H   0  0  0  0  0  0  0  0  0  0  0  0
   -0.0668    3.7423    1.2409 H   0  0  0  0  0  0  0  0  0  0  0  0
   -1.6606    3.2341   -1.4500 H   0  0  0  0  0  0  0  0  0  0  0  0
   -1.1137    1.7604   -2.3511 H   0  0  0  0  0  0  0  0  0  0  0  0
   -2.7192    1.7677   -1.5114 H   0  0  0  0  0  0  0  0  0  0  0  0
  1  2  1  0  0  0  0
  1  9  1  0  0  0  0
  1 10  1  0  0  0  0
  1 24  1  0  0  0  0
  2  3  1  0  0  0  0
  2 11  1  0  0  0  0
  2 12  1  0  0  0  0
  3  4  1  0  0  0  0
  3 13  1  0  0  0  0
  3 14  1  0  0  0  0
  4  5  1  0  0  0  0
  4 15  1  0  0  0  0
  4 16  1  0  0  0  0
  5  6  1  0  0  0  0
  5 17  1  0  0  0  0
  5 18  1  1  0  0  0
  6  7  1  0  0  0  0
  6 19  1  0  0  0  0
  6 20  1  0  0  0  0
  7  8  1  0  0  0  0
  7 21  1  0  0  0  0
  7 26  1  0  0  0  0
  8 22  1  0  0  0  0
  8 23  1  0  0  0  0
  8 25  1  0  0  0  0
 17 27  1  0  0  0  0
 17 28  1  0  0  0  0
 17 29  1  0  0  0  0
M  END
