./002837-89-0.hin
 OpenBabel09241315583D

  8  7  0  0  1  0  0  0  0  0999 V2000
   -0.2568   -0.7356   -0.0483 C   0  0  2  0  0  0  0  0  0  0  0  0
   -0.2560    0.8546   -0.0385 C   0  0  0  0  0  0  0  0  0  0  0  0
    1.4052   -1.3450   -0.0272 Cl  0  0  0  0  0  0  0  0  0  0  0  0
   -1.5299    1.3576   -0.0617 F   0  0  0  0  0  0  0  0  0  0  0  0
    0.3166    1.3783    1.0879 F   0  0  0  0  0  0  0  0  0  0  0  0
    0.3858    1.4349   -1.0945 F   0  0  0  0  0  0  0  0  0  0  0  0
   -0.9730   -1.1878   -1.1267 F   0  0  0  0  0  0  0  0  0  0  0  0
   -0.7380   -1.0808    0.9084 H   0  0  0  0  0  0  0  0  0  0  0  0
  1  2  1  0  0  0  0
  1  3  1  0  0  0  0
  1  7  1  0  0  0  0
  1  8  1  1  0  0  0
  2  4  1  0  0  0  0
  2  5  1  0  0  0  0
  2  6  1  0  0  0  0
M  END
