./002953-29-9.hin
 OpenBabel09241315583D

 17 16  0  0  0  0  0  0  0  0999 V2000
   -8.9250    1.0418   33.6321 P   0  0  0  0  0  0  0  0  0  0  0  0
   -8.8510    3.1574   33.3501 S   0  0  0  0  0  0  0  0  0  0  0  0
   -7.4816    0.4745   33.2275 O   0  0  0  0  0  0  0  0  0  0  0  0
   -9.5795    0.7210   35.3519 S   0  0  0  0  0  0  0  0  0  0  0  0
   -9.7113    0.4386   32.3723 O   0  0  0  0  0  0  0  0  0  0  0  0
   -8.2617    3.8092   31.7866 C   0  0  0  0  0  0  0  0  0  0  0  0
  -11.0343   -0.0246   32.5635 C   0  0  0  0  0  0  0  0  0  0  0  0
   -6.6133    0.0466   34.2593 C   0  0  0  0  0  0  0  0  0  0  0  0
   -8.3301    4.9125   31.9184 H   0  0  0  0  0  0  0  0  0  0  0  0
   -7.2098    3.5063   31.6066 H   0  0  0  0  0  0  0  0  0  0  0  0
   -8.9146    3.4788   30.9527 H   0  0  0  0  0  0  0  0  0  0  0  0
  -11.0750   -1.0717   32.1625 H   0  0  0  0  0  0  0  0  0  0  0  0
  -11.3065   -0.0045   33.6537 H   0  0  0  0  0  0  0  0  0  0  0  0
  -11.7197    0.6294   31.9627 H   0  0  0  0  0  0  0  0  0  0  0  0
   -6.2855   -0.9946   33.9995 H   0  0  0  0  0  0  0  0  0  0  0  0
   -5.7206    0.7259   34.2637 H   0  0  0  0  0  0  0  0  0  0  0  0
   -7.1405    0.0625   35.2516 H   0  0  0  0  0  0  0  0  0  0  0  0
  1  2  1  0  0  0  0
  1  3  1  0  0  0  0
  1  4  2  0  0  0  0
  1  5  1  0  0  0  0
  2  6  1  0  0  0  0
  3  8  1  0  0  0  0
  5  7  1  0  0  0  0
  6  9  1  0  0  0  0
  6 10  1  0  0  0  0
  6 11  1  0  0  0  0
  7 12  1  0  0  0  0
  7 13  1  0  0  0  0
  7 14  1  0  0  0  0
  8 15  1  0  0  0  0
  8 16  1  0  0  0  0
  8 17  1  0  0  0  0
M  END
