./003031-73-0.hin
 OpenBabel09241315583D

  7  6  0  0  0  0  0  0  0  0999 V2000
    0.6013    1.5670   -0.8041 C   0  0  0  0  0  0  0  0  0  0  0  0
    0.5283    2.6743   -0.6778 H   0  0  0  0  0  0  0  0  0  0  0  0
    1.6626    1.2238   -0.8113 H   0  0  0  0  0  0  0  0  0  0  0  0
   -0.0698    1.0612    0.3582 O   0  0  0  0  0  0  0  0  0  0  0  0
   -0.0488   -0.2513    0.3218 O   0  0  0  0  0  0  0  0  0  0  0  0
   -0.5195   -0.5242    1.1371 H   0  0  0  0  0  0  0  0  0  0  0  0
    0.0768    1.2238   -1.7269 H   0  0  0  0  0  0  0  0  0  0  0  0
  1  2  1  0  0  0  0
  1  3  1  0  0  0  0
  1  4  1  0  0  0  0
  1  7  1  0  0  0  0
  4  5  1  0  0  0  0
  5  6  1  0  0  0  0
M  END
