./003073-66-3.hin
 OpenBabel09241315583D

 27 27  0  0  1  0  0  0  0  0999 V2000
   -1.1469   -0.6744   -0.3970 C   0  0  0  0  0  0  0  0  0  0  0  0
    1.0849   -0.7212    0.7298 C   0  0  0  0  0  0  0  0  0  0  0  0
    1.1084    0.7919    0.7409 C   0  0  0  0  0  0  0  0  0  0  0  0
   -0.3431   -1.2437    0.7616 C   0  0  2  0  0  0  0  0  0  0  0  0
    0.3052    1.3690   -0.4048 C   0  0  0  0  0  0  0  0  0  0  0  0
   -1.1338    0.8536   -0.4469 C   0  0  0  0  0  0  0  0  0  0  0  0
   -2.2079   -1.0292   -0.3203 H   0  0  0  0  0  0  0  0  0  0  0  0
   -0.7268   -1.0698   -1.3598 H   0  0  0  0  0  0  0  0  0  0  0  0
    1.6470   -1.1148    1.6161 H   0  0  0  0  0  0  0  0  0  0  0  0
    1.5999   -1.1000   -0.1918 H   0  0  0  0  0  0  0  0  0  0  0  0
    2.1689    1.1495    0.6644 H   0  0  0  0  0  0  0  0  0  0  0  0
    0.7002    1.1663    1.7166 H   0  0  0  0  0  0  0  0  0  0  0  0
   -0.8207   -0.9119    1.7269 H   0  0  0  0  0  0  0  0  0  0  0  0
   -0.3560   -2.7568    0.7166 C   0  0  0  0  0  0  0  0  0  0  0  0
    0.8085    1.1055   -1.3730 H   0  0  0  0  0  0  0  0  0  0  0  0
    0.2912    2.4874   -0.3250 H   0  0  0  0  0  0  0  0  0  0  0  0
   -1.9422    1.4349    0.7032 C   0  0  0  0  0  0  0  0  0  0  0  0
   -1.7726    1.3007   -1.7578 C   0  0  0  0  0  0  0  0  0  0  0  0
   -1.2089    0.8897   -2.6292 H   0  0  0  0  0  0  0  0  0  0  0  0
   -2.8276    0.9403   -1.8146 H   0  0  0  0  0  0  0  0  0  0  0  0
   -1.7711    2.4148   -1.8266 H   0  0  0  0  0  0  0  0  0  0  0  0
    0.2130   -3.1745    1.5817 H   0  0  0  0  0  0  0  0  0  0  0  0
   -1.4045   -3.1376    0.7626 H   0  0  0  0  0  0  0  0  0  0  0  0
    0.1132   -3.1275   -0.2265 H   0  0  0  0  0  0  0  0  0  0  0  0
   -1.9635    2.5493    0.6342 H   0  0  0  0  0  0  0  0  0  0  0  0
   -2.9921    1.0564    0.6663 H   0  0  0  0  0  0  0  0  0  0  0  0
   -1.4970    1.1502    1.6861 H   0  0  0  0  0  0  0  0  0  0  0  0
  1  4  1  0  0  0  0
  1  6  1  0  0  0  0
  1  7  1  0  0  0  0
  1  8  1  0  0  0  0
  2  3  1  0  0  0  0
  2  4  1  0  0  0  0
  2  9  1  0  0  0  0
  2 10  1  0  0  0  0
  3  5  1  0  0  0  0
  3 11  1  0  0  0  0
  3 12  1  0  0  0  0
  4 13  1  1  0  0  0
  4 14  1  0  0  0  0
  5  6  1  0  0  0  0
  5 15  1  0  0  0  0
  5 16  1  0  0  0  0
  6 17  1  0  0  0  0
  6 18  1  0  0  0  0
 14 22  1  0  0  0  0
 14 23  1  0  0  0  0
 14 24  1  0  0  0  0
 17 25  1  0  0  0  0
 17 26  1  0  0  0  0
 17 27  1  0  0  0  0
 18 19  1  0  0  0  0
 18 20  1  0  0  0  0
 18 21  1  0  0  0  0
M  END
