./003221-61-2.hin
 OpenBabel09241315583D

 29 28  0  0  0  0  0  0  0  0999 V2000
   -4.0958   -2.6305    0.2596 C   0  0  0  0  0  0  0  0  0  0  0  0
   -2.6993   -2.0797    0.1299 C   0  0  0  0  0  0  0  0  0  0  0  0
   -2.6918   -0.5665    0.1780 C   0  0  0  0  0  0  0  0  0  0  0  0
   -1.2874   -0.0178    0.0471 C   0  0  0  0  0  0  0  0  0  0  0  0
   -1.2816    1.4954    0.0965 C   0  0  0  0  0  0  0  0  0  0  0  0
    0.1241    2.0409   -0.0368 C   0  0  0  0  0  0  0  0  0  0  0  0
    0.1655    3.5605    0.0387 C   0  0  0  0  0  0  0  0  0  0  0  0
    1.5768    4.0293    0.3304 C   0  0  0  0  0  0  0  0  0  0  0  0
   -4.0784   -3.7464    0.2218 H   0  0  0  0  0  0  0  0  0  0  0  0
   -4.5548   -2.3176    1.2286 H   0  0  0  0  0  0  0  0  0  0  0  0
   -2.0568   -2.4828    0.9570 H   0  0  0  0  0  0  0  0  0  0  0  0
   -2.2463   -2.4248   -0.8371 H   0  0  0  0  0  0  0  0  0  0  0  0
   -3.3327   -0.1617   -0.6491 H   0  0  0  0  0  0  0  0  0  0  0  0
   -3.1428   -0.2196    1.1450 H   0  0  0  0  0  0  0  0  0  0  0  0
   -0.6466   -0.4239    0.8737 H   0  0  0  0  0  0  0  0  0  0  0  0
   -0.8369   -0.3642   -0.9203 H   0  0  0  0  0  0  0  0  0  0  0  0
   -1.9260    1.8989   -0.7284 H   0  0  0  0  0  0  0  0  0  0  0  0
   -1.7301    1.8406    1.0653 H   0  0  0  0  0  0  0  0  0  0  0  0
    0.7607    1.6151    0.7841 H   0  0  0  0  0  0  0  0  0  0  0  0
    0.5692    1.7036   -1.0096 H   0  0  0  0  0  0  0  0  0  0  0  0
   -0.3384    4.1923   -1.2420 C   0  0  0  0  0  0  0  0  0  0  0  0
    1.6134    5.1444    0.3742 H   0  0  0  0  0  0  0  0  0  0  0  0
    1.9290    3.6243    1.3094 H   0  0  0  0  0  0  0  0  0  0  0  0
   -4.7448   -2.2596   -0.5703 H   0  0  0  0  0  0  0  0  0  0  0  0
    2.2766    3.6834   -0.4679 H   0  0  0  0  0  0  0  0  0  0  0  0
   -0.5002    3.8931    0.8853 H   0  0  0  0  0  0  0  0  0  0  0  0
   -0.3091    5.3057   -1.1609 H   0  0  0  0  0  0  0  0  0  0  0  0
    0.2964    3.8850   -2.1078 H   0  0  0  0  0  0  0  0  0  0  0  0
   -1.3906    3.8802   -1.4465 H   0  0  0  0  0  0  0  0  0  0  0  0
  1  2  1  0  0  0  0
  1  9  1  0  0  0  0
  1 10  1  0  0  0  0
  1 24  1  0  0  0  0
  2  3  1  0  0  0  0
  2 11  1  0  0  0  0
  2 12  1  0  0  0  0
  3  4  1  0  0  0  0
  3 13  1  0  0  0  0
  3 14  1  0  0  0  0
  4  5  1  0  0  0  0
  4 15  1  0  0  0  0
  4 16  1  0  0  0  0
  5  6  1  0  0  0  0
  5 17  1  0  0  0  0
  5 18  1  0  0  0  0
  6  7  1  0  0  0  0
  6 19  1  0  0  0  0
  6 20  1  0  0  0  0
  7  8  1  0  0  0  0
  7 21  1  0  0  0  0
  7 26  1  0  0  0  0
  8 22  1  0  0  0  0
  8 23  1  0  0  0  0
  8 25  1  0  0  0  0
 21 27  1  0  0  0  0
 21 28  1  0  0  0  0
 21 29  1  0  0  0  0
M  END
