./003296-50-2.hin
 OpenBabel09241315583D

 25 26  0  0  1  0  0  0  0  0999 V2000
    2.2143    0.3909   -1.5439 C   0  0  1  0  0  0  0  0  0  0  0  0
    2.6299   -0.0583   -0.1610 C   0  0  0  0  0  0  0  0  0  0  0  0
    3.7445    0.8316    0.3725 C   0  0  0  0  0  0  0  0  0  0  0  0
    0.7970    0.0517   -1.9894 C   0  0  0  0  0  0  0  0  0  0  0  0
    3.7317    2.3727   -1.6418 C   0  0  0  0  0  0  0  0  0  0  0  0
    2.2878    1.9233   -1.6429 C   0  0  1  0  0  0  0  0  0  0  0  0
    1.4541    2.2623   -2.8726 C   0  0  0  0  0  0  0  0  0  0  0  0
    0.4003    1.1569   -2.9708 C   0  0  0  0  0  0  0  0  0  0  0  0
    2.9333   -0.0481   -2.2913 H   0  0  0  0  0  0  0  0  0  0  0  0
    2.9758   -1.1236   -0.2021 H   0  0  0  0  0  0  0  0  0  0  0  0
    1.7570   -0.0211    0.5413 H   0  0  0  0  0  0  0  0  0  0  0  0
    4.4239    0.2242    1.0254 H   0  0  0  0  0  0  0  0  0  0  0  0
    3.2985    1.6358    1.0155 H   0  0  0  0  0  0  0  0  0  0  0  0
    0.1006    0.0379   -1.1142 H   0  0  0  0  0  0  0  0  0  0  0  0
    0.7552   -0.9539   -2.4732 H   0  0  0  0  0  0  0  0  0  0  0  0
    3.7916    3.4380   -1.2987 H   0  0  0  0  0  0  0  0  0  0  0  0
    4.1539    2.3354   -2.6796 H   0  0  0  0  0  0  0  0  0  0  0  0
    1.7783    2.3623   -0.7396 H   0  0  0  0  0  0  0  0  0  0  0  0
    2.0926    2.2762   -3.7910 H   0  0  0  0  0  0  0  0  0  0  0  0
    0.9786    3.2679   -2.7738 H   0  0  0  0  0  0  0  0  0  0  0  0
    0.3525    0.7577   -4.0138 H   0  0  0  0  0  0  0  0  0  0  0  0
   -0.6126    1.5561   -2.7172 H   0  0  0  0  0  0  0  0  0  0  0  0
    4.5629    1.4828   -0.7273 C   0  0  0  0  0  0  0  0  0  0  0  0
    5.0508    0.6787   -1.3391 H   0  0  0  0  0  0  0  0  0  0  0  0
    5.3834    2.0904   -0.2640 H   0  0  0  0  0  0  0  0  0  0  0  0
  1  2  1  0  0  0  0
  1  4  1  0  0  0  0
  1  6  1  0  0  0  0
  1  9  1  6  0  0  0
  2  3  1  0  0  0  0
  2 10  1  0  0  0  0
  2 11  1  0  0  0  0
  3 12  1  0  0  0  0
  3 13  1  0  0  0  0
  3 23  1  0  0  0  0
  4  8  1  0  0  0  0
  4 14  1  0  0  0  0
  4 15  1  0  0  0  0
  5  6  1  0  0  0  0
  5 16  1  0  0  0  0
  5 17  1  0  0  0  0
  5 23  1  0  0  0  0
  6  7  1  0  0  0  0
  6 18  1  1  0  0  0
  7  8  1  0  0  0  0
  7 19  1  0  0  0  0
  7 20  1  0  0  0  0
  8 21  1  0  0  0  0
  8 22  1  0  0  0  0
 23 24  1  0  0  0  0
 23 25  1  0  0  0  0
M  END
