./003710-84-7.hin
 OpenBabel09241315583D

 17 16  0  0  0  0  0  0  0  0999 V2000
    1.5496    4.1100    0.2273 N   0  0  0  0  0  0  0  0  0  0  0  0
    1.3894    5.5579    0.4869 C   0  0  0  0  0  0  0  0  0  0  0  0
    1.7405    5.7234    1.5430 H   0  0  0  0  0  0  0  0  0  0  0  0
   -0.0454    6.0329    0.3541 C   0  0  0  0  0  0  0  0  0  0  0  0
    2.0382    6.1726   -0.2006 H   0  0  0  0  0  0  0  0  0  0  0  0
    2.9729    3.7338    0.3758 C   0  0  0  0  0  0  0  0  0  0  0  0
    3.2499    3.9844    1.4372 H   0  0  0  0  0  0  0  0  0  0  0  0
    3.6313    4.3376   -0.3121 H   0  0  0  0  0  0  0  0  0  0  0  0
    3.2300    2.2599    0.1242 C   0  0  0  0  0  0  0  0  0  0  0  0
    1.1499    3.8396   -1.0307 O   0  0  0  0  0  0  0  0  0  0  0  0
   -0.4244    5.8589   -0.6819 H   0  0  0  0  0  0  0  0  0  0  0  0
   -0.7139    5.4985    1.0706 H   0  0  0  0  0  0  0  0  0  0  0  0
   -0.0864    7.1266    0.5739 H   0  0  0  0  0  0  0  0  0  0  0  0
    2.9420    1.9814   -0.9183 H   0  0  0  0  0  0  0  0  0  0  0  0
    4.3180    2.0530    0.2649 H   0  0  0  0  0  0  0  0  0  0  0  0
    2.6500    1.6234    0.8343 H   0  0  0  0  0  0  0  0  0  0  0  0
    0.4223    3.2012   -0.9208 H   0  0  0  0  0  0  0  0  0  0  0  0
  1  2  1  0  0  0  0
  1  6  1  0  0  0  0
  1 10  1  0  0  0  0
  2  3  1  0  0  0  0
  2  4  1  0  0  0  0
  2  5  1  0  0  0  0
  4 11  1  0  0  0  0
  4 12  1  0  0  0  0
  4 13  1  0  0  0  0
  6  7  1  0  0  0  0
  6  8  1  0  0  0  0
  6  9  1  0  0  0  0
  9 14  1  0  0  0  0
  9 15  1  0  0  0  0
  9 16  1  0  0  0  0
 10 17  1  0  0  0  0
M  END
