./003779-61-1.hin
 OpenBabel09241315583D

 26 25  0  0  0  0  0  0  0  0999 V2000
   -0.2644   -1.3184   -2.0084 C   0  0  0  0  0  0  0  0  0  0  0  0
   -0.0571   -1.0999   -0.5552 C   0  0  0  0  0  0  0  0  0  0  0  0
   -0.0595    0.1154    0.0230 C   0  0  0  0  0  0  0  0  0  0  0  0
   -0.2219    1.4148   -0.6740 C   0  0  0  0  0  0  0  0  0  0  0  0
   -1.5320    2.0401   -0.3642 C   0  0  0  0  0  0  0  0  0  0  0  0
   -2.2602    2.7537   -1.2370 C   0  0  0  0  0  0  0  0  0  0  0  0
   -3.5560    3.3621   -0.8468 C   0  0  0  0  0  0  0  0  0  0  0  0
   -1.8395    2.9869   -2.6401 C   0  0  0  0  0  0  0  0  0  0  0  0
    0.1681   -2.2854    0.2677 C   0  0  0  0  0  0  0  0  0  0  0  0
   -0.8351   -0.4783   -2.4749 H   0  0  0  0  0  0  0  0  0  0  0  0
    0.0764    0.2025    1.1154 H   0  0  0  0  0  0  0  0  0  0  0  0
   -1.8896    1.8884    0.6678 H   0  0  0  0  0  0  0  0  0  0  0  0
   -4.3750    2.9677   -1.4990 H   0  0  0  0  0  0  0  0  0  0  0  0
   -3.8146    3.1397    0.2171 H   0  0  0  0  0  0  0  0  0  0  0  0
   -3.5123    4.4727   -0.9752 H   0  0  0  0  0  0  0  0  0  0  0  0
   -1.7583    2.0145   -3.1891 H   0  0  0  0  0  0  0  0  0  0  0  0
   -2.5735    3.6334   -3.1805 H   0  0  0  0  0  0  0  0  0  0  0  0
   -0.8398    3.4881   -2.6723 H   0  0  0  0  0  0  0  0  0  0  0  0
    0.0425   -2.1298    1.3548 H   0  0  0  0  0  0  0  0  0  0  0  0
    0.5156   -3.4858   -0.1987 C   0  0  0  0  0  0  0  0  0  0  0  0
    0.7230   -1.4078   -2.5272 H   0  0  0  0  0  0  0  0  0  0  0  0
    0.6790   -4.3412    0.4696 H   0  0  0  0  0  0  0  0  0  0  0  0
    0.6639   -3.6963   -1.2658 H   0  0  0  0  0  0  0  0  0  0  0  0
    0.5945    2.1103   -0.3235 H   0  0  0  0  0  0  0  0  0  0  0  0
   -0.0872    1.3000   -1.7837 H   0  0  0  0  0  0  0  0  0  0  0  0
   -0.8400   -2.2612   -2.1847 H   0  0  0  0  0  0  0  0  0  0  0  0
  1  2  1  0  0  0  0
  1 10  1  0  0  0  0
  1 21  1  0  0  0  0
  1 26  1  0  0  0  0
  2  3  2  0  0  0  0
  2  9  1  0  0  0  0
  3  4  1  0  0  0  0
  3 11  1  0  0  0  0
  4  5  1  0  0  0  0
  4 24  1  0  0  0  0
  4 25  1  0  0  0  0
  5  6  2  0  0  0  0
  5 12  1  0  0  0  0
  6  7  1  0  0  0  0
  6  8  1  0  0  0  0
  7 13  1  0  0  0  0
  7 14  1  0  0  0  0
  7 15  1  0  0  0  0
  8 16  1  0  0  0  0
  8 17  1  0  0  0  0
  8 18  1  0  0  0  0
  9 19  1  0  0  0  0
  9 20  2  0  0  0  0
 20 22  1  0  0  0  0
 20 23  1  0  0  0  0
M  END
