./004049-81-4.hin
 OpenBabel09241315583D

 19 18  0  0  0  0  0  0  0  0999 V2000
   -0.0994   22.0999    7.1556 C   0  0  0  0  0  0  0  0  0  0  0  0
   -0.6032   20.9136    6.8241 C   0  0  0  0  0  0  0  0  0  0  0  0
   -1.5840   16.5207    8.0666 C   0  0  0  0  0  0  0  0  0  0  0  0
   -1.6770   17.7349    8.6170 C   0  0  0  0  0  0  0  0  0  0  0  0
   -1.8019   18.9698    7.7897 C   0  0  0  0  0  0  0  0  0  0  0  0
   -1.4990   15.6072    8.6687 H   0  0  0  0  0  0  0  0  0  0  0  0
   -1.5884   16.3651    6.9804 H   0  0  0  0  0  0  0  0  0  0  0  0
   -0.4730   19.6951    7.6601 C   0  0  0  0  0  0  0  0  0  0  0  0
   -2.1818   18.7095    6.7654 H   0  0  0  0  0  0  0  0  0  0  0  0
   -0.0851   19.9532    8.6814 H   0  0  0  0  0  0  0  0  0  0  0  0
   -1.1485   20.7713    5.8758 H   0  0  0  0  0  0  0  0  0  0  0  0
   -0.1984   22.9799    6.5069 H   0  0  0  0  0  0  0  0  0  0  0  0
    0.4452   22.2750    8.0927 H   0  0  0  0  0  0  0  0  0  0  0  0
   -1.6810   17.9411   10.0860 C   0  0  0  0  0  0  0  0  0  0  0  0
   -2.5558   19.6569    8.2595 H   0  0  0  0  0  0  0  0  0  0  0  0
    0.2789   19.0081    7.1838 H   0  0  0  0  0  0  0  0  0  0  0  0
   -0.8635   18.6465   10.3790 H   0  0  0  0  0  0  0  0  0  0  0  0
   -1.5324   16.9798   10.6358 H   0  0  0  0  0  0  0  0  0  0  0  0
   -2.6561   18.3853   10.4078 H   0  0  0  0  0  0  0  0  0  0  0  0
  1  2  2  0  0  0  0
  1 12  1  0  0  0  0
  1 13  1  0  0  0  0
  2  8  1  0  0  0  0
  2 11  1  0  0  0  0
  3  4  2  0  0  0  0
  3  6  1  0  0  0  0
  3  7  1  0  0  0  0
  4  5  1  0  0  0  0
  4 14  1  0  0  0  0
  5  8  1  0  0  0  0
  5  9  1  0  0  0  0
  5 15  1  0  0  0  0
  8 10  1  0  0  0  0
  8 16  1  0  0  0  0
 14 17  1  0  0  0  0
 14 18  1  0  0  0  0
 14 19  1  0  0  0  0
M  END
