./004164-28-7.hin
  ACCLDraw05131601263D

 12 11  0  0  0  0  0  0  0  0999 V2000
   12.1776  -15.2536   -0.2067 O   0  0  0  0  0  0  0  0  0  0  0  0
   12.8118  -13.5566   -1.5342 N   0  0  3  0  0  0  0  0  0  0  0  0
   12.3037  -12.4187   -2.2909 C   0  0  3  0  0  0  0  0  0  0  0  0
   13.6231  -14.4652   -2.3354 C   0  0  3  0  0  0  0  0  0  0  0  0
   11.6553  -12.7359   -3.1506 H   0  0  0  0  0  0  0  0  0  0  0  0
   11.7192  -11.7292   -1.6249 H   0  0  0  0  0  0  0  0  0  0  0  0
   13.2028  -11.8730   -2.6812 H   0  0  0  0  0  0  0  0  0  0  0  0
   13.0494  -14.8986   -3.1975 H   0  0  0  0  0  0  0  0  0  0  0  0
   14.4833  -13.8595   -2.7247 H   0  0  0  0  0  0  0  0  0  0  0  0
   14.0229  -15.3020   -1.7025 H   0  0  0  0  0  0  0  0  0  0  0  0
   11.9334  -14.1433   -0.5999 N   0  3  0  0  0  0  0  0  0  0  0  0
   11.0311  -13.4752   -0.1679 O   0  5  0  0  0  0  0  0  0  0  0  0
  1 11  2  0  0  0  0
  2  3  1  0  0  0  0
  2  4  1  0  0  0  0
  2 11  1  0  0  0  0
  3  5  1  0  0  0  0
  3  6  1  0  0  0  0
  3  7  1  0  0  0  0
  4  8  1  0  0  0  0
  4  9  1  0  0  0  0
  4 10  1  0  0  0  0
 11 12  1  0  0  0  0
M  CHG  2  11   1  12  -1
M  END