./004549-74-0.hin
 OpenBabel09241315583D

 16 15  0  0  0  0  0  0  0  0999 V2000
   -1.7694   -1.0494   20.9535 H   0  0  0  0  0  0  0  0  0  0  0  0
   -1.7664    0.0569   20.9535 C   0  0  0  0  0  0  0  0  0  0  0  0
   -0.5877    0.6824   20.9535 C   0  0  0  0  0  0  0  0  0  0  0  0
   -3.0839    0.6722   20.9535 C   0  0  0  0  0  0  0  0  0  0  0  0
   -4.3861   -1.5067   20.9535 C   0  0  0  0  0  0  0  0  0  0  0  0
   -4.2272   -0.0434   20.9535 C   0  0  0  0  0  0  0  0  0  0  0  0
   -5.1881    0.5048   20.9535 H   0  0  0  0  0  0  0  0  0  0  0  0
   -3.4181   -2.0617   20.9535 H   0  0  0  0  0  0  0  0  0  0  0  0
   -4.9650   -1.8223   21.8593 H   0  0  0  0  0  0  0  0  0  0  0  0
   -4.9650   -1.8223   20.0476 H   0  0  0  0  0  0  0  0  0  0  0  0
   -3.1932    2.1578   20.9535 C   0  0  0  0  0  0  0  0  0  0  0  0
    0.3547    0.1174   20.9535 H   0  0  0  0  0  0  0  0  0  0  0  0
   -0.4598    1.7713   20.9535 H   0  0  0  0  0  0  0  0  0  0  0  0
   -2.1988    2.6622   20.9535 H   0  0  0  0  0  0  0  0  0  0  0  0
   -3.7535    2.5014   20.0478 H   0  0  0  0  0  0  0  0  0  0  0  0
   -3.7535    2.5014   21.8592 H   0  0  0  0  0  0  0  0  0  0  0  0
  1  2  1  0  0  0  0
  2  3  2  0  0  0  0
  2  4  1  0  0  0  0
  3 12  1  0  0  0  0
  3 13  1  0  0  0  0
  4  6  2  0  0  0  0
  4 11  1  0  0  0  0
  5  6  1  0  0  0  0
  5  8  1  0  0  0  0
  5  9  1  0  0  0  0
  5 10  1  0  0  0  0
  6  7  1  0  0  0  0
 11 14  1  0  0  0  0
 11 15  1  0  0  0  0
 11 16  1  0  0  0  0
M  END
