./004551-51-3.hin
 OpenBabel09241315583D

 25 26  0  0  1  0  0  0  0  0999 V2000
    3.8942    1.8153   -3.0889 H   0  0  0  0  0  0  0  0  0  0  0  0
    2.5346    0.7429   -1.7745 C   0  0  1  0  0  0  0  0  0  0  0  0
    2.7276    0.6243   -0.2736 C   0  0  0  0  0  0  0  0  0  0  0  0
    4.1708    0.8495    0.1247 C   0  0  0  0  0  0  0  0  0  0  0  0
    1.0566    0.6807   -2.1599 C   0  0  0  0  0  0  0  0  0  0  0  0
    3.7316    2.9187   -1.2528 C   0  0  0  0  0  0  0  0  0  0  0  0
    3.0985    2.0601   -2.3327 C   0  0  2  0  0  0  0  0  0  0  0  0
    1.9511    2.7879   -3.0332 C   0  0  0  0  0  0  0  0  0  0  0  0
    0.6651    2.0425   -2.7120 C   0  0  0  0  0  0  0  0  0  0  0  0
    3.0780   -0.1134   -2.2606 H   0  0  0  0  0  0  0  0  0  0  0  0
    2.4038   -0.3966    0.0601 H   0  0  0  0  0  0  0  0  0  0  0  0
    2.0718    1.3683    0.2508 H   0  0  0  0  0  0  0  0  0  0  0  0
    4.7885   -0.0178   -0.2294 H   0  0  0  0  0  0  0  0  0  0  0  0
    4.2398    0.8630    1.2442 H   0  0  0  0  0  0  0  0  0  0  0  0
    0.4208    0.4112   -1.2799 H   0  0  0  0  0  0  0  0  0  0  0  0
    0.9004   -0.1102   -2.9367 H   0  0  0  0  0  0  0  0  0  0  0  0
    2.9342    3.3220   -0.5745 H   0  0  0  0  0  0  0  0  0  0  0  0
    4.2370    3.7987   -1.7308 H   0  0  0  0  0  0  0  0  0  0  0  0
    2.1266    2.7968   -4.1388 H   0  0  0  0  0  0  0  0  0  0  0  0
    1.8857    3.8536   -2.6997 H   0  0  0  0  0  0  0  0  0  0  0  0
    0.0257    1.9363   -3.6229 H   0  0  0  0  0  0  0  0  0  0  0  0
    0.0702    2.6100   -1.9519 H   0  0  0  0  0  0  0  0  0  0  0  0
    4.7422    2.1374   -0.4403 C   0  0  0  0  0  0  0  0  0  0  0  0
    5.6271    1.8993   -1.0879 H   0  0  0  0  0  0  0  0  0  0  0  0
    5.1152    2.7855    0.3958 H   0  0  0  0  0  0  0  0  0  0  0  0
  2  3  1  0  0  0  0
  2  5  1  0  0  0  0
  2  7  1  0  0  0  0
  2 10  1  6  0  0  0
  3  4  1  0  0  0  0
  3 11  1  0  0  0  0
  3 12  1  0  0  0  0
  4 13  1  0  0  0  0
  4 14  1  0  0  0  0
  4 23  1  0  0  0  0
  5  9  1  0  0  0  0
  5 15  1  0  0  0  0
  5 16  1  0  0  0  0
  6  7  1  0  0  0  0
  6 17  1  0  0  0  0
  6 18  1  0  0  0  0
  6 23  1  0  0  0  0
  7  1  1  6  0  0  0
  7  8  1  0  0  0  0
  8  9  1  0  0  0  0
  8 19  1  0  0  0  0
  8 20  1  0  0  0  0
  9 21  1  0  0  0  0
  9 22  1  0  0  0  0
 23 24  1  0  0  0  0
 23 25  1  0  0  0  0
M  END
