./005194-51-4.hin
 OpenBabel09241315583D

 16 15  0  0  0  0  0  0  0  0999 V2000
   -0.5855  -16.4181   23.7504 C   0  0  0  0  0  0  0  0  0  0  0  0
   -0.6002  -15.0777   23.7283 C   0  0  0  0  0  0  0  0  0  0  0  0
   -1.8103  -14.2975   23.8822 C   0  0  0  0  0  0  0  0  0  0  0  0
    0.3342  -14.5066   23.5883 H   0  0  0  0  0  0  0  0  0  0  0  0
   -1.5161  -16.9934   23.8899 H   0  0  0  0  0  0  0  0  0  0  0  0
   -1.8250  -12.9570   23.8602 C   0  0  0  0  0  0  0  0  0  0  0  0
   -2.7447  -14.8686   24.0222 H   0  0  0  0  0  0  0  0  0  0  0  0
   -3.0480  -12.1480   24.0154 C   0  0  0  0  0  0  0  0  0  0  0  0
   -0.8944  -12.3818   23.7207 H   0  0  0  0  0  0  0  0  0  0  0  0
   -2.9523  -11.4748   24.9046 H   0  0  0  0  0  0  0  0  0  0  0  0
   -3.2011  -11.5068   23.1106 H   0  0  0  0  0  0  0  0  0  0  0  0
   -3.9566  -12.7843   24.1527 H   0  0  0  0  0  0  0  0  0  0  0  0
    0.6375  -17.2272   23.5952 C   0  0  0  0  0  0  0  0  0  0  0  0
    0.7907  -17.8683   24.5000 H   0  0  0  0  0  0  0  0  0  0  0  0
    1.5461  -16.5909   23.4577 H   0  0  0  0  0  0  0  0  0  0  0  0
    0.5417  -17.9005   22.7060 H   0  0  0  0  0  0  0  0  0  0  0  0
  1  2  2  0  0  0  0
  1  5  1  0  0  0  0
  1 13  1  0  0  0  0
  2  3  1  0  0  0  0
  2  4  1  0  0  0  0
  3  6  2  0  0  0  0
  3  7  1  0  0  0  0
  6  8  1  0  0  0  0
  6  9  1  0  0  0  0
  8 10  1  0  0  0  0
  8 11  1  0  0  0  0
  8 12  1  0  0  0  0
 13 14  1  0  0  0  0
 13 15  1  0  0  0  0
 13 16  1  0  0  0  0
M  END
