./006004-38-2.hin
 OpenBabel09241315583D

 26 28  0  0  1  0  0  0  0  0999 V2000
   -0.8700   -0.2866   -0.2412 C   0  0  1  0  0  0  0  0  0  0  0  0
   -0.8678    1.2571   -0.2462 C   0  0  2  0  0  0  0  0  0  0  0  0
   -0.3839    1.7007   -1.6421 C   0  0  0  0  0  0  0  0  0  0  0  0
    1.1145    1.3411   -1.6434 C   0  0  0  0  0  0  0  0  0  0  0  0
    1.3466    0.7257   -0.2481 C   0  0  2  0  0  0  0  0  0  0  0  0
    0.6480   -0.6509   -0.2425 C   0  0  1  0  0  0  0  0  0  0  0  0
   -1.4777   -0.9002    1.0112 C   0  0  0  0  0  0  0  0  0  0  0  0
   -0.4396   -1.8445    1.6042 C   0  0  0  0  0  0  0  0  0  0  0  0
    0.9131   -1.4740    1.0092 C   0  0  0  0  0  0  0  0  0  0  0  0
    0.3802    1.5749    0.6170 C   0  0  0  0  0  0  0  0  0  0  0  0
   -1.3782   -0.6806   -1.1548 H   0  0  0  0  0  0  0  0  0  0  0  0
   -1.8180    1.7182    0.0814 H   0  0  0  0  0  0  0  0  0  0  0  0
   -0.5314    2.7989   -1.7748 H   0  0  0  0  0  0  0  0  0  0  0  0
   -0.9349    1.1722   -2.4547 H   0  0  0  0  0  0  0  0  0  0  0  0
    1.7441    2.2528   -1.7767 H   0  0  0  0  0  0  0  0  0  0  0  0
    1.3643    0.6204   -2.4567 H   0  0  0  0  0  0  0  0  0  0  0  0
    2.4031    0.7051    0.0778 H   0  0  0  0  0  0  0  0  0  0  0  0
    0.9205   -1.2322   -1.1567 H   0  0  0  0  0  0  0  0  0  0  0  0
   -2.4197   -1.4510    0.7667 H   0  0  0  0  0  0  0  0  0  0  0  0
   -1.7406   -0.1011    1.7506 H   0  0  0  0  0  0  0  0  0  0  0  0
   -0.6941   -2.9042    1.3484 H   0  0  0  0  0  0  0  0  0  0  0  0
   -0.4197   -1.7657    2.7191 H   0  0  0  0  0  0  0  0  0  0  0  0
    1.5021   -2.3922    0.7633 H   0  0  0  0  0  0  0  0  0  0  0  0
    1.5112   -0.8816    1.7478 H   0  0  0  0  0  0  0  0  0  0  0  0
    0.6396    2.6557    0.6228 H   0  0  0  0  0  0  0  0  0  0  0  0
    0.2915    1.2016    1.6606 H   0  0  0  0  0  0  0  0  0  0  0  0
  1  2  1  0  0  0  0
  1  6  1  0  0  0  0
  1  7  1  0  0  0  0
  1 11  1  6  0  0  0
  2  3  1  0  0  0  0
  2 10  1  0  0  0  0
  2 12  1  1  0  0  0
  3  4  1  0  0  0  0
  3 13  1  0  0  0  0
  3 14  1  0  0  0  0
  4  5  1  0  0  0  0
  4 15  1  0  0  0  0
  4 16  1  0  0  0  0
  5  6  1  0  0  0  0
  5 10  1  0  0  0  0
  5 17  1  1  0  0  0
  6  9  1  0  0  0  0
  6 18  1  6  0  0  0
  7  8  1  0  0  0  0
  7 19  1  0  0  0  0
  7 20  1  0  0  0  0
  8  9  1  0  0  0  0
  8 21  1  0  0  0  0
  8 22  1  0  0  0  0
  9 23  1  0  0  0  0
  9 24  1  0  0  0  0
 10 25  1  0  0  0  0
 10 26  1  0  0  0  0
M  END
