./006032-29-7.hin
 OpenBabel09241315583D

 18 17  0  0  1  0  0  0  0  0999 V2000
  -30.5578    3.0547   40.5155 O   0  0  0  0  0  0  0  0  0  0  0  0
  -27.0204    5.0343   41.9109 C   0  0  0  0  0  0  0  0  0  0  0  0
  -30.6075    4.4747   40.6221 C   0  0  1  0  0  0  0  0  0  0  0  0
  -28.4618    4.5964   41.9221 C   0  0  0  0  0  0  0  0  0  0  0  0
  -29.1628    4.9648   40.6327 C   0  0  0  0  0  0  0  0  0  0  0  0
  -28.6179    4.5115   39.7640 H   0  0  0  0  0  0  0  0  0  0  0  0
  -28.9938    5.0719   42.7881 H   0  0  0  0  0  0  0  0  0  0  0  0
  -28.5238    3.4845   42.0641 H   0  0  0  0  0  0  0  0  0  0  0  0
  -31.1098    4.7467   41.5949 H   0  0  0  0  0  0  0  0  0  0  0  0
  -31.3824    5.0778   39.4642 C   0  0  0  0  0  0  0  0  0  0  0  0
  -26.5247    4.7596   42.8731 H   0  0  0  0  0  0  0  0  0  0  0  0
  -26.4654    4.5423   41.0757 H   0  0  0  0  0  0  0  0  0  0  0  0
  -26.9439    6.1407   41.7779 H   0  0  0  0  0  0  0  0  0  0  0  0
  -31.4692    2.7501   40.4391 H   0  0  0  0  0  0  0  0  0  0  0  0
  -29.1628    6.0775   40.4997 H   0  0  0  0  0  0  0  0  0  0  0  0
  -32.4328    4.6995   39.4615 H   0  0  0  0  0  0  0  0  0  0  0  0
  -31.4025    6.1894   39.5537 H   0  0  0  0  0  0  0  0  0  0  0  0
  -30.9044    4.8018   38.4941 H   0  0  0  0  0  0  0  0  0  0  0  0
  1  3  1  0  0  0  0
  1 14  1  0  0  0  0
  2  4  1  0  0  0  0
  2 11  1  0  0  0  0
  2 12  1  0  0  0  0
  2 13  1  0  0  0  0
  3  5  1  0  0  0  0
  3  9  1  1  0  0  0
  3 10  1  0  0  0  0
  4  5  1  0  0  0  0
  4  7  1  0  0  0  0
  4  8  1  0  0  0  0
  5  6  1  0  0  0  0
  5 15  1  0  0  0  0
 10 16  1  0  0  0  0
 10 17  1  0  0  0  0
 10 18  1  0  0  0  0
M  END
