./007319-00-8.hin
 OpenBabel09241315583D

 16 15  0  0  0  0  0  0  0  0999 V2000
   -1.7983   -4.2703    6.6746 H   0  0  0  0  0  0  0  0  0  0  0  0
   -3.0550   -1.4270    6.6746 H   0  0  0  0  0  0  0  0  0  0  0  0
   -4.3164   -3.2232    6.6746 C   0  0  0  0  0  0  0  0  0  0  0  0
   -3.0136   -2.5286    6.6746 C   0  0  0  0  0  0  0  0  0  0  0  0
    0.4124   -4.4482    6.6746 H   0  0  0  0  0  0  0  0  0  0  0  0
    0.6359   -3.3683    6.6746 C   0  0  0  0  0  0  0  0  0  0  0  0
    1.8942   -2.9328    6.6746 C   0  0  0  0  0  0  0  0  0  0  0  0
   -0.5372   -2.4576    6.6746 C   0  0  0  0  0  0  0  0  0  0  0  0
   -1.8395   -3.1688    6.6746 C   0  0  0  0  0  0  0  0  0  0  0  0
   -0.4824   -1.7858    5.7719 H   0  0  0  0  0  0  0  0  0  0  0  0
    2.7508   -3.6187    6.6746 H   0  0  0  0  0  0  0  0  0  0  0  0
    2.1540   -1.8663    6.6746 H   0  0  0  0  0  0  0  0  0  0  0  0
   -5.1598   -2.4904    6.6746 H   0  0  0  0  0  0  0  0  0  0  0  0
   -4.4184   -3.8733    5.7695 H   0  0  0  0  0  0  0  0  0  0  0  0
   -4.4184   -3.8733    7.5797 H   0  0  0  0  0  0  0  0  0  0  0  0
   -0.4824   -1.7858    7.5773 H   0  0  0  0  0  0  0  0  0  0  0  0
  1  9  1  0  0  0  0
  2  4  1  0  0  0  0
  3  4  1  0  0  0  0
  3 13  1  0  0  0  0
  3 14  1  0  0  0  0
  3 15  1  0  0  0  0
  4  9  2  0  0  0  0
  5  6  1  0  0  0  0
  6  7  2  0  0  0  0
  6  8  1  0  0  0  0
  7 11  1  0  0  0  0
  7 12  1  0  0  0  0
  8  9  1  0  0  0  0
  8 10  1  0  0  0  0
  8 16  1  0  0  0  0
M  END
