./007778-85-0.hin
 OpenBabel09241315583D

 19 18  0  0  1  0  0  0  0  0999 V2000
    9.4632   -8.9092    7.2911 C   0  0  2  0  0  0  0  0  0  0  0  0
    9.4009   -7.3854    7.1338 C   0  0  0  0  0  0  0  0  0  0  0  0
   10.8559   -9.3610    7.6863 C   0  0  0  0  0  0  0  0  0  0  0  0
    8.7105   -9.2388    8.0614 H   0  0  0  0  0  0  0  0  0  0  0  0
   10.8958  -10.4752    7.7413 H   0  0  0  0  0  0  0  0  0  0  0  0
   11.6049   -9.0193    6.9327 H   0  0  0  0  0  0  0  0  0  0  0  0
   11.1238   -8.9399    8.6841 H   0  0  0  0  0  0  0  0  0  0  0  0
    8.2050   -6.9616    7.7866 O   0  0  0  0  0  0  0  0  0  0  0  0
    9.1213   -9.4455    6.0071 O   0  0  0  0  0  0  0  0  0  0  0  0
    8.5352  -10.7328    6.0704 C   0  0  0  0  0  0  0  0  0  0  0  0
    7.9261   -5.5892    7.5734 C   0  0  0  0  0  0  0  0  0  0  0  0
   10.2816   -6.8968    7.6277 H   0  0  0  0  0  0  0  0  0  0  0  0
    9.3719   -7.1026    6.0483 H   0  0  0  0  0  0  0  0  0  0  0  0
    8.3414  -11.0025    5.0020 H   0  0  0  0  0  0  0  0  0  0  0  0
    9.2372  -11.4671    6.5372 H   0  0  0  0  0  0  0  0  0  0  0  0
    7.5771  -10.7035    6.6464 H   0  0  0  0  0  0  0  0  0  0  0  0
    6.9821   -5.4036    8.1438 H   0  0  0  0  0  0  0  0  0  0  0  0
    8.7553   -4.9521    7.9697 H   0  0  0  0  0  0  0  0  0  0  0  0
    7.7742   -5.3811    6.4853 H   0  0  0  0  0  0  0  0  0  0  0  0
  1  2  1  0  0  0  0
  1  3  1  0  0  0  0
  1  4  1  1  0  0  0
  1  9  1  0  0  0  0
  2  8  1  0  0  0  0
  2 12  1  0  0  0  0
  2 13  1  0  0  0  0
  3  5  1  0  0  0  0
  3  6  1  0  0  0  0
  3  7  1  0  0  0  0
  8 11  1  0  0  0  0
  9 10  1  0  0  0  0
 10 14  1  0  0  0  0
 10 15  1  0  0  0  0
 10 16  1  0  0  0  0
 11 17  1  0  0  0  0
 11 18  1  0  0  0  0
 11 19  1  0  0  0  0
M  END
