./010061-02-6.hin
 OpenBabel09241315583D

  9  8  0  0  0  0  0  0  0  0999 V2000
   -2.1217  -13.5779   22.2690 H   0  0  0  0  0  0  0  0  0  0  0  0
   -1.6286  -12.6123   22.5446 C   0  0  0  0  0  0  0  0  0  0  0  0
    0.0891  -12.9568   22.6910 Cl  0  0  0  0  0  0  0  0  0  0  0  0
   -1.7359  -11.8826   21.7052 H   0  0  0  0  0  0  0  0  0  0  0  0
   -2.1764  -12.0976   23.8179 C   0  0  0  0  0  0  0  0  0  0  0  0
   -2.7284  -10.8853   23.9175 C   0  0  0  0  0  0  0  0  0  0  0  0
   -2.1030  -12.7807   24.6810 H   0  0  0  0  0  0  0  0  0  0  0  0
   -2.8080  -10.1717   23.0859 H   0  0  0  0  0  0  0  0  0  0  0  0
   -3.3880  -10.2888   25.3557 Cl  0  0  0  0  0  0  0  0  0  0  0  0
  1  2  1  0  0  0  0
  2  3  1  0  0  0  0
  2  4  1  0  0  0  0
  2  5  1  0  0  0  0
  5  6  2  0  0  0  0
  5  7  1  0  0  0  0
  6  8  1  0  0  0  0
  6  9  1  0  0  0  0
M  END
