./013877-91-3.hin
 OpenBabel10021517303D

 26 25  0  0  0  0  0  0  0  0999 V2000
    1.9139   -3.9578   -0.0735 C   0  0  0  0  0  0  0  0  0  0  0  0
    1.7602   -2.6324   -0.0735 C   0  0  0  0  0  0  0  0  0  0  0  0
    0.4784   -1.9358   -0.0735 C   0  0  0  0  0  0  0  0  0  0  0  0
    0.4495   -0.5886   -0.0735 C   0  0  0  0  0  0  0  0  0  0  0  0
   -0.7880    0.2259   -0.0735 C   0  0  0  0  0  0  0  0  0  0  0  0
   -0.5348    1.6863   -0.0735 C   0  0  0  0  0  0  0  0  0  0  0  0
   -1.5179    2.6034   -0.0735 C   0  0  0  0  0  0  0  0  0  0  0  0
   -1.2003    4.0528   -0.0735 C   0  0  0  0  0  0  0  0  0  0  0  0
   -2.9480    2.2149   -0.0735 C   0  0  0  0  0  0  0  0  0  0  0  0
    2.9076   -4.4244   -0.0735 H   0  0  0  0  0  0  0  0  0  0  0  0
    1.0718   -4.6617   -0.0735 H   0  0  0  0  0  0  0  0  0  0  0  0
    1.3969   -0.0225   -0.0735 H   0  0  0  0  0  0  0  0  0  0  0  0
   -1.4113   -0.0383   -0.9764 H   0  0  0  0  0  0  0  0  0  0  0  0
   -1.4113   -0.0383    0.8294 H   0  0  0  0  0  0  0  0  0  0  0  0
    0.5196    2.0058   -0.0735 H   0  0  0  0  0  0  0  0  0  0  0  0
   -2.1260    4.6781   -0.0735 H   0  0  0  0  0  0  0  0  0  0  0  0
   -0.5994    4.3197    0.8318 H   0  0  0  0  0  0  0  0  0  0  0  0
   -0.5993    4.3197   -0.9788 H   0  0  0  0  0  0  0  0  0  0  0  0
   -3.6215    3.1058   -0.0735 H   0  0  0  0  0  0  0  0  0  0  0  0
   -3.1813    1.5976   -0.9783 H   0  0  0  0  0  0  0  0  0  0  0  0
   -3.1813    1.5976    0.8312 H   0  0  0  0  0  0  0  0  0  0  0  0
   -0.7451   -2.7749   -0.0735 C   0  0  0  0  0  0  0  0  0  0  0  0
    2.6492   -1.9751   -0.0735 H   0  0  0  0  0  0  0  0  0  0  0  0
   -1.6751   -2.1561   -0.0735 H   0  0  0  0  0  0  0  0  0  0  0  0
   -0.7607   -3.4307   -0.9802 H   0  0  0  0  0  0  0  0  0  0  0  0
   -0.7607   -3.4307    0.8332 H   0  0  0  0  0  0  0  0  0  0  0  0
  1  2  2  0  0  0  0
  1 10  1  0  0  0  0
  1 11  1  0  0  0  0
  2  3  1  0  0  0  0
  2 23  1  0  0  0  0
  3  4  2  0  0  0  0
  3 22  1  0  0  0  0
  4  5  1  0  0  0  0
  4 12  1  0  0  0  0
  5  6  1  0  0  0  0
  5 13  1  0  0  0  0
  5 14  1  0  0  0  0
  6  7  2  0  0  0  0
  6 15  1  0  0  0  0
  7  8  1  0  0  0  0
  7  9  1  0  0  0  0
  8 16  1  0  0  0  0
  8 17  1  0  0  0  0
  8 18  1  0  0  0  0
  9 19  1  0  0  0  0
  9 20  1  0  0  0  0
  9 21  1  0  0  0  0
 22 24  1  0  0  0  0
 22 25  1  0  0  0  0
 22 26  1  0  0  0  0
M  END