./014315-97-0.hin
 OpenBabel09241315583D

 23 22  0  0  0  0  0  0  0  0999 V2000
   12.9883   -4.4556   27.8961 C   0  0  0  0  0  0  0  0  0  0  0  0
   12.4737  -10.3640   25.4091 C   0  0  0  0  0  0  0  0  0  0  0  0
   12.0123   -8.2769   26.4172 C   0  0  0  0  0  0  0  0  0  0  0  0
   11.2492   -7.6959   27.5922 C   0  0  0  0  0  0  0  0  0  0  0  0
   11.7972   -9.6890   26.4540 O   0  0  0  0  0  0  0  0  0  0  0  0
   11.3571   -6.1733   27.6333 C   0  0  0  0  0  0  0  0  0  0  0  0
   10.1666   -7.9714   27.5152 H   0  0  0  0  0  0  0  0  0  0  0  0
   11.6561   -8.1095   28.5499 H   0  0  0  0  0  0  0  0  0  0  0  0
   11.6287   -7.8586   25.4491 H   0  0  0  0  0  0  0  0  0  0  0  0
   13.1083   -8.0544   26.5087 H   0  0  0  0  0  0  0  0  0  0  0  0
   10.7805   -5.7484   28.5022 H   0  0  0  0  0  0  0  0  0  0  0  0
   12.7314   -5.8385   27.7218 O   0  0  0  0  0  0  0  0  0  0  0  0
   10.9348   -5.6269   26.3917 O   0  0  0  0  0  0  0  0  0  0  0  0
    9.9902   -4.5763   26.5058 C   0  0  0  0  0  0  0  0  0  0  0  0
   14.0970   -4.3959   28.0320 H   0  0  0  0  0  0  0  0  0  0  0  0
   12.6725   -3.8831   26.9896 H   0  0  0  0  0  0  0  0  0  0  0  0
   12.4591   -4.0651   28.8006 H   0  0  0  0  0  0  0  0  0  0  0  0
   12.2186  -11.4425   25.5597 H   0  0  0  0  0  0  0  0  0  0  0  0
   12.1118  -10.0112   24.4115 H   0  0  0  0  0  0  0  0  0  0  0  0
   13.5782  -10.2078   25.4877 H   0  0  0  0  0  0  0  0  0  0  0  0
    9.8165   -4.2424   25.4523 H   0  0  0  0  0  0  0  0  0  0  0  0
    9.0394   -4.9514   26.9589 H   0  0  0  0  0  0  0  0  0  0  0  0
   10.4008   -3.7372   27.1206 H   0  0  0  0  0  0  0  0  0  0  0  0
  1 12  1  0  0  0  0
  1 15  1  0  0  0  0
  1 16  1  0  0  0  0
  1 17  1  0  0  0  0
  2  5  1  0  0  0  0
  2 18  1  0  0  0  0
  2 19  1  0  0  0  0
  2 20  1  0  0  0  0
  3  4  1  0  0  0  0
  3  5  1  0  0  0  0
  3  9  1  0  0  0  0
  3 10  1  0  0  0  0
  4  6  1  0  0  0  0
  4  7  1  0  0  0  0
  4  8  1  0  0  0  0
  6 11  1  0  0  0  0
  6 12  1  0  0  0  0
  6 13  1  0  0  0  0
 13 14  1  0  0  0  0
 14 21  1  0  0  0  0
 14 22  1  0  0  0  0
 14 23  1  0  0  0  0
M  END
