./014686-13-6.hin
 OpenBabel09241315583D

 21 20  0  0  0  0  0  0  0  0999 V2000
   -1.8301    1.8361   -3.3916 C   0  0  0  0  0  0  0  0  0  0  0  0
   -1.7735    2.9476   -3.4898 H   0  0  0  0  0  0  0  0  0  0  0  0
   -0.7867    1.4322   -3.3888 H   0  0  0  0  0  0  0  0  0  0  0  0
   -2.5433    1.4508   -2.1563 C   0  0  0  0  0  0  0  0  0  0  0  0
   -2.7487    0.1794   -1.8006 C   0  0  0  0  0  0  0  0  0  0  0  0
   -3.4518   -0.2834   -0.5828 C   0  0  0  0  0  0  0  0  0  0  0  0
   -3.9686    0.8226    0.3124 C   0  0  0  0  0  0  0  0  0  0  0  0
   -4.6709    0.2560    1.5288 C   0  0  0  0  0  0  0  0  0  0  0  0
   -5.1890    1.3498    2.4263 C   0  0  0  0  0  0  0  0  0  0  0  0
   -2.3792   -0.6414   -2.4407 H   0  0  0  0  0  0  0  0  0  0  0  0
   -4.3138   -0.9356   -0.8963 H   0  0  0  0  0  0  0  0  0  0  0  0
   -2.7492   -0.9357    0.0070 H   0  0  0  0  0  0  0  0  0  0  0  0
   -3.1157    1.4726    0.6422 H   0  0  0  0  0  0  0  0  0  0  0  0
   -4.6806    1.4726   -0.2613 H   0  0  0  0  0  0  0  0  0  0  0  0
   -5.5227   -0.3959    1.1990 H   0  0  0  0  0  0  0  0  0  0  0  0
   -3.9594   -0.3959    2.1016 H   0  0  0  0  0  0  0  0  0  0  0  0
   -5.7026    0.9116    3.3158 H   0  0  0  0  0  0  0  0  0  0  0  0
   -4.3513    1.9955    2.7852 H   0  0  0  0  0  0  0  0  0  0  0  0
   -5.9187    1.9955    1.8803 H   0  0  0  0  0  0  0  0  0  0  0  0
   -2.3542    1.4321   -4.2939 H   0  0  0  0  0  0  0  0  0  0  0  0
   -2.9029    2.2860   -1.5333 H   0  0  0  0  0  0  0  0  0  0  0  0
  1  2  1  0  0  0  0
  1  3  1  0  0  0  0
  1  4  1  0  0  0  0
  1 20  1  0  0  0  0
  4  5  2  0  0  0  0
  4 21  1  0  0  0  0
  5  6  1  0  0  0  0
  5 10  1  0  0  0  0
  6  7  1  0  0  0  0
  6 11  1  0  0  0  0
  6 12  1  0  0  0  0
  7  8  1  0  0  0  0
  7 13  1  0  0  0  0
  7 14  1  0  0  0  0
  8  9  1  0  0  0  0
  8 15  1  0  0  0  0
  8 16  1  0  0  0  0
  9 17  1  0  0  0  0
  9 18  1  0  0  0  0
  9 19  1  0  0  0  0
M  END
