./017559-81-8.hin
 OpenBabel09241315583D

 16 15  0  0  0  0  0  0  0  0999 V2000
   -6.1973    2.4510   -4.5736 C   0  0  0  0  0  0  0  0  0  0  0  0
   -5.8068    3.8988   -4.5736 C   0  0  0  0  0  0  0  0  0  0  0  0
   -6.7153    4.5487   -4.5736 H   0  0  0  0  0  0  0  0  0  0  0  0
   -5.1975    4.1269   -5.4816 H   0  0  0  0  0  0  0  0  0  0  0  0
   -5.1975    4.1269   -3.6656 H   0  0  0  0  0  0  0  0  0  0  0  0
   -6.1973   -0.7392   -4.5736 C   0  0  0  0  0  0  0  0  0  0  0  0
   -5.8068   -2.1871   -4.5736 C   0  0  0  0  0  0  0  0  0  0  0  0
   -6.7153   -2.8370   -4.5736 H   0  0  0  0  0  0  0  0  0  0  0  0
   -5.1975   -2.4151   -5.4816 H   0  0  0  0  0  0  0  0  0  0  0  0
   -5.1975   -2.4151   -3.6656 H   0  0  0  0  0  0  0  0  0  0  0  0
   -5.0479    0.1873   -4.5736 C   0  0  0  0  0  0  0  0  0  0  0  0
   -5.0479    1.5245   -4.5736 C   0  0  0  0  0  0  0  0  0  0  0  0
   -4.0699    2.0452   -4.5736 H   0  0  0  0  0  0  0  0  0  0  0  0
   -7.3793    2.1003   -4.5736 O   0  0  0  0  0  0  0  0  0  0  0  0
   -7.3793   -0.3886   -4.5736 O   0  0  0  0  0  0  0  0  0  0  0  0
   -4.0699   -0.3334   -4.5736 H   0  0  0  0  0  0  0  0  0  0  0  0
  1  2  1  0  0  0  0
  1 12  1  0  0  0  0
  1 14  2  0  0  0  0
  2  3  1  0  0  0  0
  2  4  1  0  0  0  0
  2  5  1  0  0  0  0
  6  7  1  0  0  0  0
  6 11  1  0  0  0  0
  6 15  2  0  0  0  0
  7  8  1  0  0  0  0
  7  9  1  0  0  0  0
  7 10  1  0  0  0  0
 11 12  2  0  0  0  0
 11 16  1  0  0  0  0
 12 13  1  0  0  0  0
M  END
