./020334-52-5.hin
 OpenBabel09241315583D

 11 10  0  0  0  0  0  0  0  0999 V2000
   -0.2690   -5.3343   13.8976 C   0  0  0  0  0  0  0  0  0  0  0  0
   -2.1977   -0.8441   13.8976 O   0  0  0  0  0  0  0  0  0  0  0  0
   -1.6542   -3.2899   13.8976 C   0  0  0  0  0  0  0  0  0  0  0  0
   -1.9271   -2.0051   13.8976 C   0  0  0  0  0  0  0  0  0  0  0  0
   -2.4871   -4.0090   13.8976 H   0  0  0  0  0  0  0  0  0  0  0  0
   -0.2729   -3.8249   13.8976 C   0  0  0  0  0  0  0  0  0  0  0  0
    0.7820   -5.7119   13.8976 H   0  0  0  0  0  0  0  0  0  0  0  0
   -0.7884   -5.7308   14.8031 H   0  0  0  0  0  0  0  0  0  0  0  0
   -0.7884   -5.7308   12.9922 H   0  0  0  0  0  0  0  0  0  0  0  0
    0.2820   -3.4519   12.9936 H   0  0  0  0  0  0  0  0  0  0  0  0
    0.2820   -3.4519   14.8016 H   0  0  0  0  0  0  0  0  0  0  0  0
  1  6  1  0  0  0  0
  1  7  1  0  0  0  0
  1  8  1  0  0  0  0
  1  9  1  0  0  0  0
  2  4  2  0  0  0  0
  3  4  2  0  0  0  0
  3  5  1  0  0  0  0
  3  6  1  0  0  0  0
  6 10  1  0  0  0  0
  6 11  1  0  0  0  0
M  END
