./021981-49-7.hin
 OpenBabel09241315583D

 23 22  0  0  1  0  0  0  0  0999 V2000
   -3.6329    0.7602    8.1640 C   0  0  0  0  0  0  0  0  0  0  0  0
   -5.5188   -5.9081    5.5261 O   0  0  0  0  0  0  0  0  0  0  0  0
   -4.4431   -3.5053    5.6976 C   0  0  2  0  0  0  0  0  0  0  0  0
   -4.5017   -1.9836    5.6281 C   0  0  0  0  0  0  0  0  0  0  0  0
   -3.0776   -4.0648    5.3727 C   0  0  0  0  0  0  0  0  0  0  0  0
   -5.3983   -3.9193    4.6594 O   0  0  0  0  0  0  0  0  0  0  0  0
   -5.5529   -1.6627    5.3984 H   0  0  0  0  0  0  0  0  0  0  0  0
   -5.8673   -5.1716    4.6534 N   0  3  0  0  0  0  0  0  0  0  0  0
   -6.6062   -5.4004    3.7498 O   0  5  0  0  0  0  0  0  0  0  0  0
   -4.0525   -1.3727    6.9383 C   0  0  0  0  0  0  0  0  0  0  0  0
   -4.0785    0.1398    6.8651 C   0  0  0  0  0  0  0  0  0  0  0  0
   -4.7226   -1.7192    7.7690 H   0  0  0  0  0  0  0  0  0  0  0  0
   -3.0134   -1.7192    7.1822 H   0  0  0  0  0  0  0  0  0  0  0  0
   -3.6603    1.8741    8.0896 H   0  0  0  0  0  0  0  0  0  0  0  0
   -4.3014    0.4460    9.0018 H   0  0  0  0  0  0  0  0  0  0  0  0
   -2.5895    0.4490    8.4131 H   0  0  0  0  0  0  0  0  0  0  0  0
   -3.8524   -1.6234    4.7883 H   0  0  0  0  0  0  0  0  0  0  0  0
   -3.4102    0.4857    6.0326 H   0  0  0  0  0  0  0  0  0  0  0  0
   -5.1179    0.4840    6.6190 H   0  0  0  0  0  0  0  0  0  0  0  0
   -4.8077   -3.8797    6.6937 H   0  0  0  0  0  0  0  0  0  0  0  0
   -3.0728   -5.1749    5.4993 H   0  0  0  0  0  0  0  0  0  0  0  0
   -2.7921   -3.8212    4.3210 H   0  0  0  0  0  0  0  0  0  0  0  0
   -2.3229   -3.6186    6.0644 H   0  0  0  0  0  0  0  0  0  0  0  0
  1 11  1  0  0  0  0
  1 14  1  0  0  0  0
  1 15  1  0  0  0  0
  1 16  1  0  0  0  0
  2  8  2  0  0  0  0
  3  4  1  0  0  0  0
  3  5  1  0  0  0  0
  3  6  1  0  0  0  0
  3 20  1  1  0  0  0
  4  7  1  0  0  0  0
  4 10  1  0  0  0  0
  4 17  1  0  0  0  0
  5 21  1  0  0  0  0
  5 22  1  0  0  0  0
  5 23  1  0  0  0  0
  6  8  1  0  0  0  0
  8  9  1  0  0  0  0
 10 11  1  0  0  0  0
 10 12  1  0  0  0  0
 10 13  1  0  0  0  0
 11 18  1  0  0  0  0
 11 19  1  0  0  0  0
M  CHG  2   8   1   9  -1
M  END
