./082944-60-3.hin
  ACCLDraw05131601353D

 23 22  0  0  1  0  0  0  0  0999 V2000
   11.1880  -12.4462    5.8483 C   0  0  3  0  0  0  0  0  0  0  0  0
   13.0307  -14.9937    9.7556 C   0  0  3  0  0  0  0  0  0  0  0  0
   12.4598  -13.6733    9.2672 C   0  0  2  0  0  0  0  0  0  0  0  0
   13.1778  -15.0263   11.2544 C   0  0  3  0  0  0  0  0  0  0  0  0
   13.2890  -12.5369    9.6504 O   0  0  0  0  0  0  0  0  0  0  0  0
   12.1591  -13.6910    7.7789 C   0  0  3  0  0  0  0  0  0  0  0  0
   11.4301  -12.4405    7.3354 C   0  0  3  0  0  0  0  0  0  0  0  0
   13.1110  -13.8092    7.1965 H   0  0  0  0  0  0  0  0  0  0  0  0
   11.5238  -14.5914    7.5649 H   0  0  0  0  0  0  0  0  0  0  0  0
   10.6440  -11.5201    5.5429 H   0  0  0  0  0  0  0  0  0  0  0  0
   12.1551  -12.4875    5.2908 H   0  0  0  0  0  0  0  0  0  0  0  0
   10.5741  -13.3308    5.5513 H   0  0  0  0  0  0  0  0  0  0  0  0
   11.5313  -13.4013    9.8570 H   0  0  0  0  0  0  0  0  0  0  0  0
   10.4506  -12.3650    7.8779 H   0  0  0  0  0  0  0  0  0  0  0  0
   12.0338  -11.5376    7.6192 H   0  0  0  0  0  0  0  0  0  0  0  0
   12.3341  -15.8105    9.4264 H   0  0  0  0  0  0  0  0  0  0  0  0
   13.6440  -15.9896   11.5734 H   0  0  0  0  0  0  0  0  0  0  0  0
   13.8245  -14.1850   11.6042 H   0  0  0  0  0  0  0  0  0  0  0  0
   12.1826  -14.9321   11.7530 H   0  0  0  0  0  0  0  0  0  0  0  0
   14.5405  -12.3832    9.2024 N   0  3  0  0  0  0  0  0  0  0  0  0
   15.0699  -11.3997    9.6143 O   0  0  0  0  0  0  0  0  0  0  0  0
   14.0220  -15.1840    9.2650 H   0  0  0  0  0  0  0  0  0  0  0  0
   14.9963  -13.2041    8.4656 O   0  5  0  0  0  0  0  0  0  0  0  0
  1  7  1  0  0  0  0
  1 10  1  0  0  0  0
  1 11  1  0  0  0  0
  1 12  1  0  0  0  0
  2  3  1  0  0  0  0
  2  4  1  0  0  0  0
  2 16  1  0  0  0  0
  2 22  1  0  0  0  0
  3  5  1  0  0  0  0
  3  6  1  0  0  0  0
  3 13  1  6  0  0  0
  4 17  1  0  0  0  0
  4 18  1  0  0  0  0
  4 19  1  0  0  0  0
  5 20  1  0  0  0  0
  6  7  1  0  0  0  0
  6  8  1  0  0  0  0
  6  9  1  0  0  0  0
  7 14  1  0  0  0  0
  7 15  1  0  0  0  0
 20 21  2  0  0  0  0
 20 23  1  0  0  0  0
M  CHG  2  20   1  23  -1
M  END