./082944-62-4.hin
 OpenBabel09241315583D

 29 28  0  0  1  0  0  0  0  0999 V2000
  -13.1736   -2.8546   29.5358 C   0  0  0  0  0  0  0  0  0  0  0  0
  -13.9338   -0.8911   30.8322 O   0  0  0  0  0  0  0  0  0  0  0  0
  -13.5561   -1.1884   32.0811 N   0  3  0  0  0  0  0  0  0  0  0  0
  -14.2815   -0.7388   32.9112 O   0  0  0  0  0  0  0  0  0  0  0  0
  -12.5744   -1.8462   32.2478 O   0  5  0  0  0  0  0  0  0  0  0  0
  -13.1842   -1.3409   29.6653 C   0  0  1  0  0  0  0  0  0  0  0  0
  -11.7869   -0.7487   29.6146 C   0  0  0  0  0  0  0  0  0  0  0  0
  -13.8406   -0.8799   28.8648 H   0  0  0  0  0  0  0  0  0  0  0  0
  -11.1913   -1.0950   30.5004 H   0  0  0  0  0  0  0  0  0  0  0  0
  -11.2773   -1.1433   28.6955 H   0  0  0  0  0  0  0  0  0  0  0  0
  -11.8178    0.7638   29.5668 C   0  0  0  0  0  0  0  0  0  0  0  0
  -10.4173    1.3374   29.5708 C   0  0  0  0  0  0  0  0  0  0  0  0
  -12.5851   -3.1153   28.6159 H   0  0  0  0  0  0  0  0  0  0  0  0
  -12.6386   -3.3074   30.4125 H   0  0  0  0  0  0  0  0  0  0  0  0
  -12.3614    1.1016   28.6451 H   0  0  0  0  0  0  0  0  0  0  0  0
  -12.3908    1.1548   30.4491 H   0  0  0  0  0  0  0  0  0  0  0  0
  -10.4444    2.8501   29.5134 C   0  0  0  0  0  0  0  0  0  0  0  0
   -9.8772    1.0065   30.4970 H   0  0  0  0  0  0  0  0  0  0  0  0
   -9.8441    0.9382   28.6928 H   0  0  0  0  0  0  0  0  0  0  0  0
   -9.0525    3.4271   29.5162 C   0  0  0  0  0  0  0  0  0  0  0  0
  -10.9875    3.1797   28.5883 H   0  0  0  0  0  0  0  0  0  0  0  0
  -14.5645   -3.4225   29.4258 C   0  0  0  0  0  0  0  0  0  0  0  0
  -11.0189    3.2467   30.3921 H   0  0  0  0  0  0  0  0  0  0  0  0
  -14.5213   -4.5375   29.3816 H   0  0  0  0  0  0  0  0  0  0  0  0
  -15.1813   -3.1251   30.3086 H   0  0  0  0  0  0  0  0  0  0  0  0
  -15.0731   -3.0509   28.5034 H   0  0  0  0  0  0  0  0  0  0  0  0
   -9.0951    4.5422   29.4745 H   0  0  0  0  0  0  0  0  0  0  0  0
   -8.5039    3.1295   30.4425 H   0  0  0  0  0  0  0  0  0  0  0  0
   -8.4723    3.0630   28.6339 H   0  0  0  0  0  0  0  0  0  0  0  0
  1  6  1  0  0  0  0
  1 13  1  0  0  0  0
  1 14  1  0  0  0  0
  1 22  1  0  0  0  0
  2  3  1  0  0  0  0
  2  6  1  0  0  0  0
  3  4  2  0  0  0  0
  3  5  1  0  0  0  0
  6  7  1  0  0  0  0
  6  8  1  6  0  0  0
  7  9  1  0  0  0  0
  7 10  1  0  0  0  0
  7 11  1  0  0  0  0
 11 12  1  0  0  0  0
 11 15  1  0  0  0  0
 11 16  1  0  0  0  0
 12 17  1  0  0  0  0
 12 18  1  0  0  0  0
 12 19  1  0  0  0  0
 17 20  1  0  0  0  0
 17 21  1  0  0  0  0
 17 23  1  0  0  0  0
 20 27  1  0  0  0  0
 20 28  1  0  0  0  0
 20 29  1  0  0  0  0
 22 24  1  0  0  0  0
 22 25  1  0  0  0  0
 22 26  1  0  0  0  0
M  CHG  2   3   1   5  -1
M  END
