./010281-56-8.hin
 OpenBabel09241315583D

 28 27  0  0  1  0  0  0  0  0999 V2000
   -3.5752    1.8756   14.0149 C   0  0  0  0  0  0  0  0  0  0  0  0
   -2.8624    2.6764   13.2270 C   0  0  0  0  0  0  0  0  0  0  0  0
   -2.8215    4.1614   13.3622 C   0  0  1  0  0  0  0  0  0  0  0  0
   -3.5889    0.7860   13.8824 H   0  0  0  0  0  0  0  0  0  0  0  0
   -4.1921    2.2482   14.8431 H   0  0  0  0  0  0  0  0  0  0  0  0
   -1.3846    4.6594   13.4656 C   0  0  0  0  0  0  0  0  0  0  0  0
   -3.5070    4.8059   12.1710 C   0  0  0  0  0  0  0  0  0  0  0  0
   -1.3834    5.7800   13.4105 H   0  0  0  0  0  0  0  0  0  0  0  0
   -2.2513    2.2729   12.4023 H   0  0  0  0  0  0  0  0  0  0  0  0
   -0.7268    4.2163   14.7559 C   0  0  0  0  0  0  0  0  0  0  0  0
    0.6803    4.6690   14.8494 C   0  0  0  0  0  0  0  0  0  0  0  0
    1.5215    4.2749   15.8191 C   0  0  0  0  0  0  0  0  0  0  0  0
    2.9226    4.7552   15.8820 C   0  0  0  0  0  0  0  0  0  0  0  0
    1.1103    3.3317   16.8867 C   0  0  0  0  0  0  0  0  0  0  0  0
   -3.3708    4.4694   14.2978 H   0  0  0  0  0  0  0  0  0  0  0  0
   -0.7940    4.2808   12.5907 H   0  0  0  0  0  0  0  0  0  0  0  0
   -3.5124    5.9166   12.2844 H   0  0  0  0  0  0  0  0  0  0  0  0
   -2.9734    4.5481   11.2249 H   0  0  0  0  0  0  0  0  0  0  0  0
   -4.5620    4.4501   12.0919 H   0  0  0  0  0  0  0  0  0  0  0  0
   -1.3054    4.6213   15.6320 H   0  0  0  0  0  0  0  0  0  0  0  0
   -0.7725    3.0944   14.8311 H   0  0  0  0  0  0  0  0  0  0  0  0
    1.0173    5.3684   14.0672 H   0  0  0  0  0  0  0  0  0  0  0  0
    3.0931    5.3163   16.8349 H   0  0  0  0  0  0  0  0  0  0  0  0
    3.6273    3.8865   15.8587 H   0  0  0  0  0  0  0  0  0  0  0  0
    3.1670    5.4311   15.0265 H   0  0  0  0  0  0  0  0  0  0  0  0
    1.8944    3.2460   17.6778 H   0  0  0  0  0  0  0  0  0  0  0  0
    0.1582    3.6729   17.3659 H   0  0  0  0  0  0  0  0  0  0  0  0
    0.9317    2.3145   16.4542 H   0  0  0  0  0  0  0  0  0  0  0  0
  1  2  2  0  0  0  0
  1  4  1  0  0  0  0
  1  5  1  0  0  0  0
  2  3  1  0  0  0  0
  2  9  1  0  0  0  0
  3  6  1  0  0  0  0
  3  7  1  0  0  0  0
  3 15  1  1  0  0  0
  6  8  1  0  0  0  0
  6 10  1  0  0  0  0
  6 16  1  0  0  0  0
  7 17  1  0  0  0  0
  7 18  1  0  0  0  0
  7 19  1  0  0  0  0
 10 11  1  0  0  0  0
 10 20  1  0  0  0  0
 10 21  1  0  0  0  0
 11 12  2  0  0  0  0
 11 22  1  0  0  0  0
 12 13  1  0  0  0  0
 12 14  1  0  0  0  0
 13 23  1  0  0  0  0
 13 24  1  0  0  0  0
 13 25  1  0  0  0  0
 14 26  1  0  0  0  0
 14 27  1  0  0  0  0
 14 28  1  0  0  0  0
M  END
