./XXXUNK-06-2.hin
 OpenBabel09241315583D

 20 19  0  0  1  0  0  0  0  0999 V2000
  -12.4603   -2.5672   29.5451 C   0  0  0  0  0  0  0  0  0  0  0  0
  -13.1269   -0.6693   30.8945 O   0  0  0  0  0  0  0  0  0  0  0  0
  -14.4597   -0.6828   31.0013 N   0  3  0  0  0  0  0  0  0  0  0  0
  -14.8552   -0.3651   32.0773 O   0  0  0  0  0  0  0  0  0  0  0  0
  -15.0997   -0.9962   30.0433 O   0  5  0  0  0  0  0  0  0  0  0  0
  -12.4935   -1.0581   29.6246 C   0  0  1  0  0  0  0  0  0  0  0  0
  -11.1063   -0.4117   29.7154 C   0  0  0  0  0  0  0  0  0  0  0  0
  -13.0800   -0.6210   28.7706 H   0  0  0  0  0  0  0  0  0  0  0  0
  -10.6501   -0.7047   30.7033 H   0  0  0  0  0  0  0  0  0  0  0  0
  -11.2235    1.0975   29.6635 C   0  0  0  0  0  0  0  0  0  0  0  0
  -13.4967   -2.9797   29.6126 H   0  0  0  0  0  0  0  0  0  0  0  0
  -12.0180   -2.8796   28.5684 H   0  0  0  0  0  0  0  0  0  0  0  0
  -11.8478   -2.9931   30.3754 H   0  0  0  0  0  0  0  0  0  0  0  0
  -10.2174    1.5639   29.7941 H   0  0  0  0  0  0  0  0  0  0  0  0
  -11.6421    1.4275   28.6823 H   0  0  0  0  0  0  0  0  0  0  0  0
  -10.2222   -0.9144   28.5938 C   0  0  0  0  0  0  0  0  0  0  0  0
  -11.8938    1.4613   30.4795 H   0  0  0  0  0  0  0  0  0  0  0  0
   -9.2665   -0.3359   28.5812 H   0  0  0  0  0  0  0  0  0  0  0  0
   -9.9774   -1.9946   28.7357 H   0  0  0  0  0  0  0  0  0  0  0  0
  -10.7251   -0.7875   27.6049 H   0  0  0  0  0  0  0  0  0  0  0  0
  1  6  1  0  0  0  0
  1 11  1  0  0  0  0
  1 12  1  0  0  0  0
  1 13  1  0  0  0  0
  2  3  1  0  0  0  0
  2  6  1  0  0  0  0
  3  4  2  0  0  0  0
  3  5  1  0  0  0  0
  6  7  1  0  0  0  0
  6  8  1  6  0  0  0
  7  9  1  0  0  0  0
  7 10  1  0  0  0  0
  7 16  1  0  0  0  0
 10 14  1  0  0  0  0
 10 15  1  0  0  0  0
 10 17  1  0  0  0  0
 16 18  1  0  0  0  0
 16 19  1  0  0  0  0
 16 20  1  0  0  0  0
M  CHG  2   3   1   5  -1
M  END