./XXXUNK-06-4.hin
 OpenBabel09241315583D

 23 22  0  0  1  0  0  0  0  0999 V2000
  -11.5654   -2.9190   30.3735 C   0  0  0  0  0  0  0  0  0  0  0  0
  -12.0747   -0.9958   28.9942 O   0  0  0  0  0  0  0  0  0  0  0  0
  -13.3976   -0.9574   28.8040 N   0  3  0  0  0  0  0  0  0  0  0  0
  -13.7124   -0.6265   27.7056 O   0  0  0  0  0  0  0  0  0  0  0  0
  -14.1082   -1.2436   29.7199 O   0  5  0  0  0  0  0  0  0  0  0  0
  -11.5371   -1.4095   30.3001 C   0  0  2  0  0  0  0  0  0  0  0  0
  -10.1238   -0.8121   30.3009 C   0  0  2  0  0  0  0  0  0  0  0  0
   -9.3170   -1.4054   31.4366 C   0  0  0  0  0  0  0  0  0  0  0  0
  -10.2005    0.7053   30.4145 C   0  0  0  0  0  0  0  0  0  0  0  0
   -8.9234    1.3773   29.9807 C   0  0  0  0  0  0  0  0  0  0  0  0
  -12.6086   -3.2923   30.2269 H   0  0  0  0  0  0  0  0  0  0  0  0
  -10.9093   -3.3650   29.5883 H   0  0  0  0  0  0  0  0  0  0  0  0
  -11.2094   -3.2513   31.3785 H   0  0  0  0  0  0  0  0  0  0  0  0
  -11.0435    1.0761   29.7716 H   0  0  0  0  0  0  0  0  0  0  0  0
  -10.4374    0.9869   31.4743 H   0  0  0  0  0  0  0  0  0  0  0  0
   -9.0326    2.4867   30.0541 H   0  0  0  0  0  0  0  0  0  0  0  0
   -8.0656    1.0669   30.6249 H   0  0  0  0  0  0  0  0  0  0  0  0
   -8.6797    1.1170   28.9221 H   0  0  0  0  0  0  0  0  0  0  0  0
  -12.1605   -0.9537   31.1173 H   0  0  0  0  0  0  0  0  0  0  0  0
   -9.6333   -1.0767   29.3216 H   0  0  0  0  0  0  0  0  0  0  0  0
   -8.3424   -0.8673   31.5301 H   0  0  0  0  0  0  0  0  0  0  0  0
   -9.8661   -1.3123   32.4046 H   0  0  0  0  0  0  0  0  0  0  0  0
   -9.1038   -2.4852   31.2474 H   0  0  0  0  0  0  0  0  0  0  0  0
  1  6  1  0  0  0  0
  1 11  1  0  0  0  0
  1 12  1  0  0  0  0
  1 13  1  0  0  0  0
  2  3  1  0  0  0  0
  2  6  1  0  0  0  0
  3  4  2  0  0  0  0
  3  5  1  0  0  0  0
  6  7  1  0  0  0  0
  6 19  1  1  0  0  0
  7  8  1  0  0  0  0
  7  9  1  0  0  0  0
  7 20  1  6  0  0  0
  8 21  1  0  0  0  0
  8 22  1  0  0  0  0
  8 23  1  0  0  0  0
  9 10  1  0  0  0  0
  9 14  1  0  0  0  0
  9 15  1  0  0  0  0
 10 16  1  0  0  0  0
 10 17  1  0  0  0  0
 10 18  1  0  0  0  0
M  CHG  2   3   1   5  -1
M  END
