
  Mrv0541 02201500303D          

 30 32  0  0  0  0            999 V2000
    0.0000    0.0000    0.0000 O   0  0  0  0  0  0  0  0  0  0  0  0
    1.2535    0.0000    0.0000 C   0  0  0  0  0  0  0  0  0  0  0  0
    1.9826    0.0000    1.2153 N   0  0  0  0  0  0  0  0  0  0  0  0
    1.2879   -0.0022    2.4568 C   0  0  0  0  0  0  0  0  0  0  0  0
    1.6422    0.9289    3.4641 C   0  0  0  0  0  0  0  0  0  0  0  0
    2.6936    1.9151    3.2879 C   0  0  0  0  0  0  0  0  0  0  0  0
    0.9400    0.9146    4.6793 C   0  0  0  0  0  0  0  0  0  0  0  0
   -0.0874    0.0064    4.9048 C   0  0  0  0  0  0  0  0  0  0  0  0
    0.2358   -0.9119    2.6934 C   0  0  0  0  0  0  0  0  0  0  0  0
   -0.4416   -0.9019    3.9073 C   0  0  0  0  0  0  0  0  0  0  0  0
    3.3714   -0.2980    1.2410 C   0  0  0  0  0  0  0  0  0  0  0  0
    4.2748    0.5699    1.9023 C   0  0  0  0  0  0  0  0  0  0  0  0
    3.8379    1.7630    2.6051 C   0  0  0  0  0  0  0  0  0  0  0  0
    5.6458    0.2694    1.8825 C   0  0  0  0  0  0  0  0  0  0  0  0
    6.1231   -0.8680    1.2423 C   0  0  0  0  0  0  0  0  0  0  0  0
    3.8684   -1.4574    0.6064 C   0  0  0  0  0  0  0  0  0  0  0  0
    5.2311   -1.7316    0.6062 C   0  0  0  0  0  0  0  0  0  0  0  0
    1.9401   -0.0139   -1.2173 N   0  0  0  0  0  0  0  0  0  0  0  0
    2.5081    2.8738    3.8085 H   0  0  0  0  0  0  0  0  0  0  0  0
   -0.6239    0.0090    5.8648 H   0  0  0  0  0  0  0  0  0  0  0  0
    1.2134    1.6386    5.4622 H   0  0  0  0  0  0  0  0  0  0  0  0
   -1.2643   -1.6128    4.0758 H   0  0  0  0  0  0  0  0  0  0  0  0
   -0.0746   -1.6089    1.8981 H   0  0  0  0  0  0  0  0  0  0  0  0
    4.5626    2.5979    2.5819 H   0  0  0  0  0  0  0  0  0  0  0  0
    7.2007   -1.0885    1.2406 H   0  0  0  0  0  0  0  0  0  0  0  0
    6.3482    0.9487    2.3902 H   0  0  0  0  0  0  0  0  0  0  0  0
    5.6039   -2.6372    0.1043 H   0  0  0  0  0  0  0  0  0  0  0  0
    3.1759   -2.1519    0.1041 H   0  0  0  0  0  0  0  0  0  0  0  0
    1.3894    0.2386   -2.0043 H   0  0  0  0  0  0  0  0  0  0  0  0
    2.8991    0.2341   -1.2410 H   0  0  0  0  0  0  0  0  0  0  0  0
  1  2  2  0  0  0  0
  2  3  1  0  0  0  0
  3 11  1  0  0  0  0
  3  4  1  0  0  0  0
  4  9  2  0  0  0  0
  4  5  1  0  0  0  0
  5  7  2  0  0  0  0
  6  5  1  0  0  0  0
  6 19  1  0  0  0  0
  7  8  1  0  0  0  0
  7 21  1  0  0  0  0
  8 20  1  0  0  0  0
  9 10  1  0  0  0  0
 10 22  1  0  0  0  0
 10  8  2  0  0  0  0
 11 12  2  0  0  0  0
 12 13  1  0  0  0  0
 13  6  2  0  0  0  0
 14 12  1  0  0  0  0
 14 26  1  0  0  0  0
 15 14  2  0  0  0  0
 16 11  1  0  0  0  0
 17 16  2  0  0  0  0
 17 15  1  0  0  0  0
 18  2  1  0  0  0  0
 23  9  1  0  0  0  0
 24 13  1  0  0  0  0
 25 15  1  0  0  0  0
 27 17  1  0  0  0  0
 28 16  1  0  0  0  0
 29 18  1  0  0  0  0
 30 18  1  0  0  0  0
M  END