
  Mrv0541 02201500303D          

 29 31  0  0  0  0            999 V2000
    0.0000    0.0000    0.0000 O   0  0  0  0  0  0  0  0  0  0  0  0
    1.3858    0.0000    0.0000 C   0  0  0  0  0  0  0  0  0  0  0  0
    2.2276    0.0000    1.0847 C   0  0  0  0  0  0  0  0  0  0  0  0
    3.6282   -0.0027    0.8026 C   0  0  0  0  0  0  0  0  0  0  0  0
    4.5784   -0.0428    1.8534 N   0  0  0  0  0  0  0  0  0  0  0  0
    5.8802    0.0228    1.6379 N   0  0  0  0  0  0  0  0  0  0  0  0
    6.3602    0.0374    0.4082 C   0  0  0  0  0  0  0  0  0  0  0  0
    7.8358    0.0437    0.2297 C   0  0  0  0  0  0  0  0  0  0  0  0
    8.3763    1.2919    0.2241 O   0  0  0  0  0  0  0  0  0  0  0  0
    8.5896   -0.9162    0.0824 O   0  0  0  0  0  0  0  0  0  0  0  0
    4.1287    0.0192    3.2541 C   0  0  1  0  0  0  0  0  0  0  0  0
    3.7040    1.4017    3.7141 C   0  0  0  0  0  0  0  0  0  0  0  0
    4.0891    0.0132   -0.5412 C   0  0  0  0  0  0  0  0  0  0  0  0
    5.5310    0.0359   -0.8222 C   0  0  0  0  0  0  0  0  0  0  0  0
    6.0143    0.0575   -1.9595 O   0  0  0  0  0  0  0  0  0  0  0  0
    1.8552    0.0062   -1.3451 C   0  0  0  0  0  0  0  0  0  0  0  0
    3.1939    0.0155   -1.6386 C   0  0  0  0  0  0  0  0  0  0  0  0
   -0.4227    0.0016   -1.3875 C   0  0  2  0  0  0  0  0  0  0  0  0
    0.7649    0.0071   -2.2108 O   0  0  0  0  0  0  0  0  0  0  0  0
    9.3307    1.2265    0.0498 H   0  0  0  0  0  0  0  0  0  0  0  0
    2.8710    1.8049    3.0890 H   0  0  0  0  0  0  0  0  0  0  0  0
    3.3534    1.3286    4.7725 H   0  0  0  0  0  0  0  0  0  0  0  0
    4.5585    2.1192    3.6700 H   0  0  0  0  0  0  0  0  0  0  0  0
    3.2767   -0.7109    3.3550 H   0  0  0  0  0  0  0  0  0  0  0  0
    4.9666   -0.3455    3.9175 H   0  0  0  0  0  0  0  0  0  0  0  0
    1.8266    0.0084    2.1061 H   0  0  0  0  0  0  0  0  0  0  0  0
    3.5875    0.0243   -2.6669 H   0  0  0  0  0  0  0  0  0  0  0  0
   -0.9980    0.9404   -1.5799 H   0  0  0  0  0  0  0  0  0  0  0  0
   -0.9922   -0.9399   -1.5840 H   0  0  0  0  0  0  0  0  0  0  0  0
  1  2  1  0  0  0  0
  2  3  2  0  0  0  0
  3 26  1  0  0  0  0
  4  3  1  0  0  0  0
  4  5  1  0  0  0  0
  5 11  1  0  0  0  0
  6  5  1  0  0  0  0
  7  6  2  0  0  0  0
  8  7  1  0  0  0  0
  9  8  1  0  0  0  0
 10  8  2  0  0  0  0
 11 24  1  0  0  0  0
 11 12  1  0  0  0  0
 11 25  1  0  0  0  0
 12 22  1  0  0  0  0
 13  4  2  0  0  0  0
 14 13  1  0  0  0  0
 14  7  1  0  0  0  0
 15 14  2  0  0  0  0
 16  2  1  0  0  0  0
 17 16  2  0  0  0  0
 17 13  1  0  0  0  0
 18  1  1  0  0  0  0
 19 18  1  0  0  0  0
 19 16  1  0  0  0  0
 20  9  1  0  0  0  0
 21 12  1  0  0  0  0
 23 12  1  0  0  0  0
 27 17  1  0  0  0  0
 28 18  1  0  0  0  0
 29 18  1  0  0  0  0
M  END