
  Mrv0541 02201500303D          

 47 50  0  0  0  0            999 V2000
    0.0000    0.0000    0.0000 Cl  0  0  0  0  0  0  0  0  0  0  0  0
    1.6959    0.0000    0.0000 C   0  0  0  0  0  0  0  0  0  0  0  0
    2.4158    0.0000    1.2060 C   0  0  0  0  0  0  0  0  0  0  0  0
    1.7291   -0.0083    2.4932 C   0  0  0  0  0  0  0  0  0  0  0  0
    1.4287   -1.1230    3.1921 N   0  0  0  0  0  0  0  0  0  0  0  0
    0.7916   -0.7850    4.2971 O   0  0  0  0  0  0  0  0  0  0  0  0
    1.2328    1.1561    3.2363 C   0  0  0  0  0  0  0  0  0  0  0  0
    1.2916    2.5808    2.9038 C   0  0  0  0  0  0  0  0  0  0  0  0
    0.5047    3.4089    3.4068 O   0  0  0  0  0  0  0  0  0  0  0  0
    2.2735    2.9908    2.0075 N   0  0  0  0  0  0  0  0  0  0  0  0
    2.4232    4.3457    1.6456 C   0  0  1  0  0  0  0  0  0  0  0  0
    3.8446    5.0224    1.8153 C   0  0  1  0  0  0  0  0  0  0  0  0
    5.2648    4.0165    2.1723 S   0  0  0  0  0  0  0  0  0  0  0  0
    6.0823    4.3358    0.5765 C   0  0  2  0  0  0  0  0  0  0  0  0
    6.4603    3.0071   -0.0346 C   0  0  0  0  0  0  0  0  0  0  0  0
    7.3192    5.1583    0.8528 C   0  0  0  0  0  0  0  0  0  0  0  0
    3.8355    5.3893    0.3828 N   0  0  1  0  0  0  0  0  0  0  0  0
    5.0583    5.0827   -0.3318 C   0  0  1  0  0  0  0  0  0  0  0  0
    5.7128    6.3196   -0.9479 C   0  0  0  0  0  0  0  0  0  0  0  0
    5.5725    7.5634   -0.4198 O   0  0  0  0  0  0  0  0  0  0  0  0
    6.4177    6.2779   -1.9565 O   0  0  0  0  0  0  0  0  0  0  0  0
    2.6106    4.6571    0.1218 C   0  0  0  0  0  0  0  0  0  0  0  0
    2.0068    4.4441   -0.9126 O   0  0  0  0  0  0  0  0  0  0  0  0
    0.6345    0.6129    4.3684 C   0  0  0  0  0  0  0  0  0  0  0  0
   -0.0688    1.1561    5.5278 C   0  0  0  0  0  0  0  0  0  0  0  0
    3.8162   -0.0193    1.1719 C   0  0  0  0  0  0  0  0  0  0  0  0
    4.4885   -0.0251   -0.0481 C   0  0  0  0  0  0  0  0  0  0  0  0
    2.3762   -0.0029   -1.2238 C   0  0  0  0  0  0  0  0  0  0  0  0
    3.7689   -0.0163   -1.2435 C   0  0  0  0  0  0  0  0  0  0  0  0
    7.1813    2.4709    0.6302 H   0  0  0  0  0  0  0  0  0  0  0  0
    6.9495    3.1693   -1.0277 H   0  0  0  0  0  0  0  0  0  0  0  0
    5.5609    2.3584   -0.1786 H   0  0  0  0  0  0  0  0  0  0  0  0
    7.9142    5.2926   -0.0863 H   0  0  0  0  0  0  0  0  0  0  0  0
    7.9612    4.6425    1.6081 H   0  0  0  0  0  0  0  0  0  0  0  0
    7.0467    6.1680    1.2479 H   0  0  0  0  0  0  0  0  0  0  0  0
    4.9551    7.5564    0.3250 H   0  0  0  0  0  0  0  0  0  0  0  0
    4.8066    4.4192   -1.2197 H   0  0  0  0  0  0  0  0  0  0  0  0
    3.8143    5.9105    2.4880 H   0  0  0  0  0  0  0  0  0  0  0  0
    1.6044    4.9722    2.0990 H   0  0  0  0  0  0  0  0  0  0  0  0
    2.9662    2.3417    1.7057 H   0  0  0  0  0  0  0  0  0  0  0  0
    0.5493    1.0203    6.4519 H   0  0  0  0  0  0  0  0  0  0  0  0
   -1.0433    0.6242    5.6740 H   0  0  0  0  0  0  0  0  0  0  0  0
   -0.2624    2.2487    5.3661 H   0  0  0  0  0  0  0  0  0  0  0  0
    5.5887   -0.0470   -0.0660 H   0  0  0  0  0  0  0  0  0  0  0  0
    4.3825   -0.0403    2.1160 H   0  0  0  0  0  0  0  0  0  0  0  0
    4.3002   -0.0257   -2.2076 H   0  0  0  0  0  0  0  0  0  0  0  0
    1.8090    0.0025   -2.1679 H   0  0  0  0  0  0  0  0  0  0  0  0
  1  2  1  0  0  0  0
  2  3  2  0  0  0  0
  3  4  1  0  0  0  0
  4  5  2  0  0  0  0
  4  7  1  0  0  0  0
  5  6  1  0  0  0  0
  6 24  1  0  0  0  0
  7 24  2  0  0  0  0
  8  7  1  0  0  0  0
  8  9  2  0  0  0  0
 10  8  1  0  0  0  0
 11 12  1  0  0  0  0
 11 10  1  0  0  0  0
 11 39  1  1  0  0  0
 12 13  1  0  0  0  0
 12 38  1  1  0  0  0
 14 16  1  0  0  0  0
 14 13  1  0  0  0  0
 15 14  1  0  0  0  0
 15 30  1  0  0  0  0
 16 35  1  0  0  0  0
 16 34  1  0  0  0  0
 17 12  1  0  0  0  0
 18 17  1  0  0  0  0
 18 14  1  0  0  0  0
 18 37  1  6  0  0  0
 19 20  1  0  0  0  0
 19 18  1  0  0  0  0
 20 36  1  0  0  0  0
 21 19  2  0  0  0  0
 22 17  1  0  0  0  0
 22 11  1  0  0  0  0
 23 22  2  0  0  0  0
 24 25  1  0  0  0  0
 25 42  1  0  0  0  0
 25 41  1  0  0  0  0
 26  3  1  0  0  0  0
 26 45  1  0  0  0  0
 27 26  2  0  0  0  0
 28  2  1  0  0  0  0
 29 28  2  0  0  0  0
 29 27  1  0  0  0  0
 31 15  1  0  0  0  0
 32 15  1  0  0  0  0
 33 16  1  0  0  0  0
 40 10  1  0  0  0  0
 43 25  1  0  0  0  0
 44 27  1  0  0  0  0
 46 29  1  0  0  0  0
 47 28  1  0  0  0  0
M  END