
  Mrv0541 02201500303D          

 46 50  0  0  0  0            999 V2000
    0.0000    0.0000    0.0000 F   0  0  0  0  0  0  0  0  0  0  0  0
    1.3576    0.0000    0.0000 C   0  0  0  0  0  0  0  0  0  0  0  0
    2.1018    0.0000    1.2287 C   0  0  0  0  0  0  0  0  0  0  0  0
    1.5151   -0.1193    2.4869 N   0  0  2  0  0  0  0  0  0  0  0  0
    0.0756    0.1151    2.7380 C   0  0  1  0  0  0  0  0  0  0  0  0
   -0.0126   -0.1058    4.2911 C   0  0  1  0  0  0  0  0  0  0  0  0
   -0.2306    1.6640    2.7072 C   0  0  2  0  0  0  0  0  0  0  0  0
    2.2086    0.4662    3.6556 C   0  0  1  0  0  0  0  0  0  0  0  0
    1.0407    1.0244    4.5613 C   0  0  1  0  0  0  0  0  0  0  0  0
    0.3956    2.2033    3.9369 N   0  0  1  0  0  0  0  0  0  0  0  0
    1.2409    3.3477    3.7374 C   0  0  0  0  0  0  0  0  0  0  0  0
    3.5102    0.0086    1.1271 C   0  0  0  0  0  0  0  0  0  0  0  0
    4.1690    0.0040   -0.1181 C   0  0  0  0  0  0  0  0  0  0  0  0
    5.5758   -0.0029   -0.1970 N   0  0  0  0  0  0  0  0  0  0  0  0
    6.3623   -0.0772    1.0005 C   0  0  2  0  0  0  0  0  0  0  0  0
    6.5398    1.1100    1.9308 C   0  0  1  0  0  0  0  0  0  0  0  0
    7.7047    0.6161    1.1301 C   0  0  1  0  0  0  0  0  0  0  0  0
    6.1878   -0.0133   -1.4218 C   0  0  0  0  0  0  0  0  0  0  0  0
    2.0152   -0.0001   -1.2294 C   0  0  0  0  0  0  0  0  0  0  0  0
    3.4111    0.0054   -1.3148 C   0  0  0  0  0  0  0  0  0  0  0  0
    4.0524    0.0104   -2.6393 C   0  0  0  0  0  0  0  0  0  0  0  0
    3.3786    0.0226   -3.6873 O   0  0  0  0  0  0  0  0  0  0  0  0
    5.5091   -0.0010   -2.6211 C   0  0  0  0  0  0  0  0  0  0  0  0
    6.3307    0.0001   -3.8389 C   0  0  0  0  0  0  0  0  0  0  0  0
    5.7955   -0.0159   -5.0857 O   0  0  0  0  0  0  0  0  0  0  0  0
    7.5704    0.0160   -3.8422 O   0  0  0  0  0  0  0  0  0  0  0  0
   -1.0259    0.1101    4.6907 H   0  0  0  0  0  0  0  0  0  0  0  0
    0.3273   -1.1057    4.6330 H   0  0  0  0  0  0  0  0  0  0  0  0
   -1.3360    1.8303    2.7781 H   0  0  0  0  0  0  0  0  0  0  0  0
    0.1511    2.1364    1.7658 H   0  0  0  0  0  0  0  0  0  0  0  0
   -0.5828   -0.5076    2.0996 H   0  0  0  0  0  0  0  0  0  0  0  0
    0.5912    4.2029    3.4107 H   0  0  0  0  0  0  0  0  0  0  0  0
    1.7284    3.6139    4.7117 H   0  0  0  0  0  0  0  0  0  0  0  0
    2.0444    3.2052    2.9631 H   0  0  0  0  0  0  0  0  0  0  0  0
    1.3372    1.2129    5.6117 H   0  0  0  0  0  0  0  0  0  0  0  0
    2.7570   -0.3508    4.1915 H   0  0  0  0  0  0  0  0  0  0  0  0
    2.9329    1.2731    3.3728 H   0  0  0  0  0  0  0  0  0  0  0  0
    6.0886    2.0839    1.6684 H   0  0  0  0  0  0  0  0  0  0  0  0
    6.5025    0.9164    3.0179 H   0  0  0  0  0  0  0  0  0  0  0  0
    8.5175    0.0593    1.6313 H   0  0  0  0  0  0  0  0  0  0  0  0
    8.0859    1.2444    0.3040 H   0  0  0  0  0  0  0  0  0  0  0  0
    6.2534   -1.0834    1.4711 H   0  0  0  0  0  0  0  0  0  0  0  0
    7.3012   -0.0348   -1.4151 H   0  0  0  0  0  0  0  0  0  0  0  0
    4.1155    0.0010    2.0489 H   0  0  0  0  0  0  0  0  0  0  0  0
    4.8253   -0.0274   -5.0619 H   0  0  0  0  0  0  0  0  0  0  0  0
    1.4268   -0.0002   -2.1652 H   0  0  0  0  0  0  0  0  0  0  0  0
  1  2  1  0  0  0  0
  2  3  2  0  0  0  0
  3  4  1  0  0  0  0
  4  5  1  0  0  0  0
  4  8  1  0  0  0  0
  5  6  1  0  0  0  0
  5 31  1  6  0  0  0
  6  9  1  0  0  0  0
  6 28  1  0  0  0  0
  6 27  1  0  0  0  0
  7  5  1  0  0  0  0
  7 29  1  0  0  0  0
  7 10  1  0  0  0  0
  8 36  1  0  0  0  0
  8  9  1  0  0  0  0
  9 35  1  1  0  0  0
 10  9  1  0  0  0  0
 11 10  1  0  0  0  0
 11 33  1  0  0  0  0
 12  3  1  0  0  0  0
 12 44  1  0  0  0  0
 13 12  2  0  0  0  0
 14 13  1  0  0  0  0
 14 15  1  0  0  0  0
 15 17  1  0  0  0  0
 15 42  1  0  0  0  0
 15 16  1  0  0  0  0
 16 39  1  0  0  0  0
 17 40  1  0  0  0  0
 17 16  1  0  0  0  0
 18 43  1  0  0  0  0
 18 14  1  0  0  0  0
 19  2  1  0  0  0  0
 20 19  2  0  0  0  0
 20 13  1  0  0  0  0
 21 23  1  0  0  0  0
 21 20  1  0  0  0  0
 22 21  2  0  0  0  0
 23 18  2  0  0  0  0
 24 23  1  0  0  0  0
 25 45  1  0  0  0  0
 25 24  1  0  0  0  0
 26 24  2  0  0  0  0
 30  7  1  0  0  0  0
 32 11  1  0  0  0  0
 34 11  1  0  0  0  0
 37  8  1  0  0  0  0
 38 16  1  0  0  0  0
 41 17  1  0  0  0  0
 46 19  1  0  0  0  0
M  END