
  Mrv0541 02201500303D          

 29 30  0  0  0  0            999 V2000
    0.0000    0.0000    0.0000 O   0  0  0  0  0  0  0  0  0  0  0  0
    6.4748    0.0000    0.0000 N   0  0  0  0  0  0  0  0  0  0  0  0
    0.4466    0.0000   -2.3629 O   0  0  0  0  0  0  0  0  0  0  0  0
   -0.1983   -6.3477   -1.2610 N   0  0  0  0  0  0  0  0  0  0  0  0
    0.7151   -0.5355   -1.0885 S   0  0  2  0  0  0  0  0  0  0  0  0
    5.1309   -0.1782   -0.2540 C   0  0  0  0  0  0  0  0  0  0  0  0
    0.4948   -2.1910   -1.1301 C   0  0  0  0  0  0  0  0  0  0  0  0
    0.0669   -4.9952   -1.2109 C   0  0  0  0  0  0  0  0  0  0  0  0
   -0.0491   -4.2743    0.0073 C   0  0  0  0  0  0  0  0  0  0  0  0
    0.1573   -2.9064    0.0276 C   0  0  0  0  0  0  0  0  0  0  0  0
    0.6033   -2.9065   -2.3311 C   0  0  0  0  0  0  0  0  0  0  0  0
    0.4038   -4.2743   -2.3874 C   0  0  0  0  0  0  0  0  0  0  0  0
    2.3530   -0.4236   -0.7790 C   0  0  0  0  0  0  0  0  0  0  0  0
    2.8392   -0.3556    0.5344 C   0  0  0  0  0  0  0  0  0  0  0  0
    4.1905   -0.2418    0.8084 C   0  0  0  0  0  0  0  0  0  0  0  0
    4.6430   -0.2418   -1.5863 C   0  0  0  0  0  0  0  0  0  0  0  0
    3.2849   -0.3556   -1.8243 C   0  0  0  0  0  0  0  0  0  0  0  0
    0.8430   -2.3546   -3.2586 H   0  0  0  0  0  0  0  0  0  0  0  0
    0.4934   -4.7992   -3.3497 H   0  0  0  0  0  0  0  0  0  0  0  0
    0.0918   -6.8474   -2.0655 H   0  0  0  0  0  0  0  0  0  0  0  0
   -0.2219   -6.8473   -0.4061 H   0  0  0  0  0  0  0  0  0  0  0  0
   -0.3170   -4.7991    0.9359 H   0  0  0  0  0  0  0  0  0  0  0  0
    0.0417   -2.3545    0.9786 H   0  0  0  0  0  0  0  0  0  0  0  0
    2.1164   -0.3814    1.3707 H   0  0  0  0  0  0  0  0  0  0  0  0
    4.5323   -0.1867    1.8523 H   0  0  0  0  0  0  0  0  0  0  0  0
    6.7988   -0.1692    0.9205 H   0  0  0  0  0  0  0  0  0  0  0  0
    7.1124   -0.1691   -0.7388 H   0  0  0  0  0  0  0  0  0  0  0  0
    5.3423   -0.1867   -2.4334 H   0  0  0  0  0  0  0  0  0  0  0  0
    2.9172   -0.3814   -2.8667 H   0  0  0  0  0  0  0  0  0  0  0  0
  2 26  1  0  0  0  0
  3  5  2  0  0  0  0
  4  8  1  0  0  0  0
  4 21  1  0  0  0  0
  5 13  1  0  0  0  0
  5  1  2  0  0  0  0
  6  2  1  0  0  0  0
  6 15  2  0  0  0  0
  7  5  1  0  0  0  0
  7 10  2  0  0  0  0
  8  9  2  0  0  0  0
  9 10  1  0  0  0  0
  9 22  1  0  0  0  0
 10 23  1  0  0  0  0
 11  7  1  0  0  0  0
 12 11  2  0  0  0  0
 12  8  1  0  0  0  0
 13 14  2  0  0  0  0
 14 15  1  0  0  0  0
 14 24  1  0  0  0  0
 15 25  1  0  0  0  0
 16  6  1  0  0  0  0
 17 16  2  0  0  0  0
 17 13  1  0  0  0  0
 18 11  1  0  0  0  0
 19 12  1  0  0  0  0
 20  4  1  0  0  0  0
 27  2  1  0  0  0  0
 28 16  1  0  0  0  0
 29 17  1  0  0  0  0
M  END