
  Mrv0541 02201500303D          

 42 44  0  0  0  0            999 V2000
    0.0000    0.0000    0.0000 N   0  0  0  0  0  0  0  0  0  0  0  0
    1.4146    0.0000    0.0000 C   0  0  0  0  0  0  0  0  0  0  0  0
    2.2537    0.0000    1.1379 C   0  0  0  0  0  0  0  0  0  0  0  0
    1.8141    0.0118    2.5611 C   0  0  2  0  0  0  0  0  0  0  0  0
    3.6489    0.0332    0.9571 C   0  0  0  0  0  0  0  0  0  0  0  0
    4.2303    0.0552   -0.3009 C   0  0  0  0  0  0  0  0  0  0  0  0
    2.0312    0.0379   -1.2826 C   0  0  0  0  0  0  0  0  0  0  0  0
    3.4084    0.0581   -1.4284 C   0  0  0  0  0  0  0  0  0  0  0  0
   -0.7613    0.6688    0.9933 C   0  0  0  0  0  0  0  0  0  0  0  0
   -0.6096    0.4290    2.3765 C   0  0  0  0  0  0  0  0  0  0  0  0
    0.4282   -0.5242    2.8456 C   0  0  1  0  0  0  0  0  0  0  0  0
   -1.4156    1.1081    3.2946 C   0  0  0  0  0  0  0  0  0  0  0  0
   -2.3759    2.0174    2.8616 C   0  0  0  0  0  0  0  0  0  0  0  0
   -1.7385    1.5973    0.5682 C   0  0  0  0  0  0  0  0  0  0  0  0
   -2.5327    2.2601    1.4976 C   0  0  0  0  0  0  0  0  0  0  0  0
   -0.6741   -1.0856   -0.6827 C   0  0  1  0  0  0  0  0  0  0  0  0
   -0.7589   -2.4143    0.0717 C   0  0  2  0  0  0  0  0  0  0  0  0
   -1.4499   -3.4462   -0.8165 C   0  0  1  0  0  0  0  0  0  0  0  0
   -1.6298   -4.7286   -0.1649 N   0  0  1  0  0  0  0  0  0  0  0  0
   -2.0931   -5.7632   -1.0494 C   0  0  0  0  0  0  0  0  0  0  0  0
    1.8801    1.0713    2.9367 H   0  0  0  0  0  0  0  0  0  0  0  0
    2.5459   -0.5944    3.1656 H   0  0  0  0  0  0  0  0  0  0  0  0
    5.3237    0.0744   -0.4096 H   0  0  0  0  0  0  0  0  0  0  0  0
    4.2960    0.0390    1.8490 H   0  0  0  0  0  0  0  0  0  0  0  0
    3.8518    0.0855   -2.4348 H   0  0  0  0  0  0  0  0  0  0  0  0
    1.4051    0.0666   -2.1889 H   0  0  0  0  0  0  0  0  0  0  0  0
    0.2899   -1.5218    2.3471 H   0  0  0  0  0  0  0  0  0  0  0  0
    0.3266   -0.6914    3.9521 H   0  0  0  0  0  0  0  0  0  0  0  0
   -3.0072    2.5428    3.5926 H   0  0  0  0  0  0  0  0  0  0  0  0
   -1.2889    0.9159    4.3709 H   0  0  0  0  0  0  0  0  0  0  0  0
   -3.2870    2.9820    1.1510 H   0  0  0  0  0  0  0  0  0  0  0  0
   -1.8738    1.8004   -0.5055 H   0  0  0  0  0  0  0  0  0  0  0  0
   -1.4018   -5.9666   -1.9143 H   0  0  0  0  0  0  0  0  0  0  0  0
   -2.2135   -6.7100   -0.4603 H   0  0  0  0  0  0  0  0  0  0  0  0
   -3.0924   -5.4690   -1.4661 H   0  0  0  0  0  0  0  0  0  0  0  0
   -0.7854   -5.0082    0.2986 H   0  0  0  0  0  0  0  0  0  0  0  0
   -2.4751   -3.0666   -1.0924 H   0  0  0  0  0  0  0  0  0  0  0  0
   -0.8618   -3.5403   -1.7788 H   0  0  0  0  0  0  0  0  0  0  0  0
   -1.3375   -2.2789    1.0225 H   0  0  0  0  0  0  0  0  0  0  0  0
    0.2697   -2.7666    0.3450 H   0  0  0  0  0  0  0  0  0  0  0  0
   -1.7220   -0.7358   -0.9124 H   0  0  0  0  0  0  0  0  0  0  0  0
   -0.1456   -1.2661   -1.6620 H   0  0  0  0  0  0  0  0  0  0  0  0
  1  2  1  0  0  0  0
  1  9  1  0  0  0  0
  2  3  2  0  0  0  0
  3  4  1  0  0  0  0
  4 11  1  0  0  0  0
  4 21  1  0  0  0  0
  4 22  1  0  0  0  0
  5  3  1  0  0  0  0
  5 24  1  0  0  0  0
  6  5  2  0  0  0  0
  7  2  1  0  0  0  0
  8  7  2  0  0  0  0
  8  6  1  0  0  0  0
  9 10  1  0  0  0  0
 10 11  1  0  0  0  0
 10 12  2  0  0  0  0
 11 28  1  0  0  0  0
 12 30  1  0  0  0  0
 13 12  1  0  0  0  0
 13 29  1  0  0  0  0
 14  9  2  0  0  0  0
 14 15  1  0  0  0  0
 15 13  2  0  0  0  0
 16  1  1  0  0  0  0
 16 17  1  0  0  0  0
 17 40  1  0  0  0  0
 17 39  1  0  0  0  0
 18 19  1  0  0  0  0
 18 17  1  0  0  0  0
 19 36  1  0  0  0  0
 20 34  1  0  0  0  0
 20 19  1  0  0  0  0
 23  6  1  0  0  0  0
 25  8  1  0  0  0  0
 26  7  1  0  0  0  0
 27 11  1  0  0  0  0
 31 15  1  0  0  0  0
 32 14  1  0  0  0  0
 33 20  1  0  0  0  0
 35 20  1  0  0  0  0
 37 18  1  0  0  0  0
 38 18  1  0  0  0  0
 41 16  1  0  0  0  0
 42 16  1  0  0  0  0
M  END