
  Mrv0541 02201500303D          

 57 60  0  0  0  0            999 V2000
    0.0000    0.0000    0.0000 C   0  0  2  0  0  0  0  0  0  0  0  0
    1.5104    0.0000    0.0000 C   0  0  0  0  0  0  0  0  0  0  0  0
    2.2431    0.0000    1.1257 C   0  0  0  0  0  0  0  0  0  0  0  0
    1.6439   -0.0392    2.4681 C   0  0  0  0  0  0  0  0  0  0  0  0
    0.1754   -0.1371    2.5018 C   0  0  0  0  0  0  0  0  0  0  0  0
   -0.5609   -0.1347    1.3859 C   0  0  0  0  0  0  0  0  0  0  0  0
    2.1536    0.0237   -1.3442 C   0  0  2  0  0  0  0  0  0  0  0  0
    1.6708   -1.1350   -2.1924 C   0  0  1  0  0  0  0  0  0  0  0  0
    0.1558   -1.1478   -2.2904 C   0  0  1  0  0  0  0  0  0  0  0  0
   -0.0821   -2.3955   -0.2361 F   0  0  0  0  0  0  0  0  0  0  0  0
   -2.0517   -1.3106   -0.9759 C   0  0  1  0  0  0  0  0  0  0  0  0
   -2.5151   -2.4046   -1.9445 C   0  0  2  0  0  0  0  0  0  0  0  0
   -1.8513   -2.3009   -3.3055 C   0  0  1  0  0  0  0  0  0  0  0  0
   -0.3247   -2.3437   -3.0848 C   0  0  1  0  0  0  0  0  0  0  0  0
    0.2513   -2.6003   -4.4692 C   0  0  2  0  0  0  0  0  0  0  0  0
   -0.7941   -3.4759   -5.1856 C   0  0  2  0  0  0  0  0  0  0  0  0
   -2.0367   -3.5384   -4.2469 C   0  0  2  0  0  0  0  0  0  0  0  0
   -3.3919   -3.5123   -4.9429 C   0  0  0  0  0  0  0  0  0  0  0  0
   -3.5194   -3.0452   -6.3707 C   0  0  1  0  0  0  0  0  0  0  0  0
   -4.8608   -2.8300   -6.7503 O   0  0  0  0  0  0  0  0  0  0  0  0
   -4.3902   -3.9219   -4.3345 O   0  0  0  0  0  0  0  0  0  0  0  0
   -1.9471   -4.7527   -3.5136 O   0  0  0  0  0  0  0  0  0  0  0  0
   -0.2514   -4.8425   -5.5227 C   0  0  0  0  0  0  0  0  0  0  0  0
   -0.4885   -1.2177   -0.8716 C   0  0  1  0  0  0  0  0  0  0  0  0
   -0.4683    1.3540   -0.5401 C   0  0  0  0  0  0  0  0  0  0  0  0
    2.3289    0.0027    3.4990 O   0  0  0  0  0  0  0  0  0  0  0  0
   -2.5697   -0.0349   -1.3095 O   0  0  0  0  0  0  0  0  0  0  0  0
   -0.2796   -0.2144    3.5022 H   0  0  0  0  0  0  0  0  0  0  0  0
   -1.6612   -0.1984    1.4297 H   0  0  0  0  0  0  0  0  0  0  0  0
    3.3450    0.0196    1.0982 H   0  0  0  0  0  0  0  0  0  0  0  0
   -0.4257    1.3825   -1.6532 H   0  0  0  0  0  0  0  0  0  0  0  0
    0.1845    2.1644   -0.1337 H   0  0  0  0  0  0  0  0  0  0  0  0
   -1.5213    1.5591   -0.2264 H   0  0  0  0  0  0  0  0  0  0  0  0
    3.2707   -0.0255   -1.2483 H   0  0  0  0  0  0  0  0  0  0  0  0
    1.9006    0.9968   -1.8479 H   0  0  0  0  0  0  0  0  0  0  0  0
    2.1069   -1.0554   -3.2223 H   0  0  0  0  0  0  0  0  0  0  0  0
    2.0222   -2.1026   -1.7451 H   0  0  0  0  0  0  0  0  0  0  0  0
   -0.1902   -0.1989   -2.7811 H   0  0  0  0  0  0  0  0  0  0  0  0
   -0.1061   -3.2684   -2.4674 H   0  0  0  0  0  0  0  0  0  0  0  0
    1.2373   -3.1222   -4.4004 H   0  0  0  0  0  0  0  0  0  0  0  0
    0.4071   -1.6428   -5.0253 H   0  0  0  0  0  0  0  0  0  0  0  0
    0.6117   -4.7479   -6.2249 H   0  0  0  0  0  0  0  0  0  0  0  0
   -1.0441   -5.4647   -6.0035 H   0  0  0  0  0  0  0  0  0  0  0  0
    0.0911   -5.3687   -4.5984 H   0  0  0  0  0  0  0  0  0  0  0  0
   -1.0924   -2.9611   -6.1378 H   0  0  0  0  0  0  0  0  0  0  0  0
   -1.8099   -0.9773   -5.0356 H   0  0  0  0  0  0  0  0  0  0  0  0
   -2.1015   -0.1325   -3.4657 H   0  0  0  0  0  0  0  0  0  0  0  0
   -2.3220   -1.0611   -4.0461 C   0  0  0  0  0  0  0  0  0  0  0  0
   -3.4264   -1.1119   -4.2143 H   0  0  0  0  0  0  0  0  0  0  0  0
   -2.7575   -4.8320   -2.9886 H   0  0  0  0  0  0  0  0  0  0  0  0
   -3.0149   -2.0512   -6.5182 H   0  0  0  0  0  0  0  0  0  0  0  0
   -3.0493   -3.8171   -7.0420 H   0  0  0  0  0  0  0  0  0  0  0  0
   -5.3972   -3.5395   -6.3679 H   0  0  0  0  0  0  0  0  0  0  0  0
   -3.6296   -2.3568   -2.0584 H   0  0  0  0  0  0  0  0  0  0  0  0
   -2.2545   -3.3930   -1.4780 H   0  0  0  0  0  0  0  0  0  0  0  0
   -3.4827   -0.1671   -1.5967 H   0  0  0  0  0  0  0  0  0  0  0  0
   -2.4361   -1.5878    0.0512 H   0  0  0  0  0  0  0  0  0  0  0  0
  1  6  1  0  0  0  0
  1 25  1  6  0  0  0
  2  1  1  0  0  0  0
  2  3  2  0  0  0  0
  3  4  1  0  0  0  0
  4  5  1  0  0  0  0
  4 26  2  0  0  0  0
  5 28  1  0  0  0  0
  6 29  1  0  0  0  0
  6  5  2  0  0  0  0
  7 34  1  0  0  0  0
  7  2  1  0  0  0  0
  8 37  1  0  0  0  0
  8  7  1  0  0  0  0
  9  8  1  0  0  0  0
  9 24  1  0  0  0  0
  9 38  1  6  0  0  0
 11 24  1  0  0  0  0
 11 57  1  1  0  0  0
 12 55  1  0  0  0  0
 12 11  1  0  0  0  0
 13 14  1  0  0  0  0
 13 12  1  0  0  0  0
 13 48  1  6  0  0  0
 14 39  1  1  0  0  0
 14  9  1  0  0  0  0
 15 40  1  0  0  0  0
 15 14  1  0  0  0  0
 16 15  1  0  0  0  0
 16 17  1  0  0  0  0
 16 45  1  6  0  0  0
 17 22  1  1  0  0  0
 17 13  1  0  0  0  0
 18 21  2  0  0  0  0
 18 17  1  0  0  0  0
 19 18  1  0  0  0  0
 20 19  1  0  0  0  0
 20 53  1  0  0  0  0
 22 50  1  0  0  0  0
 23 16  1  0  0  0  0
 23 44  1  0  0  0  0
 24 10  1  1  0  0  0
 24  1  1  0  0  0  0
 25 33  1  0  0  0  0
 25 32  1  0  0  0  0
 27 11  1  0  0  0  0
 30  3  1  0  0  0  0
 31 25  1  0  0  0  0
 35  7  1  0  0  0  0
 36  8  1  0  0  0  0
 41 15  1  0  0  0  0
 42 23  1  0  0  0  0
 43 23  1  0  0  0  0
 46 48  1  0  0  0  0
 48 47  1  0  0  0  0
 49 48  1  0  0  0  0
 51 19  1  0  0  0  0
 52 19  1  0  0  0  0
 54 12  1  0  0  0  0
 56 27  1  0  0  0  0
M  END