
  Mrv0541 02201500303D          

 48 51  0  0  0  0            999 V2000
    0.0000    0.0000    0.0000 C   0  0  0  0  0  0  0  0  0  0  0  0
    1.3772    0.0000    0.0000 C   0  0  0  0  0  0  0  0  0  0  0  0
    2.1117    0.0000    1.2586 C   0  0  0  0  0  0  0  0  0  0  0  0
    1.2766    0.0368    2.4713 C   0  0  0  0  0  0  0  0  0  0  0  0
   -0.1387    0.0431    2.4042 C   0  0  0  0  0  0  0  0  0  0  0  0
   -0.7632    0.0014    1.1403 N   0  0  0  0  0  0  0  0  0  0  0  0
    1.8939    0.0717    3.7249 C   0  0  0  0  0  0  0  0  0  0  0  0
    1.1484    0.1106    4.9045 C   0  0  0  0  0  0  0  0  0  0  0  0
   -0.2850    0.1493    4.8618 C   0  0  0  0  0  0  0  0  0  0  0  0
   -0.8940    0.1087    3.5912 C   0  0  0  0  0  0  0  0  0  0  0  0
   -0.5189    0.7519    7.2424 C   0  0  1  0  0  0  0  0  0  0  0  0
   -1.5947    1.2410    8.2352 C   0  0  1  0  0  0  0  0  0  0  0  0
   -2.6634    0.2733    8.4359 N   0  0  2  0  0  0  0  0  0  0  0  0
   -3.2343   -0.1849    7.1784 C   0  0  1  0  0  0  0  0  0  0  0  0
   -2.1663   -0.6756    6.1787 C   0  0  1  0  0  0  0  0  0  0  0  0
   -1.1002    0.2947    5.9946 N   0  0  0  0  0  0  0  0  0  0  0  0
   -2.1864   -0.0203    1.0186 C   0  0  0  0  0  0  0  0  0  0  0  0
   -2.9267   -1.1262    1.4833 C   0  0  0  0  0  0  0  0  0  0  0  0
   -4.3082   -1.1529    1.3427 C   0  0  0  0  0  0  0  0  0  0  0  0
   -4.9717   -0.0739    0.7293 C   0  0  0  0  0  0  0  0  0  0  0  0
   -4.2383    1.0311    0.2593 C   0  0  0  0  0  0  0  0  0  0  0  0
   -2.8569    1.0571    0.4048 C   0  0  0  0  0  0  0  0  0  0  0  0
    1.8171    0.1091    6.0855 F   0  0  0  0  0  0  0  0  0  0  0  0
    3.3549   -0.0260    1.3282 O   0  0  0  0  0  0  0  0  0  0  0  0
    2.0328    0.0031   -1.3155 C   0  0  0  0  0  0  0  0  0  0  0  0
    3.3806   -0.0402   -1.4643 O   0  0  0  0  0  0  0  0  0  0  0  0
    1.4249    0.0442   -2.3949 O   0  0  0  0  0  0  0  0  0  0  0  0
   -0.5591   -0.0068   -0.9632 H   0  0  0  0  0  0  0  0  0  0  0  0
   -2.4154   -1.9776    1.9618 H   0  0  0  0  0  0  0  0  0  0  0  0
   -2.2922    1.9278    0.0323 H   0  0  0  0  0  0  0  0  0  0  0  0
   -4.7640    1.8699   -0.2219 H   0  0  0  0  0  0  0  0  0  0  0  0
   -6.3167   -0.0999    0.5912 F   0  0  0  0  0  0  0  0  0  0  0  0
   -4.8889   -2.0159    1.7021 H   0  0  0  0  0  0  0  0  0  0  0  0
   -1.9942    0.1562    3.5219 H   0  0  0  0  0  0  0  0  0  0  0  0
    2.9980    0.0554    3.7742 H   0  0  0  0  0  0  0  0  0  0  0  0
    3.8382   -0.0717   -0.6090 H   0  0  0  0  0  0  0  0  0  0  0  0
    0.1693    1.6155    7.0247 H   0  0  0  0  0  0  0  0  0  0  0  0
   -1.0868    1.4039    9.2268 H   0  0  0  0  0  0  0  0  0  0  0  0
    0.0826   -0.0671    7.7340 H   0  0  0  0  0  0  0  0  0  0  0  0
   -3.1705    0.9931   10.3358 H   0  0  0  0  0  0  0  0  0  0  0  0
   -4.4080   -0.0837    9.5388 H   0  0  0  0  0  0  0  0  0  0  0  0
   -4.2239    1.6486    8.9991 H   0  0  0  0  0  0  0  0  0  0  0  0
   -3.6684    0.7407    9.3632 C   0  0  0  0  0  0  0  0  0  0  0  0
   -1.7448   -1.6554    6.5493 H   0  0  0  0  0  0  0  0  0  0  0  0
   -2.6791   -0.8655    5.1963 H   0  0  0  0  0  0  0  0  0  0  0  0
   -3.9113   -1.0557    7.4044 H   0  0  0  0  0  0  0  0  0  0  0  0
   -3.8538    0.6178    6.6813 H   0  0  0  0  0  0  0  0  0  0  0  0
   -1.9922    2.2362    7.8796 H   0  0  0  0  0  0  0  0  0  0  0  0
  1  2  2  0  0  0  0
  1  6  1  0  0  0  0
  2  3  1  0  0  0  0
  3 24  2  0  0  0  0
  3  4  1  0  0  0  0
  4  7  1  0  0  0  0
  5  4  2  0  0  0  0
  5 10  1  0  0  0  0
  6  5  1  0  0  0  0
  7 35  1  0  0  0  0
  7  8  2  0  0  0  0
  8 23  1  0  0  0  0
  9  8  1  0  0  0  0
  9 16  1  0  0  0  0
 10  9  2  0  0  0  0
 11 39  1  0  0  0  0
 11 12  1  0  0  0  0
 12 13  1  0  0  0  0
 12 38  1  0  0  0  0
 13 43  1  0  0  0  0
 14 46  1  0  0  0  0
 14 13  1  0  0  0  0
 15 44  1  0  0  0  0
 15 14  1  0  0  0  0
 16 15  1  0  0  0  0
 16 11  1  0  0  0  0
 17  6  1  0  0  0  0
 17 18  2  0  0  0  0
 18 29  1  0  0  0  0
 19 18  1  0  0  0  0
 19 33  1  0  0  0  0
 20 19  2  0  0  0  0
 21 22  2  0  0  0  0
 21 20  1  0  0  0  0
 22 17  1  0  0  0  0
 25  2  1  0  0  0  0
 26 25  1  0  0  0  0
 26 36  1  0  0  0  0
 27 25  2  0  0  0  0
 28  1  1  0  0  0  0
 30 22  1  0  0  0  0
 31 21  1  0  0  0  0
 32 20  1  0  0  0  0
 34 10  1  0  0  0  0
 37 11  1  0  0  0  0
 42 43  1  0  0  0  0
 43 41  1  0  0  0  0
 43 40  1  0  0  0  0
 45 15  1  0  0  0  0
 47 14  1  0  0  0  0
 48 12  1  0  0  0  0
M  END