
  Mrv0541 02201500303D          

 48 51  0  0  0  0            999 V2000
    0.0000    0.0000    0.0000 F   0  0  0  0  0  0  0  0  0  0  0  0
    1.3573    0.0000    0.0000 C   0  0  0  0  0  0  0  0  0  0  0  0
    2.1004    0.0000    1.2263 C   0  0  0  0  0  0  0  0  0  0  0  0
    1.5170    0.0953    2.5010 N   0  0  2  0  0  0  0  0  0  0  0  0
    1.8670   -0.9331    3.4668 C   0  0  1  0  0  0  0  0  0  0  0  0
    1.5222   -0.5139    4.9109 C   0  0  2  0  0  0  0  0  0  0  0  0
    0.1488   -0.0526    5.0559 N   0  0  1  0  0  0  0  0  0  0  0  0
   -0.1350    0.3563    6.4263 C   0  0  1  0  0  0  0  0  0  0  0  0
   -1.5915    0.7008    6.6880 C   0  0  0  0  0  0  0  0  0  0  0  0
    0.1441    0.5466    2.6262 C   0  0  1  0  0  0  0  0  0  0  0  0
   -0.1970    0.9627    4.0728 C   0  0  1  0  0  0  0  0  0  0  0  0
    3.5060   -0.0287    1.1304 C   0  0  0  0  0  0  0  0  0  0  0  0
    2.0165   -0.0046   -1.2308 C   0  0  0  0  0  0  0  0  0  0  0  0
    3.4114   -0.0317   -1.3115 C   0  0  0  0  0  0  0  0  0  0  0  0
    4.1678   -0.0456   -0.1136 C   0  0  0  0  0  0  0  0  0  0  0  0
    5.5749   -0.0676   -0.1894 N   0  0  0  0  0  0  0  0  0  0  0  0
    6.3592   -0.0135    1.0107 C   0  0  1  0  0  0  0  0  0  0  0  0
    6.5006   -1.2042    1.9426 C   0  0  1  0  0  0  0  0  0  0  0  0
    7.6814   -0.7437    1.1453 C   0  0  1  0  0  0  0  0  0  0  0  0
    6.1895   -0.0684   -1.4122 C   0  0  0  0  0  0  0  0  0  0  0  0
    4.0573   -0.0471   -2.6355 C   0  0  0  0  0  0  0  0  0  0  0  0
    3.3850   -0.0428   -3.6843 O   0  0  0  0  0  0  0  0  0  0  0  0
    5.5132   -0.0650   -2.6135 C   0  0  0  0  0  0  0  0  0  0  0  0
    6.3378   -0.0798   -3.8291 C   0  0  0  0  0  0  0  0  0  0  0  0
    5.8063   -0.0575   -5.0773 O   0  0  0  0  0  0  0  0  0  0  0  0
    7.5771   -0.1141   -3.8290 O   0  0  0  0  0  0  0  0  0  0  0  0
   -1.7374    0.8179    7.7891 H   0  0  0  0  0  0  0  0  0  0  0  0
   -1.8752    1.6594    6.1912 H   0  0  0  0  0  0  0  0  0  0  0  0
   -2.2716   -0.1049    6.3215 H   0  0  0  0  0  0  0  0  0  0  0  0
    0.1504   -0.5102    7.0899 H   0  0  0  0  0  0  0  0  0  0  0  0
    0.5020    1.2394    6.7325 H   0  0  0  0  0  0  0  0  0  0  0  0
    2.2654    0.2668    5.2479 H   0  0  0  0  0  0  0  0  0  0  0  0
    1.6524   -1.4217    5.5645 H   0  0  0  0  0  0  0  0  0  0  0  0
    1.3282   -1.8966    3.2295 H   0  0  0  0  0  0  0  0  0  0  0  0
    2.9728   -1.1320    3.4224 H   0  0  0  0  0  0  0  0  0  0  0  0
   -1.3113    1.1192    4.1175 H   0  0  0  0  0  0  0  0  0  0  0  0
    0.3039    1.9498    4.2956 H   0  0  0  0  0  0  0  0  0  0  0  0
   -0.0017    1.4443    1.9631 H   0  0  0  0  0  0  0  0  0  0  0  0
   -0.5797   -0.2565    2.3011 H   0  0  0  0  0  0  0  0  0  0  0  0
    4.1064   -0.0236    2.0560 H   0  0  0  0  0  0  0  0  0  0  0  0
    6.4646   -1.0082    3.0294 H   0  0  0  0  0  0  0  0  0  0  0  0
    6.0233   -2.1655    1.6797 H   0  0  0  0  0  0  0  0  0  0  0  0
    8.0474   -1.3829    0.3207 H   0  0  0  0  0  0  0  0  0  0  0  0
    8.5078   -0.2092    1.6485 H   0  0  0  0  0  0  0  0  0  0  0  0
    6.2764    0.9959    1.4798 H   0  0  0  0  0  0  0  0  0  0  0  0
    7.3031   -0.0700   -1.4032 H   0  0  0  0  0  0  0  0  0  0  0  0
    4.8364   -0.0325   -5.0563 H   0  0  0  0  0  0  0  0  0  0  0  0
    1.4297    0.0002   -2.1675 H   0  0  0  0  0  0  0  0  0  0  0  0
  1  2  1  0  0  0  0
  2  3  2  0  0  0  0
  3  4  1  0  0  0  0
  4 10  1  0  0  0  0
  4  5  1  0  0  0  0
  5  6  1  0  0  0  0
  6  7  1  0  0  0  0
  6 32  1  0  0  0  0
  6 33  1  0  0  0  0
  7  8  1  0  0  0  0
  8  9  1  0  0  0  0
  8 31  1  0  0  0  0
  8 30  1  0  0  0  0
  9 27  1  0  0  0  0
 10 11  1  0  0  0  0
 11 36  1  0  0  0  0
 11 37  1  0  0  0  0
 11  7  1  0  0  0  0
 12  3  1  0  0  0  0
 12 40  1  0  0  0  0
 13  2  1  0  0  0  0
 14 13  2  0  0  0  0
 14 15  1  0  0  0  0
 15 12  2  0  0  0  0
 16 15  1  0  0  0  0
 16 17  1  0  0  0  0
 17 19  1  0  0  0  0
 17 45  1  0  0  0  0
 17 18  1  0  0  0  0
 18 41  1  0  0  0  0
 19 44  1  0  0  0  0
 19 18  1  0  0  0  0
 20 46  1  0  0  0  0
 20 16  1  0  0  0  0
 21 23  1  0  0  0  0
 21 14  1  0  0  0  0
 22 21  2  0  0  0  0
 23 20  2  0  0  0  0
 24 26  2  0  0  0  0
 24 23  1  0  0  0  0
 25 47  1  0  0  0  0
 25 24  1  0  0  0  0
 28  9  1  0  0  0  0
 29  9  1  0  0  0  0
 34  5  1  0  0  0  0
 35  5  1  0  0  0  0
 38 10  1  0  0  0  0
 39 10  1  0  0  0  0
 42 18  1  0  0  0  0
 43 19  1  0  0  0  0
 48 13  1  0  0  0  0
M  END