9577025
  -OEChem-04251811132D

 24 23  0     0  0  0  0  0  0999 V2000
    3.0000    2.6200    0.0000 Cl  0  0  0  0  0  0  0  0  0  0  0  0
    6.4641    2.6200    0.0000 Cl  0  0  0  0  0  0  0  0  0  0  0  0
    0.0000    3.2150    0.0000 Cl  0  0  0  0  0  0  0  0  0  0  0  0
    5.5981    4.1200    0.0000 N   0  0  0  0  0  0  0  0  0  0  0  0
    5.5981    5.1200    0.0000 N   0  0  0  0  0  0  0  0  0  0  0  0
    6.4641    6.6200    0.0000 N   0  0  0  0  0  0  0  0  0  0  0  0
    7.3301    5.1200    0.0000 N   0  0  0  0  0  0  0  0  0  0  0  0
    4.7320    2.6200    0.0000 C   0  0  0  0  0  0  0  0  0  0  0  0
    3.8660    2.1200    0.0000 C   0  0  0  0  0  0  0  0  0  0  0  0
    5.5981    2.1200    0.0000 C   0  0  0  0  0  0  0  0  0  0  0  0
    3.8660    1.1200    0.0000 C   0  0  0  0  0  0  0  0  0  0  0  0
    5.5981    1.1200    0.0000 C   0  0  0  0  0  0  0  0  0  0  0  0
    4.7320    0.6200    0.0000 C   0  0  0  0  0  0  0  0  0  0  0  0
    4.7320    3.6200    0.0000 C   0  0  0  0  0  0  0  0  0  0  0  0
    6.4641    5.6200    0.0000 C   0  0  0  0  0  0  0  0  0  0  0  0
    3.3291    0.8100    0.0000 H   0  0  0  0  0  0  0  0  0  0  0  0
    6.1350    0.8100    0.0000 H   0  0  0  0  0  0  0  0  0  0  0  0
    4.7320    0.0000    0.0000 H   0  0  0  0  0  0  0  0  0  0  0  0
    4.1951    3.9300    0.0000 H   0  0  0  0  0  0  0  0  0  0  0  0
    7.0010    6.9300    0.0000 H   0  0  0  0  0  0  0  0  0  0  0  0
    5.9272    6.9300    0.0000 H   0  0  0  0  0  0  0  0  0  0  0  0
    7.8671    5.4300    0.0000 H   0  0  0  0  0  0  0  0  0  0  0  0
    7.3301    4.5000    0.0000 H   0  0  0  0  0  0  0  0  0  0  0  0
    1.0000    3.2150    0.0000 H   0  0  0  0  0  0  0  0  0  0  0  0
  1  9  1  0  0  0  0
  2 10  1  0  0  0  0
  3 24  1  0  0  0  0
  4  5  1  0  0  0  0
  4 14  2  0  0  0  0
  5 15  2  0  0  0  0
  6 15  1  0  0  0  0
  6 20  1  0  0  0  0
  6 21  1  0  0  0  0
  7 15  1  0  0  0  0
  7 22  1  0  0  0  0
  7 23  1  0  0  0  0
  8  9  2  0  0  0  0
  8 10  1  0  0  0  0
  8 14  1  0  0  0  0
  9 11  1  0  0  0  0
 10 12  2  0  0  0  0
 11 13  2  0  0  0  0
 11 16  1  0  0  0  0
 12 13  1  0  0  0  0
 12 17  1  0  0  0  0
 13 18  1  0  0  0  0
 14 19  1  0  0  0  0
M  END