
  Mrv0541 02201500303D          

 41 43  0  0  0  0            999 V2000
    0.0000    0.0000    0.0000 C   0  0  0  0  0  0  0  0  0  0  0  0
    1.4092    0.0000    0.0000 C   0  0  0  0  0  0  0  0  0  0  0  0
    2.1595    0.0000    1.1939 C   0  0  0  0  0  0  0  0  0  0  0  0
    1.4807    0.0066    2.4388 C   0  0  0  0  0  0  0  0  0  0  0  0
    0.0833    0.0021    2.4541 C   0  0  0  0  0  0  0  0  0  0  0  0
   -0.6595    0.0084    1.2722 C   0  0  0  0  0  0  0  0  0  0  0  0
    3.5682   -0.0181    1.1787 N   0  0  0  0  0  0  0  0  0  0  0  0
    4.2544    0.0345    2.3623 C   0  0  0  0  0  0  0  0  0  0  0  0
    3.6587    0.0531    3.6048 C   0  0  0  0  0  0  0  0  0  0  0  0
    2.2080    0.0271    3.7199 C   0  0  0  0  0  0  0  0  0  0  0  0
   -0.3718    0.9685   -2.2055 C   0  0  1  0  0  0  0  0  0  0  0  0
   -0.8204    0.5753   -3.6299 C   0  0  2  0  0  0  0  0  0  0  0  0
   -2.1936    0.1174   -3.6790 N   0  0  2  0  0  0  0  0  0  0  0  0
   -2.4909   -0.9055   -2.6968 C   0  0  1  0  0  0  0  0  0  0  0  0
   -2.0520   -0.5108   -1.2694 C   0  0  2  0  0  0  0  0  0  0  0  0
   -0.6686   -0.0730   -1.2345 N   0  0  0  0  0  0  0  0  0  0  0  0
    4.5595    0.0971    4.7644 C   0  0  0  0  0  0  0  0  0  0  0  0
    4.1089    0.1043    6.0442 O   0  0  0  0  0  0  0  0  0  0  0  0
    5.7961    0.1313    4.6838 O   0  0  0  0  0  0  0  0  0  0  0  0
    1.6033    0.0241    4.8091 O   0  0  0  0  0  0  0  0  0  0  0  0
    4.3089   -0.0419   -0.0719 C   0  0  2  0  0  0  0  0  0  0  0  0
    4.4102    1.2991   -0.7807 C   0  0  0  0  0  0  0  0  0  0  0  0
   -2.0133    0.0291    1.3640 F   0  0  0  0  0  0  0  0  0  0  0  0
   -2.1606   -1.4137   -0.6067 H   0  0  0  0  0  0  0  0  0  0  0  0
   -2.7448    0.2950   -0.8887 H   0  0  0  0  0  0  0  0  0  0  0  0
   -3.6077   -1.0488   -2.6802 H   0  0  0  0  0  0  0  0  0  0  0  0
   -2.0168   -1.8976   -2.9541 H   0  0  0  0  0  0  0  0  0  0  0  0
   -2.4166   -0.2106   -4.6002 H   0  0  0  0  0  0  0  0  0  0  0  0
   -0.0965   -0.1939   -4.0298 H   0  0  0  0  0  0  0  0  0  0  0  0
   -0.7427    1.4933   -4.2775 H   0  0  0  0  0  0  0  0  0  0  0  0
    0.7366    1.1554   -2.2308 H   0  0  0  0  0  0  0  0  0  0  0  0
   -0.8829    1.9333   -1.9179 H   0  0  0  0  0  0  0  0  0  0  0  0
    1.9313   -0.0143   -0.9708 H   0  0  0  0  0  0  0  0  0  0  0  0
   -0.4375    0.0077    3.4292 H   0  0  0  0  0  0  0  0  0  0  0  0
    3.8224   -0.7973   -0.7543 H   0  0  0  0  0  0  0  0  0  0  0  0
    5.3518   -0.4152    0.1476 H   0  0  0  0  0  0  0  0  0  0  0  0
    3.4005    1.7022   -1.0360 H   0  0  0  0  0  0  0  0  0  0  0  0
    4.9886    1.1566   -1.7257 H   0  0  0  0  0  0  0  0  0  0  0  0
    4.9401    2.0510   -0.1478 H   0  0  0  0  0  0  0  0  0  0  0  0
    5.3659    0.0513    2.2900 H   0  0  0  0  0  0  0  0  0  0  0  0
    3.1397    0.0750    6.0858 H   0  0  0  0  0  0  0  0  0  0  0  0
  1  2  2  0  0  0  0
  1  6  1  0  0  0  0
  2  3  1  0  0  0  0
  3  4  2  0  0  0  0
  4  5  1  0  0  0  0
  4 10  1  0  0  0  0
  5 34  1  0  0  0  0
  6 23  1  0  0  0  0
  6  5  2  0  0  0  0
  7  3  1  0  0  0  0
  7  8  1  0  0  0  0
  8  9  2  0  0  0  0
  9 10  1  0  0  0  0
  9 17  1  0  0  0  0
 10 20  2  0  0  0  0
 11 32  1  0  0  0  0
 11 16  1  0  0  0  0
 12 11  1  0  0  0  0
 13 12  1  0  0  0  0
 13 14  1  0  0  0  0
 14 26  1  0  0  0  0
 14 15  1  0  0  0  0
 15 16  1  0  0  0  0
 15 25  1  0  0  0  0
 15 24  1  0  0  0  0
 16  1  1  0  0  0  0
 17 18  1  0  0  0  0
 18 41  1  0  0  0  0
 19 17  2  0  0  0  0
 21 36  1  0  0  0  0
 21  7  1  0  0  0  0
 22 39  1  0  0  0  0
 22 21  1  0  0  0  0
 27 14  1  0  0  0  0
 28 13  1  0  0  0  0
 29 12  1  0  0  0  0
 30 12  1  0  0  0  0
 31 11  1  0  0  0  0
 33  2  1  0  0  0  0
 35 21  1  0  0  0  0
 37 22  1  0  0  0  0
 38 22  1  0  0  0  0
 40  8  1  0  0  0  0
M  END