
  Mrv0541 02201500303D          

 46 49  0  0  0  0            999 V2000
    0.0000    0.0000    0.0000 C   0  0  0  0  0  0  0  0  0  0  0  0
    1.4567    0.0000    0.0000 C   0  0  0  0  0  0  0  0  0  0  0  0
    2.0867    0.0000    1.3340 C   0  0  0  0  0  0  0  0  0  0  0  0
    1.3056    0.0028    2.5117 C   0  0  0  0  0  0  0  0  0  0  0  0
   -0.0975   -0.0182    2.4175 N   0  0  0  0  0  0  0  0  0  0  0  0
   -0.6970   -0.0051    1.1906 C   0  0  0  0  0  0  0  0  0  0  0  0
    1.9480   -0.0067    3.7772 C   0  0  0  0  0  0  0  0  0  0  0  0
    1.1836    0.0595    4.9388 O   0  0  0  0  0  0  0  0  0  0  0  0
    3.3598   -0.0193    3.9123 C   0  0  0  0  0  0  0  0  0  0  0  0
   -0.0875   -0.5767    4.8185 C   0  0  2  0  0  0  0  0  0  0  0  0
    4.1089    0.0164    2.6894 C   0  0  0  0  0  0  0  0  0  0  0  0
   -0.8986   -0.0046    3.6393 C   0  0  1  0  0  0  0  0  0  0  0  0
    3.4781    0.0085    1.4428 C   0  0  0  0  0  0  0  0  0  0  0  0
    5.3505   -0.0761    7.7156 N   0  0  2  0  0  0  0  0  0  0  0  0
    4.0282    0.5173    7.5790 C   0  0  2  0  0  0  0  0  0  0  0  0
    3.9472   -0.1298    5.1826 N   0  0  1  0  0  0  0  0  0  0  0  0
    5.2805   -0.6917    5.2955 C   0  0  1  0  0  0  0  0  0  0  0  0
    5.5879   -1.1326    6.7426 C   0  0  1  0  0  0  0  0  0  0  0  0
    3.7013    0.9430    6.1322 C   0  0  1  0  0  0  0  0  0  0  0  0
   -0.8058    0.0043   -1.2283 C   0  0  0  0  0  0  0  0  0  0  0  0
   -0.2557    0.0086   -2.4685 O   0  0  0  0  0  0  0  0  0  0  0  0
   -2.0455    0.0043   -1.2458 O   0  0  0  0  0  0  0  0  0  0  0  0
    2.1447   -0.0005   -1.0379 O   0  0  0  0  0  0  0  0  0  0  0  0
   -1.4241    1.3837    3.9984 C   0  0  0  0  0  0  0  0  0  0  0  0
    5.4653    0.0531    2.7131 F   0  0  0  0  0  0  0  0  0  0  0  0
    5.6307   -0.4971    9.0692 C   0  0  0  0  0  0  0  0  0  0  0  0
    0.7142    0.0085   -2.4335 H   0  0  0  0  0  0  0  0  0  0  0  0
   -1.8102   -0.0038    1.1841 H   0  0  0  0  0  0  0  0  0  0  0  0
   -1.7846   -0.6884    3.4662 H   0  0  0  0  0  0  0  0  0  0  0  0
   -1.9747    1.8385    3.1402 H   0  0  0  0  0  0  0  0  0  0  0  0
   -2.1245    1.2886    4.8629 H   0  0  0  0  0  0  0  0  0  0  0  0
   -0.5840    2.0596    4.2892 H   0  0  0  0  0  0  0  0  0  0  0  0
   -0.5971   -0.3438    5.7904 H   0  0  0  0  0  0  0  0  0  0  0  0
    0.0533   -1.6829    4.7032 H   0  0  0  0  0  0  0  0  0  0  0  0
    4.0859    0.0218    0.5201 H   0  0  0  0  0  0  0  0  0  0  0  0
    2.6159    1.2363    6.0958 H   0  0  0  0  0  0  0  0  0  0  0  0
    4.3219    1.8492    5.8705 H   0  0  0  0  0  0  0  0  0  0  0  0
    4.0007    1.4440    8.2179 H   0  0  0  0  0  0  0  0  0  0  0  0
    3.2173   -0.1798    7.9414 H   0  0  0  0  0  0  0  0  0  0  0  0
    6.6799   -1.4029    6.7870 H   0  0  0  0  0  0  0  0  0  0  0  0
    4.9892   -2.0608    6.9762 H   0  0  0  0  0  0  0  0  0  0  0  0
    5.3519   -1.5947    4.6286 H   0  0  0  0  0  0  0  0  0  0  0  0
    6.0671    0.0514    4.9729 H   0  0  0  0  0  0  0  0  0  0  0  0
    4.9537   -1.3198    9.4304 H   0  0  0  0  0  0  0  0  0  0  0  0
    5.5154    0.3850    9.7519 H   0  0  0  0  0  0  0  0  0  0  0  0
    6.6909   -0.8589    9.1217 H   0  0  0  0  0  0  0  0  0  0  0  0
  1  2  1  0  0  0  0
  1  6  2  0  0  0  0
  2  3  1  0  0  0  0
  3 13  2  0  0  0  0
  3  4  1  0  0  0  0
  4  7  2  0  0  0  0
  5  4  1  0  0  0  0
  5 12  1  0  0  0  0
  6  5  1  0  0  0  0
  7  9  1  0  0  0  0
  7  8  1  0  0  0  0
  9 16  1  0  0  0  0
 10  8  1  0  0  0  0
 10 33  1  0  0  0  0
 11 25  1  0  0  0  0
 11  9  2  0  0  0  0
 12 24  1  0  0  0  0
 12 10  1  0  0  0  0
 12 29  1  6  0  0  0
 13 11  1  0  0  0  0
 14 26  1  0  0  0  0
 15 14  1  0  0  0  0
 15 39  1  0  0  0  0
 15 38  1  0  0  0  0
 16 17  1  0  0  0  0
 16 19  1  0  0  0  0
 17 18  1  0  0  0  0
 18 40  1  0  0  0  0
 18 41  1  0  0  0  0
 18 14  1  0  0  0  0
 19 15  1  0  0  0  0
 20  1  1  0  0  0  0
 21 27  1  0  0  0  0
 21 20  1  0  0  0  0
 22 20  2  0  0  0  0
 23  2  2  0  0  0  0
 24 32  1  0  0  0  0
 24 31  1  0  0  0  0
 26 46  1  0  0  0  0
 26 44  1  0  0  0  0
 26 45  1  0  0  0  0
 28  6  1  0  0  0  0
 30 24  1  0  0  0  0
 34 10  1  0  0  0  0
 35 13  1  0  0  0  0
 36 19  1  0  0  0  0
 37 19  1  0  0  0  0
 42 17  1  0  0  0  0
 43 17  1  0  0  0  0
M  END