
  Mrv0541 02201500303D          

 47 50  0  0  0  0            999 V2000
    0.0000    0.0000    0.0000 S   0  0  0  0  0  0  0  0  0  0  0  0
    1.7758    0.0000    0.0000 C   0  0  1  0  0  0  0  0  0  0  0  0
    2.2805    0.0000    1.3903 N   0  0  2  0  0  0  0  0  0  0  0  0
    2.8956   -1.3059    1.2509 C   0  0  0  0  0  0  0  0  0  0  0  0
    3.4668   -2.0163    2.0571 O   0  0  0  0  0  0  0  0  0  0  0  0
    2.5576   -1.3477   -0.2790 C   0  0  1  0  0  0  0  0  0  0  0  0
    1.8239   -2.4618   -0.7385 N   0  0  0  0  0  0  0  0  0  0  0  0
    2.2364   -3.2025   -1.8410 C   0  0  0  0  0  0  0  0  0  0  0  0
    3.3031   -2.9250   -2.4278 O   0  0  0  0  0  0  0  0  0  0  0  0
    1.3728   -4.2987   -2.2841 C   0  0  0  0  0  0  0  0  0  0  0  0
    0.3158   -5.0287   -1.5725 C   0  0  0  0  0  0  0  0  0  0  0  0
   -0.2132   -5.9416   -2.4168 N   0  0  0  0  0  0  0  0  0  0  0  0
   -0.1101   -4.8529   -0.1901 C   0  0  0  0  0  0  0  0  0  0  0  0
   -1.4670   -4.6619    0.1039 C   0  0  0  0  0  0  0  0  0  0  0  0
   -1.8761   -4.5148    1.4285 C   0  0  0  0  0  0  0  0  0  0  0  0
   -0.9405   -4.5661    2.4618 C   0  0  0  0  0  0  0  0  0  0  0  0
    0.8272   -4.9162    0.8501 C   0  0  0  0  0  0  0  0  0  0  0  0
    0.4089   -4.7701    2.1715 C   0  0  0  0  0  0  0  0  0  0  0  0
    1.3980   -4.8744   -3.5510 C   0  0  0  0  0  0  0  0  0  0  0  0
    0.4020   -5.8680   -3.5820 O   0  0  0  0  0  0  0  0  0  0  0  0
    2.1868   -4.6720   -4.7640 C   0  0  0  0  0  0  0  0  0  0  0  0
   -0.1586    0.2997    1.7897 C   0  0  1  0  0  0  0  0  0  0  0  0
    1.2741    0.2493    2.4026 C   0  0  2  0  0  0  0  0  0  0  0  0
    1.5472    1.5211    3.2063 C   0  0  0  0  0  0  0  0  0  0  0  0
    2.1873    2.5976    2.6789 O   0  0  0  0  0  0  0  0  0  0  0  0
    1.2021    1.6664    4.3790 O   0  0  0  0  0  0  0  0  0  0  0  0
   -0.8195    1.6468    1.9658 C   0  0  0  0  0  0  0  0  0  0  0  0
   -1.0241   -0.7898    2.3785 C   0  0  0  0  0  0  0  0  0  0  0  0
   -1.2674   -4.4560    3.5066 H   0  0  0  0  0  0  0  0  0  0  0  0
   -2.9421   -4.3662    1.6569 H   0  0  0  0  0  0  0  0  0  0  0  0
   -2.2077   -4.6339   -0.7100 H   0  0  0  0  0  0  0  0  0  0  0  0
    1.1476   -4.8235    2.9859 H   0  0  0  0  0  0  0  0  0  0  0  0
    1.8910   -5.0884    0.6239 H   0  0  0  0  0  0  0  0  0  0  0  0
    1.5354   -4.2808   -5.5867 H   0  0  0  0  0  0  0  0  0  0  0  0
    2.6343   -5.6420   -5.1000 H   0  0  0  0  0  0  0  0  0  0  0  0
    3.0079   -3.9372   -4.5563 H   0  0  0  0  0  0  0  0  0  0  0  0
    0.9213   -2.6231   -0.3463 H   0  0  0  0  0  0  0  0  0  0  0  0
    3.4763   -1.1840   -0.9091 H   0  0  0  0  0  0  0  0  0  0  0  0
    2.1686    0.8519   -0.6017 H   0  0  0  0  0  0  0  0  0  0  0  0
    2.4990    2.4103    1.7826 H   0  0  0  0  0  0  0  0  0  0  0  0
    1.3134   -0.5891    3.1691 H   0  0  0  0  0  0  0  0  0  0  0  0
   -1.0147    1.8444    3.0507 H   0  0  0  0  0  0  0  0  0  0  0  0
   -1.7949    1.6685    1.4209 H   0  0  0  0  0  0  0  0  0  0  0  0
   -0.1712    2.4655    1.5666 H   0  0  0  0  0  0  0  0  0  0  0  0
   -0.5705   -1.7994    2.2212 H   0  0  0  0  0  0  0  0  0  0  0  0
   -2.0337   -0.7768    1.8989 H   0  0  0  0  0  0  0  0  0  0  0  0
   -1.1535   -0.6227    3.4772 H   0  0  0  0  0  0  0  0  0  0  0  0
  1 22  1  0  0  0  0
  2  1  1  0  0  0  0
  2  3  1  0  0  0  0
  2 39  1  6  0  0  0
  3 23  1  0  0  0  0
  4  3  1  0  0  0  0
  4  5  2  0  0  0  0
  6  2  1  0  0  0  0
  6  4  1  0  0  0  0
  6 38  1  6  0  0  0
  7 37  1  0  0  0  0
  7  6  1  0  0  0  0
  8  7  1  0  0  0  0
  9  8  2  0  0  0  0
 10  8  1  0  0  0  0
 10 11  1  0  0  0  0
 11 13  1  0  0  0  0
 12 11  2  0  0  0  0
 13 14  2  0  0  0  0
 13 17  1  0  0  0  0
 14 15  1  0  0  0  0
 15 30  1  0  0  0  0
 15 16  2  0  0  0  0
 16 29  1  0  0  0  0
 17 18  2  0  0  0  0
 18 16  1  0  0  0  0
 18 32  1  0  0  0  0
 19 10  2  0  0  0  0
 20 19  1  0  0  0  0
 20 12  1  0  0  0  0
 21 36  1  0  0  0  0
 21 19  1  0  0  0  0
 22 27  1  0  0  0  0
 22 28  1  0  0  0  0
 22 23  1  0  0  0  0
 23 41  1  1  0  0  0
 23 24  1  0  0  0  0
 24 26  2  0  0  0  0
 25 24  1  0  0  0  0
 27 42  1  0  0  0  0
 28 47  1  0  0  0  0
 31 14  1  0  0  0  0
 33 17  1  0  0  0  0
 34 21  1  0  0  0  0
 35 21  1  0  0  0  0
 40 25  1  0  0  0  0
 43 27  1  0  0  0  0
 44 27  1  0  0  0  0
 45 28  1  0  0  0  0
 46 28  1  0  0  0  0
M  END