
  Mrv0541 02201500303D          

 52 55  0  0  0  0            999 V2000
    0.0000    0.0000    0.0000 O   0  0  0  0  0  0  0  0  0  0  0  0
    1.4231    0.0000    0.0000 C   0  0  1  0  0  0  0  0  0  0  0  0
    1.9754    0.0000    1.4595 C   0  0  2  0  0  0  0  0  0  0  0  0
    1.8096   -1.4881    1.8403 C   0  0  2  0  0  0  0  0  0  0  0  0
    2.4470   -1.7917    3.1811 C   0  0  1  0  0  0  0  0  0  0  0  0
    1.7308   -0.9526    4.2564 C   0  0  1  0  0  0  0  0  0  0  0  0
    2.2888   -1.2409    5.6692 C   0  0  1  0  0  0  0  0  0  0  0  0
    2.2443   -2.7325    5.9036 C   0  0  0  0  0  0  0  0  0  0  0  0
    1.6507   -3.2927    6.9706 C   0  0  0  0  0  0  0  0  0  0  0  0
    0.9495   -2.5099    7.9991 C   0  0  0  0  0  0  0  0  0  0  0  0
    0.4529   -3.0355    9.0046 O   0  0  0  0  0  0  0  0  0  0  0  0
    3.7333   -0.7590    5.8202 C   0  0  0  0  0  0  0  0  0  0  0  0
    1.4655   -0.4983    6.6841 C   0  0  0  0  0  0  0  0  0  0  0  0
    0.8714   -1.0647    7.7396 C   0  0  0  0  0  0  0  0  0  0  0  0
    2.3402   -3.2742    3.4962 C   0  0  2  0  0  0  0  0  0  0  0  0
    2.9041   -3.5776    4.8684 C   0  0  1  0  0  0  0  0  0  0  0  0
    1.1882    0.8148    2.4713 C   0  0  2  0  0  0  0  0  0  0  0  0
    1.7124    0.5120    3.8598 C   0  0  0  0  0  0  0  0  0  0  0  0
    2.0654    1.4350    4.5992 O   0  0  0  0  0  0  0  0  0  0  0  0
    3.4243    0.4594    1.4628 C   0  0  0  0  0  0  0  0  0  0  0  0
    1.8373   -1.3785   -0.5724 C   0  0  2  0  0  0  0  0  0  0  0  0
    2.2822   -2.2459    0.6077 C   0  0  2  0  0  0  0  0  0  0  0  0
    1.8989    1.2084   -0.7941 C   0  0  0  0  0  0  0  0  0  0  0  0
    1.2641    2.2688   -0.7228 O   0  0  0  0  0  0  0  0  0  0  0  0
    3.1057    1.1072   -1.6933 C   0  0  2  0  0  0  0  0  0  0  0  0
    3.6554    2.3707   -1.9930 O   0  0  0  0  0  0  0  0  0  0  0  0
    1.6509   -4.3846    7.1245 H   0  0  0  0  0  0  0  0  0  0  0  0
    4.3939   -1.2439    5.0635 H   0  0  0  0  0  0  0  0  0  0  0  0
    3.7808    0.3491    5.6849 H   0  0  0  0  0  0  0  0  0  0  0  0
    4.1123   -1.0136    6.8390 H   0  0  0  0  0  0  0  0  0  0  0  0
    0.2972   -0.4735    8.4710 H   0  0  0  0  0  0  0  0  0  0  0  0
    1.4085    0.5931    6.5230 H   0  0  0  0  0  0  0  0  0  0  0  0
    0.6455   -1.2713    4.2704 H   0  0  0  0  0  0  0  0  0  0  0  0
    4.0102   -3.3785    4.8806 H   0  0  0  0  0  0  0  0  0  0  0  0
    2.7602   -4.6673    5.0974 H   0  0  0  0  0  0  0  0  0  0  0  0
    2.9028   -3.8569    2.7203 H   0  0  0  0  0  0  0  0  0  0  0  0
    1.2668   -3.5960    3.4477 H   0  0  0  0  0  0  0  0  0  0  0  0
    3.5362   -1.5108    3.1565 H   0  0  0  0  0  0  0  0  0  0  0  0
    0.6997   -1.6847    1.9361 H   0  0  0  0  0  0  0  0  0  0  0  0
    0.0996    0.5454    2.4323 H   0  0  0  0  0  0  0  0  0  0  0  0
    1.2858    1.9110    2.2555 H   0  0  0  0  0  0  0  0  0  0  0  0
    4.0609   -0.2392    0.8683 H   0  0  0  0  0  0  0  0  0  0  0  0
    3.5082    1.4869    1.0287 H   0  0  0  0  0  0  0  0  0  0  0  0
    3.8223    0.5005    2.5068 H   0  0  0  0  0  0  0  0  0  0  0  0
    1.8204   -3.2621    0.5576 H   0  0  0  0  0  0  0  0  0  0  0  0
    3.3931   -2.3745    0.6148 H   0  0  0  0  0  0  0  0  0  0  0  0
    2.6609   -1.2762   -1.3172 H   0  0  0  0  0  0  0  0  0  0  0  0
    0.9533   -1.8355   -1.0862 H   0  0  0  0  0  0  0  0  0  0  0  0
    2.9240    2.9767   -2.1815 H   0  0  0  0  0  0  0  0  0  0  0  0
    2.7998    0.5854   -2.6428 H   0  0  0  0  0  0  0  0  0  0  0  0
    3.9386    0.5390   -1.1965 H   0  0  0  0  0  0  0  0  0  0  0  0
   -0.2912    0.8918    0.2417 H   0  0  0  0  0  0  0  0  0  0  0  0
  1 52  1  0  0  0  0
  2  1  1  1  0  0  0
  2  3  1  0  0  0  0
  3 20  1  1  0  0  0
  3  4  1  0  0  0  0
  3 17  1  0  0  0  0
  4 39  1  1  0  0  0
  4  5  1  0  0  0  0
  5 15  1  0  0  0  0
  5  6  1  0  0  0  0
  5 38  1  6  0  0  0
  6 33  1  1  0  0  0
  6  7  1  0  0  0  0
  7 12  1  1  0  0  0
  7  8  1  0  0  0  0
  7 13  1  0  0  0  0
  8  9  2  0  0  0  0
  9 27  1  0  0  0  0
  9 10  1  0  0  0  0
 10 11  2  0  0  0  0
 12 30  1  0  0  0  0
 13 14  2  0  0  0  0
 14 10  1  0  0  0  0
 14 31  1  0  0  0  0
 15 16  1  0  0  0  0
 16 34  1  0  0  0  0
 16 35  1  0  0  0  0
 16  8  1  0  0  0  0
 17 18  1  0  0  0  0
 18  6  1  0  0  0  0
 18 19  2  0  0  0  0
 20 44  1  0  0  0  0
 21  2  1  0  0  0  0
 21 22  1  0  0  0  0
 22 46  1  0  0  0  0
 22  4  1  0  0  0  0
 23 24  2  0  0  0  0
 23  2  1  0  0  0  0
 25 51  1  0  0  0  0
 25 23  1  0  0  0  0
 26 25  1  0  0  0  0
 28 12  1  0  0  0  0
 29 12  1  0  0  0  0
 32 13  1  0  0  0  0
 36 15  1  0  0  0  0
 37 15  1  0  0  0  0
 40 17  1  0  0  0  0
 41 17  1  0  0  0  0
 42 20  1  0  0  0  0
 43 20  1  0  0  0  0
 45 22  1  0  0  0  0
 47 21  1  0  0  0  0
 48 21  1  0  0  0  0
 49 26  1  0  0  0  0
 50 25  1  0  0  0  0
M  END