
  Mrv0541 02201500303D          

 48 51  0  0  0  0            999 V2000
    0.0000    0.0000    0.0000 O   0  0  0  0  0  0  0  0  0  0  0  0
    1.4225    0.0000    0.0000 C   0  0  1  0  0  0  0  0  0  0  0  0
    1.9132    0.0000    1.4694 C   0  0  1  0  0  0  0  0  0  0  0  0
    1.8720    1.3505    2.0794 N   0  0  2  0  0  0  0  0  0  0  0  0
    2.5906    1.2734    3.3618 C   0  0  2  0  0  0  0  0  0  0  0  0
    0.4781    1.7279    2.3559 C   0  0  2  0  0  0  0  0  0  0  0  0
    1.1763   -1.0417    2.3395 C   0  0  2  0  0  0  0  0  0  0  0  0
    0.7429   -0.3837    3.6496 C   0  0  1  0  0  0  0  0  0  0  0  0
    1.9575    0.2565    4.3462 C   0  0  1  0  0  0  0  0  0  0  0  0
    2.9485   -0.7615    4.7814 C   0  0  0  0  0  0  0  0  0  0  0  0
    3.2252   -1.0297    6.0554 C   0  0  0  0  0  0  0  0  0  0  0  0
   -0.2323    0.7432    3.3023 C   0  0  1  0  0  0  0  0  0  0  0  0
    1.9687   -1.1966   -0.7323 C   0  0  0  0  0  0  0  0  0  0  0  0
    3.3149   -1.1958   -1.2264 C   0  0  0  0  0  0  0  0  0  0  0  0
    3.7636   -2.3524   -1.9417 C   0  0  0  0  0  0  0  0  0  0  0  0
    2.9509   -3.4514   -2.1563 N   0  0  0  0  0  0  0  0  0  0  0  0
    5.1011   -2.3689   -2.4499 C   0  0  0  0  0  0  0  0  0  0  0  0
    5.9429   -1.3034   -2.2565 C   0  0  0  0  0  0  0  0  0  0  0  0
    4.1991   -0.1102   -1.0329 C   0  0  0  0  0  0  0  0  0  0  0  0
    5.4881   -0.1661   -1.5415 C   0  0  0  0  0  0  0  0  0  0  0  0
    6.2671    0.9488   -1.2960 O   0  0  0  0  0  0  0  0  0  0  0  0
    7.5948    0.9184   -1.8059 C   0  0  0  0  0  0  0  0  0  0  0  0
    1.1811   -2.3022   -0.9535 C   0  0  0  0  0  0  0  0  0  0  0  0
    1.7234   -3.4107   -1.6758 C   0  0  0  0  0  0  0  0  0  0  0  0
    2.5785    2.2976    3.8231 H   0  0  0  0  0  0  0  0  0  0  0  0
    3.6610    1.0032    3.1530 H   0  0  0  0  0  0  0  0  0  0  0  0
   -0.0693    1.7770    1.3751 H   0  0  0  0  0  0  0  0  0  0  0  0
    0.4843    2.7580    2.8048 H   0  0  0  0  0  0  0  0  0  0  0  0
    3.9650   -1.7869    6.3454 H   0  0  0  0  0  0  0  0  0  0  0  0
    2.7365   -0.5157    6.8935 H   0  0  0  0  0  0  0  0  0  0  0  0
    3.4598   -1.2955    3.9623 H   0  0  0  0  0  0  0  0  0  0  0  0
    1.5810    0.8198    5.2453 H   0  0  0  0  0  0  0  0  0  0  0  0
   -0.5650    1.2665    4.2322 H   0  0  0  0  0  0  0  0  0  0  0  0
   -1.1366    0.3185    2.7996 H   0  0  0  0  0  0  0  0  0  0  0  0
    0.2615   -1.1353    4.3228 H   0  0  0  0  0  0  0  0  0  0  0  0
    1.8539   -1.9068    2.5466 H   0  0  0  0  0  0  0  0  0  0  0  0
    0.2751   -1.4304    1.8004 H   0  0  0  0  0  0  0  0  0  0  0  0
    3.0073   -0.2872    1.4128 H   0  0  0  0  0  0  0  0  0  0  0  0
    6.9674   -1.3332   -2.6549 H   0  0  0  0  0  0  0  0  0  0  0  0
    5.4485   -3.2570   -3.0030 H   0  0  0  0  0  0  0  0  0  0  0  0
    7.5891    0.8338   -2.9197 H   0  0  0  0  0  0  0  0  0  0  0  0
    8.1746    0.0794   -1.3505 H   0  0  0  0  0  0  0  0  0  0  0  0
    8.0156    1.9063   -1.4880 H   0  0  0  0  0  0  0  0  0  0  0  0
    3.8766    0.7823   -0.4746 H   0  0  0  0  0  0  0  0  0  0  0  0
    1.0950   -4.3024   -1.8564 H   0  0  0  0  0  0  0  0  0  0  0  0
    0.1478   -2.3500   -0.5797 H   0  0  0  0  0  0  0  0  0  0  0  0
    1.7798    0.9393   -0.5172 H   0  0  0  0  0  0  0  0  0  0  0  0
   -0.2757    0.0480   -0.9235 H   0  0  0  0  0  0  0  0  0  0  0  0
  1  2  1  0  0  0  0
  2  3  1  0  0  0  0
  2 47  1  6  0  0  0
  3  4  1  0  0  0  0
  3  7  1  0  0  0  0
  3 38  1  6  0  0  0
  4  6  1  1  0  0  0
  4  5  1  0  0  0  0
  5 25  1  0  0  0  0
  5  9  1  0  0  0  0
  6 28  1  0  0  0  0
  6 12  1  0  0  0  0
  7 36  1  0  0  0  0
  7  8  1  0  0  0  0
  8 35  1  1  0  0  0
  8  9  1  0  0  0  0
  9 10  1  0  0  0  0
  9 32  1  1  0  0  0
 10 11  2  0  0  0  0
 11 29  1  0  0  0  0
 11 30  1  0  0  0  0
 12  8  1  0  0  0  0
 12 33  1  0  0  0  0
 13  2  1  0  0  0  0
 14 19  1  0  0  0  0
 14 13  2  0  0  0  0
 15 14  1  0  0  0  0
 16 15  2  0  0  0  0
 16 24  1  0  0  0  0
 17 18  2  0  0  0  0
 17 15  1  0  0  0  0
 18 20  1  0  0  0  0
 19 44  1  0  0  0  0
 20 21  1  0  0  0  0
 20 19  2  0  0  0  0
 22 43  1  0  0  0  0
 22 42  1  0  0  0  0
 22 21  1  0  0  0  0
 23 13  1  0  0  0  0
 23 46  1  0  0  0  0
 24 23  2  0  0  0  0
 26  5  1  0  0  0  0
 27  6  1  0  0  0  0
 31 10  1  0  0  0  0
 34 12  1  0  0  0  0
 37  7  1  0  0  0  0
 39 18  1  0  0  0  0
 40 17  1  0  0  0  0
 41 22  1  0  0  0  0
 45 24  1  0  0  0  0
 48  1  1  0  0  0  0
M  END