
  Mrv0541 02201500303D          

 24 24  0  0  0  0            999 V2000
    0.0000    0.0000    0.0000 S   0  0  1  0  0  0  0  0  0  0  0  0
    1.4166    0.0000    0.0000 O   0  0  0  0  0  0  0  0  0  0  0  0
   -0.6156    0.0000   -1.2599 O   0  0  0  0  0  0  0  0  0  0  0  0
   -0.4261   -1.3626    0.8517 N   0  0  0  0  0  0  0  0  0  0  0  0
   -1.6947   -1.8799    1.1072 C   0  0  0  0  0  0  0  0  0  0  0  0
   -2.7097   -1.2538    0.7549 O   0  0  0  0  0  0  0  0  0  0  0  0
   -1.7856   -3.2053    1.8184 C   0  0  0  0  0  0  0  0  0  0  0  0
   -0.5562    1.2515    0.9289 C   0  0  0  0  0  0  0  0  0  0  0  0
   -1.9047    1.6437    0.8941 C   0  0  0  0  0  0  0  0  0  0  0  0
   -2.3684    2.7231    1.6226 C   0  0  0  0  0  0  0  0  0  0  0  0
   -1.4788    3.4676    2.4437 C   0  0  0  0  0  0  0  0  0  0  0  0
   -1.9350    4.5075    3.2185 N   0  0  0  0  0  0  0  0  0  0  0  0
    0.3197    1.9916    1.7406 C   0  0  0  0  0  0  0  0  0  0  0  0
   -0.1118    3.0748    2.4810 C   0  0  0  0  0  0  0  0  0  0  0  0
   -1.2959   -3.1450    2.8202 H   0  0  0  0  0  0  0  0  0  0  0  0
   -2.8627   -3.4704    1.9539 H   0  0  0  0  0  0  0  0  0  0  0  0
   -1.2878   -4.0027    1.2151 H   0  0  0  0  0  0  0  0  0  0  0  0
    0.3166   -1.9184    1.2186 H   0  0  0  0  0  0  0  0  0  0  0  0
   -1.2721    5.1165    3.6304 H   0  0  0  0  0  0  0  0  0  0  0  0
   -2.8391    4.8690    3.0388 H   0  0  0  0  0  0  0  0  0  0  0  0
   -3.4320    2.9989    1.5683 H   0  0  0  0  0  0  0  0  0  0  0  0
   -2.6110    1.0650    0.2663 H   0  0  0  0  0  0  0  0  0  0  0  0
    0.6051    3.6321    3.1016 H   0  0  0  0  0  0  0  0  0  0  0  0
    1.3877    1.7043    1.7710 H   0  0  0  0  0  0  0  0  0  0  0  0
  1  2  2  0  0  0  0
  1  4  1  0  0  0  0
  1  8  1  0  0  0  0
  3  1  2  0  0  0  0
  4  5  1  0  0  0  0
  4 18  1  0  0  0  0
  5  7  1  0  0  0  0
  6  5  2  0  0  0  0
  7 16  1  0  0  0  0
  7 15  1  0  0  0  0
  8 13  1  0  0  0  0
  9  8  2  0  0  0  0
  9 10  1  0  0  0  0
 10 11  2  0  0  0  0
 11 14  1  0  0  0  0
 11 12  1  0  0  0  0
 12 19  1  0  0  0  0
 13 24  1  0  0  0  0
 13 14  2  0  0  0  0
 14 23  1  0  0  0  0
 17  7  1  0  0  0  0
 20 12  1  0  0  0  0
 21 10  1  0  0  0  0
 22  9  1  0  0  0  0
M  END