
  Mrv0541 02201500303D          

 27 28  0  0  0  0            999 V2000
    0.0000    0.0000    0.0000 Cl  0  0  0  0  0  0  0  0  0  0  0  0
    1.6997    0.0000    0.0000 C   0  0  0  0  0  0  0  0  0  0  0  0
    2.3654    0.0000    1.2056 N   0  0  0  0  0  0  0  0  0  0  0  0
    3.6231   -0.0067    1.2639 N   0  0  0  0  0  0  0  0  0  0  0  0
    4.4158   -0.0116    0.1071 C   0  0  0  0  0  0  0  0  0  0  0  0
    5.8036   -0.0200    0.2516 N   0  0  0  0  0  0  0  0  0  0  0  0
    6.9611   -0.4757   -0.8392 S   0  0  2  0  0  0  0  0  0  0  0  0
    8.1820    0.0092   -0.3274 O   0  0  0  0  0  0  0  0  0  0  0  0
    6.5950   -0.0609   -2.1348 O   0  0  0  0  0  0  0  0  0  0  0  0
    6.9328   -2.1283   -0.7587 C   0  0  0  0  0  0  0  0  0  0  0  0
    7.6638   -2.8170    0.2244 C   0  0  0  0  0  0  0  0  0  0  0  0
    7.6765   -4.1955    0.2946 C   0  0  0  0  0  0  0  0  0  0  0  0
    6.9340   -4.9667   -0.6444 C   0  0  0  0  0  0  0  0  0  0  0  0
    6.9110   -6.3321   -0.5716 N   0  0  0  0  0  0  0  0  0  0  0  0
    6.2117   -2.8945   -1.6898 C   0  0  0  0  0  0  0  0  0  0  0  0
    6.2016   -4.2742   -1.6505 C   0  0  0  0  0  0  0  0  0  0  0  0
    2.3999    0.0076   -1.2221 C   0  0  0  0  0  0  0  0  0  0  0  0
    3.7917    0.0036   -1.1746 C   0  0  0  0  0  0  0  0  0  0  0  0
    7.4791   -6.8016    0.0864 H   0  0  0  0  0  0  0  0  0  0  0  0
    6.4513   -6.8569   -1.2711 H   0  0  0  0  0  0  0  0  0  0  0  0
    8.2624   -4.6972    1.0789 H   0  0  0  0  0  0  0  0  0  0  0  0
    8.2585   -2.2333    0.9514 H   0  0  0  0  0  0  0  0  0  0  0  0
    5.6260   -4.8382   -2.3991 H   0  0  0  0  0  0  0  0  0  0  0  0
    5.6481   -2.3709   -2.4845 H   0  0  0  0  0  0  0  0  0  0  0  0
    6.1096    0.2246    1.1731 H   0  0  0  0  0  0  0  0  0  0  0  0
    4.3824    0.0313   -2.1058 H   0  0  0  0  0  0  0  0  0  0  0  0
    1.8666    0.0242   -2.1834 H   0  0  0  0  0  0  0  0  0  0  0  0
  2  1  1  0  0  0  0
  2  3  2  0  0  0  0
  3  4  1  0  0  0  0
  5  6  1  0  0  0  0
  5  4  2  0  0  0  0
  6 25  1  0  0  0  0
  7 10  1  0  0  0  0
  7  8  2  0  0  0  0
  7  6  1  0  0  0  0
  9  7  2  0  0  0  0
 10 11  2  0  0  0  0
 11 12  1  0  0  0  0
 11 22  1  0  0  0  0
 12 21  1  0  0  0  0
 13 14  1  0  0  0  0
 13 12  2  0  0  0  0
 14 19  1  0  0  0  0
 15 16  2  0  0  0  0
 15 10  1  0  0  0  0
 16 13  1  0  0  0  0
 17 18  2  0  0  0  0
 17  2  1  0  0  0  0
 18  5  1  0  0  0  0
 20 14  1  0  0  0  0
 23 16  1  0  0  0  0
 24 15  1  0  0  0  0
 26 18  1  0  0  0  0
 27 17  1  0  0  0  0
M  END