
  Mrv0541 02201500303D          

 27 28  0  0  0  0            999 V2000
    0.0000    0.0000    0.0000 S   0  0  1  0  0  0  0  0  0  0  0  0
    1.4143    0.0000    0.0000 O   0  0  0  0  0  0  0  0  0  0  0  0
   -0.6136    0.0000   -1.2601 O   0  0  0  0  0  0  0  0  0  0  0  0
   -0.4028   -1.3596    0.8668 N   0  0  0  0  0  0  0  0  0  0  0  0
   -1.6897   -1.8428    1.1282 C   0  0  0  0  0  0  0  0  0  0  0  0
   -2.7526   -1.0622    0.6905 N   0  0  0  0  0  0  0  0  0  0  0  0
   -3.9817   -1.5458    0.9299 C   0  0  0  0  0  0  0  0  0  0  0  0
   -4.2159   -2.7639    1.5917 C   0  0  0  0  0  0  0  0  0  0  0  0
   -1.8215   -3.0543    1.7987 N   0  0  0  0  0  0  0  0  0  0  0  0
   -3.0775   -3.4776    2.0088 C   0  0  0  0  0  0  0  0  0  0  0  0
   -0.5531    1.2562    0.9244 C   0  0  0  0  0  0  0  0  0  0  0  0
   -1.7573    1.9110    0.6191 C   0  0  0  0  0  0  0  0  0  0  0  0
   -2.2104    2.9863    1.3607 C   0  0  0  0  0  0  0  0  0  0  0  0
   -1.4532    3.4640    2.4650 C   0  0  0  0  0  0  0  0  0  0  0  0
   -1.8687    4.5536    3.1870 N   0  0  0  0  0  0  0  0  0  0  0  0
    0.1933    1.7346    2.0142 C   0  0  0  0  0  0  0  0  0  0  0  0
   -0.2308    2.8046    2.7769 C   0  0  0  0  0  0  0  0  0  0  0  0
   -5.2284   -3.1374    1.7712 H   0  0  0  0  0  0  0  0  0  0  0  0
   -4.8167   -0.9175    0.5678 H   0  0  0  0  0  0  0  0  0  0  0  0
   -3.1686   -4.4435    2.5401 H   0  0  0  0  0  0  0  0  0  0  0  0
    0.3305   -1.9340    1.2295 H   0  0  0  0  0  0  0  0  0  0  0  0
   -1.3972    4.7904    4.0229 H   0  0  0  0  0  0  0  0  0  0  0  0
   -2.7751    4.9179    3.0369 H   0  0  0  0  0  0  0  0  0  0  0  0
   -3.1564    3.4760    1.0876 H   0  0  0  0  0  0  0  0  0  0  0  0
   -2.3514    1.5556   -0.2444 H   0  0  0  0  0  0  0  0  0  0  0  0
    0.3836    3.1526    3.6200 H   0  0  0  0  0  0  0  0  0  0  0  0
    1.1557    1.2466    2.2549 H   0  0  0  0  0  0  0  0  0  0  0  0
  1  2  2  0  0  0  0
  1  4  1  0  0  0  0
  1 11  1  0  0  0  0
  3  1  2  0  0  0  0
  4  5  1  0  0  0  0
  4 21  1  0  0  0  0
  5  9  2  0  0  0  0
  6  7  2  0  0  0  0
  6  5  1  0  0  0  0
  7  8  1  0  0  0  0
  8 18  1  0  0  0  0
  8 10  2  0  0  0  0
  9 10  1  0  0  0  0
 10 20  1  0  0  0  0
 11 16  1  0  0  0  0
 12 11  2  0  0  0  0
 12 13  1  0  0  0  0
 13 14  2  0  0  0  0
 14 17  1  0  0  0  0
 14 15  1  0  0  0  0
 15 22  1  0  0  0  0
 16 27  1  0  0  0  0
 16 17  2  0  0  0  0
 17 26  1  0  0  0  0
 19  7  1  0  0  0  0
 23 15  1  0  0  0  0
 24 13  1  0  0  0  0
 25 12  1  0  0  0  0
M  END