
  Mrv0541 02201500303D          

 35 36  0  0  0  0            999 V2000
    0.0000    0.0000    0.0000 S   0  0  1  0  0  0  0  0  0  0  0  0
    1.4143    0.0000    0.0000 O   0  0  0  0  0  0  0  0  0  0  0  0
   -0.6158    0.0000   -1.2587 O   0  0  0  0  0  0  0  0  0  0  0  0
   -0.4110   -1.3519    0.8724 N   0  0  0  0  0  0  0  0  0  0  0  0
   -1.6847   -1.8261    1.1586 C   0  0  0  0  0  0  0  0  0  0  0  0
   -2.7758   -1.0992    0.7382 N   0  0  0  0  0  0  0  0  0  0  0  0
   -3.9892   -1.6195    1.0224 C   0  0  0  0  0  0  0  0  0  0  0  0
   -1.8657   -3.0569    1.8711 C   0  0  0  0  0  0  0  0  0  0  0  0
   -0.7681   -3.8300    2.1833 O   0  0  0  0  0  0  0  0  0  0  0  0
   -0.5242   -3.9515    3.5877 C   0  0  0  0  0  0  0  0  0  0  0  0
   -3.2019   -3.4855    2.1050 C   0  0  0  0  0  0  0  0  0  0  0  0
   -3.3378   -4.6577    2.8082 O   0  0  0  0  0  0  0  0  0  0  0  0
   -4.6639   -5.1533    3.0160 C   0  0  0  0  0  0  0  0  0  0  0  0
   -4.2802   -2.7687    1.6817 N   0  0  0  0  0  0  0  0  0  0  0  0
   -0.5523    1.2615    0.9210 C   0  0  0  0  0  0  0  0  0  0  0  0
   -1.7768    1.8879    0.6386 C   0  0  0  0  0  0  0  0  0  0  0  0
   -2.2286    2.9681    1.3746 C   0  0  0  0  0  0  0  0  0  0  0  0
   -1.4555    3.4718    2.4549 C   0  0  0  0  0  0  0  0  0  0  0  0
   -1.9206    4.5033    3.2374 N   0  0  0  0  0  0  0  0  0  0  0  0
    0.2145    1.7714    1.9815 C   0  0  0  0  0  0  0  0  0  0  0  0
   -0.2085    2.8477    2.7368 C   0  0  0  0  0  0  0  0  0  0  0  0
   -4.8626   -1.0299    0.6690 H   0  0  0  0  0  0  0  0  0  0  0  0
    0.3765   -4.6127    3.6383 H   0  0  0  0  0  0  0  0  0  0  0  0
   -1.3984   -4.4284    4.0932 H   0  0  0  0  0  0  0  0  0  0  0  0
   -0.3110   -2.9505    4.0330 H   0  0  0  0  0  0  0  0  0  0  0  0
   -5.1675   -5.3476    2.0396 H   0  0  0  0  0  0  0  0  0  0  0  0
   -5.2575   -4.4358    3.6309 H   0  0  0  0  0  0  0  0  0  0  0  0
   -4.4854   -6.1084    3.5725 H   0  0  0  0  0  0  0  0  0  0  0  0
    0.3112   -1.9543    1.2137 H   0  0  0  0  0  0  0  0  0  0  0  0
   -1.2845    4.9539    3.8481 H   0  0  0  0  0  0  0  0  0  0  0  0
   -2.6875    5.0351    2.9063 H   0  0  0  0  0  0  0  0  0  0  0  0
   -3.1928    3.4333    1.1221 H   0  0  0  0  0  0  0  0  0  0  0  0
   -2.3867    1.5089   -0.2036 H   0  0  0  0  0  0  0  0  0  0  0  0
    0.4214    3.2203    3.5578 H   0  0  0  0  0  0  0  0  0  0  0  0
    1.1937    1.3073    2.2014 H   0  0  0  0  0  0  0  0  0  0  0  0
  1  2  2  0  0  0  0
  1  4  1  0  0  0  0
  1 15  1  0  0  0  0
  3  1  2  0  0  0  0
  4  5  1  0  0  0  0
  4 29  1  0  0  0  0
  5  8  2  0  0  0  0
  6  7  2  0  0  0  0
  6  5  1  0  0  0  0
  7 14  1  0  0  0  0
  8 11  1  0  0  0  0
  8  9  1  0  0  0  0
  9 10  1  0  0  0  0
 10 23  1  0  0  0  0
 10 25  1  0  0  0  0
 10 24  1  0  0  0  0
 11 12  1  0  0  0  0
 12 13  1  0  0  0  0
 13 28  1  0  0  0  0
 13 27  1  0  0  0  0
 14 11  2  0  0  0  0
 15 20  1  0  0  0  0
 16 15  2  0  0  0  0
 16 17  1  0  0  0  0
 17 18  2  0  0  0  0
 18 21  1  0  0  0  0
 18 19  1  0  0  0  0
 19 30  1  0  0  0  0
 20 35  1  0  0  0  0
 20 21  2  0  0  0  0
 21 34  1  0  0  0  0
 22  7  1  0  0  0  0
 26 13  1  0  0  0  0
 31 19  1  0  0  0  0
 32 17  1  0  0  0  0
 33 16  1  0  0  0  0
M  END