
  Mrv0541 02201500303D          

 31 32  0  0  0  0            999 V2000
    0.0000    0.0000    0.0000 S   0  0  1  0  0  0  0  0  0  0  0  0
    1.4114    0.0000    0.0000 O   0  0  0  0  0  0  0  0  0  0  0  0
   -0.6408    0.0000   -1.2563 O   0  0  0  0  0  0  0  0  0  0  0  0
   -0.4536   -1.3224    0.8689 N   0  0  0  0  0  0  0  0  0  0  0  0
   -1.7341   -1.8797    0.9898 C   0  0  0  0  0  0  0  0  0  0  0  0
   -2.0722   -2.5289    2.1739 N   0  0  0  0  0  0  0  0  0  0  0  0
   -3.2074   -3.0595    2.3433 N   0  0  0  0  0  0  0  0  0  0  0  0
   -4.1690   -3.0098    1.3573 C   0  0  0  0  0  0  0  0  0  0  0  0
   -5.4177   -3.5684    1.5115 O   0  0  0  0  0  0  0  0  0  0  0  0
   -5.6893   -4.2258    2.7507 C   0  0  0  0  0  0  0  0  0  0  0  0
   -2.6790   -1.8067   -0.0810 C   0  0  0  0  0  0  0  0  0  0  0  0
   -3.9273   -2.3810    0.1088 C   0  0  0  0  0  0  0  0  0  0  0  0
   -0.5604    1.2744    0.9017 C   0  0  0  0  0  0  0  0  0  0  0  0
   -1.7705    1.9153    0.5900 C   0  0  0  0  0  0  0  0  0  0  0  0
   -2.2366    2.9915    1.3193 C   0  0  0  0  0  0  0  0  0  0  0  0
   -1.4845    3.4889    2.4203 C   0  0  0  0  0  0  0  0  0  0  0  0
   -1.9149    4.5771    3.1334 N   0  0  0  0  0  0  0  0  0  0  0  0
    0.1815    1.7738    1.9847 C   0  0  0  0  0  0  0  0  0  0  0  0
   -0.2540    2.8475    2.7362 C   0  0  0  0  0  0  0  0  0  0  0  0
   -4.9914   -5.0835    2.9022 H   0  0  0  0  0  0  0  0  0  0  0  0
   -6.7413   -4.5852    2.6165 H   0  0  0  0  0  0  0  0  0  0  0  0
   -5.6193   -3.5063    3.6009 H   0  0  0  0  0  0  0  0  0  0  0  0
   -4.7044   -2.3668   -0.6665 H   0  0  0  0  0  0  0  0  0  0  0  0
   -2.4252   -1.3162   -1.0366 H   0  0  0  0  0  0  0  0  0  0  0  0
    0.2236   -1.7477    1.4690 H   0  0  0  0  0  0  0  0  0  0  0  0
   -2.8234    4.9338    2.9765 H   0  0  0  0  0  0  0  0  0  0  0  0
   -1.4426    4.8333    3.9632 H   0  0  0  0  0  0  0  0  0  0  0  0
   -3.1882    3.4682    1.0417 H   0  0  0  0  0  0  0  0  0  0  0  0
   -2.3578    1.5505   -0.2732 H   0  0  0  0  0  0  0  0  0  0  0  0
    0.3571    3.2104    3.5757 H   0  0  0  0  0  0  0  0  0  0  0  0
    1.1492    1.2990    2.2311 H   0  0  0  0  0  0  0  0  0  0  0  0
  1  4  1  0  0  0  0
  1 13  1  0  0  0  0
  2  1  2  0  0  0  0
  3  1  2  0  0  0  0
  4  5  1  0  0  0  0
  4 25  1  0  0  0  0
  5  6  2  0  0  0  0
  6  7  1  0  0  0  0
  8  9  1  0  0  0  0
  8  7  2  0  0  0  0
  9 10  1  0  0  0  0
 10 20  1  0  0  0  0
 10 22  1  0  0  0  0
 11 12  2  0  0  0  0
 11  5  1  0  0  0  0
 12  8  1  0  0  0  0
 13 18  1  0  0  0  0
 14 13  2  0  0  0  0
 14 15  1  0  0  0  0
 15 16  2  0  0  0  0
 16 19  1  0  0  0  0
 16 17  1  0  0  0  0
 17 27  1  0  0  0  0
 18 31  1  0  0  0  0
 18 19  2  0  0  0  0
 19 30  1  0  0  0  0
 21 10  1  0  0  0  0
 23 12  1  0  0  0  0
 24 11  1  0  0  0  0
 26 17  1  0  0  0  0
 28 15  1  0  0  0  0
 29 14  1  0  0  0  0
M  END