
  Mrv0541 02201500303D          

 19 19  0  0  0  0            999 V2000
    0.0000    0.0000    0.0000 C   0  0  0  0  0  0  0  0  0  0  0  0
    1.4023    0.0000    0.0000 C   0  0  0  0  0  0  0  0  0  0  0  0
    2.1323    0.0000    1.1744 C   0  0  0  0  0  0  0  0  0  0  0  0
    1.4651    0.0118    2.4296 C   0  0  0  0  0  0  0  0  0  0  0  0
    0.0436    0.0176    2.4339 C   0  0  0  0  0  0  0  0  0  0  0  0
   -0.6544    0.0173    1.2402 C   0  0  0  0  0  0  0  0  0  0  0  0
   -0.8636    0.0240   -1.4325 S   0  0  1  0  0  0  0  0  0  0  0  0
   -1.0804   -1.5313   -1.7704 N   0  0  0  0  0  0  0  0  0  0  0  0
    2.1749    0.0653    3.6059 N   0  0  0  0  0  0  0  0  0  0  0  0
   -2.1254    0.6146   -1.1934 O   0  0  0  0  0  0  0  0  0  0  0  0
   -1.7595    0.0475    1.2591 H   0  0  0  0  0  0  0  0  0  0  0  0
   -1.8661   -2.0504   -1.4722 H   0  0  0  0  0  0  0  0  0  0  0  0
   -0.4559   -2.0625   -2.3214 H   0  0  0  0  0  0  0  0  0  0  0  0
   -0.0560    0.5973   -2.4412 O   0  0  0  0  0  0  0  0  0  0  0  0
   -0.5050    0.0361    3.3869 H   0  0  0  0  0  0  0  0  0  0  0  0
    1.6976   -0.0932    4.4578 H   0  0  0  0  0  0  0  0  0  0  0  0
    3.1490   -0.1050    3.5825 H   0  0  0  0  0  0  0  0  0  0  0  0
    3.2314    0.0046    1.1339 H   0  0  0  0  0  0  0  0  0  0  0  0
    1.9351    0.0164   -0.9687 H   0  0  0  0  0  0  0  0  0  0  0  0
  1  6  1  0  0  0  0
  2  1  2  0  0  0  0
  2  3  1  0  0  0  0
  3  4  2  0  0  0  0
  4  5  1  0  0  0  0
  4  9  1  0  0  0  0
  5 15  1  0  0  0  0
  6 11  1  0  0  0  0
  6  5  2  0  0  0  0
  7 10  2  0  0  0  0
  7  1  1  0  0  0  0
  8 12  1  0  0  0  0
  8  7  1  0  0  0  0
  9 16  1  0  0  0  0
 13  8  1  0  0  0  0
 14  7  2  0  0  0  0
 17  9  1  0  0  0  0
 18  3  1  0  0  0  0
 19  2  1  0  0  0  0
M  END