
  Mrv0541 02201500303D          

 28 29  0  0  0  0            999 V2000
    0.0000    0.0000    0.0000 C   0  0  0  0  0  0  0  0  0  0  0  0
    1.4039    0.0000    0.0000 C   0  0  0  0  0  0  0  0  0  0  0  0
    2.1349    0.0000    1.1722 C   0  0  0  0  0  0  0  0  0  0  0  0
    1.4690   -0.0062    2.4295 C   0  0  0  0  0  0  0  0  0  0  0  0
   -1.2073    1.5499   -1.7013 N   0  0  0  0  0  0  0  0  0  0  0  0
    0.0463   -0.0104    2.4351 C   0  0  0  0  0  0  0  0  0  0  0  0
   -0.6524   -0.0105    1.2434 C   0  0  0  0  0  0  0  0  0  0  0  0
   -0.3520    2.5741   -2.1420 C   0  0  0  0  0  0  0  0  0  0  0  0
   -0.7139    3.8732   -1.8772 N   0  0  0  0  0  0  0  0  0  0  0  0
    0.1029    4.8460   -2.3042 C   0  0  0  0  0  0  0  0  0  0  0  0
   -0.8647   -0.0335   -1.4179 S   0  0  1  0  0  0  0  0  0  0  0  0
    1.3054    4.6261   -2.9979 C   0  0  0  0  0  0  0  0  0  0  0  0
    1.6674    3.3079   -3.2703 C   0  0  0  0  0  0  0  0  0  0  0  0
    0.8463    2.2645   -2.8515 C   0  0  0  0  0  0  0  0  0  0  0  0
   -0.0556   -0.5630   -2.4425 O   0  0  0  0  0  0  0  0  0  0  0  0
   -2.1092   -0.6644   -1.1981 O   0  0  0  0  0  0  0  0  0  0  0  0
    2.1784   -0.0465    3.6025 N   0  0  0  0  0  0  0  0  0  0  0  0
    1.9288    5.4699   -3.3167 H   0  0  0  0  0  0  0  0  0  0  0  0
    2.5936    3.0851   -3.8215 H   0  0  0  0  0  0  0  0  0  0  0  0
    1.1143    1.2224   -3.0898 H   0  0  0  0  0  0  0  0  0  0  0  0
   -0.2353    5.8726   -2.0701 H   0  0  0  0  0  0  0  0  0  0  0  0
   -2.1231    1.8744   -1.4615 H   0  0  0  0  0  0  0  0  0  0  0  0
    1.9345   -0.0100   -0.9705 H   0  0  0  0  0  0  0  0  0  0  0  0
    3.2339   -0.0032    1.1304 H   0  0  0  0  0  0  0  0  0  0  0  0
    3.1576    0.0884    3.5815 H   0  0  0  0  0  0  0  0  0  0  0  0
    1.7037    0.0810    4.4604 H   0  0  0  0  0  0  0  0  0  0  0  0
   -0.5012   -0.0220    3.3890 H   0  0  0  0  0  0  0  0  0  0  0  0
   -1.7577   -0.0340    1.2644 H   0  0  0  0  0  0  0  0  0  0  0  0
  1  7  1  0  0  0  0
  2  1  2  0  0  0  0
  2  3  1  0  0  0  0
  3  4  2  0  0  0  0
  4  6  1  0  0  0  0
  4 17  1  0  0  0  0
  5 22  1  0  0  0  0
  5 11  1  0  0  0  0
  6 27  1  0  0  0  0
  7 28  1  0  0  0  0
  7  6  2  0  0  0  0
  8  9  1  0  0  0  0
  8  5  1  0  0  0  0
 10 21  1  0  0  0  0
 10  9  2  0  0  0  0
 11 16  2  0  0  0  0
 11  1  1  0  0  0  0
 12 10  1  0  0  0  0
 13 12  2  0  0  0  0
 13 14  1  0  0  0  0
 14  8  2  0  0  0  0
 15 11  2  0  0  0  0
 17 26  1  0  0  0  0
 18 12  1  0  0  0  0
 19 13  1  0  0  0  0
 20 14  1  0  0  0  0
 23  2  1  0  0  0  0
 24  3  1  0  0  0  0
 25 17  1  0  0  0  0
M  END