
  Mrv0541 02201500303D          

 33 35  0  0  0  0            999 V2000
    0.0000    0.0000    0.0000 N   0  0  0  0  0  0  0  0  0  0  0  0
    6.4704    0.0000    0.0000 O   0  0  0  0  0  0  0  0  0  0  0  0
    5.8642    0.0000    7.6733 C   0  0  0  0  0  0  0  0  0  0  0  0
    6.0283   -2.2210   -0.8123 O   0  0  0  0  0  0  0  0  0  0  0  0
    1.3428   -0.2717    0.0034 C   0  0  0  0  0  0  0  0  0  0  0  0
    5.9812   -1.8676    1.6071 N   0  0  0  0  0  0  0  0  0  0  0  0
    2.2897    0.7232    0.3768 C   0  0  0  0  0  0  0  0  0  0  0  0
    5.5916   -1.3847    7.5966 C   0  0  0  0  0  0  0  0  0  0  0  0
    5.7409   -1.1993    0.1172 S   0  0  1  0  0  0  0  0  0  0  0  0
    6.1059    0.7325    6.5373 C   0  0  0  0  0  0  0  0  0  0  0  0
    1.8284   -1.5662   -0.3350 C   0  0  0  0  0  0  0  0  0  0  0  0
    6.0832    0.0985    5.2596 C   0  0  0  0  0  0  0  0  0  0  0  0
    3.6358    0.4187    0.4192 C   0  0  0  0  0  0  0  0  0  0  0  0
    5.5605   -2.0334    6.3871 C   0  0  0  0  0  0  0  0  0  0  0  0
    4.1195   -0.8605    0.0978 C   0  0  0  0  0  0  0  0  0  0  0  0
    5.8043   -1.3094    5.1789 C   0  0  0  0  0  0  0  0  0  0  0  0
    3.1818   -1.8353   -0.2817 C   0  0  0  0  0  0  0  0  0  0  0  0
    6.3351    0.8293    4.1083 N   0  0  0  0  0  0  0  0  0  0  0  0
    5.7639   -1.9693    3.9661 N   0  0  0  0  0  0  0  0  0  0  0  0
    6.3033    0.1948    2.9602 C   0  0  0  0  0  0  0  0  0  0  0  0
    6.0032   -1.2449    2.8608 C   0  0  0  0  0  0  0  0  0  0  0  0
   -0.3083    0.9320    0.1183 H   0  0  0  0  0  0  0  0  0  0  0  0
   -0.6296   -0.6618   -0.3782 H   0  0  0  0  0  0  0  0  0  0  0  0
    1.9511    1.7374    0.6351 H   0  0  0  0  0  0  0  0  0  0  0  0
    4.3607    1.2056    0.7009 H   0  0  0  0  0  0  0  0  0  0  0  0
    3.5443   -2.8417   -0.5620 H   0  0  0  0  0  0  0  0  0  0  0  0
    1.1260   -2.3563   -0.6386 H   0  0  0  0  0  0  0  0  0  0  0  0
    6.0401   -2.8661    1.6580 H   0  0  0  0  0  0  0  0  0  0  0  0
    6.5370    0.7878    2.0519 H   0  0  0  0  0  0  0  0  0  0  0  0
    6.3209    1.8114    6.5948 H   0  0  0  0  0  0  0  0  0  0  0  0
    5.8819    0.4862    8.6605 H   0  0  0  0  0  0  0  0  0  0  0  0
    5.4038   -1.9424    8.5272 H   0  0  0  0  0  0  0  0  0  0  0  0
    5.3488   -3.1127    6.3301 H   0  0  0  0  0  0  0  0  0  0  0  0
  1  5  1  0  0  0  0
  1 22  1  0  0  0  0
  2  9  2  0  0  0  0
  3 31  1  0  0  0  0
  4  9  2  0  0  0  0
  5  7  2  0  0  0  0
  6 28  1  0  0  0  0
  6 21  1  0  0  0  0
  7 13  1  0  0  0  0
  7 24  1  0  0  0  0
  8  3  1  0  0  0  0
  8 32  1  0  0  0  0
  9  6  1  0  0  0  0
 10 30  1  0  0  0  0
 10  3  2  0  0  0  0
 11 17  2  0  0  0  0
 11  5  1  0  0  0  0
 12 10  1  0  0  0  0
 13 25  1  0  0  0  0
 14  8  2  0  0  0  0
 15  9  1  0  0  0  0
 15 13  2  0  0  0  0
 16 12  1  0  0  0  0
 16 14  1  0  0  0  0
 17 15  1  0  0  0  0
 18 12  2  0  0  0  0
 19 16  2  0  0  0  0
 20 18  1  0  0  0  0
 21 20  2  0  0  0  0
 21 19  1  0  0  0  0
 23  1  1  0  0  0  0
 26 17  1  0  0  0  0
 27 11  1  0  0  0  0
 29 20  1  0  0  0  0
 33 14  1  0  0  0  0
M  END