
  Mrv0541 02201500303D          

 25 26  0  0  0  0            999 V2000
    0.0000    0.0000    0.0000 S   0  0  1  0  0  0  0  0  0  0  0  0
    1.4016    0.0000    0.0000 O   0  0  0  0  0  0  0  0  0  0  0  0
   -0.6232    0.0000   -1.2708 O   0  0  0  0  0  0  0  0  0  0  0  0
   -0.5930   -1.3635    0.7419 N   0  0  0  0  0  0  0  0  0  0  0  0
   -0.2642   -1.8292    2.0004 C   0  0  0  0  0  0  0  0  0  0  0  0
   -0.8177   -3.3844    2.5819 S   0  0  0  0  0  0  0  0  0  0  0  0
   -0.0150   -3.1432    4.0342 C   0  0  0  0  0  0  0  0  0  0  0  0
    0.5030   -1.1625    2.8900 N   0  0  0  0  0  0  0  0  0  0  0  0
    0.6378   -1.9240    4.0364 C   0  0  0  0  0  0  0  0  0  0  0  0
   -0.5862    1.2515    0.9077 C   0  0  0  0  0  0  0  0  0  0  0  0
    0.1811    1.8321    1.9310 C   0  0  0  0  0  0  0  0  0  0  0  0
   -0.2844    2.9036    2.6710 C   0  0  0  0  0  0  0  0  0  0  0  0
   -1.5728    3.4448    2.4150 C   0  0  0  0  0  0  0  0  0  0  0  0
   -2.0750    4.4691    3.1823 N   0  0  0  0  0  0  0  0  0  0  0  0
   -1.8548    1.7980    0.6508 C   0  0  0  0  0  0  0  0  0  0  0  0
   -2.3492    2.8669    1.3717 C   0  0  0  0  0  0  0  0  0  0  0  0
   -0.0200   -3.8628    4.8488 H   0  0  0  0  0  0  0  0  0  0  0  0
    1.2429   -1.5153    4.8549 H   0  0  0  0  0  0  0  0  0  0  0  0
   -1.2481   -1.9377    0.2588 H   0  0  0  0  0  0  0  0  0  0  0  0
   -1.4550    4.9644    3.7740 H   0  0  0  0  0  0  0  0  0  0  0  0
   -2.8857    4.9424    2.8683 H   0  0  0  0  0  0  0  0  0  0  0  0
    0.3462    3.3307    3.4646 H   0  0  0  0  0  0  0  0  0  0  0  0
    1.1883    1.4235    2.1399 H   0  0  0  0  0  0  0  0  0  0  0  0
   -3.3460    3.2689    1.1389 H   0  0  0  0  0  0  0  0  0  0  0  0
   -2.4631    1.3688   -0.1668 H   0  0  0  0  0  0  0  0  0  0  0  0
  1  2  2  0  0  0  0
  1  4  1  0  0  0  0
  1 10  1  0  0  0  0
  3  1  2  0  0  0  0
  4  5  1  0  0  0  0
  5  6  1  0  0  0  0
  5  8  2  0  0  0  0
  6  7  1  0  0  0  0
  7  9  2  0  0  0  0
  7 17  1  0  0  0  0
  8  9  1  0  0  0  0
  9 18  1  0  0  0  0
 10 11  1  0  0  0  0
 11 23  1  0  0  0  0
 11 12  2  0  0  0  0
 12 22  1  0  0  0  0
 13 12  1  0  0  0  0
 13 14  1  0  0  0  0
 14 20  1  0  0  0  0
 15 10  2  0  0  0  0
 15 16  1  0  0  0  0
 16 13  2  0  0  0  0
 19  4  1  0  0  0  0
 21 14  1  0  0  0  0
 24 16  1  0  0  0  0
 25 15  1  0  0  0  0
M  END