
  Mrv0541 02201500303D          

 31 32  0  0  0  0            999 V2000
    0.0000    0.0000    0.0000 S   0  0  1  0  0  0  0  0  0  0  0  0
    1.3991    0.0000    0.0000 O   0  0  0  0  0  0  0  0  0  0  0  0
   -0.6405    0.0000   -1.2439 O   0  0  0  0  0  0  0  0  0  0  0  0
   -0.5685   -1.2592    0.9326 N   0  0  0  0  0  0  0  0  0  0  0  0
   -0.4177   -2.6043    0.7180 C   0  0  0  0  0  0  0  0  0  0  0  0
    0.2754   -3.0422   -0.4497 O   0  0  0  0  0  0  0  0  0  0  0  0
    0.3078   -4.3627   -0.4737 N   0  0  0  0  0  0  0  0  0  0  0  0
   -0.8186   -3.7395    1.4234 C   0  0  0  0  0  0  0  0  0  0  0  0
   -0.3258   -4.8520    0.6108 C   0  0  0  0  0  0  0  0  0  0  0  0
   -0.5091   -6.2757    0.9483 C   0  0  0  0  0  0  0  0  0  0  0  0
   -1.5484   -3.8226    2.6832 C   0  0  0  0  0  0  0  0  0  0  0  0
   -0.5638    1.2671    0.9229 C   0  0  0  0  0  0  0  0  0  0  0  0
   -1.8218    1.8401    0.6753 C   0  0  0  0  0  0  0  0  0  0  0  0
   -2.2851    2.9211    1.3995 C   0  0  0  0  0  0  0  0  0  0  0  0
   -1.4846    3.4874    2.4309 C   0  0  0  0  0  0  0  0  0  0  0  0
   -1.9518    4.5262    3.1958 N   0  0  0  0  0  0  0  0  0  0  0  0
    0.2288    1.8365    1.9328 C   0  0  0  0  0  0  0  0  0  0  0  0
   -0.2038    2.9174    2.6758 C   0  0  0  0  0  0  0  0  0  0  0  0
   -1.6025   -6.4985    1.0347 H   0  0  0  0  0  0  0  0  0  0  0  0
   -0.0653   -6.9502    0.1752 H   0  0  0  0  0  0  0  0  0  0  0  0
   -0.0231   -6.4891    1.9333 H   0  0  0  0  0  0  0  0  0  0  0  0
   -0.8478   -3.7444    3.5542 H   0  0  0  0  0  0  0  0  0  0  0  0
   -2.3008   -2.9982    2.7663 H   0  0  0  0  0  0  0  0  0  0  0  0
   -2.0866   -4.8014    2.7571 H   0  0  0  0  0  0  0  0  0  0  0  0
   -1.0908   -1.0823    1.7636 H   0  0  0  0  0  0  0  0  0  0  0  0
   -2.7677    5.0054    2.9054 H   0  0  0  0  0  0  0  0  0  0  0  0
   -1.3218    5.0028    3.7921 H   0  0  0  0  0  0  0  0  0  0  0  0
   -3.2751    3.3449    1.1747 H   0  0  0  0  0  0  0  0  0  0  0  0
   -2.4469    1.4212   -0.1358 H   0  0  0  0  0  0  0  0  0  0  0  0
    0.4465    3.3384    3.4569 H   0  0  0  0  0  0  0  0  0  0  0  0
    1.2340    1.4147    2.1214 H   0  0  0  0  0  0  0  0  0  0  0  0
  1  2  2  0  0  0  0
  1 12  1  0  0  0  0
  1  4  1  0  0  0  0
  3  1  2  0  0  0  0
  4 25  1  0  0  0  0
  5  4  1  0  0  0  0
  5  8  2  0  0  0  0
  6  5  1  0  0  0  0
  7  6  1  0  0  0  0
  7  9  2  0  0  0  0
  8 11  1  0  0  0  0
  9 10  1  0  0  0  0
  9  8  1  0  0  0  0
 10 19  1  0  0  0  0
 10 21  1  0  0  0  0
 11 24  1  0  0  0  0
 11 23  1  0  0  0  0
 11 22  1  0  0  0  0
 12 17  1  0  0  0  0
 13 12  2  0  0  0  0
 13 14  1  0  0  0  0
 14 15  2  0  0  0  0
 15 18  1  0  0  0  0
 15 16  1  0  0  0  0
 16 27  1  0  0  0  0
 17 31  1  0  0  0  0
 17 18  2  0  0  0  0
 18 30  1  0  0  0  0
 20 10  1  0  0  0  0
 26 16  1  0  0  0  0
 28 14  1  0  0  0  0
 29 13  1  0  0  0  0
M  END