
  Mrv0541 02201500303D          

 41 43  0  0  0  0            999 V2000
    0.0000    0.0000    0.0000 S   0  0  0  0  0  0  0  0  0  0  0  0
    1.7742    0.0000    0.0000 C   0  0  1  0  0  0  0  0  0  0  0  0
    2.4160    0.0000    1.3195 N   0  0  2  0  0  0  0  0  0  0  0  0
    3.0259   -1.2899    1.1543 C   0  0  0  0  0  0  0  0  0  0  0  0
    3.7195   -1.9685    1.8892 O   0  0  0  0  0  0  0  0  0  0  0  0
    1.7995    0.5154    2.4638 C   0  0  0  0  0  0  0  0  0  0  0  0
    2.5843    0.4227    3.7297 C   0  0  0  0  0  0  0  0  0  0  0  0
    3.8265    0.9722    3.6695 O   0  0  0  0  0  0  0  0  0  0  0  0
    2.2325   -0.0656    4.8060 O   0  0  0  0  0  0  0  0  0  0  0  0
    2.4960   -1.3708   -0.3228 C   0  0  1  0  0  0  0  0  0  0  0  0
    1.6935   -2.4881   -0.6396 N   0  0  0  0  0  0  0  0  0  0  0  0
    1.9619   -3.3040   -1.7234 C   0  0  0  0  0  0  0  0  0  0  0  0
    2.9371   -3.1138   -2.4713 O   0  0  0  0  0  0  0  0  0  0  0  0
    1.0117   -4.5040   -1.9708 C   0  0  2  0  0  0  0  0  0  0  0  0
   -0.3555   -4.0457   -2.1255 N   0  0  2  0  0  0  0  0  0  0  0  0
    1.1994   -5.5050   -0.8597 C   0  0  0  0  0  0  0  0  0  0  0  0
    0.4937   -5.4059    0.3440 C   0  0  0  0  0  0  0  0  0  0  0  0
    0.6956   -6.3485    1.3520 C   0  0  0  0  0  0  0  0  0  0  0  0
    1.6030   -7.3909    1.1663 C   0  0  0  0  0  0  0  0  0  0  0  0
    2.1094   -6.5531   -1.0432 C   0  0  0  0  0  0  0  0  0  0  0  0
    2.3101   -7.4909   -0.0319 C   0  0  0  0  0  0  0  0  0  0  0  0
   -0.2754    1.2174    1.2570 C   0  0  2  0  0  0  0  0  0  0  0  0
    0.5711    1.1035    2.4686 C   0  0  0  0  0  0  0  0  0  0  0  0
   -0.0254    1.7096    3.6825 C   0  0  0  0  0  0  0  0  0  0  0  0
    4.2807    0.8295    4.5180 H   0  0  0  0  0  0  0  0  0  0  0  0
   -1.0051   -4.7731   -1.9063 H   0  0  0  0  0  0  0  0  0  0  0  0
   -0.5106   -3.7110   -3.0544 H   0  0  0  0  0  0  0  0  0  0  0  0
    1.7639   -8.1305    1.9646 H   0  0  0  0  0  0  0  0  0  0  0  0
    0.1403   -6.2638    2.2979 H   0  0  0  0  0  0  0  0  0  0  0  0
   -0.2212   -4.5848    0.5075 H   0  0  0  0  0  0  0  0  0  0  0  0
    3.0306   -8.3089   -0.1800 H   0  0  0  0  0  0  0  0  0  0  0  0
    2.6752   -6.6330   -1.9843 H   0  0  0  0  0  0  0  0  0  0  0  0
    1.4011   -4.9723   -2.9319 H   0  0  0  0  0  0  0  0  0  0  0  0
    0.8491   -2.6211   -0.1275 H   0  0  0  0  0  0  0  0  0  0  0  0
    3.3295   -1.2508   -1.0690 H   0  0  0  0  0  0  0  0  0  0  0  0
    2.1570    0.8433   -0.6252 H   0  0  0  0  0  0  0  0  0  0  0  0
    0.7207    1.8329    4.5057 H   0  0  0  0  0  0  0  0  0  0  0  0
   -0.8516    1.0540    4.0595 H   0  0  0  0  0  0  0  0  0  0  0  0
   -0.4545    2.7138    3.4387 H   0  0  0  0  0  0  0  0  0  0  0  0
   -1.3571    1.0997    1.5318 H   0  0  0  0  0  0  0  0  0  0  0  0
   -0.1442    2.2411    0.8190 H   0  0  0  0  0  0  0  0  0  0  0  0
  1  2  1  0  0  0  0
  1 22  1  0  0  0  0
  2  3  1  0  0  0  0
  2 36  1  6  0  0  0
  3  6  1  0  0  0  0
  4  3  1  0  0  0  0
  4  5  2  0  0  0  0
  6 23  2  0  0  0  0
  6  7  1  0  0  0  0
  7  9  2  0  0  0  0
  8  7  1  0  0  0  0
  8 25  1  0  0  0  0
 10  2  1  0  0  0  0
 10  4  1  0  0  0  0
 10 35  1  6  0  0  0
 11 10  1  0  0  0  0
 11 34  1  0  0  0  0
 12 11  1  0  0  0  0
 13 12  2  0  0  0  0
 14 12  1  0  0  0  0
 14 16  1  0  0  0  0
 14 33  1  6  0  0  0
 15 14  1  0  0  0  0
 15 26  1  0  0  0  0
 16 17  1  0  0  0  0
 17 30  1  0  0  0  0
 17 18  2  0  0  0  0
 18 29  1  0  0  0  0
 19 18  1  0  0  0  0
 19 28  1  0  0  0  0
 20 16  2  0  0  0  0
 20 21  1  0  0  0  0
 21 19  2  0  0  0  0
 22 40  1  0  0  0  0
 22 23  1  0  0  0  0
 23 24  1  0  0  0  0
 24 38  1  0  0  0  0
 24 37  1  0  0  0  0
 27 15  1  0  0  0  0
 31 21  1  0  0  0  0
 32 20  1  0  0  0  0
 39 24  1  0  0  0  0
 41 22  1  0  0  0  0
M  END