
  Mrv0541 02201500303D          

 40 42  0  0  0  0            999 V2000
    0.0000    0.0000    0.0000 C   0  0  0  0  0  0  0  0  0  0  0  0
    1.3777    0.0000    0.0000 C   0  0  0  0  0  0  0  0  0  0  0  0
    2.1584    0.0000    1.1250 N   0  0  0  0  0  0  0  0  0  0  0  0
    1.5336    0.0705    2.3927 C   0  0  0  0  0  0  0  0  0  0  0  0
    0.1092    0.0672    2.4607 C   0  0  0  0  0  0  0  0  0  0  0  0
   -0.7326    0.0259    1.2568 C   0  0  0  0  0  0  0  0  0  0  0  0
    2.3196    0.1409    3.5101 N   0  0  0  0  0  0  0  0  0  0  0  0
    1.7419    0.1647    4.7367 C   0  0  0  0  0  0  0  0  0  0  0  0
    0.2973    0.1456    4.8763 C   0  0  0  0  0  0  0  0  0  0  0  0
   -0.4901    0.1042    3.7275 C   0  0  0  0  0  0  0  0  0  0  0  0
    3.9328   -0.3018    5.7373 C   0  0  1  0  0  0  0  0  0  0  0  0
    4.6416   -0.4905    7.0992 C   0  0  1  0  0  0  0  0  0  0  0  0
    4.5148    0.6256    8.0126 N   0  0  2  0  0  0  0  0  0  0  0  0
    3.1402    1.0618    8.1360 C   0  0  2  0  0  0  0  0  0  0  0  0
    2.3993    1.2725    6.7951 C   0  0  2  0  0  0  0  0  0  0  0  0
    2.5497    0.1268    5.9045 N   0  0  1  0  0  0  0  0  0  0  0  0
    3.6087    0.0365    0.9889 C   0  0  1  0  0  0  0  0  0  0  0  0
    4.2170    1.4271    1.0569 C   0  0  0  0  0  0  0  0  0  0  0  0
   -0.6571   -0.0258   -1.3146 C   0  0  0  0  0  0  0  0  0  0  0  0
   -2.0056   -0.0475   -1.4606 O   0  0  0  0  0  0  0  0  0  0  0  0
   -0.0494   -0.0301   -2.3948 O   0  0  0  0  0  0  0  0  0  0  0  0
   -1.9755    0.0185    1.3358 O   0  0  0  0  0  0  0  0  0  0  0  0
   -0.2927    0.1525    6.0930 F   0  0  0  0  0  0  0  0  0  0  0  0
    5.0933    1.3884    7.7078 H   0  0  0  0  0  0  0  0  0  0  0  0
    3.1088    2.0337    8.7006 H   0  0  0  0  0  0  0  0  0  0  0  0
    2.5894    0.2848    8.7374 H   0  0  0  0  0  0  0  0  0  0  0  0
    2.7883    2.2117    6.3049 H   0  0  0  0  0  0  0  0  0  0  0  0
    1.3066    1.4202    7.0181 H   0  0  0  0  0  0  0  0  0  0  0  0
    4.2152   -1.3986    7.6111 H   0  0  0  0  0  0  0  0  0  0  0  0
    5.7311   -0.6795    6.8953 H   0  0  0  0  0  0  0  0  0  0  0  0
    4.5228    0.4354    5.1200 H   0  0  0  0  0  0  0  0  0  0  0  0
    3.9336   -1.2896    5.1994 H   0  0  0  0  0  0  0  0  0  0  0  0
   -1.5925    0.0896    3.8010 H   0  0  0  0  0  0  0  0  0  0  0  0
    4.0597   -0.6103    1.7949 H   0  0  0  0  0  0  0  0  0  0  0  0
    3.8684   -0.4311   -0.0055 H   0  0  0  0  0  0  0  0  0  0  0  0
    3.8176    2.0854    0.2484 H   0  0  0  0  0  0  0  0  0  0  0  0
    5.3227    1.3332    0.9270 H   0  0  0  0  0  0  0  0  0  0  0  0
    4.0146    1.9102    2.0427 H   0  0  0  0  0  0  0  0  0  0  0  0
    1.9230   -0.0167   -0.9720 H   0  0  0  0  0  0  0  0  0  0  0  0
   -2.4621   -0.0457   -0.6042 H   0  0  0  0  0  0  0  0  0  0  0  0
  1  2  2  0  0  0  0
  1  6  1  0  0  0  0
  2  3  1  0  0  0  0
  3  4  1  0  0  0  0
  4  5  2  0  0  0  0
  4  7  1  0  0  0  0
  5 10  1  0  0  0  0
  6 22  2  0  0  0  0
  6  5  1  0  0  0  0
  7  8  2  0  0  0  0
  8  9  1  0  0  0  0
  8 16  1  0  0  0  0
  9 23  1  0  0  0  0
 10 33  1  0  0  0  0
 10  9  2  0  0  0  0
 11 16  1  0  0  0  0
 11 12  1  0  0  0  0
 12 29  1  0  0  0  0
 12 13  1  0  0  0  0
 13 14  1  0  0  0  0
 14 25  1  0  0  0  0
 14 26  1  0  0  0  0
 15 28  1  0  0  0  0
 15 14  1  0  0  0  0
 16 15  1  0  0  0  0
 17 18  1  0  0  0  0
 17  3  1  0  0  0  0
 17 34  1  0  0  0  0
 18 38  1  0  0  0  0
 19  1  1  0  0  0  0
 20 19  1  0  0  0  0
 20 40  1  0  0  0  0
 21 19  2  0  0  0  0
 24 13  1  0  0  0  0
 27 15  1  0  0  0  0
 30 12  1  0  0  0  0
 31 11  1  0  0  0  0
 32 11  1  0  0  0  0
 35 17  1  0  0  0  0
 36 18  1  0  0  0  0
 37 18  1  0  0  0  0
 39  2  1  0  0  0  0
M  END