
  Mrv0541 02201500303D          

 32 33  0  0  0  0            999 V2000
    0.0000    0.0000    0.0000 Cl  0  0  0  0  0  0  0  0  0  0  0  0
    1.6989    0.0000    0.0000 C   0  0  0  0  0  0  0  0  0  0  0  0
    2.4091    0.0000    1.2238 C   0  0  0  0  0  0  0  0  0  0  0  0
    1.5779    0.0071    2.7126 S   0  0  1  0  0  0  0  0  0  0  0  0
    0.8579    1.2131    2.8158 O   0  0  0  0  0  0  0  0  0  0  0  0
    0.8542   -1.1957    2.8262 O   0  0  0  0  0  0  0  0  0  0  0  0
    2.7321    0.0102    3.8255 N   0  0  0  0  0  0  0  0  0  0  0  0
    3.7989   -0.0068    1.1234 C   0  0  0  0  0  0  0  0  0  0  0  0
    2.3317   -0.0016   -1.2280 C   0  0  0  0  0  0  0  0  0  0  0  0
    3.7570   -0.0006   -1.3245 C   0  0  0  0  0  0  0  0  0  0  0  0
    4.3814    0.0221   -2.5353 N   0  0  0  0  0  0  0  0  0  0  0  0
    3.6535   -0.0045   -3.7804 C   0  0  2  0  0  0  0  0  0  0  0  0
    4.5381    0.0572   -4.9667 C   0  0  0  0  0  0  0  0  0  0  0  0
    5.4566   -0.9907   -5.1208 O   0  0  0  0  0  0  0  0  0  0  0  0
    6.1382   -0.7422   -6.3098 C   0  0  0  0  0  0  0  0  0  0  0  0
    4.6417    0.9376   -6.0261 C   0  0  0  0  0  0  0  0  0  0  0  0
    5.6730    0.4181   -6.8963 C   0  0  0  0  0  0  0  0  0  0  0  0
    4.4882   -0.0090   -0.0927 C   0  0  0  0  0  0  0  0  0  0  0  0
    5.9485   -0.0201   -0.0741 C   0  0  0  0  0  0  0  0  0  0  0  0
    6.5134   -0.0243    1.1724 O   0  0  0  0  0  0  0  0  0  0  0  0
    6.7583   -0.0272   -1.0140 O   0  0  0  0  0  0  0  0  0  0  0  0
    3.0978    0.8355    4.2290 H   0  0  0  0  0  0  0  0  0  0  0  0
    3.0939   -0.8126    4.2376 H   0  0  0  0  0  0  0  0  0  0  0  0
    4.4224   -0.0113    2.0390 H   0  0  0  0  0  0  0  0  0  0  0  0
    6.8956   -1.4822   -6.5541 H   0  0  0  0  0  0  0  0  0  0  0  0
    6.0041    0.8715   -7.8263 H   0  0  0  0  0  0  0  0  0  0  0  0
    4.0699    1.8469   -6.1906 H   0  0  0  0  0  0  0  0  0  0  0  0
    2.9489    0.8788   -3.8248 H   0  0  0  0  0  0  0  0  0  0  0  0
    3.0373   -0.9529   -3.8363 H   0  0  0  0  0  0  0  0  0  0  0  0
    5.3803   -0.0316   -2.5803 H   0  0  0  0  0  0  0  0  0  0  0  0
    7.4812   -0.0325    1.0817 H   0  0  0  0  0  0  0  0  0  0  0  0
    1.7228   -0.0055   -2.1462 H   0  0  0  0  0  0  0  0  0  0  0  0
  1  2  1  0  0  0  0
  2  3  2  0  0  0  0
  3  4  1  0  0  0  0
  4  5  2  0  0  0  0
  4  6  2  0  0  0  0
  4  7  1  0  0  0  0
  7 22  1  0  0  0  0
  7 23  1  0  0  0  0
  8  3  1  0  0  0  0
  8 24  1  0  0  0  0
  9  2  1  0  0  0  0
 10  9  2  0  0  0  0
 10 18  1  0  0  0  0
 11 10  1  0  0  0  0
 12 11  1  0  0  0  0
 13 12  1  0  0  0  0
 14 13  1  0  0  0  0
 15 14  1  0  0  0  0
 16 13  2  0  0  0  0
 17 15  2  0  0  0  0
 17 16  1  0  0  0  0
 18 19  1  0  0  0  0
 18  8  2  0  0  0  0
 19 20  1  0  0  0  0
 21 19  2  0  0  0  0
 25 15  1  0  0  0  0
 26 17  1  0  0  0  0
 27 16  1  0  0  0  0
 28 12  1  0  0  0  0
 29 12  1  0  0  0  0
 30 11  1  0  0  0  0
 31 20  1  0  0  0  0
 32  9  1  0  0  0  0
M  END