
  Mrv0541 02201500303D          

 51 54  0  0  0  0            999 V2000
    0.0000    0.0000    0.0000 S   0  0  0  0  0  0  0  0  0  0  0  0
    1.7778    0.0000    0.0000 C   0  0  1  0  0  0  0  0  0  0  0  0
    2.2857    0.0000    1.3918 N   0  0  2  0  0  0  0  0  0  0  0  0
    2.9251   -1.2947    1.2392 C   0  0  0  0  0  0  0  0  0  0  0  0
    3.5037   -2.0017    2.0442 O   0  0  0  0  0  0  0  0  0  0  0  0
    2.5690   -1.3384   -0.2888 C   0  0  1  0  0  0  0  0  0  0  0  0
    1.8150   -2.4394   -0.7479 N   0  0  0  0  0  0  0  0  0  0  0  0
    2.3980   -3.4842   -1.4618 C   0  0  0  0  0  0  0  0  0  0  0  0
    3.5610   -3.3824   -1.8942 O   0  0  0  0  0  0  0  0  0  0  0  0
    1.5456   -4.6846   -1.6948 C   0  0  0  0  0  0  0  0  0  0  0  0
    1.3900   -5.1884   -3.0213 C   0  0  0  0  0  0  0  0  0  0  0  0
    0.6218   -6.3641   -3.2296 C   0  0  0  0  0  0  0  0  0  0  0  0
    0.0321   -7.0244   -2.1176 C   0  0  0  0  0  0  0  0  0  0  0  0
    0.4553   -6.8680   -4.5484 C   0  0  0  0  0  0  0  0  0  0  0  0
    1.0315   -6.2294   -5.6182 C   0  0  0  0  0  0  0  0  0  0  0  0
    1.9794   -4.5525   -4.1502 C   0  0  0  0  0  0  0  0  0  0  0  0
    1.8030   -5.0611   -5.4137 C   0  0  0  0  0  0  0  0  0  0  0  0
    0.9253   -5.3393   -0.6373 C   0  0  0  0  0  0  0  0  0  0  0  0
    0.9977   -4.7614    0.6166 O   0  0  0  0  0  0  0  0  0  0  0  0
    1.1814   -5.6797    1.7099 C   0  0  1  0  0  0  0  0  0  0  0  0
    1.6474   -4.8434    2.8787 C   0  0  0  0  0  0  0  0  0  0  0  0
    0.1784   -6.5307   -0.8481 C   0  0  0  0  0  0  0  0  0  0  0  0
   -0.1620   -0.0501    1.8112 C   0  0  2  0  0  0  0  0  0  0  0  0
    1.2609    0.1950    2.3979 C   0  0  2  0  0  0  0  0  0  0  0  0
    1.3382    1.5736    3.0525 C   0  0  0  0  0  0  0  0  0  0  0  0
    1.6338    2.6976    2.3471 O   0  0  0  0  0  0  0  0  0  0  0  0
    1.1290    1.7704    4.2492 O   0  0  0  0  0  0  0  0  0  0  0  0
   -0.6603   -1.4185    2.2181 C   0  0  0  0  0  0  0  0  0  0  0  0
   -1.1521    1.0152    2.2128 C   0  0  0  0  0  0  0  0  0  0  0  0
   -0.5499   -7.9424   -2.2967 H   0  0  0  0  0  0  0  0  0  0  0  0
    0.9039   -6.6165   -6.6399 H   0  0  0  0  0  0  0  0  0  0  0  0
   -0.1444   -7.7797   -4.6912 H   0  0  0  0  0  0  0  0  0  0  0  0
    2.2638   -4.5659   -6.2819 H   0  0  0  0  0  0  0  0  0  0  0  0
    2.5965   -3.6528   -3.9919 H   0  0  0  0  0  0  0  0  0  0  0  0
    1.8724   -5.5147    3.7411 H   0  0  0  0  0  0  0  0  0  0  0  0
    2.5674   -4.2666    2.6110 H   0  0  0  0  0  0  0  0  0  0  0  0
    0.8547   -4.1163    3.1783 H   0  0  0  0  0  0  0  0  0  0  0  0
    0.1979   -6.1726    1.9290 H   0  0  0  0  0  0  0  0  0  0  0  0
    1.9390   -6.4565    1.4310 H   0  0  0  0  0  0  0  0  0  0  0  0
   -0.2818   -7.0358    0.0131 H   0  0  0  0  0  0  0  0  0  0  0  0
    0.9191   -2.5866   -0.3324 H   0  0  0  0  0  0  0  0  0  0  0  0
    3.4795   -1.1838   -0.9297 H   0  0  0  0  0  0  0  0  0  0  0  0
    2.1593    0.8567   -0.6020 H   0  0  0  0  0  0  0  0  0  0  0  0
    1.8247    2.4827    1.4235 H   0  0  0  0  0  0  0  0  0  0  0  0
    1.4419   -0.5427    3.2425 H   0  0  0  0  0  0  0  0  0  0  0  0
    0.0742   -2.2136    1.9360 H   0  0  0  0  0  0  0  0  0  0  0  0
   -1.6325   -1.6390    1.7130 H   0  0  0  0  0  0  0  0  0  0  0  0
   -0.8207   -1.4575    3.3243 H   0  0  0  0  0  0  0  0  0  0  0  0
   -2.1568    0.7893    1.7788 H   0  0  0  0  0  0  0  0  0  0  0  0
   -1.2459    1.0528    3.3278 H   0  0  0  0  0  0  0  0  0  0  0  0
   -0.8265    2.0221    1.8503 H   0  0  0  0  0  0  0  0  0  0  0  0
  1 23  1  0  0  0  0
  2  1  1  0  0  0  0
  2  3  1  0  0  0  0
  2 43  1  6  0  0  0
  3 24  1  0  0  0  0
  4  3  1  0  0  0  0
  4  5  2  0  0  0  0
  6  2  1  0  0  0  0
  6  4  1  0  0  0  0
  6 42  1  6  0  0  0
  7 41  1  0  0  0  0
  7  6  1  0  0  0  0
  8  7  1  0  0  0  0
  9  8  2  0  0  0  0
 10  8  1  0  0  0  0
 10 18  2  0  0  0  0
 11 10  1  0  0  0  0
 12 11  1  0  0  0  0
 12 13  1  0  0  0  0
 13 22  2  0  0  0  0
 14 12  2  0  0  0  0
 15 17  2  0  0  0  0
 15 14  1  0  0  0  0
 16 34  1  0  0  0  0
 16 11  2  0  0  0  0
 17 16  1  0  0  0  0
 18 19  1  0  0  0  0
 19 20  1  0  0  0  0
 20 38  1  0  0  0  0
 20 21  1  0  0  0  0
 21 37  1  0  0  0  0
 21 35  1  0  0  0  0
 22 18  1  0  0  0  0
 22 40  1  0  0  0  0
 23 29  1  0  0  0  0
 23 28  1  0  0  0  0
 23 24  1  0  0  0  0
 24 25  1  0  0  0  0
 24 45  1  1  0  0  0
 25 27  2  0  0  0  0
 26 25  1  0  0  0  0
 28 48  1  0  0  0  0
 29 50  1  0  0  0  0
 30 13  1  0  0  0  0
 31 15  1  0  0  0  0
 32 14  1  0  0  0  0
 33 17  1  0  0  0  0
 36 21  1  0  0  0  0
 39 20  1  0  0  0  0
 44 26  1  0  0  0  0
 46 28  1  0  0  0  0
 47 28  1  0  0  0  0
 49 29  1  0  0  0  0
 51 29  1  0  0  0  0
M  END