
  Mrv0541 02201500303D          

 48 51  0  0  0  0            999 V2000
    0.0000    0.0000    0.0000 F   0  0  0  0  0  0  0  0  0  0  0  0
    1.3580    0.0000    0.0000 C   0  0  0  0  0  0  0  0  0  0  0  0
    2.0630    0.0000    1.2420 C   0  0  0  0  0  0  0  0  0  0  0  0
    1.4037   -0.0788    2.4849 N   0  0  0  0  0  0  0  0  0  0  0  0
    0.0058   -0.3992    2.5859 C   0  0  2  0  0  0  0  0  0  0  0  0
   -0.5508   -1.2295    3.7281 C   0  0  1  0  0  0  0  0  0  0  0  0
   -0.5266   -1.8011    2.3453 C   0  0  1  0  0  0  0  0  0  0  0  0
    2.1125    0.0965    3.6464 C   0  0  0  0  0  0  0  0  0  0  0  0
    3.4752    0.2691    3.7034 C   0  0  0  0  0  0  0  0  0  0  0  0
    4.0642    0.4611    5.0363 C   0  0  0  0  0  0  0  0  0  0  0  0
    5.3950    0.6325    5.2335 O   0  0  0  0  0  0  0  0  0  0  0  0
    3.4080    0.4821    6.0874 O   0  0  0  0  0  0  0  0  0  0  0  0
    3.4758    0.1284    1.2322 C   0  0  0  0  0  0  0  0  0  0  0  0
    4.2592    0.2430    2.4788 C   0  0  0  0  0  0  0  0  0  0  0  0
    5.5003    0.3157    2.4576 O   0  0  0  0  0  0  0  0  0  0  0  0
    4.1588    0.1637   -0.0020 C   0  0  0  0  0  0  0  0  0  0  0  0
    5.5020    0.2653   -0.0395 F   0  0  0  0  0  0  0  0  0  0  0  0
    2.0378    0.0143   -1.2561 C   0  0  0  0  0  0  0  0  0  0  0  0
    1.2979    0.0482   -2.4459 N   0  0  0  0  0  0  0  0  0  0  0  0
    1.8775    0.6648   -3.6246 C   0  0  1  0  0  0  0  0  0  0  0  0
    0.7843    1.0305   -4.6679 C   0  0  2  0  0  0  0  0  0  0  0  0
   -0.0382   -0.1321   -4.9878 N   0  0  1  0  0  0  0  0  0  0  0  0
    1.4833    1.5953   -5.9012 C   0  0  0  0  0  0  0  0  0  0  0  0
    0.4303   -1.0804   -2.7376 C   0  0  1  0  0  0  0  0  0  0  0  0
   -0.6466   -0.7205   -3.7991 C   0  0  2  0  0  0  0  0  0  0  0  0
   -1.4274   -1.9907   -4.1251 C   0  0  0  0  0  0  0  0  0  0  0  0
    3.4610    0.0731   -1.2275 C   0  0  0  0  0  0  0  0  0  0  0  0
    4.1906    0.0546   -2.3695 F   0  0  0  0  0  0  0  0  0  0  0  0
    0.1265   -1.6573    4.4901 H   0  0  0  0  0  0  0  0  0  0  0  0
   -1.5094   -0.9008    4.1700 H   0  0  0  0  0  0  0  0  0  0  0  0
   -1.4652   -1.8919    1.7692 H   0  0  0  0  0  0  0  0  0  0  0  0
    0.1753   -2.6249    2.1228 H   0  0  0  0  0  0  0  0  0  0  0  0
   -0.6124    0.4562    2.2230 H   0  0  0  0  0  0  0  0  0  0  0  0
    5.8915    0.6041    4.4000 H   0  0  0  0  0  0  0  0  0  0  0  0
    1.5157    0.0973    4.5876 H   0  0  0  0  0  0  0  0  0  0  0  0
   -0.7433    0.1117   -5.6566 H   0  0  0  0  0  0  0  0  0  0  0  0
    2.1109    2.4673   -5.5980 H   0  0  0  0  0  0  0  0  0  0  0  0
    2.1398    0.8288   -6.3784 H   0  0  0  0  0  0  0  0  0  0  0  0
    0.7336    1.9395   -6.6532 H   0  0  0  0  0  0  0  0  0  0  0  0
    0.1514    1.8593   -4.2192 H   0  0  0  0  0  0  0  0  0  0  0  0
    2.4033    1.6101   -3.3170 H   0  0  0  0  0  0  0  0  0  0  0  0
    2.6283   -0.0187   -4.1177 H   0  0  0  0  0  0  0  0  0  0  0  0
   -1.8583   -2.4068   -3.1833 H   0  0  0  0  0  0  0  0  0  0  0  0
   -2.2629   -1.7667   -4.8307 H   0  0  0  0  0  0  0  0  0  0  0  0
   -0.7668   -2.7612   -4.5901 H   0  0  0  0  0  0  0  0  0  0  0  0
   -1.3648    0.0114   -3.3115 H   0  0  0  0  0  0  0  0  0  0  0  0
    1.0355   -1.9546   -3.1160 H   0  0  0  0  0  0  0  0  0  0  0  0
   -0.1022   -1.3948   -1.7985 H   0  0  0  0  0  0  0  0  0  0  0  0
  1  2  1  0  0  0  0
  2  3  2  0  0  0  0
  3  4  1  0  0  0  0
  4  5  1  0  0  0  0
  4  8  1  0  0  0  0
  5  6  1  0  0  0  0
  6 30  1  0  0  0  0
  6 29  1  0  0  0  0
  7  5  1  0  0  0  0
  7  6  1  0  0  0  0
  8  9  2  0  0  0  0
  8 35  1  0  0  0  0
  9 10  1  0  0  0  0
 10 11  1  0  0  0  0
 10 12  2  0  0  0  0
 13  3  1  0  0  0  0
 13 14  1  0  0  0  0
 14  9  1  0  0  0  0
 15 14  2  0  0  0  0
 16 13  2  0  0  0  0
 17 16  1  0  0  0  0
 18 27  2  0  0  0  0
 18  2  1  0  0  0  0
 19 18  1  0  0  0  0
 20 41  1  0  0  0  0
 20 19  1  0  0  0  0
 21 40  1  1  0  0  0
 21 20  1  0  0  0  0
 22 21  1  0  0  0  0
 22 25  1  0  0  0  0
 23 37  1  0  0  0  0
 23 21  1  0  0  0  0
 24 19  1  0  0  0  0
 24 48  1  0  0  0  0
 25 46  1  1  0  0  0
 25 24  1  0  0  0  0
 26 25  1  0  0  0  0
 26 43  1  0  0  0  0
 27 16  1  0  0  0  0
 28 27  1  0  0  0  0
 31  7  1  0  0  0  0
 32  7  1  0  0  0  0
 33  5  1  0  0  0  0
 34 11  1  0  0  0  0
 36 22  1  0  0  0  0
 38 23  1  0  0  0  0
 39 23  1  0  0  0  0
 42 20  1  0  0  0  0
 44 26  1  0  0  0  0
 45 26  1  0  0  0  0
 47 24  1  0  0  0  0
M  END