
  Mrv0541 02201500303D          

 35 36  0  0  0  0            999 V2000
    0.0000    0.0000    0.0000 S   0  0  1  0  0  0  0  0  0  0  0  0
    1.4117    0.0000    0.0000 O   0  0  0  0  0  0  0  0  0  0  0  0
   -0.6379    0.0000   -1.2524 O   0  0  0  0  0  0  0  0  0  0  0  0
   -0.4364   -1.3315    0.8817 N   0  0  0  0  0  0  0  0  0  0  0  0
   -1.6977   -1.9127    1.0382 C   0  0  0  0  0  0  0  0  0  0  0  0
   -1.8615   -2.8367    2.0472 N   0  0  0  0  0  0  0  0  0  0  0  0
   -3.1126   -3.3722    2.1667 C   0  0  0  0  0  0  0  0  0  0  0  0
   -3.3757   -4.3111    3.1458 O   0  0  0  0  0  0  0  0  0  0  0  0
   -2.2882   -4.7023    3.9873 C   0  0  0  0  0  0  0  0  0  0  0  0
   -2.7731   -1.5579    0.1809 C   0  0  0  0  0  0  0  0  0  0  0  0
   -4.0193   -2.1849    0.4304 C   0  0  0  0  0  0  0  0  0  0  0  0
   -5.0323   -1.7968   -0.4136 O   0  0  0  0  0  0  0  0  0  0  0  0
   -6.3102   -2.4185   -0.2511 C   0  0  0  0  0  0  0  0  0  0  0  0
   -4.2321   -3.0972    1.4153 N   0  0  0  0  0  0  0  0  0  0  0  0
   -0.5585    1.2660    0.9111 C   0  0  0  0  0  0  0  0  0  0  0  0
    0.2294    1.8236    1.9319 C   0  0  0  0  0  0  0  0  0  0  0  0
   -0.2005    2.9008    2.6812 C   0  0  0  0  0  0  0  0  0  0  0  0
   -1.4775    3.4791    2.4352 C   0  0  0  0  0  0  0  0  0  0  0  0
   -1.9405    4.5171    3.2017 N   0  0  0  0  0  0  0  0  0  0  0  0
   -1.8134    1.8475    0.6651 C   0  0  0  0  0  0  0  0  0  0  0  0
   -2.2749    2.9254    1.3948 C   0  0  0  0  0  0  0  0  0  0  0  0
   -1.9068   -3.8314    4.5714 H   0  0  0  0  0  0  0  0  0  0  0  0
   -1.4697   -5.1660    3.3874 H   0  0  0  0  0  0  0  0  0  0  0  0
   -2.7669   -5.4578    4.6623 H   0  0  0  0  0  0  0  0  0  0  0  0
   -6.9213   -1.9397   -1.0581 H   0  0  0  0  0  0  0  0  0  0  0  0
   -6.7304   -2.1922    0.7575 H   0  0  0  0  0  0  0  0  0  0  0  0
   -6.2333   -3.5206   -0.4080 H   0  0  0  0  0  0  0  0  0  0  0  0
   -2.6682   -0.8674   -0.6666 H   0  0  0  0  0  0  0  0  0  0  0  0
    0.2790   -1.7715    1.4273 H   0  0  0  0  0  0  0  0  0  0  0  0
   -1.3213    4.9737    3.8231 H   0  0  0  0  0  0  0  0  0  0  0  0
   -2.7656    4.9894    2.9291 H   0  0  0  0  0  0  0  0  0  0  0  0
    0.4470    3.3103    3.4705 H   0  0  0  0  0  0  0  0  0  0  0  0
    1.2305    1.3951    2.1253 H   0  0  0  0  0  0  0  0  0  0  0  0
   -3.2635    3.3527    1.1707 H   0  0  0  0  0  0  0  0  0  0  0  0
   -2.4417    1.4332   -0.1461 H   0  0  0  0  0  0  0  0  0  0  0  0
  1  2  2  0  0  0  0
  1  4  1  0  0  0  0
  1 15  1  0  0  0  0
  3  1  2  0  0  0  0
  4  5  1  0  0  0  0
  4 29  1  0  0  0  0
  5  6  2  0  0  0  0
  6  7  1  0  0  0  0
  7  8  1  0  0  0  0
  8  9  1  0  0  0  0
  9 22  1  0  0  0  0
  9 24  1  0  0  0  0
 10 11  2  0  0  0  0
 10  5  1  0  0  0  0
 11 14  1  0  0  0  0
 12 13  1  0  0  0  0
 12 11  1  0  0  0  0
 13 26  1  0  0  0  0
 14  7  2  0  0  0  0
 15 16  1  0  0  0  0
 16 33  1  0  0  0  0
 16 17  2  0  0  0  0
 17 32  1  0  0  0  0
 18 17  1  0  0  0  0
 18 19  1  0  0  0  0
 19 30  1  0  0  0  0
 20 15  2  0  0  0  0
 20 21  1  0  0  0  0
 21 18  2  0  0  0  0
 23  9  1  0  0  0  0
 25 13  1  0  0  0  0
 27 13  1  0  0  0  0
 28 10  1  0  0  0  0
 31 19  1  0  0  0  0
 34 21  1  0  0  0  0
 35 20  1  0  0  0  0
M  END