
  Mrv0541 02201500303D          

 39 41  0  0  0  0            999 V2000
    0.0000    0.0000    0.0000 C   0  0  0  0  0  0  0  0  0  0  0  0
    1.4611    0.0000    0.0000 C   0  0  0  0  0  0  0  0  0  0  0  0
    2.1739    0.0000    1.2029 O   0  0  0  0  0  0  0  0  0  0  0  0
    1.4830    0.0007    2.3885 C   0  0  0  0  0  0  0  0  0  0  0  0
    0.0766   -0.0127    2.4526 C   0  0  0  0  0  0  0  0  0  0  0  0
   -0.6584   -0.0338    1.1978 C   0  0  0  0  0  0  0  0  0  0  0  0
    2.2730    0.0179    3.5567 C   0  0  0  0  0  0  0  0  0  0  0  0
    1.6432    0.0301    4.7899 C   0  0  0  0  0  0  0  0  0  0  0  0
    0.2427    0.0307    4.8728 C   0  0  0  0  0  0  0  0  0  0  0  0
   -0.5294    0.0118    3.7224 C   0  0  0  0  0  0  0  0  0  0  0  0
   -0.6300   -0.0040   -1.3603 C   0  0  2  0  0  0  0  0  0  0  0  0
   -1.7255    1.0445   -1.5216 C   0  0  2  0  0  0  0  0  0  0  0  0
   -1.1929    2.4232   -1.8008 C   0  0  0  0  0  0  0  0  0  0  0  0
   -2.0225    3.5410   -1.2526 C   0  0  0  0  0  0  0  0  0  0  0  0
   -1.1338   -1.3753   -1.7070 C   0  0  0  0  0  0  0  0  0  0  0  0
   -0.3248   -2.2255   -2.4721 C   0  0  0  0  0  0  0  0  0  0  0  0
   -0.7752   -3.4980   -2.8197 C   0  0  0  0  0  0  0  0  0  0  0  0
   -2.0348   -3.9329   -2.4081 C   0  0  0  0  0  0  0  0  0  0  0  0
   -2.8423   -3.0921   -1.6428 C   0  0  0  0  0  0  0  0  0  0  0  0
   -2.3940   -1.8196   -1.2921 C   0  0  0  0  0  0  0  0  0  0  0  0
   -0.1684    2.6296   -2.4580 O   0  0  0  0  0  0  0  0  0  0  0  0
   -2.0310   -0.0523    1.2026 O   0  0  0  0  0  0  0  0  0  0  0  0
    2.2419   -0.0216   -0.9498 O   0  0  0  0  0  0  0  0  0  0  0  0
    3.3690    0.0233    3.4625 H   0  0  0  0  0  0  0  0  0  0  0  0
    2.2440    0.0427    5.7125 H   0  0  0  0  0  0  0  0  0  0  0  0
   -0.2425    0.0491    5.8601 H   0  0  0  0  0  0  0  0  0  0  0  0
   -1.6259    0.0286    3.8159 H   0  0  0  0  0  0  0  0  0  0  0  0
   -2.3344   -0.3818    2.0614 H   0  0  0  0  0  0  0  0  0  0  0  0
   -1.6678    4.5262   -1.6412 H   0  0  0  0  0  0  0  0  0  0  0  0
   -1.9483    3.5453   -0.1375 H   0  0  0  0  0  0  0  0  0  0  0  0
   -3.0925    3.3983   -1.5387 H   0  0  0  0  0  0  0  0  0  0  0  0
   -2.3882    1.0743   -0.6183 H   0  0  0  0  0  0  0  0  0  0  0  0
   -2.3690    0.7577   -2.3991 H   0  0  0  0  0  0  0  0  0  0  0  0
    0.1843    0.2633   -2.1086 H   0  0  0  0  0  0  0  0  0  0  0  0
   -3.0267   -1.1605   -0.6773 H   0  0  0  0  0  0  0  0  0  0  0  0
   -3.8353   -3.4319   -1.3150 H   0  0  0  0  0  0  0  0  0  0  0  0
   -2.3899   -4.9358   -2.6859 H   0  0  0  0  0  0  0  0  0  0  0  0
   -0.1339   -4.1589   -3.4212 H   0  0  0  0  0  0  0  0  0  0  0  0
    0.6718   -1.8854   -2.7964 H   0  0  0  0  0  0  0  0  0  0  0  0
  1  2  1  0  0  0  0
  1  6  2  0  0  0  0
  2  3  1  0  0  0  0
  3  4  1  0  0  0  0
  4  5  2  0  0  0  0
  4  7  1  0  0  0  0
  5 10  1  0  0  0  0
  6 22  1  0  0  0  0
  6  5  1  0  0  0  0
  7  8  2  0  0  0  0
  8  9  1  0  0  0  0
  8 25  1  0  0  0  0
  9 26  1  0  0  0  0
 10 27  1  0  0  0  0
 10  9  2  0  0  0  0
 11  1  1  0  0  0  0
 11 34  1  6  0  0  0
 12 11  1  0  0  0  0
 12 32  1  0  0  0  0
 13 12  1  0  0  0  0
 13 14  1  0  0  0  0
 14 30  1  0  0  0  0
 15 11  1  0  0  0  0
 15 20  2  0  0  0  0
 16 15  1  0  0  0  0
 17 16  2  0  0  0  0
 17 18  1  0  0  0  0
 18 19  2  0  0  0  0
 19 36  1  0  0  0  0
 19 20  1  0  0  0  0
 20 35  1  0  0  0  0
 21 13  2  0  0  0  0
 22 28  1  0  0  0  0
 23  2  2  0  0  0  0
 24  7  1  0  0  0  0
 29 14  1  0  0  0  0
 31 14  1  0  0  0  0
 33 12  1  0  0  0  0
 37 18  1  0  0  0  0
 38 17  1  0  0  0  0
 39 16  1  0  0  0  0
M  END