
  Mrv0541 02201500303D          

 43 44  0  0  0  0            999 V2000
    0.0000    0.0000    0.0000 C   0  0  0  0  0  0  0  0  0  0  0  0
    1.4207    0.0000    0.0000 C   0  0  0  0  0  0  0  0  0  0  0  0
    2.0998    0.0000    1.2264 C   0  0  0  0  0  0  0  0  0  0  0  0
    3.4864    0.0051    1.2706 C   0  0  0  0  0  0  0  0  0  0  0  0
    2.1656   -0.0005   -1.1898 C   0  0  0  0  0  0  0  0  0  0  0  0
    3.5571    0.0010   -1.1615 C   0  0  0  0  0  0  0  0  0  0  0  0
    4.2447    0.0083    0.0741 C   0  0  0  0  0  0  0  0  0  0  0  0
    5.6412   -0.0019    0.1665 N   0  0  0  0  0  0  0  0  0  0  0  0
    6.5514    0.2225   -0.8555 C   0  0  0  0  0  0  0  0  0  0  0  0
    8.0520    0.1146   -0.4617 C   0  0  2  0  0  0  0  0  0  0  0  0
    8.9007    0.7694   -1.5424 C   0  0  0  0  0  0  0  0  0  0  0  0
    8.4500   -1.3390   -0.2177 C   0  0  1  0  0  0  0  0  0  0  0  0
    8.3006   -2.4968   -1.4958 S   0  0  1  0  0  0  0  0  0  0  0  0
    9.0256   -3.7864   -0.7149 C   0  0  0  0  0  0  0  0  0  0  0  0
   10.4092   -3.9946   -0.8068 C   0  0  0  0  0  0  0  0  0  0  0  0
   11.0210   -5.0767   -0.1897 C   0  0  0  0  0  0  0  0  0  0  0  0
   10.2320   -5.9883    0.5406 C   0  0  0  0  0  0  0  0  0  0  0  0
   10.8131   -7.0435    1.1494 F   0  0  0  0  0  0  0  0  0  0  0  0
    8.2560   -4.7112    0.0054 C   0  0  0  0  0  0  0  0  0  0  0  0
    8.8379   -5.8033    0.6339 C   0  0  0  0  0  0  0  0  0  0  0  0
    6.9443   -2.7645   -1.6984 O   0  0  0  0  0  0  0  0  0  0  0  0
    9.0845   -2.0958   -2.5815 O   0  0  0  0  0  0  0  0  0  0  0  0
    8.2453    0.7619    0.7966 O   0  0  0  0  0  0  0  0  0  0  0  0
    6.2251    0.5054   -2.0182 O   0  0  0  0  0  0  0  0  0  0  0  0
    1.4586   -0.0041   -2.5483 C   0  0  1  0  0  0  0  0  0  0  0  0
    2.2985   -0.0160   -3.6344 F   0  0  0  0  0  0  0  0  0  0  0  0
    0.6367   -1.0852   -2.7528 F   0  0  0  0  0  0  0  0  0  0  0  0
    0.6537    1.0878   -2.7650 F   0  0  0  0  0  0  0  0  0  0  0  0
   -1.1632    0.0027    0.0124 N   0  0  0  0  0  0  0  0  0  0  0  0
    1.5241   -0.0021    2.1660 H   0  0  0  0  0  0  0  0  0  0  0  0
    3.9878    0.0061    2.2515 H   0  0  0  0  0  0  0  0  0  0  0  0
    4.1189   -0.0083   -2.1153 H   0  0  0  0  0  0  0  0  0  0  0  0
    8.8025    0.2137   -2.5083 H   0  0  0  0  0  0  0  0  0  0  0  0
    8.5619    1.8204   -1.7093 H   0  0  0  0  0  0  0  0  0  0  0  0
    9.9708    0.7722   -1.2262 H   0  0  0  0  0  0  0  0  0  0  0  0
    9.5202   -1.3018    0.1319 H   0  0  0  0  0  0  0  0  0  0  0  0
    7.8699   -1.6945    0.6778 H   0  0  0  0  0  0  0  0  0  0  0  0
   12.1068   -5.2346   -0.2680 H   0  0  0  0  0  0  0  0  0  0  0  0
   11.0213   -3.2888   -1.3984 H   0  0  0  0  0  0  0  0  0  0  0  0
    8.2273   -6.5259    1.1952 H   0  0  0  0  0  0  0  0  0  0  0  0
    7.1598   -4.5736    0.0580 H   0  0  0  0  0  0  0  0  0  0  0  0
    8.3275    1.7088    0.6264 H   0  0  0  0  0  0  0  0  0  0  0  0
    6.0214   -0.1088    1.0839 H   0  0  0  0  0  0  0  0  0  0  0  0
  1  2  1  0  0  0  0
  1 29  3  0  0  0  0
  2  3  1  0  0  0  0
  3  4  2  0  0  0  0
  3 30  1  0  0  0  0
  4 31  1  0  0  0  0
  5  2  2  0  0  0  0
  5  6  1  0  0  0  0
  6  7  2  0  0  0  0
  7  4  1  0  0  0  0
  7  8  1  0  0  0  0
  8 43  1  0  0  0  0
  9  8  1  0  0  0  0
 10  9  1  6  0  0  0
 10 12  1  0  0  0  0
 10 23  1  0  0  0  0
 11 10  1  0  0  0  0
 11 35  1  0  0  0  0
 12 36  1  0  0  0  0
 12 37  1  0  0  0  0
 13 12  1  0  0  0  0
 13 14  1  0  0  0  0
 14 19  1  0  0  0  0
 15 14  2  0  0  0  0
 15 16  1  0  0  0  0
 16 17  2  0  0  0  0
 17 20  1  0  0  0  0
 17 18  1  0  0  0  0
 19 41  1  0  0  0  0
 19 20  2  0  0  0  0
 20 40  1  0  0  0  0
 21 13  2  0  0  0  0
 22 13  2  0  0  0  0
 24  9  2  0  0  0  0
 25  5  1  0  0  0  0
 26 25  1  0  0  0  0
 27 25  1  0  0  0  0
 28 25  1  0  0  0  0
 32  6  1  0  0  0  0
 33 11  1  0  0  0  0
 34 11  1  0  0  0  0
 38 16  1  0  0  0  0
 39 15  1  0  0  0  0
 42 23  1  0  0  0  0
M  END