
  Mrv0541 02201500303D          

 44 46  0  0  0  0            999 V2000
    0.0000    0.0000    0.0000 C   0  0  0  0  0  0  0  0  0  0  0  0
    1.4048    0.0000    0.0000 C   0  0  0  0  0  0  0  0  0  0  0  0
    2.1488    0.0000    1.2133 C   0  0  0  0  0  0  0  0  0  0  0  0
    3.5578    0.0920    1.3081 N   0  0  1  0  0  0  0  0  0  0  0  0
    4.2172   -1.0655    1.9004 C   0  0  2  0  0  0  0  0  0  0  0  0
    5.6910   -0.7712    2.2152 C   0  0  1  0  0  0  0  0  0  0  0  0
    6.3841   -0.2614    1.0827 O   0  0  0  0  0  0  0  0  0  0  0  0
    4.2926    0.6166    0.1692 C   0  0  2  0  0  0  0  0  0  0  0  0
    5.7568    0.8952    0.5393 C   0  0  2  0  0  0  0  0  0  0  0  0
    2.0266    0.0115   -1.2052 F   0  0  0  0  0  0  0  0  0  0  0  0
   -0.7130   -0.0300    1.2107 C   0  0  0  0  0  0  0  0  0  0  0  0
    0.0165   -0.0512    2.4212 C   0  0  0  0  0  0  0  0  0  0  0  0
    1.4010   -0.0318    2.4126 C   0  0  0  0  0  0  0  0  0  0  0  0
   -2.1173   -0.0810    1.2298 N   0  0  0  0  0  0  0  0  0  0  0  0
   -2.9540    0.0944    0.1112 C   0  0  0  0  0  0  0  0  0  0  0  0
   -2.7526    0.0219   -1.0990 O   0  0  0  0  0  0  0  0  0  0  0  0
   -4.2590    0.3513    0.5171 O   0  0  0  0  0  0  0  0  0  0  0  0
   -2.8764    0.1470    2.4502 C   0  0  2  0  0  0  0  0  0  0  0  0
   -4.3274    0.3959    1.9638 C   0  0  2  0  0  0  0  0  0  0  0  0
   -5.2887   -0.7026    2.4490 C   0  0  1  0  0  0  0  0  0  0  0  0
   -6.6470   -0.5334    2.0453 N   0  0  0  0  0  0  0  0  0  0  0  0
   -7.5951    0.1639    2.7831 C   0  0  0  0  0  0  0  0  0  0  0  0
   -7.3163    0.5199    4.2198 C   0  0  0  0  0  0  0  0  0  0  0  0
   -8.6860    0.4355    2.2457 O   0  0  0  0  0  0  0  0  0  0  0  0
   -0.5223    0.0105   -0.9735 H   0  0  0  0  0  0  0  0  0  0  0  0
    4.1687   -1.9573    1.2106 H   0  0  0  0  0  0  0  0  0  0  0  0
    3.6905   -1.3330    2.8572 H   0  0  0  0  0  0  0  0  0  0  0  0
    5.7764   -0.0444    3.0655 H   0  0  0  0  0  0  0  0  0  0  0  0
    6.2257   -1.7248    2.4651 H   0  0  0  0  0  0  0  0  0  0  0  0
    3.8047    1.5741   -0.1608 H   0  0  0  0  0  0  0  0  0  0  0  0
    4.2839   -0.1039   -0.7001 H   0  0  0  0  0  0  0  0  0  0  0  0
    6.3468    1.1250   -0.3861 H   0  0  0  0  0  0  0  0  0  0  0  0
    5.8326    1.7431    1.2692 H   0  0  0  0  0  0  0  0  0  0  0  0
   -0.5026   -0.0846    3.3912 H   0  0  0  0  0  0  0  0  0  0  0  0
    1.9314   -0.0322    3.3797 H   0  0  0  0  0  0  0  0  0  0  0  0
   -4.6903    1.4222    2.2301 H   0  0  0  0  0  0  0  0  0  0  0  0
   -4.9248   -1.6884    2.0349 H   0  0  0  0  0  0  0  0  0  0  0  0
   -5.2198   -0.7425    3.5729 H   0  0  0  0  0  0  0  0  0  0  0  0
   -8.2002    1.0683    4.6294 H   0  0  0  0  0  0  0  0  0  0  0  0
   -7.1524   -0.4034    4.8265 H   0  0  0  0  0  0  0  0  0  0  0  0
   -6.4162    1.1760    4.2950 H   0  0  0  0  0  0  0  0  0  0  0  0
   -6.8309   -0.6434    1.0703 H   0  0  0  0  0  0  0  0  0  0  0  0
   -2.4866    1.0357    3.0162 H   0  0  0  0  0  0  0  0  0  0  0  0
   -2.8127   -0.7624    3.1067 H   0  0  0  0  0  0  0  0  0  0  0  0
  1 11  1  0  0  0  0
  2  1  2  0  0  0  0
  2  3  1  0  0  0  0
  3  4  1  0  0  0  0
  3 13  2  0  0  0  0
  4  5  1  0  0  0  0
  5  6  1  0  0  0  0
  5 27  1  0  0  0  0
  6 29  1  0  0  0  0
  6 28  1  0  0  0  0
  7  6  1  0  0  0  0
  8  4  1  0  0  0  0
  8  9  1  0  0  0  0
  9  7  1  0  0  0  0
  9 33  1  0  0  0  0
 10  2  1  0  0  0  0
 11 14  1  0  0  0  0
 11 12  2  0  0  0  0
 12 34  1  0  0  0  0
 13 12  1  0  0  0  0
 13 35  1  0  0  0  0
 14 18  1  0  0  0  0
 15 14  1  0  0  0  0
 15 17  1  0  0  0  0
 16 15  2  0  0  0  0
 17 19  1  0  0  0  0
 18 43  1  0  0  0  0
 18 44  1  0  0  0  0
 19 18  1  0  0  0  0
 19 36  1  1  0  0  0
 19 20  1  0  0  0  0
 20 38  1  0  0  0  0
 21 20  1  0  0  0  0
 21 22  1  0  0  0  0
 22 23  1  0  0  0  0
 23 41  1  0  0  0  0
 23 39  1  0  0  0  0
 23 40  1  0  0  0  0
 24 22  2  0  0  0  0
 25  1  1  0  0  0  0
 26  5  1  0  0  0  0
 30  8  1  0  0  0  0
 31  8  1  0  0  0  0
 32  9  1  0  0  0  0
 37 20  1  0  0  0  0
 42 21  1  0  0  0  0
M  END