
  Mrv0541 02201500303D          

 26 27  0  0  0  0            999 V2000
    0.0000    0.0000    0.0000 C   0  0  0  0  0  0  0  0  0  0  0  0
    1.3957    0.0000    0.0000 C   0  0  0  0  0  0  0  0  0  0  0  0
    2.0766    0.0000    1.2228 C   0  0  0  0  0  0  0  0  0  0  0  0
    1.3095   -0.0097    2.4085 C   0  0  0  0  0  0  0  0  0  0  0  0
    3.5772    0.0289    1.2570 C   0  0  1  0  0  0  0  0  0  0  0  0
    4.0871    1.4398    1.6408 C   0  0  2  0  0  0  0  0  0  0  0  0
    5.2238    1.2225    2.6286 C   0  0  1  0  0  0  0  0  0  0  0  0
    4.1399   -0.9351    2.2225 N   0  0  2  0  0  0  0  0  0  0  0  0
    5.1939   -0.2697    2.9885 C   0  0  1  0  0  0  0  0  0  0  0  0
    4.5370   -2.1872    1.6314 C   0  0  0  0  0  0  0  0  0  0  0  0
   -0.6712   -0.0061    1.2352 C   0  0  0  0  0  0  0  0  0  0  0  0
   -0.0360   -0.0122    2.4238 N   0  0  0  0  0  0  0  0  0  0  0  0
   -0.5651    0.0021   -0.9406 H   0  0  0  0  0  0  0  0  0  0  0  0
    1.9506    0.0000   -0.9496 H   0  0  0  0  0  0  0  0  0  0  0  0
    1.8044   -0.0232    3.3971 H   0  0  0  0  0  0  0  0  0  0  0  0
    6.2077    1.4934    2.1727 H   0  0  0  0  0  0  0  0  0  0  0  0
    5.0885    1.8495    3.5430 H   0  0  0  0  0  0  0  0  0  0  0  0
    3.2654    2.0370    2.1077 H   0  0  0  0  0  0  0  0  0  0  0  0
    4.4333    1.9825    0.7288 H   0  0  0  0  0  0  0  0  0  0  0  0
    3.9494   -0.2066    0.2121 H   0  0  0  0  0  0  0  0  0  0  0  0
    6.2042   -0.7310    2.8085 H   0  0  0  0  0  0  0  0  0  0  0  0
    4.9442   -0.4074    4.0763 H   0  0  0  0  0  0  0  0  0  0  0  0
    5.3645   -2.0903    0.8749 H   0  0  0  0  0  0  0  0  0  0  0  0
    4.8826   -2.8719    2.4498 H   0  0  0  0  0  0  0  0  0  0  0  0
    3.6461   -2.6452    1.1272 H   0  0  0  0  0  0  0  0  0  0  0  0
   -1.7746   -0.0077    1.2805 H   0  0  0  0  0  0  0  0  0  0  0  0
  1  2  2  0  0  0  0
  1 11  1  0  0  0  0
  2  3  1  0  0  0  0
  3  5  1  0  0  0  0
  3  4  2  0  0  0  0
  4 12  1  0  0  0  0
  4 15  1  0  0  0  0
  5 20  1  6  0  0  0
  5  6  1  0  0  0  0
  5  8  1  0  0  0  0
  6 18  1  0  0  0  0
  6  7  1  0  0  0  0
  7  9  1  0  0  0  0
  7 17  1  0  0  0  0
  8  9  1  0  0  0  0
  9 22  1  0  0  0  0
 10  8  1  0  0  0  0
 10 24  1  0  0  0  0
 11 26  1  0  0  0  0
 11 12  2  0  0  0  0
 13  1  1  0  0  0  0
 14  2  1  0  0  0  0
 16  7  1  0  0  0  0
 19  6  1  0  0  0  0
 21  9  1  0  0  0  0
 23 10  1  0  0  0  0
 25 10  1  0  0  0  0
M  END