
  Mrv0541 02201500303D          

 31 33  0  0  0  0            999 V2000
    0.0000    0.0000    0.0000 O   0  0  0  0  0  0  0  0  0  0  0  0
    1.2407    0.0000    0.0000 C   0  0  0  0  0  0  0  0  0  0  0  0
    1.9571    0.0000    1.3272 C   0  0  2  0  0  0  0  0  0  0  0  0
    2.8940   -1.1445    1.4487 C   0  0  0  0  0  0  0  0  0  0  0  0
    4.0401   -1.1925    0.6223 C   0  0  0  0  0  0  0  0  0  0  0  0
    4.9253   -2.2836    0.7294 C   0  0  0  0  0  0  0  0  0  0  0  0
    4.6727   -3.2963    1.6510 C   0  0  0  0  0  0  0  0  0  0  0  0
    2.6572   -2.1748    2.3613 C   0  0  0  0  0  0  0  0  0  0  0  0
    3.5431   -3.2448    2.4662 C   0  0  0  0  0  0  0  0  0  0  0  0
    1.9939    0.0351   -1.2728 C   0  0  0  0  0  0  0  0  0  0  0  0
    3.4037   -0.0074   -1.4125 C   0  0  0  0  0  0  0  0  0  0  0  0
    4.2727   -0.1336   -0.2972 N   0  0  0  0  0  0  0  0  0  0  0  0
    5.4743    0.6224   -0.2355 C   0  0  0  0  0  0  0  0  0  0  0  0
    5.7260    1.5050   -1.0887 O   0  0  0  0  0  0  0  0  0  0  0  0
    6.3953    0.3755    0.7820 N   0  0  0  0  0  0  0  0  0  0  0  0
    3.9647    0.0700   -2.7101 C   0  0  0  0  0  0  0  0  0  0  0  0
    3.1573    0.1810   -3.8338 C   0  0  0  0  0  0  0  0  0  0  0  0
    1.2053    0.1320   -2.4351 C   0  0  0  0  0  0  0  0  0  0  0  0
    1.7694    0.2053   -3.7007 C   0  0  0  0  0  0  0  0  0  0  0  0
    5.3686   -4.1456    1.7271 H   0  0  0  0  0  0  0  0  0  0  0  0
    5.8165   -2.3421    0.0847 H   0  0  0  0  0  0  0  0  0  0  0  0
    3.3471   -4.0509    3.1888 H   0  0  0  0  0  0  0  0  0  0  0  0
    1.7603   -2.1382    2.9992 H   0  0  0  0  0  0  0  0  0  0  0  0
    1.1877   -0.0359    2.1472 H   0  0  0  0  0  0  0  0  0  0  0  0
    2.5105    0.9737    1.4314 H   0  0  0  0  0  0  0  0  0  0  0  0
    6.1296   -0.1392    1.5852 H   0  0  0  0  0  0  0  0  0  0  0  0
    7.0925    1.0733    0.8941 H   0  0  0  0  0  0  0  0  0  0  0  0
    3.6194    0.2465   -4.8307 H   0  0  0  0  0  0  0  0  0  0  0  0
    5.0608    0.0710   -2.8331 H   0  0  0  0  0  0  0  0  0  0  0  0
    1.1266    0.2852   -4.5893 H   0  0  0  0  0  0  0  0  0  0  0  0
    0.1068    0.1541   -2.3205 H   0  0  0  0  0  0  0  0  0  0  0  0
  1  2  2  0  0  0  0
  2  3  1  0  0  0  0
  3 25  1  0  0  0  0
  3  4  1  0  0  0  0
  3 24  1  0  0  0  0
  4  8  1  0  0  0  0
  5  4  2  0  0  0  0
  5  6  1  0  0  0  0
  6  7  2  0  0  0  0
  7 20  1  0  0  0  0
  7  9  1  0  0  0  0
  8  9  2  0  0  0  0
  8 23  1  0  0  0  0
  9 22  1  0  0  0  0
 10  2  1  0  0  0  0
 11 10  1  0  0  0  0
 11 12  1  0  0  0  0
 12  5  1  0  0  0  0
 12 13  1  0  0  0  0
 13 15  1  0  0  0  0
 14 13  2  0  0  0  0
 15 27  1  0  0  0  0
 15 26  1  0  0  0  0
 16 11  2  0  0  0  0
 17 16  1  0  0  0  0
 17 19  2  0  0  0  0
 18 10  2  0  0  0  0
 18 31  1  0  0  0  0
 19 18  1  0  0  0  0
 21  6  1  0  0  0  0
 28 17  1  0  0  0  0
 29 16  1  0  0  0  0
 30 19  1  0  0  0  0
M  END