
  Mrv0541 02201500303D          

 53 56  0  0  0  0            999 V2000
    0.0000    0.0000    0.0000 S   0  0  0  0  0  0  0  0  0  0  0  0
    1.6933    0.0000    0.0000 C   0  0  0  0  0  0  0  0  0  0  0  0
    2.4741    0.0000    1.1831 C   0  0  0  0  0  0  0  0  0  0  0  0
    1.8567    0.0237    2.4524 N   0  0  0  0  0  0  0  0  0  0  0  0
    0.5634   -0.5043    2.6364 C   0  0  0  0  0  0  0  0  0  0  0  0
   -0.3622   -0.5419    1.5613 C   0  0  0  0  0  0  0  0  0  0  0  0
   -1.6588   -1.0155    1.7647 C   0  0  0  0  0  0  0  0  0  0  0  0
   -2.0852   -1.4416    3.0180 C   0  0  0  0  0  0  0  0  0  0  0  0
   -1.1783   -1.4113    4.0779 C   0  0  0  0  0  0  0  0  0  0  0  0
    0.1311   -0.9629    3.9011 C   0  0  0  0  0  0  0  0  0  0  0  0
    3.8810    0.0277    1.0468 C   0  0  0  0  0  0  0  0  0  0  0  0
    4.4742    0.0762   -0.2109 C   0  0  0  0  0  0  0  0  0  0  0  0
    3.6959    0.0788   -1.3657 C   0  0  0  0  0  0  0  0  0  0  0  0
    2.3104    0.0293   -1.2518 C   0  0  0  0  0  0  0  0  0  0  0  0
    2.6694    0.3156    3.6148 C   0  0  1  0  0  0  0  0  0  0  0  0
    3.4591   -0.8569    4.2005 C   0  0  1  0  0  0  0  0  0  0  0  0
    4.5026   -0.3695    5.2026 C   0  0  2  0  0  0  0  0  0  0  0  0
    3.9616    0.3879    6.3235 N   0  0  1  0  0  0  0  0  0  0  0  0
    3.1188   -0.4157    7.1972 C   0  0  1  0  0  0  0  0  0  0  0  0
    2.5968    0.3611    8.4210 C   0  0  1  0  0  0  0  0  0  0  0  0
    3.6550    1.0421    9.1541 N   0  0  1  0  0  0  0  0  0  0  0  0
    4.4825    1.8574    8.2767 C   0  0  2  0  0  0  0  0  0  0  0  0
    5.0136    1.0772    7.0598 C   0  0  1  0  0  0  0  0  0  0  0  0
    3.1455    1.7850   10.2983 C   0  0  1  0  0  0  0  0  0  0  0  0
    4.1883    1.9721   11.4084 C   0  0  2  0  0  0  0  0  0  0  0  0
    4.4869    0.7628   12.0719 O   0  0  0  0  0  0  0  0  0  0  0  0
   -1.6687   -1.9369    5.6208 Cl  0  0  0  0  0  0  0  0  0  0  0  0
   -3.1147   -1.7984    3.1651 H   0  0  0  0  0  0  0  0  0  0  0  0
   -2.3577   -1.0465    0.9124 H   0  0  0  0  0  0  0  0  0  0  0  0
    0.8104   -0.9679    4.7675 H   0  0  0  0  0  0  0  0  0  0  0  0
    4.5361    0.0191    1.9310 H   0  0  0  0  0  0  0  0  0  0  0  0
    5.5717    0.1088   -0.2870 H   0  0  0  0  0  0  0  0  0  0  0  0
    4.1686    0.1151   -2.3572 H   0  0  0  0  0  0  0  0  0  0  0  0
    1.6830    0.0168   -2.1579 H   0  0  0  0  0  0  0  0  0  0  0  0
    3.3899    1.1366    3.3298 H   0  0  0  0  0  0  0  0  0  0  0  0
    1.9936    0.7405    4.4127 H   0  0  0  0  0  0  0  0  0  0  0  0
    2.7666   -1.5933    4.6834 H   0  0  0  0  0  0  0  0  0  0  0  0
    4.0049   -1.4099    3.3906 H   0  0  0  0  0  0  0  0  0  0  0  0
    5.2243    0.3046    4.6568 H   0  0  0  0  0  0  0  0  0  0  0  0
    5.0853   -1.2721    5.5565 H   0  0  0  0  0  0  0  0  0  0  0  0
    2.2219   -0.7455    6.6008 H   0  0  0  0  0  0  0  0  0  0  0  0
    3.6555   -1.3414    7.5581 H   0  0  0  0  0  0  0  0  0  0  0  0
    1.7982    1.0816    8.0779 H   0  0  0  0  0  0  0  0  0  0  0  0
    2.1172   -0.3834    9.1165 H   0  0  0  0  0  0  0  0  0  0  0  0
    2.7665    2.8061   10.0014 H   0  0  0  0  0  0  0  0  0  0  0  0
    2.2809    1.2124   10.7405 H   0  0  0  0  0  0  0  0  0  0  0  0
    3.7548    2.6338   12.2067 H   0  0  0  0  0  0  0  0  0  0  0  0
    4.7979    0.1362   11.4070 H   0  0  0  0  0  0  0  0  0  0  0  0
    5.1295    2.4375   11.0118 H   0  0  0  0  0  0  0  0  0  0  0  0
    5.3713    2.2130    8.8689 H   0  0  0  0  0  0  0  0  0  0  0  0
    3.9265    2.7685    7.9068 H   0  0  0  0  0  0  0  0  0  0  0  0
    5.8146    0.3621    7.4092 H   0  0  0  0  0  0  0  0  0  0  0  0
    5.4931    1.8198    6.3622 H   0  0  0  0  0  0  0  0  0  0  0  0
  1  2  1  0  0  0  0
  1  6  1  0  0  0  0
  2  3  1  0  0  0  0
  3  4  1  0  0  0  0
  4  5  1  0  0  0  0
  4 15  1  0  0  0  0
  5 10  1  0  0  0  0
  6  5  2  0  0  0  0
  6  7  1  0  0  0  0
  7  8  2  0  0  0  0
  8 28  1  0  0  0  0
  8  9  1  0  0  0  0
  9 27  1  0  0  0  0
 10  9  2  0  0  0  0
 10 30  1  0  0  0  0
 11  3  2  0  0  0  0
 11 31  1  0  0  0  0
 12 11  1  0  0  0  0
 13 12  2  0  0  0  0
 13 14  1  0  0  0  0
 14  2  2  0  0  0  0
 15 16  1  0  0  0  0
 15 36  1  0  0  0  0
 16 37  1  0  0  0  0
 16 17  1  0  0  0  0
 17 40  1  0  0  0  0
 17 18  1  0  0  0  0
 18 23  1  0  0  0  0
 18 19  1  0  0  0  0
 19 42  1  0  0  0  0
 19 20  1  0  0  0  0
 20 44  1  0  0  0  0
 20 21  1  0  0  0  0
 21 24  1  0  0  0  0
 22 21  1  0  0  0  0
 22 50  1  0  0  0  0
 23 22  1  0  0  0  0
 23 52  1  0  0  0  0
 24 46  1  0  0  0  0
 24 25  1  0  0  0  0
 25 26  1  0  0  0  0
 25 47  1  0  0  0  0
 29  7  1  0  0  0  0
 32 12  1  0  0  0  0
 33 13  1  0  0  0  0
 34 14  1  0  0  0  0
 35 15  1  0  0  0  0
 38 16  1  0  0  0  0
 39 17  1  0  0  0  0
 41 19  1  0  0  0  0
 43 20  1  0  0  0  0
 45 24  1  0  0  0  0
 48 26  1  0  0  0  0
 49 25  1  0  0  0  0
 51 22  1  0  0  0  0
 53 23  1  0  0  0  0
M  END