
  Mrv0541 02201500303D          

 42 44  0  0  0  0            999 V2000
    0.0000    0.0000    0.0000 C   0  0  0  0  0  0  0  0  0  0  0  0
    1.4330    0.0000    0.0000 C   0  0  0  0  0  0  0  0  0  0  0  0
    1.8783    0.0000    1.4009 C   0  0  0  0  0  0  0  0  0  0  0  0
    0.7802   -0.0089    2.2254 C   0  0  0  0  0  0  0  0  0  0  0  0
   -0.4594   -0.0073    1.4047 C   0  0  0  0  0  0  0  0  0  0  0  0
   -0.7019    0.0033   -1.1904 C   0  0  0  0  0  0  0  0  0  0  0  0
    0.0060    0.0057   -2.3983 C   0  0  0  0  0  0  0  0  0  0  0  0
    1.4098    0.0028   -2.3948 C   0  0  0  0  0  0  0  0  0  0  0  0
    2.1432   -0.0007   -1.1834 C   0  0  0  0  0  0  0  0  0  0  0  0
    3.2968    0.0519    1.7968 C   0  0  2  0  0  0  0  0  0  0  0  0
    3.8017   -1.2811    2.2665 C   0  0  0  0  0  0  0  0  0  0  0  0
    4.6110   -1.9133    1.3714 O   0  0  0  0  0  0  0  0  0  0  0  0
    0.8016   -0.0130    3.6916 C   0  0  0  0  0  0  0  0  0  0  0  0
   -1.7478   -0.0063    1.7707 C   0  0  0  0  0  0  0  0  0  0  0  0
   -2.2951   -0.0193    3.1220 C   0  0  0  0  0  0  0  0  0  0  0  0
   -2.7345    1.1723    3.7121 C   0  0  0  0  0  0  0  0  0  0  0  0
   -3.3145    1.1504    4.9787 C   0  0  0  0  0  0  0  0  0  0  0  0
   -3.4774   -0.0525    5.6705 C   0  0  0  0  0  0  0  0  0  0  0  0
   -3.0385   -1.2393    5.0751 C   0  0  0  0  0  0  0  0  0  0  0  0
   -2.4530   -1.2298    3.8129 C   0  0  0  0  0  0  0  0  0  0  0  0
   -4.2952   -0.1094    7.1760 S   0  0  1  0  0  0  0  0  0  0  0  0
   -3.0025   -0.5873    8.2385 C   0  0  0  0  0  0  0  0  0  0  0  0
   -4.6032    1.3031    7.5384 O   0  0  0  0  0  0  0  0  0  0  0  0
    2.0828    0.0033   -3.5709 F   0  0  0  0  0  0  0  0  0  0  0  0
    3.2417   -0.0107   -1.2076 H   0  0  0  0  0  0  0  0  0  0  0  0
   -0.5334    0.0089   -3.3564 H   0  0  0  0  0  0  0  0  0  0  0  0
   -1.8018    0.0038   -1.2037 H   0  0  0  0  0  0  0  0  0  0  0  0
    3.4319    0.7767    2.6477 H   0  0  0  0  0  0  0  0  0  0  0  0
    3.9266    0.3982    0.9319 H   0  0  0  0  0  0  0  0  0  0  0  0
    1.7749   -0.4200    4.0709 H   0  0  0  0  0  0  0  0  0  0  0  0
    0.6730    1.0294    4.0816 H   0  0  0  0  0  0  0  0  0  0  0  0
   -0.0286   -0.6430    4.1001 H   0  0  0  0  0  0  0  0  0  0  0  0
   -2.5268    0.0091    0.9822 H   0  0  0  0  0  0  0  0  0  0  0  0
   -2.6178    2.1264    3.1765 H   0  0  0  0  0  0  0  0  0  0  0  0
   -3.6559    2.0903    5.4504 H   0  0  0  0  0  0  0  0  0  0  0  0
   -3.1552   -2.1967    5.6082 H   0  0  0  0  0  0  0  0  0  0  0  0
   -2.1110   -2.1698    3.3546 H   0  0  0  0  0  0  0  0  0  0  0  0
   -2.2858    0.2338    8.4699 H   0  0  0  0  0  0  0  0  0  0  0  0
   -2.4232   -1.4385    7.8155 H   0  0  0  0  0  0  0  0  0  0  0  0
   -3.4502   -0.9150    9.2067 H   0  0  0  0  0  0  0  0  0  0  0  0
    3.6116   -1.8520    3.3439 O   0  0  0  0  0  0  0  0  0  0  0  0
    4.8988   -2.7669    1.7350 H   0  0  0  0  0  0  0  0  0  0  0  0
  1  2  1  0  0  0  0
  2  3  1  0  0  0  0
  3 10  1  0  0  0  0
  3  4  2  0  0  0  0
  4 13  1  0  0  0  0
  5  4  1  0  0  0  0
  7  6  1  0  0  0  0
  7  8  2  0  0  0  0
  8  9  1  0  0  0  0
  9  2  2  0  0  0  0
 10 11  1  0  0  0  0
 10 28  1  0  0  0  0
 11 41  2  0  0  0  0
 12 11  1  0  0  0  0
 12 42  1  0  0  0  0
 13 30  1  0  0  0  0
 13 31  1  0  0  0  0
 13 32  1  0  0  0  0
 15 14  1  6  0  0  0
 15 16  1  0  0  0  0
 15 20  1  0  0  0  0
 16 17  2  0  0  0  0
 17 35  1  0  0  0  0
 18 17  1  6  0  0  0
 18 21  1  0  0  0  0
 19 18  1  0  0  0  0
 19 36  1  0  0  0  0
 20 19  2  0  0  0  0
 21 22  1  0  0  0  0
 22 38  1  0  0  0  0
 22 40  1  0  0  0  0
 24  8  1  0  0  0  0
 25  9  1  0  0  0  0
 26  7  1  0  0  0  0
 27  6  1  0  0  0  0
 29 10  1  0  0  0  0
 33 14  1  0  0  0  0
 34 16  1  0  0  0  0
 37 20  1  0  0  0  0
 39 22  1  0  0  0  0
 21 23  2  0  0  0  0
  6  1  2  0  0  0  0
  1  5  1  0  0  0  0
  5 14  2  0  0  0  0
M  END