
  Mrv0541 02201500303D          

 29 29  0  0  0  0            999 V2000
    0.0000    0.0000    0.0000 C   0  0  0  0  0  0  0  0  0  0  0  0
    1.4242    0.0000    0.0000 C   0  0  0  0  0  0  0  0  0  0  0  0
    2.3050    0.0000    1.1573 N   0  3  0  0  0  0  0  0  0  0  0  0
    1.8063    0.0540    2.2481 O   0  0  0  0  0  0  0  0  0  0  0  0
    3.5012   -0.0596    1.0032 O   0  5  0  0  0  0  0  0  0  0  0  0
    1.8273    0.0085   -1.3557 N   0  0  0  0  0  0  0  0  0  0  0  0
    3.1757   -0.0134   -1.8487 C   0  0  2  0  0  0  0  0  0  0  0  0
    3.8668   -1.3665   -1.7689 C   0  0  1  0  0  0  0  0  0  0  0  0
    5.5016   -1.3300   -2.3067 S   0  0  2  0  0  0  0  0  0  0  0  0
    6.2213   -0.4616   -1.0353 C   0  0  2  0  0  0  0  0  0  0  0  0
    7.6502   -0.8777   -0.7943 C   0  0  0  0  0  0  0  0  0  0  0  0
    5.5526   -0.5703   -3.4848 O   0  0  0  0  0  0  0  0  0  0  0  0
    5.9617   -2.6493   -2.3607 O   0  0  0  0  0  0  0  0  0  0  0  0
   -0.4607   -0.0064   -1.2949 N   0  0  0  0  0  0  0  0  0  0  0  0
    0.6453   -0.0097   -2.1069 C   0  0  0  0  0  0  0  0  0  0  0  0
    0.6242   -0.0077   -3.5928 C   0  0  0  0  0  0  0  0  0  0  0  0
   -0.6602    0.0055    0.8717 H   0  0  0  0  0  0  0  0  0  0  0  0
    3.7737    0.7323   -1.2424 H   0  0  0  0  0  0  0  0  0  0  0  0
    3.1557    0.3263   -2.9275 H   0  0  0  0  0  0  0  0  0  0  0  0
    3.8035   -1.7513   -0.7134 H   0  0  0  0  0  0  0  0  0  0  0  0
    3.2963   -2.1138   -2.3857 H   0  0  0  0  0  0  0  0  0  0  0  0
    7.7123   -1.9786   -0.6048 H   0  0  0  0  0  0  0  0  0  0  0  0
    8.2881   -0.6301   -1.6781 H   0  0  0  0  0  0  0  0  0  0  0  0
    8.0644   -0.3434    0.0945 H   0  0  0  0  0  0  0  0  0  0  0  0
    5.6606   -0.5605   -0.0630 H   0  0  0  0  0  0  0  0  0  0  0  0
    6.2100    0.6419   -1.2549 H   0  0  0  0  0  0  0  0  0  0  0  0
   -0.4286   -0.0968   -3.9614 H   0  0  0  0  0  0  0  0  0  0  0  0
    1.0612    0.9471   -3.9804 H   0  0  0  0  0  0  0  0  0  0  0  0
    1.2197   -0.8676   -3.9898 H   0  0  0  0  0  0  0  0  0  0  0  0
  1 17  1  0  0  0  0
  2  1  2  0  0  0  0
  2  3  1  0  0  0  0
  3  4  2  0  0  0  0
  5  3  1  0  0  0  0
  6  2  1  0  0  0  0
  7  6  1  0  0  0  0
  7  8  1  0  0  0  0
  7 18  1  0  0  0  0
  8 20  1  0  0  0  0
  9  8  1  0  0  0  0
  9 10  1  0  0  0  0
 10 11  1  0  0  0  0
 10 25  1  0  0  0  0
 11 22  1  0  0  0  0
 11 24  1  0  0  0  0
 12  9  2  0  0  0  0
 13  9  2  0  0  0  0
 14  1  1  0  0  0  0
 15  6  1  0  0  0  0
 15 14  2  0  0  0  0
 16 15  1  0  0  0  0
 19  7  1  0  0  0  0
 21  8  1  0  0  0  0
 23 11  1  0  0  0  0
 26 10  1  0  0  0  0
 27 16  1  0  0  0  0
 28 16  1  0  0  0  0
 29 16  1  0  0  0  0
M  CHG  2   3   1   5  -1
M  END