1a_fix.pdb
 OpenBabel09161415133D

 35 36  0  0  0  0  0  0  0  0999 V2000
   -1.9890    7.7790   12.5390 N   0  0  0  0  0  0  0  0  0  0  0  0
   -2.0060    9.0790   12.2850 C   0  0  0  0  0  0  0  0  0  0  0  0
   -1.4590    9.9610   13.2080 C   0  0  0  0  0  0  0  0  0  0  0  0
   -0.9080    9.4310   14.3640 C   0  0  0  0  0  0  0  0  0  0  0  0
   -0.9190    8.1210   14.5580 N   0  0  0  0  0  0  0  0  0  0  0  0
   -1.4520    7.3040   13.6570 C   0  0  0  0  0  0  0  0  0  0  0  0
   -2.5130    9.4880   11.2380 O   0  0  0  0  0  0  0  0  0  0  0  0
   -0.2950   10.3210   15.4000 C   0  0  0  0  0  0  0  0  0  0  0  0
   -1.4550    5.5430   13.9410 S   0  0  0  0  0  0  0  0  0  0  0  0
   -2.7780    5.1190   12.8240 C   0  0  0  0  0  0  0  0  0  0  0  0
   -4.1380    5.3830   13.3650 C   0  0  0  0  0  0  0  0  0  0  0  0
   -4.8120    6.3920   13.1130 O   0  0  0  0  0  0  0  0  0  0  0  0
   -4.6130    4.3130   14.2310 C   0  0  0  0  0  0  0  0  0  0  0  0
   -5.9040    4.2950   14.7230 C   0  0  0  0  0  0  0  0  0  0  0  0
   -6.3010    3.2410   15.5320 C   0  0  0  0  0  0  0  0  0  0  0  0
   -5.4070    2.2240   15.8380 C   0  0  0  0  0  0  0  0  0  0  0  0
   -4.1150    2.2360   15.3410 C   0  0  0  0  0  0  0  0  0  0  0  0
   -3.7180    3.2900   14.5340 C   0  0  0  0  0  0  0  0  0  0  0  0
   -5.9240    0.8880   16.8540 S   0  0  0  0  0  0  0  0  0  0  0  0
   -7.4380    0.8780   16.8250 O   0  0  0  0  0  0  0  0  0  0  0  0
   -5.3880    1.0580   18.2580 O   0  0  0  0  0  0  0  0  0  0  0  0
   -5.3310   -0.5770   16.1390 N   0  0  0  0  0  0  0  0  0  0  0  0
   -0.3710   11.3410   15.0850 H   0  0  0  0  0  0  0  0  0  0  0  0
    0.7300   10.0570   15.5550 H   0  0  0  0  0  0  0  0  0  0  0  0
   -0.8200   10.1980   16.3240 H   0  0  0  0  0  0  0  0  0  0  0  0
   -2.6510    5.6500   11.9040 H   0  0  0  0  0  0  0  0  0  0  0  0
   -2.7150    4.0620   12.6730 H   0  0  0  0  0  0  0  0  0  0  0  0
   -6.5630    5.0550   14.4920 H   0  0  0  0  0  0  0  0  0  0  0  0
   -7.2620    3.2130   15.9070 H   0  0  0  0  0  0  0  0  0  0  0  0
   -3.4590    1.4730   15.5680 H   0  0  0  0  0  0  0  0  0  0  0  0
   -2.7580    3.3170   14.1570 H   0  0  0  0  0  0  0  0  0  0  0  0
   -5.7050   -0.6700   15.1950 H   0  0  0  0  0  0  0  0  0  0  0  0
   -5.6000   -1.3810   16.7060 H   0  0  0  0  0  0  0  0  0  0  0  0
   -2.8400    8.7350   10.7210 H   0  0  0  0  0  0  0  0  0  0  0  0
   -1.4630   10.9790   13.0380 H   0  0  0  0  0  0  0  0  0  0  0  0
  1  6  1  0  0  0  0
  2  1  2  0  0  0  0
  2  3  1  0  0  0  0
  3  4  2  0  0  0  0
  4  5  1  0  0  0  0
  4  8  1  0  0  0  0
  6  9  1  0  0  0  0
  6  5  2  0  0  0  0
  7  2  1  0  0  0  0
  8 24  1  0  0  0  0
  8 25  1  0  0  0  0
 10 11  1  0  0  0  0
 10  9  1  0  0  0  0
 11 13  1  0  0  0  0
 12 11  2  0  0  0  0
 13 18  2  0  0  0  0
 13 14  1  0  0  0  0
 14 15  2  0  0  0  0
 15 16  1  0  0  0  0
 15 29  1  0  0  0  0
 16 19  1  0  0  0  0
 17 30  1  0  0  0  0
 17 16  2  0  0  0  0
 18 17  1  0  0  0  0
 19 21  2  0  0  0  0
 20 19  2  0  0  0  0
 22 33  1  0  0  0  0
 22 19  1  0  0  0  0
 23  8  1  0  0  0  0
 26 10  1  0  0  0  0
 27 10  1  0  0  0  0
 28 14  1  0  0  0  0
 31 18  1  0  0  0  0
 32 22  1  0  0  0  0
 34  7  1  0  0  0  0
 35  3  1  0  0  0  0
M  END