1b_fix.pdb
 OpenBabel09161415133D

 48 50  0  0  0  0  0  0  0  0999 V2000
   -1.3340    7.5600   12.4310 N   0  0  0  0  0  0  0  0  0  0  0  0
   -1.3340    8.8910   12.3620 C   0  0  0  0  0  0  0  0  0  0  0  0
   -1.1500    9.7620   13.4160 C   0  0  0  0  0  0  0  0  0  0  0  0
   -0.7460    9.1270   14.5840 C   0  0  0  0  0  0  0  0  0  0  0  0
   -0.7480    7.7780   14.7140 N   0  0  0  0  0  0  0  0  0  0  0  0
   -1.0990    7.0570   13.6410 C   0  0  0  0  0  0  0  0  0  0  0  0
   -1.5300    9.3190   11.0920 O   0  0  0  0  0  0  0  0  0  0  0  0
   -0.2380    9.8640   15.7910 C   0  0  0  0  0  0  0  0  0  0  0  0
   -1.1630    5.2990   13.8150 S   0  0  0  0  0  0  0  0  0  0  0  0
   -2.5740    4.9380   12.7240 C   0  0  0  0  0  0  0  0  0  0  0  0
   -3.8930    5.1690   13.4370 C   0  0  0  0  0  0  0  0  0  0  0  0
   -4.5470    6.1980   13.2630 O   0  0  0  0  0  0  0  0  0  0  0  0
   -4.4410    4.0970   14.3290 C   0  0  0  0  0  0  0  0  0  0  0  0
   -5.7690    4.1980   14.7760 C   0  0  0  0  0  0  0  0  0  0  0  0
   -6.3240    3.2000   15.5840 C   0  0  0  0  0  0  0  0  0  0  0  0
   -5.5400    2.1060   15.9580 C   0  0  0  0  0  0  0  0  0  0  0  0
   -4.2140    2.0040   15.5380 C   0  0  0  0  0  0  0  0  0  0  0  0
   -3.6700    2.9940   14.7200 C   0  0  0  0  0  0  0  0  0  0  0  0
   -6.2380    0.7970   16.9190 S   0  0  0  0  0  0  0  0  0  0  0  0
   -7.6710    0.7870   16.7370 O   0  0  0  0  0  0  0  0  0  0  0  0
   -5.6060    0.7920   18.2150 O   0  0  0  0  0  0  0  0  0  0  0  0
   -5.6840   -0.5750   16.1160 N   0  0  0  0  0  0  0  0  0  0  0  0
   -0.0440   10.9220   15.6000 H   0  0  0  0  0  0  0  0  0  0  0  0
    0.7160    9.4250   16.1060 H   0  0  0  0  0  0  0  0  0  0  0  0
   -0.9510    9.7780   16.6160 H   0  0  0  0  0  0  0  0  0  0  0  0
   -2.5590    5.5310   11.8050 H   0  0  0  0  0  0  0  0  0  0  0  0
   -2.5180    3.8980   12.3870 H   0  0  0  0  0  0  0  0  0  0  0  0
   -6.3830    5.0500   14.4860 H   0  0  0  0  0  0  0  0  0  0  0  0
   -7.3590    3.2810   15.9100 H   0  0  0  0  0  0  0  0  0  0  0  0
   -3.6000    1.1570   15.8350 H   0  0  0  0  0  0  0  0  0  0  0  0
   -2.6370    2.8700   14.4110 H   0  0  0  0  0  0  0  0  0  0  0  0
   -6.4720   -1.0760   15.7050 H   0  0  0  0  0  0  0  0  0  0  0  0
   -5.1220   -1.1410   16.7540 H   0  0  0  0  0  0  0  0  0  0  0  0
   -1.7530    8.4830   10.6470 H   0  0  0  0  0  0  0  0  0  0  0  0
   -1.3150   11.2590   13.3130 C   0  0  0  0  0  0  0  0  0  0  0  0
   -2.3090   11.7830   12.2910 C   0  0  0  0  0  0  0  0  0  0  0  0
   -0.3230   11.6860   13.1190 H   0  0  0  0  0  0  0  0  0  0  0  0
   -1.6580   11.6570   14.2760 H   0  0  0  0  0  0  0  0  0  0  0  0
   -1.9440   12.8400   11.4430 C   0  0  0  0  0  0  0  0  0  0  0  0
   -3.5880   11.2180   12.1500 C   0  0  0  0  0  0  0  0  0  0  0  0
   -2.8020   13.2600   10.4250 C   0  0  0  0  0  0  0  0  0  0  0  0
   -4.4310   11.6190   11.1130 C   0  0  0  0  0  0  0  0  0  0  0  0
   -4.0330   12.6330   10.2450 C   0  0  0  0  0  0  0  0  0  0  0  0
   -3.9100   10.4070   12.8020 H   0  0  0  0  0  0  0  0  0  0  0  0
   -0.9760   13.3220   11.5490 H   0  0  0  0  0  0  0  0  0  0  0  0
   -2.4970   14.0600    9.7570 H   0  0  0  0  0  0  0  0  0  0  0  0
   -5.3860   11.1200   10.9690 H   0  0  0  0  0  0  0  0  0  0  0  0
   -4.6800   12.9300    9.4240 H   0  0  0  0  0  0  0  0  0  0  0  0
  1  6  1  0  0  0  0
  2  1  2  0  0  0  0
  2  3  1  0  0  0  0
  3  4  2  0  0  0  0
  4  5  1  0  0  0  0
  4  8  1  0  0  0  0
  6  9  1  0  0  0  0
  6  5  2  0  0  0  0
  7  2  1  0  0  0  0
  8 24  1  0  0  0  0
  8 25  1  0  0  0  0
 10 11  1  0  0  0  0
 10  9  1  0  0  0  0
 11 13  1  0  0  0  0
 12 11  2  0  0  0  0
 13 18  2  0  0  0  0
 13 14  1  0  0  0  0
 14 15  2  0  0  0  0
 15 29  1  0  0  0  0
 15 16  1  0  0  0  0
 16 19  1  0  0  0  0
 17 30  1  0  0  0  0
 17 16  2  0  0  0  0
 18 17  1  0  0  0  0
 19 21  2  0  0  0  0
 20 19  2  0  0  0  0
 22 33  1  0  0  0  0
 22 19  1  0  0  0  0
 23  8  1  0  0  0  0
 26 10  1  0  0  0  0
 27 10  1  0  0  0  0
 28 14  1  0  0  0  0
 31 18  1  0  0  0  0
 32 22  1  0  0  0  0
 34  7  1  0  0  0  0
 35  3  1  0  0  0  0
 35 38  1  0  0  0  0
 36 35  1  0  0  0  0
 37 35  1  0  0  0  0
 39 45  1  0  0  0  0
 39 36  2  0  0  0  0
 40 36  1  0  0  0  0
 40 44  1  0  0  0  0
 41 39  1  0  0  0  0
 42 40  2  0  0  0  0
 43 41  2  0  0  0  0
 43 42  1  0  0  0  0
 46 41  1  0  0  0  0
 47 42  1  0  0  0  0
 48 43  1  0  0  0  0
M  END