1c_fix.pdb
 OpenBabel09161415133D

 41 42  0  0  0  0  0  0  0  0999 V2000
   -2.0820    7.7870   12.2560 N   0  0  0  0  0  0  0  0  0  0  0  0
   -2.2470    9.1080   12.2560 C   0  0  0  0  0  0  0  0  0  0  0  0
   -1.8020    9.9720   13.2210 C   0  0  0  0  0  0  0  0  0  0  0  0
   -1.1060    9.3940   14.2580 C   0  0  0  0  0  0  0  0  0  0  0  0
   -0.9400    8.0520   14.3280 N   0  0  0  0  0  0  0  0  0  0  0  0
   -1.4550    7.3050   13.3340 C   0  0  0  0  0  0  0  0  0  0  0  0
   -2.9210    9.5850   11.1780 O   0  0  0  0  0  0  0  0  0  0  0  0
   -0.5250   10.1810   15.4070 C   0  0  0  0  0  0  0  0  0  0  0  0
   -1.2160    5.5500   13.4600 S   0  0  0  0  0  0  0  0  0  0  0  0
   -2.6760    4.9610   12.5600 C   0  0  0  0  0  0  0  0  0  0  0  0
   -3.9460    5.1860   13.3570 C   0  0  0  0  0  0  0  0  0  0  0  0
   -4.6160    6.2120   13.2290 O   0  0  0  0  0  0  0  0  0  0  0  0
   -4.4410    4.1150   14.2770 C   0  0  0  0  0  0  0  0  0  0  0  0
   -5.7770    4.1780   14.7090 C   0  0  0  0  0  0  0  0  0  0  0  0
   -6.3090    3.1800   15.5300 C   0  0  0  0  0  0  0  0  0  0  0  0
   -5.4950    2.1190   15.9320 C   0  0  0  0  0  0  0  0  0  0  0  0
   -4.1580    2.0570   15.5330 C   0  0  0  0  0  0  0  0  0  0  0  0
   -3.6320    3.0540   14.7060 C   0  0  0  0  0  0  0  0  0  0  0  0
   -6.1670    0.8230   16.9290 S   0  0  0  0  0  0  0  0  0  0  0  0
   -7.6070    0.8350   16.8180 O   0  0  0  0  0  0  0  0  0  0  0  0
   -5.4750    0.8110   18.1950 O   0  0  0  0  0  0  0  0  0  0  0  0
   -5.6770   -0.5620   16.1100 N   0  0  0  0  0  0  0  0  0  0  0  0
   -0.3000   11.6850   15.2080 C   0  0  0  0  0  0  0  0  0  0  0  0
    0.4300    9.7210   15.6920 H   0  0  0  0  0  0  0  0  0  0  0  0
   -1.2020   10.0490   16.2610 H   0  0  0  0  0  0  0  0  0  0  0  0
   -2.7750    5.4450   11.5830 H   0  0  0  0  0  0  0  0  0  0  0  0
   -2.5570    3.8960   12.3370 H   0  0  0  0  0  0  0  0  0  0  0  0
   -6.4160    5.0030   14.3970 H   0  0  0  0  0  0  0  0  0  0  0  0
   -7.3490    3.2370   15.8440 H   0  0  0  0  0  0  0  0  0  0  0  0
   -3.5220    1.2360   15.8600 H   0  0  0  0  0  0  0  0  0  0  0  0
   -2.5860    2.9790   14.4230 H   0  0  0  0  0  0  0  0  0  0  0  0
   -6.4980   -1.0600   15.7620 H   0  0  0  0  0  0  0  0  0  0  0  0
   -5.0870   -1.1280   16.7210 H   0  0  0  0  0  0  0  0  0  0  0  0
   -3.1520    8.7510   10.7310 H   0  0  0  0  0  0  0  0  0  0  0  0
   -1.9900   11.0320   13.1360 H   0  0  0  0  0  0  0  0  0  0  0  0
    0.7710   12.0100   14.1760 C   0  0  0  0  0  0  0  0  0  0  0  0
    0.0120   12.1160   16.1680 H   0  0  0  0  0  0  0  0  0  0  0  0
   -1.2380   12.1850   14.9400 H   0  0  0  0  0  0  0  0  0  0  0  0
    1.7410   11.6040   14.4800 H   0  0  0  0  0  0  0  0  0  0  0  0
    0.8760   13.0950   14.0750 H   0  0  0  0  0  0  0  0  0  0  0  0
    0.5270   11.6080   13.1890 H   0  0  0  0  0  0  0  0  0  0  0  0
  1  6  1  0  0  0  0
  2  1  2  0  0  0  0
  2  3  1  0  0  0  0
  3  4  2  0  0  0  0
  4  5  1  0  0  0  0
  4  8  1  0  0  0  0
  6  9  1  0  0  0  0
  6  5  2  0  0  0  0
  7  2  1  0  0  0  0
  8 24  1  0  0  0  0
  8 25  1  0  0  0  0
 10 11  1  0  0  0  0
 10  9  1  0  0  0  0
 11 13  1  0  0  0  0
 12 11  2  0  0  0  0
 13 18  2  0  0  0  0
 13 14  1  0  0  0  0
 14 15  2  0  0  0  0
 15 29  1  0  0  0  0
 15 16  1  0  0  0  0
 16 19  1  0  0  0  0
 17 30  1  0  0  0  0
 17 16  2  0  0  0  0
 18 17  1  0  0  0  0
 19 21  2  0  0  0  0
 20 19  2  0  0  0  0
 22 33  1  0  0  0  0
 22 19  1  0  0  0  0
 23  8  1  0  0  0  0
 23 37  1  0  0  0  0
 26 10  1  0  0  0  0
 27 10  1  0  0  0  0
 28 14  1  0  0  0  0
 31 18  1  0  0  0  0
 32 22  1  0  0  0  0
 34  7  1  0  0  0  0
 35  3  1  0  0  0  0
 36 39  1  0  0  0  0
 36 23  1  0  0  0  0
 38 23  1  0  0  0  0
 40 36  1  0  0  0  0
 41 36  1  0  0  0  0
M  END