1d_fix.pdb
 OpenBabel09161415133D

 44 45  0  0  0  0  0  0  0  0999 V2000
   -1.9930    7.8650   12.2570 N   0  0  0  0  0  0  0  0  0  0  0  0
   -2.0330    9.1930   12.1680 C   0  0  0  0  0  0  0  0  0  0  0  0
   -1.5380   10.0780   13.0900 C   0  0  0  0  0  0  0  0  0  0  0  0
   -0.9590    9.5150   14.2080 C   0  0  0  0  0  0  0  0  0  0  0  0
   -0.9140    8.1680   14.3550 N   0  0  0  0  0  0  0  0  0  0  0  0
   -1.4420    7.4020   13.3830 C   0  0  0  0  0  0  0  0  0  0  0  0
   -2.6250    9.6560   11.0370 O   0  0  0  0  0  0  0  0  0  0  0  0
   -0.3380   10.3430   15.3370 C   0  0  0  0  0  0  0  0  0  0  0  0
   -1.2640    5.6470   13.5860 S   0  0  0  0  0  0  0  0  0  0  0  0
   -2.6780    5.0570   12.6160 C   0  0  0  0  0  0  0  0  0  0  0  0
   -3.9760    5.2450   13.3750 C   0  0  0  0  0  0  0  0  0  0  0  0
   -4.6640    6.2560   13.2320 O   0  0  0  0  0  0  0  0  0  0  0  0
   -4.4650    4.1580   14.2820 C   0  0  0  0  0  0  0  0  0  0  0  0
   -5.8010    4.2050   14.7140 C   0  0  0  0  0  0  0  0  0  0  0  0
   -6.3240    3.1950   15.5270 C   0  0  0  0  0  0  0  0  0  0  0  0
   -5.5030    2.1380   15.9210 C   0  0  0  0  0  0  0  0  0  0  0  0
   -4.1650    2.0890   15.5200 C   0  0  0  0  0  0  0  0  0  0  0  0
   -3.6490    3.0970   14.7000 C   0  0  0  0  0  0  0  0  0  0  0  0
   -6.1610    0.8310   16.9120 S   0  0  0  0  0  0  0  0  0  0  0  0
   -7.6010    0.8270   16.7990 O   0  0  0  0  0  0  0  0  0  0  0  0
   -5.4710    0.8220   18.1790 O   0  0  0  0  0  0  0  0  0  0  0  0
   -5.6550   -0.5460   16.0890 N   0  0  0  0  0  0  0  0  0  0  0  0
   -0.3430   11.8640   15.0780 C   0  0  0  0  0  0  0  0  0  0  0  0
    1.1280    9.9050   15.5320 C   0  0  0  0  0  0  0  0  0  0  0  0
   -1.1210   10.0780   16.6370 C   0  0  0  0  0  0  0  0  0  0  0  0
   -2.7530    5.5580   11.6450 H   0  0  0  0  0  0  0  0  0  0  0  0
   -2.5350    3.9990   12.3760 H   0  0  0  0  0  0  0  0  0  0  0  0
   -6.4470    5.0280   14.4090 H   0  0  0  0  0  0  0  0  0  0  0  0
   -7.3650    3.2430   15.8430 H   0  0  0  0  0  0  0  0  0  0  0  0
   -3.5230    1.2710   15.8390 H   0  0  0  0  0  0  0  0  0  0  0  0
   -2.6030    3.0300   14.4160 H   0  0  0  0  0  0  0  0  0  0  0  0
   -6.4700   -1.0520   15.7390 H   0  0  0  0  0  0  0  0  0  0  0  0
   -5.0590   -1.1070   16.6990 H   0  0  0  0  0  0  0  0  0  0  0  0
   -2.9220    8.8200   10.6360 H   0  0  0  0  0  0  0  0  0  0  0  0
   -1.6140   11.1400   12.9150 H   0  0  0  0  0  0  0  0  0  0  0  0
   -2.1770   10.3540   16.5270 H   0  0  0  0  0  0  0  0  0  0  0  0
   -0.7100   10.6580   17.4720 H   0  0  0  0  0  0  0  0  0  0  0  0
   -1.0870    9.0210   16.9270 H   0  0  0  0  0  0  0  0  0  0  0  0
    1.7080   10.0420   14.6110 H   0  0  0  0  0  0  0  0  0  0  0  0
    1.2060    8.8490   15.8150 H   0  0  0  0  0  0  0  0  0  0  0  0
    1.6140   10.4890   16.3220 H   0  0  0  0  0  0  0  0  0  0  0  0
    0.2120   12.1190   14.1680 H   0  0  0  0  0  0  0  0  0  0  0  0
    0.1250   12.4070   15.9080 H   0  0  0  0  0  0  0  0  0  0  0  0
   -1.3630   12.2520   14.9740 H   0  0  0  0  0  0  0  0  0  0  0  0
  1  6  1  0  0  0  0
  2  1  2  0  0  0  0
  2  3  1  0  0  0  0
  3  4  2  0  0  0  0
  4  5  1  0  0  0  0
  4  8  1  0  0  0  0
  6  9  1  0  0  0  0
  6  5  2  0  0  0  0
  7  2  1  0  0  0  0
  8 24  1  0  0  0  0
  8 25  1  0  0  0  0
 10 11  1  0  0  0  0
 10  9  1  0  0  0  0
 11 13  1  0  0  0  0
 12 11  2  0  0  0  0
 13 18  2  0  0  0  0
 13 14  1  0  0  0  0
 14 15  2  0  0  0  0
 15 29  1  0  0  0  0
 15 16  1  0  0  0  0
 16 19  1  0  0  0  0
 17 30  1  0  0  0  0
 17 16  2  0  0  0  0
 18 17  1  0  0  0  0
 19 21  2  0  0  0  0
 20 19  2  0  0  0  0
 22 33  1  0  0  0  0
 22 19  1  0  0  0  0
 23  8  1  0  0  0  0
 23 43  1  0  0  0  0
 24 40  1  0  0  0  0
 24 41  1  0  0  0  0
 25 38  1  0  0  0  0
 25 37  1  0  0  0  0
 26 10  1  0  0  0  0
 27 10  1  0  0  0  0
 28 14  1  0  0  0  0
 31 18  1  0  0  0  0
 32 22  1  0  0  0  0
 34  7  1  0  0  0  0
 35  3  1  0  0  0  0
 36 25  1  0  0  0  0
 39 24  1  0  0  0  0
 42 23  1  0  0  0  0
 44 23  1  0  0  0  0
M  END