1e_fix.pdb
 OpenBabel09161415133D

 41 42  0  0  0  0  0  0  0  0999 V2000
   -1.8470    7.7460   12.1900 N   0  0  0  0  0  0  0  0  0  0  0  0
   -1.9460    9.0820   12.1370 C   0  0  0  0  0  0  0  0  0  0  0  0
   -1.8810    9.9100   13.2260 C   0  0  0  0  0  0  0  0  0  0  0  0
   -1.8030    9.2740   14.4380 C   0  0  0  0  0  0  0  0  0  0  0  0
   -1.6810    7.9370   14.5610 N   0  0  0  0  0  0  0  0  0  0  0  0
   -1.7050    7.2270   13.4190 C   0  0  0  0  0  0  0  0  0  0  0  0
   -2.0790    9.5540   10.8740 O   0  0  0  0  0  0  0  0  0  0  0  0
   -1.3560    5.4960   13.5430 S   0  0  0  0  0  0  0  0  0  0  0  0
   -2.7450    4.8650   12.5690 C   0  0  0  0  0  0  0  0  0  0  0  0
   -4.0480    5.0770   13.3110 C   0  0  0  0  0  0  0  0  0  0  0  0
   -4.7300    6.0850   13.1260 O   0  0  0  0  0  0  0  0  0  0  0  0
   -4.5290    4.0330   14.2680 C   0  0  0  0  0  0  0  0  0  0  0  0
   -5.8570    4.1090   14.7180 C   0  0  0  0  0  0  0  0  0  0  0  0
   -6.3770    3.1260   15.5650 C   0  0  0  0  0  0  0  0  0  0  0  0
   -5.5610    2.0720   15.9730 C   0  0  0  0  0  0  0  0  0  0  0  0
   -4.2260    2.0050   15.5660 C   0  0  0  0  0  0  0  0  0  0  0  0
   -3.7120    2.9850   14.7140 C   0  0  0  0  0  0  0  0  0  0  0  0
   -6.2220    0.7750   16.9750 S   0  0  0  0  0  0  0  0  0  0  0  0
   -7.6640    0.7740   16.8550 O   0  0  0  0  0  0  0  0  0  0  0  0
   -5.5370    0.7710   18.2380 O   0  0  0  0  0  0  0  0  0  0  0  0
   -5.7160   -0.6050   16.1560 N   0  0  0  0  0  0  0  0  0  0  0  0
   -2.8060    5.3550   11.5920 H   0  0  0  0  0  0  0  0  0  0  0  0
   -2.5970    3.8030   12.3520 H   0  0  0  0  0  0  0  0  0  0  0  0
   -6.4990    4.9290   14.3970 H   0  0  0  0  0  0  0  0  0  0  0  0
   -7.4140    3.1890   15.8890 H   0  0  0  0  0  0  0  0  0  0  0  0
   -3.5860    1.1920   15.9000 H   0  0  0  0  0  0  0  0  0  0  0  0
   -2.6700    2.9000   14.4200 H   0  0  0  0  0  0  0  0  0  0  0  0
   -6.5270   -1.1140   15.8090 H   0  0  0  0  0  0  0  0  0  0  0  0
   -5.1160   -1.1640   16.7630 H   0  0  0  0  0  0  0  0  0  0  0  0
   -2.2270    8.7330   10.3740 H   0  0  0  0  0  0  0  0  0  0  0  0
   -1.8810   11.3600   13.1080 C   0  0  0  0  0  0  0  0  0  0  0  0
   -1.7960    9.8250   15.3720 H   0  0  0  0  0  0  0  0  0  0  0  0
   -2.8800   11.9490   12.7230 O   0  0  0  0  0  0  0  0  0  0  0  0
   -0.7360   12.0170   13.4220 O   0  0  0  0  0  0  0  0  0  0  0  0
    0.3950   11.4270   14.0850 C   0  0  0  0  0  0  0  0  0  0  0  0
    1.6210   12.2690   13.8340 C   0  0  0  0  0  0  0  0  0  0  0  0
    0.5830   10.4130   13.7390 H   0  0  0  0  0  0  0  0  0  0  0  0
    0.1820   11.4200   15.1500 H   0  0  0  0  0  0  0  0  0  0  0  0
    1.9620   12.1410   12.8100 H   0  0  0  0  0  0  0  0  0  0  0  0
    2.4370   11.9830   14.4950 H   0  0  0  0  0  0  0  0  0  0  0  0
    1.4230   13.3300   13.9710 H   0  0  0  0  0  0  0  0  0  0  0  0
  1  6  1  0  0  0  0
  2  1  2  0  0  0  0
  2  3  1  0  0  0  0
  3  4  2  0  0  0  0
  4  5  1  0  0  0  0
  4 32  1  0  0  0  0
  6  8  1  0  0  0  0
  6  5  2  0  0  0  0
  7  2  1  0  0  0  0
  9 10  1  0  0  0  0
  9  8  1  0  0  0  0
 10 12  1  0  0  0  0
 11 10  2  0  0  0  0
 12 17  2  0  0  0  0
 12 13  1  0  0  0  0
 13 14  2  0  0  0  0
 14 25  1  0  0  0  0
 14 15  1  0  0  0  0
 15 18  1  0  0  0  0
 16 26  1  0  0  0  0
 16 15  2  0  0  0  0
 17 16  1  0  0  0  0
 18 20  2  0  0  0  0
 19 18  2  0  0  0  0
 21 29  1  0  0  0  0
 21 18  1  0  0  0  0
 22  9  1  0  0  0  0
 23  9  1  0  0  0  0
 24 13  1  0  0  0  0
 27 17  1  0  0  0  0
 28 21  1  0  0  0  0
 30  7  1  0  0  0  0
 31  3  1  0  0  0  0
 31 34  1  0  0  0  0
 33 31  2  0  0  0  0
 34 35  1  0  0  0  0
 35 38  1  0  0  0  0
 36 41  1  0  0  0  0
 36 35  1  0  0  0  0
 36 40  1  0  0  0  0
 37 35  1  0  0  0  0
 39 36  1  0  0  0  0
M  END