1i_fix.pdb
 OpenBabel09161415133D

 43 44  0  0  0  0  0  0  0  0999 V2000
   -0.5030    8.7320   14.8530 N   0  0  0  0  0  0  0  0  0  0  0  0
    0.1480    9.7390   15.3690 C   0  0  0  0  0  0  0  0  0  0  0  0
    0.1890   11.0140   14.8470 C   0  0  0  0  0  0  0  0  0  0  0  0
   -0.5150   11.2910   13.6640 C   0  0  0  0  0  0  0  0  0  0  0  0
   -1.1690   10.2110   13.1710 N   0  0  0  0  0  0  0  0  0  0  0  0
   -1.1330    8.9760   13.7890 C   0  0  0  0  0  0  0  0  0  0  0  0
    1.0150   11.9230   15.6620 C   0  0  0  0  0  0  0  0  0  0  0  0
    2.4780   11.5550   15.2910 C   0  0  0  0  0  0  0  0  0  0  0  0
    3.4690   11.8180   16.4250 C   0  0  0  0  0  0  0  0  0  0  0  0
    3.8980   10.5430   17.1850 C   0  0  0  0  0  0  0  0  0  0  0  0
   -1.9390    7.5770   13.1770 S   0  0  0  0  0  0  0  0  0  0  0  0
   -2.0780    5.8720   13.7480 C   0  0  0  0  0  0  0  0  0  0  0  0
   -3.5400    5.4540   13.5820 C   0  0  0  0  0  0  0  0  0  0  0  0
   -4.2870    6.0380   12.7900 O   0  0  0  0  0  0  0  0  0  0  0  0
   -4.1460    4.3250   14.3680 C   0  0  0  0  0  0  0  0  0  0  0  0
   -5.5220    4.2950   14.6170 C   0  0  0  0  0  0  0  0  0  0  0  0
   -6.0260    3.2000   15.3590 C   0  0  0  0  0  0  0  0  0  0  0  0
   -5.1990    2.2010   15.8480 C   0  0  0  0  0  0  0  0  0  0  0  0
   -3.8460    2.2420   15.5920 C   0  0  0  0  0  0  0  0  0  0  0  0
   -3.3150    3.3020   14.8470 C   0  0  0  0  0  0  0  0  0  0  0  0
   -5.8530    0.8040   16.7700 S   0  0  0  0  0  0  0  0  0  0  0  0
   -5.3050    0.9610   18.1290 O   0  0  0  0  0  0  0  0  0  0  0  0
   -7.3140    0.9010   16.6260 O   0  0  0  0  0  0  0  0  0  0  0  0
   -5.1390   -0.5220   15.9850 N   0  0  0  0  0  0  0  0  0  0  0  0
    0.6750    9.5660   16.2390 H   0  0  0  0  0  0  0  0  0  0  0  0
   -0.5330   12.2210   13.2160 H   0  0  0  0  0  0  0  0  0  0  0  0
    0.8330   11.7780   16.7060 H   0  0  0  0  0  0  0  0  0  0  0  0
    0.7950   12.9520   15.4700 H   0  0  0  0  0  0  0  0  0  0  0  0
    2.7760   12.1000   14.4200 H   0  0  0  0  0  0  0  0  0  0  0  0
    2.4950   10.5020   15.1000 H   0  0  0  0  0  0  0  0  0  0  0  0
    3.0460   12.5190   17.1140 H   0  0  0  0  0  0  0  0  0  0  0  0
    4.3530   12.2130   15.9700 H   0  0  0  0  0  0  0  0  0  0  0  0
    3.0450   10.1070   17.6610 H   0  0  0  0  0  0  0  0  0  0  0  0
    4.6470   10.7790   17.9120 H   0  0  0  0  0  0  0  0  0  0  0  0
    4.3100    9.8410   16.4900 H   0  0  0  0  0  0  0  0  0  0  0  0
   -1.7760    5.7910   14.7710 H   0  0  0  0  0  0  0  0  0  0  0  0
   -1.4380    5.2320   13.1780 H   0  0  0  0  0  0  0  0  0  0  0  0
   -6.1450    5.0420   14.2730 H   0  0  0  0  0  0  0  0  0  0  0  0
   -7.0400    3.1440   15.5410 H   0  0  0  0  0  0  0  0  0  0  0  0
   -3.2280    1.4960   15.9470 H   0  0  0  0  0  0  0  0  0  0  0  0
   -2.3030    3.3310   14.6490 H   0  0  0  0  0  0  0  0  0  0  0  0
   -5.5310   -0.6140   15.0480 H   0  0  0  0  0  0  0  0  0  0  0  0
   -5.2980   -1.3760   16.5190 H   0  0  0  0  0  0  0  0  0  0  0  0
  1  2  1  0  0  0  0
  2 25  1  0  0  0  0
  3  2  2  0  0  0  0
  3  7  1  0  0  0  0
  4  3  1  0  0  0  0
  5  4  2  0  0  0  0
  5  6  1  0  0  0  0
  6  1  2  0  0  0  0
  7 27  1  0  0  0  0
  8  7  1  0  0  0  0
  8  9  1  0  0  0  0
  9 31  1  0  0  0  0
  9 10  1  0  0  0  0
 10 33  1  0  0  0  0
 10 34  1  0  0  0  0
 11 12  1  0  0  0  0
 11  6  1  0  0  0  0
 12 36  1  0  0  0  0
 13 12  1  0  0  0  0
 13 15  1  0  0  0  0
 14 13  2  0  0  0  0
 15 16  2  0  0  0  0
 15 20  1  0  0  0  0
 16 17  1  0  0  0  0
 17 39  1  0  0  0  0
 17 18  2  0  0  0  0
 18 21  1  0  0  0  0
 19 18  1  0  0  0  0
 19 40  1  0  0  0  0
 20 19  2  0  0  0  0
 21 22  2  0  0  0  0
 23 21  2  0  0  0  0
 24 43  1  0  0  0  0
 24 21  1  0  0  0  0
 26  4  1  0  0  0  0
 28  7  1  0  0  0  0
 29  8  1  0  0  0  0
 30  8  1  0  0  0  0
 32  9  1  0  0  0  0
 35 10  1  0  0  0  0
 37 12  1  0  0  0  0
 38 16  1  0  0  0  0
 41 20  1  0  0  0  0
 42 24  1  0  0  0  0
M  END