2b_fix.pdb
 OpenBabel09161415133D

 48 50  0  0  0  0  0  0  0  0999 V2000
   -4.3540    4.3960   15.6320 C   0  0  0  0  0  0  0  0  0  0  0  0
   -4.9120    2.0610   15.9110 C   0  0  0  0  0  0  0  0  0  0  0  0
   -3.9020    1.7160   15.0020 C   0  0  0  0  0  0  0  0  0  0  0  0
   -6.3680    3.9280   17.3200 Cl  0  0  0  0  0  0  0  0  0  0  0  0
   -5.1400    3.4030   16.2280 C   0  0  0  0  0  0  0  0  0  0  0  0
   -5.8920    0.8040   16.6670 S   0  0  0  0  0  0  0  0  0  0  0  0
   -7.2300    0.8770   16.1310 O   0  0  0  0  0  0  0  0  0  0  0  0
   -5.2740   -0.6460   16.0650 N   0  0  0  0  0  0  0  0  0  0  0  0
   -5.5920    0.7620   18.0780 O   0  0  0  0  0  0  0  0  0  0  0  0
   -3.3500    4.0560   14.7160 C   0  0  0  0  0  0  0  0  0  0  0  0
   -3.1220    2.7120   14.4060 C   0  0  0  0  0  0  0  0  0  0  0  0
   -2.5440    5.1510   14.1070 C   0  0  0  0  0  0  0  0  0  0  0  0
   -2.3800    6.1800   14.7610 O   0  0  0  0  0  0  0  0  0  0  0  0
   -1.9460    4.9140   12.7330 C   0  0  0  0  0  0  0  0  0  0  0  0
   -1.8770    6.4250   11.7350 S   0  0  0  0  0  0  0  0  0  0  0  0
   -3.6040    6.6950   11.4190 C   0  0  0  0  0  0  0  0  0  0  0  0
   -4.5230    6.0480   12.1450 N   0  0  0  0  0  0  0  0  0  0  0  0
   -5.7910    6.3830   11.8760 C   0  0  0  0  0  0  0  0  0  0  0  0
   -6.6890    5.7050   12.6400 O   0  0  0  0  0  0  0  0  0  0  0  0
   -6.2180    7.2800   10.9160 C   0  0  0  0  0  0  0  0  0  0  0  0
   -5.1870    7.8280   10.1680 C   0  0  0  0  0  0  0  0  0  0  0  0
   -3.8870    7.5540   10.4290 N   0  0  0  0  0  0  0  0  0  0  0  0
   -5.3930    8.7960    9.0400 C   0  0  0  0  0  0  0  0  0  0  0  0
   -4.5210    5.4450   15.8810 H   0  0  0  0  0  0  0  0  0  0  0  0
   -3.7020    0.6780   14.7490 H   0  0  0  0  0  0  0  0  0  0  0  0
   -6.0160   -1.1300   15.5550 H   0  0  0  0  0  0  0  0  0  0  0  0
   -4.9080   -1.1940   16.8470 H   0  0  0  0  0  0  0  0  0  0  0  0
   -2.3310    2.4110   13.7230 H   0  0  0  0  0  0  0  0  0  0  0  0
   -0.9240    4.5470   12.8740 H   0  0  0  0  0  0  0  0  0  0  0  0
   -2.5060    4.1590   12.1740 H   0  0  0  0  0  0  0  0  0  0  0  0
   -7.6790    7.5800   10.7190 C   0  0  0  0  0  0  0  0  0  0  0  0
   -4.6920    8.5740    8.2290 H   0  0  0  0  0  0  0  0  0  0  0  0
   -5.1990    9.8170    9.3840 H   0  0  0  0  0  0  0  0  0  0  0  0
   -6.3970    8.7530    8.6140 H   0  0  0  0  0  0  0  0  0  0  0  0
   -6.1000    5.1840   13.2100 H   0  0  0  0  0  0  0  0  0  0  0  0
   -8.2580    6.7060   11.0460 H   0  0  0  0  0  0  0  0  0  0  0  0
   -7.9030    7.6530    9.6480 H   0  0  0  0  0  0  0  0  0  0  0  0
   -8.2470    8.8120   11.4030 C   0  0  0  0  0  0  0  0  0  0  0  0
   -9.5900    8.7930   11.8160 C   0  0  0  0  0  0  0  0  0  0  0  0
   -7.5360   10.0130   11.5440 C   0  0  0  0  0  0  0  0  0  0  0  0
  -10.2010    9.9330   12.3450 C   0  0  0  0  0  0  0  0  0  0  0  0
   -8.1500   11.1570   12.0620 C   0  0  0  0  0  0  0  0  0  0  0  0
   -9.4830   11.1190   12.4590 C   0  0  0  0  0  0  0  0  0  0  0  0
   -6.4950   10.0930   11.2530 H   0  0  0  0  0  0  0  0  0  0  0  0
  -10.1810    7.8830   11.7220 H   0  0  0  0  0  0  0  0  0  0  0  0
  -11.2420    9.8970   12.6570 H   0  0  0  0  0  0  0  0  0  0  0  0
   -7.5840   12.0820   12.1500 H   0  0  0  0  0  0  0  0  0  0  0  0
   -9.9590   12.0120   12.8550 H   0  0  0  0  0  0  0  0  0  0  0  0
  1 24  1  0  0  0  0
  1  5  2  0  0  0  0
  2  5  1  0  0  0  0
  2  6  1  0  0  0  0
  3  2  2  0  0  0  0
  5  4  1  0  0  0  0
  6  9  2  0  0  0  0
  7  6  2  0  0  0  0
  8  6  1  0  0  0  0
  8 27  1  0  0  0  0
 10  1  1  0  0  0  0
 11 10  2  0  0  0  0
 11  3  1  0  0  0  0
 12 10  1  0  0  0  0
 12 13  2  0  0  0  0
 14 29  1  0  0  0  0
 14 12  1  0  0  0  0
 15 14  1  0  0  0  0
 16 15  1  0  0  0  0
 16 17  2  0  0  0  0
 18 17  1  0  0  0  0
 18 19  1  0  0  0  0
 19 35  1  0  0  0  0
 20 18  2  0  0  0  0
 21 22  2  0  0  0  0
 21 20  1  0  0  0  0
 22 16  1  0  0  0  0
 23 33  1  0  0  0  0
 23 21  1  0  0  0  0
 25  3  1  0  0  0  0
 26  8  1  0  0  0  0
 28 11  1  0  0  0  0
 30 14  1  0  0  0  0
 31 20  1  0  0  0  0
 31 36  1  0  0  0  0
 31 38  1  0  0  0  0
 32 23  1  0  0  0  0
 34 23  1  0  0  0  0
 37 31  1  0  0  0  0
 38 40  2  0  0  0  0
 38 39  1  0  0  0  0
 39 41  2  0  0  0  0
 40 42  1  0  0  0  0
 41 43  1  0  0  0  0
 41 46  1  0  0  0  0
 42 47  1  0  0  0  0
 42 43  2  0  0  0  0
 43 48  1  0  0  0  0
 44 40  1  0  0  0  0
 45 39  1  0  0  0  0
M  END