2c_fix.pdb
 OpenBabel09161415133D

 41 42  0  0  0  0  0  0  0  0999 V2000
   -4.4090    4.4410   15.5940 C   0  0  0  0  0  0  0  0  0  0  0  0
   -4.9100    2.0950   15.8840 C   0  0  0  0  0  0  0  0  0  0  0  0
   -3.9120    1.7720   14.9530 C   0  0  0  0  0  0  0  0  0  0  0  0
   -6.3730    3.9320   17.3270 Cl  0  0  0  0  0  0  0  0  0  0  0  0
   -5.1600    3.4320   16.2060 C   0  0  0  0  0  0  0  0  0  0  0  0
   -5.8520    0.8190   16.6560 S   0  0  0  0  0  0  0  0  0  0  0  0
   -7.2020    0.8740   16.1490 O   0  0  0  0  0  0  0  0  0  0  0  0
   -5.2260   -0.6180   16.0340 N   0  0  0  0  0  0  0  0  0  0  0  0
   -5.5210    0.7780   18.0600 O   0  0  0  0  0  0  0  0  0  0  0  0
   -3.4180    4.1230   14.6550 C   0  0  0  0  0  0  0  0  0  0  0  0
   -3.1670    2.7850   14.3400 C   0  0  0  0  0  0  0  0  0  0  0  0
   -2.6530    5.2380   14.0310 C   0  0  0  0  0  0  0  0  0  0  0  0
   -2.4830    6.2600   14.6910 O   0  0  0  0  0  0  0  0  0  0  0  0
   -2.1100    5.0350   12.6280 C   0  0  0  0  0  0  0  0  0  0  0  0
   -2.1640    6.5620   11.6480 S   0  0  0  0  0  0  0  0  0  0  0  0
   -3.9200    6.7970   11.4960 C   0  0  0  0  0  0  0  0  0  0  0  0
   -4.7550    5.9140   12.0690 N   0  0  0  0  0  0  0  0  0  0  0  0
   -6.0520    6.1730   11.8820 C   0  0  0  0  0  0  0  0  0  0  0  0
   -6.8950    5.2960   12.4870 O   0  0  0  0  0  0  0  0  0  0  0  0
   -6.5660    7.2130   11.1560 C   0  0  0  0  0  0  0  0  0  0  0  0
   -5.6320    8.0530   10.5950 C   0  0  0  0  0  0  0  0  0  0  0  0
   -4.3070    7.8530   10.7580 N   0  0  0  0  0  0  0  0  0  0  0  0
   -6.0510    9.2370    9.7620 C   0  0  0  0  0  0  0  0  0  0  0  0
   -4.5950    5.4860   15.8440 H   0  0  0  0  0  0  0  0  0  0  0  0
   -3.6950    0.7380   14.6970 H   0  0  0  0  0  0  0  0  0  0  0  0
   -5.9720   -1.1110   15.5380 H   0  0  0  0  0  0  0  0  0  0  0  0
   -4.8370   -1.1640   16.8060 H   0  0  0  0  0  0  0  0  0  0  0  0
   -2.3840    2.5030   13.6390 H   0  0  0  0  0  0  0  0  0  0  0  0
   -1.0670    4.7140   12.7160 H   0  0  0  0  0  0  0  0  0  0  0  0
   -2.6600    4.2590   12.0890 H   0  0  0  0  0  0  0  0  0  0  0  0
   -7.6320    7.3540   11.0430 H   0  0  0  0  0  0  0  0  0  0  0  0
   -5.1620    9.6730    9.2880 H   0  0  0  0  0  0  0  0  0  0  0  0
   -6.7670   10.3090   10.5840 C   0  0  0  0  0  0  0  0  0  0  0  0
   -6.6970    8.8850    8.9480 H   0  0  0  0  0  0  0  0  0  0  0  0
   -6.2710    4.7110   12.9470 H   0  0  0  0  0  0  0  0  0  0  0  0
   -6.1300   10.6340   11.4160 H   0  0  0  0  0  0  0  0  0  0  0  0
   -7.6840    9.9020   11.0260 H   0  0  0  0  0  0  0  0  0  0  0  0
   -7.1280   11.5140    9.7290 C   0  0  0  0  0  0  0  0  0  0  0  0
   -6.2300   11.9870    9.3190 H   0  0  0  0  0  0  0  0  0  0  0  0
   -7.6600   12.2590   10.3300 H   0  0  0  0  0  0  0  0  0  0  0  0
   -7.7760   11.2240    8.8960 H   0  0  0  0  0  0  0  0  0  0  0  0
  1 24  1  0  0  0  0
  1  5  2  0  0  0  0
  2  5  1  0  0  0  0
  2  6  1  0  0  0  0
  3  2  2  0  0  0  0
  5  4  1  0  0  0  0
  6  9  2  0  0  0  0
  7  6  2  0  0  0  0
  8  6  1  0  0  0  0
  8 27  1  0  0  0  0
 10  1  1  0  0  0  0
 11 10  2  0  0  0  0
 11  3  1  0  0  0  0
 12 10  1  0  0  0  0
 12 13  2  0  0  0  0
 14 29  1  0  0  0  0
 14 12  1  0  0  0  0
 15 14  1  0  0  0  0
 16 15  1  0  0  0  0
 16 17  2  0  0  0  0
 18 17  1  0  0  0  0
 18 19  1  0  0  0  0
 19 35  1  0  0  0  0
 20 18  2  0  0  0  0
 21 22  2  0  0  0  0
 21 20  1  0  0  0  0
 22 16  1  0  0  0  0
 23 33  1  0  0  0  0
 23 21  1  0  0  0  0
 25  3  1  0  0  0  0
 26  8  1  0  0  0  0
 28 11  1  0  0  0  0
 30 14  1  0  0  0  0
 31 20  1  0  0  0  0
 32 23  1  0  0  0  0
 33 37  1  0  0  0  0
 33 36  1  0  0  0  0
 34 23  1  0  0  0  0
 38 40  1  0  0  0  0
 38 33  1  0  0  0  0
 39 38  1  0  0  0  0
 41 38  1  0  0  0  0
M  END