2f_fix.pdb
 OpenBabel09161415133D

 37 38  0  0  0  0  0  0  0  0999 V2000
   -4.6610    4.5110   15.3810 C   0  0  0  0  0  0  0  0  0  0  0  0
   -4.9710    2.1360   15.8480 C   0  0  0  0  0  0  0  0  0  0  0  0
   -3.9930    1.7890   14.8900 C   0  0  0  0  0  0  0  0  0  0  0  0
   -6.5620    3.8820   17.2580 Cl  0  0  0  0  0  0  0  0  0  0  0  0
   -5.3380    3.4830   16.0700 C   0  0  0  0  0  0  0  0  0  0  0  0
   -5.7490    0.7870   16.7790 S   0  0  0  0  0  0  0  0  0  0  0  0
   -7.3190    0.8280   16.5880 O   0  0  0  0  0  0  0  0  0  0  0  0
   -5.0300   -0.6720   16.1440 N   0  0  0  0  0  0  0  0  0  0  0  0
   -5.2350    0.9220   18.3090 O   0  0  0  0  0  0  0  0  0  0  0  0
   -3.6260    4.1880   14.4460 C   0  0  0  0  0  0  0  0  0  0  0  0
   -3.2980    2.8250   14.1970 C   0  0  0  0  0  0  0  0  0  0  0  0
   -2.8360    5.2590   13.7730 C   0  0  0  0  0  0  0  0  0  0  0  0
   -2.6360    6.3170   14.4250 O   0  0  0  0  0  0  0  0  0  0  0  0
   -2.1370    5.0870   12.4620 C   0  0  0  0  0  0  0  0  0  0  0  0
   -2.0540    6.7070   11.6580 S   0  0  0  0  0  0  0  0  0  0  0  0
   -3.8120    7.0040   11.5410 C   0  0  0  0  0  0  0  0  0  0  0  0
   -4.6780    6.1550   12.2110 N   0  0  0  0  0  0  0  0  0  0  0  0
   -6.0110    6.3510   12.1140 C   0  0  0  0  0  0  0  0  0  0  0  0
   -6.8820    5.3830   12.8300 C   0  0  0  0  0  0  0  0  0  0  0  0
   -6.5020    7.4360   11.3480 C   0  0  0  0  0  0  0  0  0  0  0  0
   -5.5920    8.3030   10.6980 C   0  0  0  0  0  0  0  0  0  0  0  0
   -4.2560    8.0770   10.8050 N   0  0  0  0  0  0  0  0  0  0  0  0
   -6.0470    9.4680    9.8820 C   0  0  0  0  0  0  0  0  0  0  0  0
   -4.9120    5.4970   15.5510 H   0  0  0  0  0  0  0  0  0  0  0  0
   -3.7830    0.7980   14.6930 H   0  0  0  0  0  0  0  0  0  0  0  0
   -5.3240   -0.8030   15.1760 H   0  0  0  0  0  0  0  0  0  0  0  0
   -5.3040   -1.4760   16.7090 H   0  0  0  0  0  0  0  0  0  0  0  0
   -2.5590    2.5870   13.5170 H   0  0  0  0  0  0  0  0  0  0  0  0
   -1.1540    4.6910   12.6100 H   0  0  0  0  0  0  0  0  0  0  0  0
   -2.6740    4.3960   11.8460 H   0  0  0  0  0  0  0  0  0  0  0  0
   -7.9080    5.6450   12.6770 H   0  0  0  0  0  0  0  0  0  0  0  0
   -6.6520    5.3810   13.8750 H   0  0  0  0  0  0  0  0  0  0  0  0
   -6.7080    4.4010   12.4440 H   0  0  0  0  0  0  0  0  0  0  0  0
   -7.5180    7.5940   11.2640 H   0  0  0  0  0  0  0  0  0  0  0  0
   -5.1960    9.9810    9.4860 H   0  0  0  0  0  0  0  0  0  0  0  0
   -6.6350   10.1320   10.4800 H   0  0  0  0  0  0  0  0  0  0  0  0
   -6.6520    9.1160    9.0730 H   0  0  0  0  0  0  0  0  0  0  0  0
  1 24  1  0  0  0  0
  1  5  2  0  0  0  0
  2  5  1  0  0  0  0
  2  6  1  0  0  0  0
  3  2  2  0  0  0  0
  5  4  1  0  0  0  0
  6  9  2  0  0  0  0
  7  6  2  0  0  0  0
  8 27  1  0  0  0  0
  8  6  1  0  0  0  0
 10  1  1  0  0  0  0
 11 10  2  0  0  0  0
 11  3  1  0  0  0  0
 12 13  2  0  0  0  0
 12 10  1  0  0  0  0
 14 29  1  0  0  0  0
 14 12  1  0  0  0  0
 15 14  1  0  0  0  0
 16 15  1  0  0  0  0
 16 17  2  0  0  0  0
 18 17  1  0  0  0  0
 18 19  1  0  0  0  0
 19 32  1  0  0  0  0
 20 18  2  0  0  0  0
 21 22  2  0  0  0  0
 21 20  1  0  0  0  0
 22 16  1  0  0  0  0
 23 36  1  0  0  0  0
 23 21  1  0  0  0  0
 25  3  1  0  0  0  0
 26  8  1  0  0  0  0
 28 11  1  0  0  0  0
 30 14  1  0  0  0  0
 31 19  1  0  0  0  0
 33 19  1  0  0  0  0
 34 20  1  0  0  0  0
 35 23  1  0  0  0  0
 37 23  1  0  0  0  0
M  END