2h_fix.pdb
 OpenBabel09161415133D

 40 41  0  0  0  0  0  0  0  0999 V2000
   -5.3420    0.9010   18.0620 O   0  0  0  0  0  0  0  0  0  0  0  0
   -1.1090    8.1380   14.7080 C   0  0  0  0  0  0  0  0  0  0  0  0
   -4.1400    3.9740   14.0030 C   0  0  0  0  0  0  0  0  0  0  0  0
   -5.6320    3.3310   15.8210 C   0  0  0  0  0  0  0  0  0  0  0  0
   -6.7860    3.8580   16.9920 Cl  0  0  0  0  0  0  0  0  0  0  0  0
   -5.1030    4.3070   14.9670 C   0  0  0  0  0  0  0  0  0  0  0  0
   -3.7070    2.6480   13.8990 C   0  0  0  0  0  0  0  0  0  0  0  0
   -4.2410    1.6670   14.7420 C   0  0  0  0  0  0  0  0  0  0  0  0
   -5.2070    2.0070   15.7000 C   0  0  0  0  0  0  0  0  0  0  0  0
   -5.9020    0.7620   16.7390 S   0  0  0  0  0  0  0  0  0  0  0  0
   -5.2700   -0.6890   16.1560 N   0  0  0  0  0  0  0  0  0  0  0  0
   -7.3170    0.6610   16.4720 O   0  0  0  0  0  0  0  0  0  0  0  0
   -3.6420    5.0520   13.0950 C   0  0  0  0  0  0  0  0  0  0  0  0
   -4.3450    6.0500   12.9560 O   0  0  0  0  0  0  0  0  0  0  0  0
   -2.3090    4.8300   12.3990 C   0  0  0  0  0  0  0  0  0  0  0  0
   -1.8000    6.2150   11.3460 S   0  0  0  0  0  0  0  0  0  0  0  0
   -1.5590    7.4820   12.5650 C   0  0  0  0  0  0  0  0  0  0  0  0
   -1.5350    8.7430   12.1040 N   0  0  0  0  0  0  0  0  0  0  0  0
   -1.3060    9.7100   13.0100 C   0  0  0  0  0  0  0  0  0  0  0  0
   -1.0820    9.4700   14.3490 C   0  0  0  0  0  0  0  0  0  0  0  0
   -1.3330    7.1260   13.8440 N   0  0  0  0  0  0  0  0  0  0  0  0
   -0.9410    7.8280   15.7360 H   0  0  0  0  0  0  0  0  0  0  0  0
   -5.4430    5.3400   15.0520 H   0  0  0  0  0  0  0  0  0  0  0  0
   -2.9750    2.3400   13.1580 H   0  0  0  0  0  0  0  0  0  0  0  0
   -3.8970    0.6410   14.6290 H   0  0  0  0  0  0  0  0  0  0  0  0
   -6.0440   -1.2690   15.8230 H   0  0  0  0  0  0  0  0  0  0  0  0
   -4.7340   -1.1360   16.9040 H   0  0  0  0  0  0  0  0  0  0  0  0
   -1.5310    4.6130   13.1380 H   0  0  0  0  0  0  0  0  0  0  0  0
   -2.4070    3.9700   11.7310 H   0  0  0  0  0  0  0  0  0  0  0  0
   -1.3020   10.7190   12.6060 H   0  0  0  0  0  0  0  0  0  0  0  0
   -0.8020   10.5710   15.3240 C   0  0  0  0  0  0  0  0  0  0  0  0
   -0.9590   10.2100   16.3480 H   0  0  0  0  0  0  0  0  0  0  0  0
   -1.5310   11.3780   15.1710 H   0  0  0  0  0  0  0  0  0  0  0  0
    0.6210   11.1140   15.1780 C   0  0  0  0  0  0  0  0  0  0  0  0
    1.3480   10.3050   15.3240 H   0  0  0  0  0  0  0  0  0  0  0  0
    0.9030   12.2240   16.1780 C   0  0  0  0  0  0  0  0  0  0  0  0
    0.7780   11.5010   14.1640 H   0  0  0  0  0  0  0  0  0  0  0  0
    0.7990   11.8620   17.2060 H   0  0  0  0  0  0  0  0  0  0  0  0
    0.2140   13.0630   16.0370 H   0  0  0  0  0  0  0  0  0  0  0  0
    1.9240   12.5970   16.0510 H   0  0  0  0  0  0  0  0  0  0  0  0
  2 22  1  0  0  0  0
  3  6  1  0  0  0  0
  4  5  1  0  0  0  0
  6 23  1  0  0  0  0
  6  4  2  0  0  0  0
  7  3  2  0  0  0  0
  7  8  1  0  0  0  0
  8  9  2  0  0  0  0
  9  4  1  0  0  0  0
  9 10  1  0  0  0  0
 10  1  2  0  0  0  0
 11 10  1  0  0  0  0
 11 27  1  0  0  0  0
 12 10  2  0  0  0  0
 13  3  1  0  0  0  0
 14 13  2  0  0  0  0
 15 13  1  0  0  0  0
 15 28  1  0  0  0  0
 16 15  1  0  0  0  0
 16 17  1  0  0  0  0
 17 21  1  0  0  0  0
 18 17  2  0  0  0  0
 18 19  1  0  0  0  0
 19 20  2  0  0  0  0
 20  2  1  0  0  0  0
 20 31  1  0  0  0  0
 21  2  2  0  0  0  0
 24  7  1  0  0  0  0
 25  8  1  0  0  0  0
 26 11  1  0  0  0  0
 29 15  1  0  0  0  0
 30 19  1  0  0  0  0
 31 32  1  0  0  0  0
 33 31  1  0  0  0  0
 34 35  1  0  0  0  0
 34 31  1  0  0  0  0
 34 36  1  0  0  0  0
 36 38  1  0  0  0  0
 37 34  1  0  0  0  0
 39 36  1  0  0  0  0
 40 36  1  0  0  0  0
M  END