2i_fix.pdb
 OpenBabel09161415133D

 43 44  0  0  0  0  0  0  0  0999 V2000
   -5.3380    0.9460   18.0800 O   0  0  0  0  0  0  0  0  0  0  0  0
   -1.0780    8.1020   14.6320 C   0  0  0  0  0  0  0  0  0  0  0  0
   -4.1460    3.9800   13.9860 C   0  0  0  0  0  0  0  0  0  0  0  0
   -5.6490    3.3440   15.7980 C   0  0  0  0  0  0  0  0  0  0  0  0
   -6.8250    3.8720   16.9460 Cl  0  0  0  0  0  0  0  0  0  0  0  0
   -5.1250    4.3130   14.9330 C   0  0  0  0  0  0  0  0  0  0  0  0
   -3.6890    2.6590   13.9120 C   0  0  0  0  0  0  0  0  0  0  0  0
   -4.2170    1.6840   14.7660 C   0  0  0  0  0  0  0  0  0  0  0  0
   -5.2010    2.0250   15.7050 C   0  0  0  0  0  0  0  0  0  0  0  0
   -5.8900    0.7870   16.7560 S   0  0  0  0  0  0  0  0  0  0  0  0
   -5.2420   -0.6660   16.1940 N   0  0  0  0  0  0  0  0  0  0  0  0
   -7.3020    0.6680   16.4840 O   0  0  0  0  0  0  0  0  0  0  0  0
   -3.6550    5.0500   13.0640 C   0  0  0  0  0  0  0  0  0  0  0  0
   -4.3500    6.0550   12.9340 O   0  0  0  0  0  0  0  0  0  0  0  0
   -2.3400    4.8120   12.3390 C   0  0  0  0  0  0  0  0  0  0  0  0
   -1.8320    6.1920   11.2780 S   0  0  0  0  0  0  0  0  0  0  0  0
   -1.5700    7.4560   12.4960 C   0  0  0  0  0  0  0  0  0  0  0  0
   -1.5810    8.7210   12.0450 N   0  0  0  0  0  0  0  0  0  0  0  0
   -1.3510    9.6850   12.9540 C   0  0  0  0  0  0  0  0  0  0  0  0
   -1.0930    9.4380   14.2850 C   0  0  0  0  0  0  0  0  0  0  0  0
   -1.3030    7.0940   13.7650 N   0  0  0  0  0  0  0  0  0  0  0  0
   -0.8760    7.7880   15.6520 H   0  0  0  0  0  0  0  0  0  0  0  0
   -5.4830    5.3410   14.9960 H   0  0  0  0  0  0  0  0  0  0  0  0
   -2.9410    2.3500   13.1870 H   0  0  0  0  0  0  0  0  0  0  0  0
   -3.8540    0.6630   14.6770 H   0  0  0  0  0  0  0  0  0  0  0  0
   -6.0090   -1.2560   15.8630 H   0  0  0  0  0  0  0  0  0  0  0  0
   -4.7060   -1.0990   16.9490 H   0  0  0  0  0  0  0  0  0  0  0  0
   -1.5490    4.5830   13.0600 H   0  0  0  0  0  0  0  0  0  0  0  0
   -2.4650    3.9540   11.6710 H   0  0  0  0  0  0  0  0  0  0  0  0
   -1.3790   10.6970   12.5590 H   0  0  0  0  0  0  0  0  0  0  0  0
   -0.8230   10.5370   15.2680 C   0  0  0  0  0  0  0  0  0  0  0  0
   -1.0000   10.1640   16.2830 H   0  0  0  0  0  0  0  0  0  0  0  0
   -1.5490   11.3450   15.1090 H   0  0  0  0  0  0  0  0  0  0  0  0
    0.6040   11.0790   15.1390 C   0  0  0  0  0  0  0  0  0  0  0  0
    1.3270   10.2760   15.3280 H   0  0  0  0  0  0  0  0  0  0  0  0
    0.8910   12.2590   16.0720 C   0  0  0  0  0  0  0  0  0  0  0  0
    0.7770   11.4140   14.1080 H   0  0  0  0  0  0  0  0  0  0  0  0
    0.8590   11.8880   17.5460 C   0  0  0  0  0  0  0  0  0  0  0  0
    0.1760   13.0680   15.8820 H   0  0  0  0  0  0  0  0  0  0  0  0
    1.8860   12.6540   15.8340 H   0  0  0  0  0  0  0  0  0  0  0  0
   -0.1490   11.6100   17.8680 H   0  0  0  0  0  0  0  0  0  0  0  0
    1.1770   12.7400   18.1550 H   0  0  0  0  0  0  0  0  0  0  0  0
    1.5330   11.0510   17.7560 H   0  0  0  0  0  0  0  0  0  0  0  0
  2 22  1  0  0  0  0
  3  6  1  0  0  0  0
  4  5  1  0  0  0  0
  6 23  1  0  0  0  0
  6  4  2  0  0  0  0
  7  3  2  0  0  0  0
  7  8  1  0  0  0  0
  8  9  2  0  0  0  0
  9  4  1  0  0  0  0
  9 10  1  0  0  0  0
 10  1  2  0  0  0  0
 11 10  1  0  0  0  0
 11 27  1  0  0  0  0
 12 10  2  0  0  0  0
 13  3  1  0  0  0  0
 14 13  2  0  0  0  0
 15 28  1  0  0  0  0
 15 13  1  0  0  0  0
 16 15  1  0  0  0  0
 16 17  1  0  0  0  0
 17 21  1  0  0  0  0
 18 17  2  0  0  0  0
 18 19  1  0  0  0  0
 19 20  2  0  0  0  0
 20  2  1  0  0  0  0
 20 31  1  0  0  0  0
 21  2  2  0  0  0  0
 24  7  1  0  0  0  0
 25  8  1  0  0  0  0
 26 11  1  0  0  0  0
 29 15  1  0  0  0  0
 30 19  1  0  0  0  0
 31 32  1  0  0  0  0
 33 31  1  0  0  0  0
 34 31  1  0  0  0  0
 34 35  1  0  0  0  0
 34 36  1  0  0  0  0
 36 38  1  0  0  0  0
 37 34  1  0  0  0  0
 38 43  1  0  0  0  0
 38 41  1  0  0  0  0
 38 42  1  0  0  0  0
 39 36  1  0  0  0  0
 40 36  1  0  0  0  0
M  END