2j_fix.pdb
 OpenBabel09161415133D

 31 32  0  0  0  0  0  0  0  0999 V2000
   -5.2810    0.9990   18.2230 O   0  0  0  0  0  0  0  0  0  0  0  0
   -1.1540    8.3340   15.0240 C   0  0  0  0  0  0  0  0  0  0  0  0
   -4.1770    4.0320   14.0120 C   0  0  0  0  0  0  0  0  0  0  0  0
   -5.5920    3.4000   15.8160 C   0  0  0  0  0  0  0  0  0  0  0  0
   -6.6640    3.8650   17.1110 Cl  0  0  0  0  0  0  0  0  0  0  0  0
   -5.0940    4.4100   14.9970 C   0  0  0  0  0  0  0  0  0  0  0  0
   -3.7880    2.6840   13.7840 C   0  0  0  0  0  0  0  0  0  0  0  0
   -4.2970    1.6630   14.6070 C   0  0  0  0  0  0  0  0  0  0  0  0
   -5.1810    2.0520   15.6150 C   0  0  0  0  0  0  0  0  0  0  0  0
   -5.8060    0.7420   16.6810 S   0  0  0  0  0  0  0  0  0  0  0  0
   -5.0160   -0.7010   16.1160 N   0  0  0  0  0  0  0  0  0  0  0  0
   -7.3500    0.8130   16.6030 O   0  0  0  0  0  0  0  0  0  0  0  0
   -3.6260    5.1210   13.1820 C   0  0  0  0  0  0  0  0  0  0  0  0
   -4.3210    6.1050   12.9000 O   0  0  0  0  0  0  0  0  0  0  0  0
   -2.1900    4.9960   12.7940 C   0  0  0  0  0  0  0  0  0  0  0  0
   -1.8940    6.3250   11.5900 S   0  0  0  0  0  0  0  0  0  0  0  0
   -1.5180    7.5830   12.7890 C   0  0  0  0  0  0  0  0  0  0  0  0
   -1.3100    8.8320   12.2590 N   0  0  0  0  0  0  0  0  0  0  0  0
   -1.0340    9.8540   13.1400 C   0  0  0  0  0  0  0  0  0  0  0  0
   -0.9450    9.6070   14.5300 C   0  0  0  0  0  0  0  0  0  0  0  0
   -1.4610    7.3290   14.1490 N   0  0  0  0  0  0  0  0  0  0  0  0
   -1.0800    8.1450   16.0360 H   0  0  0  0  0  0  0  0  0  0  0  0
   -5.3880    5.3920   15.1120 H   0  0  0  0  0  0  0  0  0  0  0  0
   -3.1350    2.4550   13.0180 H   0  0  0  0  0  0  0  0  0  0  0  0
   -4.0300    0.6750   14.4720 H   0  0  0  0  0  0  0  0  0  0  0  0
   -5.3130   -0.9000   15.1610 H   0  0  0  0  0  0  0  0  0  0  0  0
   -5.2390   -1.4880   16.7260 H   0  0  0  0  0  0  0  0  0  0  0  0
   -1.5520    5.1030   13.6470 H   0  0  0  0  0  0  0  0  0  0  0  0
   -1.9760    4.0330   12.3790 H   0  0  0  0  0  0  0  0  0  0  0  0
   -0.8900   10.8110   12.7820 H   0  0  0  0  0  0  0  0  0  0  0  0
   -0.7230   10.3800   15.1770 H   0  0  0  0  0  0  0  0  0  0  0  0
  2 22  1  0  0  0  0
  3  6  1  0  0  0  0
  4  5  1  0  0  0  0
  6 23  1  0  0  0  0
  6  4  2  0  0  0  0
  7  3  2  0  0  0  0
  7  8  1  0  0  0  0
  8  9  2  0  0  0  0
  9  4  1  0  0  0  0
  9 10  1  0  0  0  0
 10  1  2  0  0  0  0
 11 10  1  0  0  0  0
 11 27  1  0  0  0  0
 12 10  2  0  0  0  0
 13  3  1  0  0  0  0
 14 13  2  0  0  0  0
 15 13  1  0  0  0  0
 15 28  1  0  0  0  0
 16 17  1  0  0  0  0
 16 15  1  0  0  0  0
 17 21  1  0  0  0  0
 18 17  2  0  0  0  0
 18 19  1  0  0  0  0
 19 20  2  0  0  0  0
 20  2  1  0  0  0  0
 20 31  1  0  0  0  0
 21  2  2  0  0  0  0
 24  7  1  0  0  0  0
 25  8  1  0  0  0  0
 26 11  1  0  0  0  0
 29 15  1  0  0  0  0
 30 19  1  0  0  0  0
M  END