3a_fix.pdb
 OpenBabel09161415133D

 35 36  0  0  0  0  0  0  0  0999 V2000
   -0.7820    4.8110   10.2340 N   0  0  0  0  0  0  0  0  0  0  0  0
   -1.4970    4.1470   11.1600 C   0  0  0  0  0  0  0  0  0  0  0  0
   -1.8740    4.6520   12.3470 N   0  0  0  0  0  0  0  0  0  0  0  0
   -1.5240    5.9260   12.5440 C   0  0  0  0  0  0  0  0  0  0  0  0
   -0.8170    6.7100   11.6730 C   0  0  0  0  0  0  0  0  0  0  0  0
   -0.4490    6.0910   10.5010 C   0  0  0  0  0  0  0  0  0  0  0  0
   -1.9110    2.4670   10.7550 S   0  0  0  0  0  0  0  0  0  0  0  0
   -3.0280    2.0470   12.1200 C   0  0  0  0  0  0  0  0  0  0  0  0
   -4.2670    2.9220   12.1590 C   0  0  0  0  0  0  0  0  0  0  0  0
   -4.7730    3.4720   11.1850 O   0  0  0  0  0  0  0  0  0  0  0  0
   -1.9320    6.4430   13.7330 O   0  0  0  0  0  0  0  0  0  0  0  0
    0.3440    6.8290    9.4660 C   0  0  0  0  0  0  0  0  0  0  0  0
   -4.9190    3.1090   13.4810 C   0  0  0  0  0  0  0  0  0  0  0  0
   -5.0710    2.0430   14.3740 C   0  0  0  0  0  0  0  0  0  0  0  0
   -5.7030    2.2550   15.6100 C   0  0  0  0  0  0  0  0  0  0  0  0
   -6.1590    3.5300   15.9600 C   0  0  0  0  0  0  0  0  0  0  0  0
   -6.0080    4.5870   15.0540 C   0  0  0  0  0  0  0  0  0  0  0  0
   -5.4020    4.3770   13.8140 C   0  0  0  0  0  0  0  0  0  0  0  0
   -5.9550    0.9030   16.7140 S   0  0  0  0  0  0  0  0  0  0  0  0
   -7.3680    0.7380   16.9500 O   0  0  0  0  0  0  0  0  0  0  0  0
   -4.9660    0.9800   17.7620 O   0  0  0  0  0  0  0  0  0  0  0  0
   -5.5290   -0.4630   15.8180 N   0  0  0  0  0  0  0  0  0  0  0  0
   -0.5680    7.7370   11.9000 H   0  0  0  0  0  0  0  0  0  0  0  0
   -2.4750    2.1180   13.0630 H   0  0  0  0  0  0  0  0  0  0  0  0
   -3.3490    1.0090   11.9870 H   0  0  0  0  0  0  0  0  0  0  0  0
    0.5760    6.1790    8.6160 H   0  0  0  0  0  0  0  0  0  0  0  0
    1.2890    7.1800    9.8920 H   0  0  0  0  0  0  0  0  0  0  0  0
   -0.2250    7.6870    9.0940 H   0  0  0  0  0  0  0  0  0  0  0  0
   -4.7240    1.0510   14.0970 H   0  0  0  0  0  0  0  0  0  0  0  0
   -5.3040    5.2030   13.1110 H   0  0  0  0  0  0  0  0  0  0  0  0
   -6.3590   -1.0520   15.7150 H   0  0  0  0  0  0  0  0  0  0  0  0
   -4.7670   -0.9450   16.3010 H   0  0  0  0  0  0  0  0  0  0  0  0
   -2.3790    5.6760   14.1300 H   0  0  0  0  0  0  0  0  0  0  0  0
   -6.3680    5.5830   15.3070 H   0  0  0  0  0  0  0  0  0  0  0  0
   -6.6030    3.6900   16.8780 H   0  0  0  0  0  0  0  0  0  0  0  0
  1  6  2  0  0  0  0
  1  2  1  0  0  0  0
  2  3  2  0  0  0  0
  3  4  1  0  0  0  0
  4 11  1  0  0  0  0
  5 23  1  0  0  0  0
  5  4  2  0  0  0  0
  6  5  1  0  0  0  0
  7  2  1  0  0  0  0
  7  8  1  0  0  0  0
  8  9  1  0  0  0  0
  8 24  1  0  0  0  0
  9 13  1  0  0  0  0
 10  9  2  0  0  0  0
 11 33  1  0  0  0  0
 12 27  1  0  0  0  0
 12  6  1  0  0  0  0
 13 18  2  0  0  0  0
 13 14  1  0  0  0  0
 14 15  2  0  0  0  0
 15 16  1  0  0  0  0
 15 19  1  0  0  0  0
 16 35  1  0  0  0  0
 17 34  1  0  0  0  0
 17 16  2  0  0  0  0
 18 17  1  0  0  0  0
 19 20  2  0  0  0  0
 19 21  2  0  0  0  0
 22 32  1  0  0  0  0
 22 19  1  0  0  0  0
 25  8  1  0  0  0  0
 26 12  1  0  0  0  0
 28 12  1  0  0  0  0
 29 14  1  0  0  0  0
 30 18  1  0  0  0  0
 31 22  1  0  0  0  0
M  END