3c_fix.pdb
 OpenBabel09161415133D

 41 42  0  0  0  0  0  0  0  0999 V2000
   -0.8560    4.7670   10.2770 N   0  0  0  0  0  0  0  0  0  0  0  0
   -1.5300    4.0750   11.2140 C   0  0  0  0  0  0  0  0  0  0  0  0
   -1.9150    4.5670   12.4030 N   0  0  0  0  0  0  0  0  0  0  0  0
   -1.6280    5.8580   12.5880 C   0  0  0  0  0  0  0  0  0  0  0  0
   -0.9760    6.6730   11.7000 C   0  0  0  0  0  0  0  0  0  0  0  0
   -0.5880    6.0650   10.5280 C   0  0  0  0  0  0  0  0  0  0  0  0
   -1.8850    2.3790   10.8180 S   0  0  0  0  0  0  0  0  0  0  0  0
   -3.0360    1.9480   12.1510 C   0  0  0  0  0  0  0  0  0  0  0  0
   -4.2830    2.8150   12.1590 C   0  0  0  0  0  0  0  0  0  0  0  0
   -4.7860    3.3320   11.1650 O   0  0  0  0  0  0  0  0  0  0  0  0
   -2.0400    6.3590   13.7820 O   0  0  0  0  0  0  0  0  0  0  0  0
    0.1630    6.8290    9.4670 C   0  0  0  0  0  0  0  0  0  0  0  0
   -4.9420    3.0360   13.4710 C   0  0  0  0  0  0  0  0  0  0  0  0
   -5.0880    1.9970   14.3960 C   0  0  0  0  0  0  0  0  0  0  0  0
   -5.7170    2.2440   15.6280 C   0  0  0  0  0  0  0  0  0  0  0  0
   -6.1740    3.5280   15.9420 C   0  0  0  0  0  0  0  0  0  0  0  0
   -6.0340    4.5570   15.0020 C   0  0  0  0  0  0  0  0  0  0  0  0
   -5.4330    4.3110   13.7660 C   0  0  0  0  0  0  0  0  0  0  0  0
   -5.9530    0.9210   16.7690 S   0  0  0  0  0  0  0  0  0  0  0  0
   -7.3540    0.8140   17.1000 O   0  0  0  0  0  0  0  0  0  0  0  0
   -4.8960    0.9730   17.7500 O   0  0  0  0  0  0  0  0  0  0  0  0
   -5.6450   -0.4730   15.8690 N   0  0  0  0  0  0  0  0  0  0  0  0
   -0.7800    7.7120   11.9200 H   0  0  0  0  0  0  0  0  0  0  0  0
   -2.5080    2.0220   13.1080 H   0  0  0  0  0  0  0  0  0  0  0  0
   -3.3470    0.9080   12.0110 H   0  0  0  0  0  0  0  0  0  0  0  0
    0.2090    6.2220    8.5550 H   0  0  0  0  0  0  0  0  0  0  0  0
    1.5820    7.1930    9.9090 C   0  0  0  0  0  0  0  0  0  0  0  0
   -0.4020    7.7340    9.2110 H   0  0  0  0  0  0  0  0  0  0  0  0
   -4.7350    1.0000   14.1500 H   0  0  0  0  0  0  0  0  0  0  0  0
   -5.3390    5.1170   13.0380 H   0  0  0  0  0  0  0  0  0  0  0  0
   -6.5070   -1.0230   15.8220 H   0  0  0  0  0  0  0  0  0  0  0  0
   -4.8780   -0.9860   16.3100 H   0  0  0  0  0  0  0  0  0  0  0  0
   -2.4270    5.5690   14.1960 H   0  0  0  0  0  0  0  0  0  0  0  0
    2.1290    6.2890   10.2030 H   0  0  0  0  0  0  0  0  0  0  0  0
    1.5500    7.8450   10.7910 H   0  0  0  0  0  0  0  0  0  0  0  0
    2.3450    7.9020    8.8010 C   0  0  0  0  0  0  0  0  0  0  0  0
    2.4530    7.2560    7.9240 H   0  0  0  0  0  0  0  0  0  0  0  0
    3.3470    8.1760    9.1470 H   0  0  0  0  0  0  0  0  0  0  0  0
    1.8300    8.8180    8.4930 H   0  0  0  0  0  0  0  0  0  0  0  0
   -6.3950    5.5590   15.2270 H   0  0  0  0  0  0  0  0  0  0  0  0
   -6.6100    3.7160   16.8580 H   0  0  0  0  0  0  0  0  0  0  0  0
  1  6  2  0  0  0  0
  1  2  1  0  0  0  0
  2  3  2  0  0  0  0
  3  4  1  0  0  0  0
  4 11  1  0  0  0  0
  5 23  1  0  0  0  0
  5  4  2  0  0  0  0
  6  5  1  0  0  0  0
  7  2  1  0  0  0  0
  7  8  1  0  0  0  0
  8  9  1  0  0  0  0
  8 24  1  0  0  0  0
  9 13  1  0  0  0  0
 10  9  2  0  0  0  0
 11 33  1  0  0  0  0
 12 27  1  0  0  0  0
 12  6  1  0  0  0  0
 13 18  2  0  0  0  0
 13 14  1  0  0  0  0
 14 15  2  0  0  0  0
 15 16  1  0  0  0  0
 15 19  1  0  0  0  0
 16 41  1  0  0  0  0
 17 40  1  0  0  0  0
 17 16  2  0  0  0  0
 18 17  1  0  0  0  0
 19 20  2  0  0  0  0
 19 21  2  0  0  0  0
 22 32  1  0  0  0  0
 22 19  1  0  0  0  0
 25  8  1  0  0  0  0
 26 12  1  0  0  0  0
 27 34  1  0  0  0  0
 27 35  1  0  0  0  0
 28 12  1  0  0  0  0
 29 14  1  0  0  0  0
 30 18  1  0  0  0  0
 31 22  1  0  0  0  0
 36 38  1  0  0  0  0
 36 27  1  0  0  0  0
 37 36  1  0  0  0  0
 39 36  1  0  0  0  0
M  END