3d_fix.pdb
 OpenBabel09161415133D

 44 45  0  0  0  0  0  0  0  0999 V2000
   -0.7960    4.7760   10.2940 N   0  0  0  0  0  0  0  0  0  0  0  0
   -1.5100    4.1000   11.2130 C   0  0  0  0  0  0  0  0  0  0  0  0
   -1.8900    4.5900   12.4020 N   0  0  0  0  0  0  0  0  0  0  0  0
   -1.5470    5.8630   12.6060 C   0  0  0  0  0  0  0  0  0  0  0  0
   -0.8420    6.6570   11.7390 C   0  0  0  0  0  0  0  0  0  0  0  0
   -0.4590    6.0580   10.5560 C   0  0  0  0  0  0  0  0  0  0  0  0
   -1.9120    2.4210   10.7900 S   0  0  0  0  0  0  0  0  0  0  0  0
   -3.0500    1.9910   12.1350 C   0  0  0  0  0  0  0  0  0  0  0  0
   -4.2890    2.8670   12.1600 C   0  0  0  0  0  0  0  0  0  0  0  0
   -4.7910    3.4040   11.1760 O   0  0  0  0  0  0  0  0  0  0  0  0
   -1.9550    6.3710   13.7990 O   0  0  0  0  0  0  0  0  0  0  0  0
    0.3520    6.8170    9.5000 C   0  0  0  0  0  0  0  0  0  0  0  0
   -4.9430    3.0730   13.4780 C   0  0  0  0  0  0  0  0  0  0  0  0
   -5.0840    2.0240   14.3920 C   0  0  0  0  0  0  0  0  0  0  0  0
   -5.7120    2.2560   15.6270 C   0  0  0  0  0  0  0  0  0  0  0  0
   -6.1720    3.5350   15.9550 C   0  0  0  0  0  0  0  0  0  0  0  0
   -6.0360    4.5740   15.0270 C   0  0  0  0  0  0  0  0  0  0  0  0
   -5.4360    4.3430   13.7870 C   0  0  0  0  0  0  0  0  0  0  0  0
   -5.9440    0.9200   16.7560 S   0  0  0  0  0  0  0  0  0  0  0  0
   -7.3440    0.8020   17.0800 O   0  0  0  0  0  0  0  0  0  0  0  0
   -4.8900    0.9700   17.7400 O   0  0  0  0  0  0  0  0  0  0  0  0
   -5.6230   -0.4630   15.8440 N   0  0  0  0  0  0  0  0  0  0  0  0
   -0.6080    7.6820   11.9880 H   0  0  0  0  0  0  0  0  0  0  0  0
   -2.5110    2.0540   13.0860 H   0  0  0  0  0  0  0  0  0  0  0  0
   -3.3710    0.9540   11.9900 H   0  0  0  0  0  0  0  0  0  0  0  0
    0.7240    5.9060    8.3080 C   0  0  0  0  0  0  0  0  0  0  0  0
    1.6660    7.3430   10.1130 C   0  0  0  0  0  0  0  0  0  0  0  0
   -0.4730    7.9980    8.9560 C   0  0  0  0  0  0  0  0  0  0  0  0
   -4.7290    1.0300   14.1360 H   0  0  0  0  0  0  0  0  0  0  0  0
   -5.3460    5.1570   13.0680 H   0  0  0  0  0  0  0  0  0  0  0  0
   -6.4810   -1.0180   15.7900 H   0  0  0  0  0  0  0  0  0  0  0  0
   -4.8550   -0.9750   16.2830 H   0  0  0  0  0  0  0  0  0  0  0  0
   -2.3930    5.5970   14.1940 H   0  0  0  0  0  0  0  0  0  0  0  0
    1.3240    5.0470    8.6320 H   0  0  0  0  0  0  0  0  0  0  0  0
    1.3100    6.4530    7.5600 H   0  0  0  0  0  0  0  0  0  0  0  0
   -0.1690    5.5190    7.8040 H   0  0  0  0  0  0  0  0  0  0  0  0
    2.2580    6.5260   10.5410 H   0  0  0  0  0  0  0  0  0  0  0  0
    1.4850    8.0710   10.9110 H   0  0  0  0  0  0  0  0  0  0  0  0
    2.2820    7.8420    9.3560 H   0  0  0  0  0  0  0  0  0  0  0  0
   -1.4210    7.6540    8.5270 H   0  0  0  0  0  0  0  0  0  0  0  0
    0.0740    8.5330    8.1710 H   0  0  0  0  0  0  0  0  0  0  0  0
   -0.7110    8.7260    9.7390 H   0  0  0  0  0  0  0  0  0  0  0  0
   -6.4010    5.5730   15.2620 H   0  0  0  0  0  0  0  0  0  0  0  0
   -6.6080    3.7110   16.8740 H   0  0  0  0  0  0  0  0  0  0  0  0
  1  6  2  0  0  0  0
  1  2  1  0  0  0  0
  2  3  2  0  0  0  0
  3  4  1  0  0  0  0
  4 11  1  0  0  0  0
  5 23  1  0  0  0  0
  5  4  2  0  0  0  0
  6  5  1  0  0  0  0
  7  2  1  0  0  0  0
  7  8  1  0  0  0  0
  8  9  1  0  0  0  0
  8 24  1  0  0  0  0
  9 13  1  0  0  0  0
 10  9  2  0  0  0  0
 11 33  1  0  0  0  0
 12 27  1  0  0  0  0
 12  6  1  0  0  0  0
 13 18  2  0  0  0  0
 13 14  1  0  0  0  0
 14 15  2  0  0  0  0
 15 16  1  0  0  0  0
 15 19  1  0  0  0  0
 16 44  1  0  0  0  0
 17 43  1  0  0  0  0
 17 16  2  0  0  0  0
 18 17  1  0  0  0  0
 19 20  2  0  0  0  0
 19 21  2  0  0  0  0
 22 32  1  0  0  0  0
 22 19  1  0  0  0  0
 25  8  1  0  0  0  0
 26 34  1  0  0  0  0
 26 12  1  0  0  0  0
 27 37  1  0  0  0  0
 27 38  1  0  0  0  0
 28 12  1  0  0  0  0
 28 42  1  0  0  0  0
 29 14  1  0  0  0  0
 30 18  1  0  0  0  0
 31 22  1  0  0  0  0
 35 26  1  0  0  0  0
 36 26  1  0  0  0  0
 39 27  1  0  0  0  0
 40 28  1  0  0  0  0
 41 28  1  0  0  0  0
M  END