3f_fix.pdb
 OpenBabel09161415133D

 37 38  0  0  0  0  0  0  0  0999 V2000
   -0.7780    4.7830   10.2050 N   0  0  0  0  0  0  0  0  0  0  0  0
   -1.5260    4.1500   11.1230 C   0  0  0  0  0  0  0  0  0  0  0  0
   -1.9260    4.6870   12.2900 N   0  0  0  0  0  0  0  0  0  0  0  0
   -1.5840    5.9740   12.5140 C   0  0  0  0  0  0  0  0  0  0  0  0
   -0.8380    6.7090   11.6140 C   0  0  0  0  0  0  0  0  0  0  0  0
   -0.4420    6.0610   10.4620 C   0  0  0  0  0  0  0  0  0  0  0  0
   -1.9710    2.4740   10.7360 S   0  0  0  0  0  0  0  0  0  0  0  0
   -3.0650    2.0810   12.1260 C   0  0  0  0  0  0  0  0  0  0  0  0
   -4.3030    2.9580   12.1760 C   0  0  0  0  0  0  0  0  0  0  0  0
   -4.8240    3.5010   11.2060 O   0  0  0  0  0  0  0  0  0  0  0  0
   -2.0860    6.5950   13.7820 C   0  0  0  0  0  0  0  0  0  0  0  0
    0.3850    6.7730    9.4350 C   0  0  0  0  0  0  0  0  0  0  0  0
   -4.9460    3.1360   13.5020 C   0  0  0  0  0  0  0  0  0  0  0  0
   -5.1150    2.0580   14.3770 C   0  0  0  0  0  0  0  0  0  0  0  0
   -5.7530    2.2580   15.6120 C   0  0  0  0  0  0  0  0  0  0  0  0
   -6.1980    3.5320   15.9790 C   0  0  0  0  0  0  0  0  0  0  0  0
   -6.0250    4.6030   15.0930 C   0  0  0  0  0  0  0  0  0  0  0  0
   -5.4150    4.4040   13.8530 C   0  0  0  0  0  0  0  0  0  0  0  0
   -6.0340    0.8940   16.6920 S   0  0  0  0  0  0  0  0  0  0  0  0
   -7.4540    0.6540   16.7810 O   0  0  0  0  0  0  0  0  0  0  0  0
   -5.1670    1.0230   17.8380 O   0  0  0  0  0  0  0  0  0  0  0  0
   -5.4360   -0.4460   15.8580 N   0  0  0  0  0  0  0  0  0  0  0  0
   -0.5740    7.7430   11.7980 H   0  0  0  0  0  0  0  0  0  0  0  0
   -2.4970    2.1600   13.0590 H   0  0  0  0  0  0  0  0  0  0  0  0
   -3.3920    1.0430   12.0110 H   0  0  0  0  0  0  0  0  0  0  0  0
   -1.6600    7.5910   13.9420 H   0  0  0  0  0  0  0  0  0  0  0  0
   -1.8160    5.9690   14.6380 H   0  0  0  0  0  0  0  0  0  0  0  0
   -3.1750    6.6920   13.7410 H   0  0  0  0  0  0  0  0  0  0  0  0
    0.6320    6.1070    8.6020 H   0  0  0  0  0  0  0  0  0  0  0  0
    1.3220    7.1230    9.8800 H   0  0  0  0  0  0  0  0  0  0  0  0
   -0.1650    7.6310    9.0350 H   0  0  0  0  0  0  0  0  0  0  0  0
   -4.7820    1.0670   14.0830 H   0  0  0  0  0  0  0  0  0  0  0  0
   -5.3000    5.2390   13.1630 H   0  0  0  0  0  0  0  0  0  0  0  0
   -6.2110   -1.0900   15.6820 H   0  0  0  0  0  0  0  0  0  0  0  0
   -4.6920   -0.8710   16.4170 H   0  0  0  0  0  0  0  0  0  0  0  0
   -6.3750    5.5990   15.3600 H   0  0  0  0  0  0  0  0  0  0  0  0
   -6.6500    3.6820   16.8950 H   0  0  0  0  0  0  0  0  0  0  0  0
  1  6  2  0  0  0  0
  1  2  1  0  0  0  0
  2  3  2  0  0  0  0
  3  4  1  0  0  0  0
  4 11  1  0  0  0  0
  5 23  1  0  0  0  0
  5  4  2  0  0  0  0
  6  5  1  0  0  0  0
  7  2  1  0  0  0  0
  7  8  1  0  0  0  0
  8  9  1  0  0  0  0
  8 24  1  0  0  0  0
  9 13  1  0  0  0  0
 10  9  2  0  0  0  0
 11 26  1  0  0  0  0
 11 27  1  0  0  0  0
 12 30  1  0  0  0  0
 12  6  1  0  0  0  0
 13 18  2  0  0  0  0
 13 14  1  0  0  0  0
 14 15  2  0  0  0  0
 15 16  1  0  0  0  0
 15 19  1  0  0  0  0
 16 37  1  0  0  0  0
 17 36  1  0  0  0  0
 17 16  2  0  0  0  0
 18 17  1  0  0  0  0
 19 20  2  0  0  0  0
 19 21  2  0  0  0  0
 22 35  1  0  0  0  0
 22 19  1  0  0  0  0
 25  8  1  0  0  0  0
 28 11  1  0  0  0  0
 29 12  1  0  0  0  0
 31 12  1  0  0  0  0
 32 14  1  0  0  0  0
 33 18  1  0  0  0  0
 34 22  1  0  0  0  0
M  END