3g_fix.pdb
 OpenBabel09161415133D

 37 38  0  0  0  0  0  0  0  0999 V2000
   -0.4910    4.8960   11.1950 N   0  0  0  0  0  0  0  0  0  0  0  0
   -1.4110    4.1500   11.7850 C   0  0  0  0  0  0  0  0  0  0  0  0
   -2.0900    4.5660   12.8890 N   0  0  0  0  0  0  0  0  0  0  0  0
   -1.8940    5.8070   13.4560 C   0  0  0  0  0  0  0  0  0  0  0  0
   -0.9270    6.6330   12.8910 C   0  0  0  0  0  0  0  0  0  0  0  0
   -0.2560    6.1370   11.7460 C   0  0  0  0  0  0  0  0  0  0  0  0
   -1.7110    2.5940   11.0480 S   0  0  0  0  0  0  0  0  0  0  0  0
   -2.9990    1.9780   12.1560 C   0  0  0  0  0  0  0  0  0  0  0  0
   -4.1790    2.9210   12.2730 C   0  0  0  0  0  0  0  0  0  0  0  0
   -4.5440    3.5820   11.2440 O   0  0  0  0  0  0  0  0  0  0  0  0
   -0.5940    8.0310   13.4070 C   0  0  0  0  0  0  0  0  0  0  0  0
   -1.2990    8.3380   14.7670 C   0  0  0  0  0  0  0  0  0  0  0  0
   -4.8570    3.0830   13.6290 C   0  0  0  0  0  0  0  0  0  0  0  0
   -4.9810    2.0570   14.5510 C   0  0  0  0  0  0  0  0  0  0  0  0
   -5.6200    2.2540   15.7720 C   0  0  0  0  0  0  0  0  0  0  0  0
   -6.0780    3.5460   16.0670 C   0  0  0  0  0  0  0  0  0  0  0  0
   -5.9080    4.5950   15.2060 C   0  0  0  0  0  0  0  0  0  0  0  0
   -5.3010    4.3680   13.9620 C   0  0  0  0  0  0  0  0  0  0  0  0
   -5.9820    0.8130   16.8060 S   0  0  0  0  0  0  0  0  0  0  0  0
   -5.3400    1.0550   18.0790 O   0  0  0  0  0  0  0  0  0  0  0  0
   -7.4370    0.7700   16.7900 O   0  0  0  0  0  0  0  0  0  0  0  0
   -5.4280   -0.4780   16.0830 N   0  0  0  0  0  0  0  0  0  0  0  0
   -2.4460    6.1130   14.2720 H   0  0  0  0  0  0  0  0  0  0  0  0
    0.4510    6.7410   11.2980 H   0  0  0  0  0  0  0  0  0  0  0  0
   -2.5840    1.7990   13.1260 H   0  0  0  0  0  0  0  0  0  0  0  0
   -3.3670    1.0670   11.7320 H   0  0  0  0  0  0  0  0  0  0  0  0
   -0.8760    8.7630   12.6790 H   0  0  0  0  0  0  0  0  0  0  0  0
    0.4620    8.0710   13.5740 H   0  0  0  0  0  0  0  0  0  0  0  0
   -2.3600    8.3060   14.6340 H   0  0  0  0  0  0  0  0  0  0  0  0
   -1.0000    9.2990   15.1310 H   0  0  0  0  0  0  0  0  0  0  0  0
   -1.0120    7.6000   15.4860 H   0  0  0  0  0  0  0  0  0  0  0  0
   -4.5920    1.1280   14.3280 H   0  0  0  0  0  0  0  0  0  0  0  0
   -6.2230    5.5420   15.4680 H   0  0  0  0  0  0  0  0  0  0  0  0
   -5.1820    5.1460   13.2940 H   0  0  0  0  0  0  0  0  0  0  0  0
   -5.9110   -0.6040   15.1930 H   0  0  0  0  0  0  0  0  0  0  0  0
   -5.5590   -1.2980   16.6750 H   0  0  0  0  0  0  0  0  0  0  0  0
   -6.5600    3.7110   16.9650 H   0  0  0  0  0  0  0  0  0  0  0  0
  1  6  2  0  0  0  0
  1  2  1  0  0  0  0
  2  3  2  0  0  0  0
  3  4  1  0  0  0  0
  4 23  1  0  0  0  0
  5 11  1  0  0  0  0
  5  4  2  0  0  0  0
  6  5  1  0  0  0  0
  7  2  1  0  0  0  0
  7  8  1  0  0  0  0
  8  9  1  0  0  0  0
  8 25  1  0  0  0  0
  9 13  1  0  0  0  0
 10  9  2  0  0  0  0
 11 28  1  0  0  0  0
 11 12  1  0  0  0  0
 12 30  1  0  0  0  0
 12 31  1  0  0  0  0
 13 18  2  0  0  0  0
 13 14  1  0  0  0  0
 14 15  2  0  0  0  0
 15 16  1  0  0  0  0
 15 19  1  0  0  0  0
 16 37  1  0  0  0  0
 17 33  1  0  0  0  0
 17 16  2  0  0  0  0
 18 17  1  0  0  0  0
 19 20  2  0  0  0  0
 21 19  2  0  0  0  0
 22 36  1  0  0  0  0
 22 19  1  0  0  0  0
 24  6  1  0  0  0  0
 26  8  1  0  0  0  0
 27 11  1  0  0  0  0
 29 12  1  0  0  0  0
 32 14  1  0  0  0  0
 34 18  1  0  0  0  0
 35 22  1  0  0  0  0
M  END