4b_fix.pdb
 OpenBabel09161415133D

 48 50  0  0  0  0  0  0  0  0999 V2000
   -1.8190    4.4100    9.7490 N   0  0  0  0  0  0  0  0  0  0  0  0
   -1.9660    3.6670   10.8550 C   0  0  0  0  0  0  0  0  0  0  0  0
   -1.7950    4.1130   12.1080 N   0  0  0  0  0  0  0  0  0  0  0  0
   -1.4620    5.4060   12.1990 C   0  0  0  0  0  0  0  0  0  0  0  0
   -1.2980    6.2840   11.1480 C   0  0  0  0  0  0  0  0  0  0  0  0
   -1.5050    5.7160    9.9010 C   0  0  0  0  0  0  0  0  0  0  0  0
   -2.3580    1.9520   10.6110 S   0  0  0  0  0  0  0  0  0  0  0  0
   -3.3820    1.6540   12.0780 C   0  0  0  0  0  0  0  0  0  0  0  0
   -4.5730    2.5920   12.1590 C   0  0  0  0  0  0  0  0  0  0  0  0
   -5.1170    3.1210   11.1940 O   0  0  0  0  0  0  0  0  0  0  0  0
   -1.2920    5.8210   13.4830 O   0  0  0  0  0  0  0  0  0  0  0  0
   -1.3720    6.4980    8.6260 C   0  0  0  0  0  0  0  0  0  0  0  0
   -5.1250    2.8780   13.5080 C   0  0  0  0  0  0  0  0  0  0  0  0
   -5.2360    1.8790   14.4810 C   0  0  0  0  0  0  0  0  0  0  0  0
   -5.7770    2.1910   15.7400 C   0  0  0  0  0  0  0  0  0  0  0  0
   -6.1790    3.4970   16.0320 C   0  0  0  0  0  0  0  0  0  0  0  0
   -6.0750    4.4850   15.0460 C   0  0  0  0  0  0  0  0  0  0  0  0
   -5.5620    4.1760   13.7850 C   0  0  0  0  0  0  0  0  0  0  0  0
   -5.9740    0.9160   16.9440 S   0  0  0  0  0  0  0  0  0  0  0  0
   -7.3380    0.8950   17.4110 O   0  0  0  0  0  0  0  0  0  0  0  0
   -4.8240    0.9360   17.8160 O   0  0  0  0  0  0  0  0  0  0  0  0
   -5.8320   -0.5170   16.0630 N   0  0  0  0  0  0  0  0  0  0  0  0
   -6.7750    3.9970   17.5720 Cl  0  0  0  0  0  0  0  0  0  0  0  0
   -0.8980    7.7170   11.3630 C   0  0  0  0  0  0  0  0  0  0  0  0
   -2.7570    1.7490   12.9710 H   0  0  0  0  0  0  0  0  0  0  0  0
   -3.7580    0.6270   12.0270 H   0  0  0  0  0  0  0  0  0  0  0  0
   -1.6550    5.8830    7.7640 H   0  0  0  0  0  0  0  0  0  0  0  0
   -0.3380    6.8210    8.4780 H   0  0  0  0  0  0  0  0  0  0  0  0
   -2.0310    7.3710    8.6350 H   0  0  0  0  0  0  0  0  0  0  0  0
   -4.9270    0.8630   14.2540 H   0  0  0  0  0  0  0  0  0  0  0  0
   -5.4950    4.9510   13.0220 H   0  0  0  0  0  0  0  0  0  0  0  0
   -6.7250   -1.0150   16.1160 H   0  0  0  0  0  0  0  0  0  0  0  0
   -5.0580   -1.0640   16.4490 H   0  0  0  0  0  0  0  0  0  0  0  0
   -1.4010    4.9850   13.9680 H   0  0  0  0  0  0  0  0  0  0  0  0
   -1.3370    8.0610   12.3100 H   0  0  0  0  0  0  0  0  0  0  0  0
   -1.3650    8.3480   10.5960 H   0  0  0  0  0  0  0  0  0  0  0  0
    0.5870    8.0300   11.3800 C   0  0  0  0  0  0  0  0  0  0  0  0
    0.9970    9.2670   11.9080 C   0  0  0  0  0  0  0  0  0  0  0  0
    1.5670    7.1840   10.8410 C   0  0  0  0  0  0  0  0  0  0  0  0
    2.3430    9.6410   11.9050 C   0  0  0  0  0  0  0  0  0  0  0  0
    2.9130    7.5600   10.8360 C   0  0  0  0  0  0  0  0  0  0  0  0
    3.3010    8.7870   11.3670 C   0  0  0  0  0  0  0  0  0  0  0  0
    1.3080    6.2190   10.4130 H   0  0  0  0  0  0  0  0  0  0  0  0
    3.6590    6.8920   10.4120 H   0  0  0  0  0  0  0  0  0  0  0  0
    4.3480    9.0770   11.3590 H   0  0  0  0  0  0  0  0  0  0  0  0
    0.2640    9.9550   12.3260 H   0  0  0  0  0  0  0  0  0  0  0  0
    2.6410   10.6000   12.3190 H   0  0  0  0  0  0  0  0  0  0  0  0
   -6.3940    5.5060   15.2530 H   0  0  0  0  0  0  0  0  0  0  0  0
  1  6  2  0  0  0  0
  1  2  1  0  0  0  0
  2  3  2  0  0  0  0
  3  4  1  0  0  0  0
  4 11  1  0  0  0  0
  5 24  1  0  0  0  0
  5  4  2  0  0  0  0
  6  5  1  0  0  0  0
  7  2  1  0  0  0  0
  7  8  1  0  0  0  0
  8  9  1  0  0  0  0
  8 25  1  0  0  0  0
  9 13  1  0  0  0  0
 10  9  2  0  0  0  0
 11 34  1  0  0  0  0
 12 29  1  0  0  0  0
 12  6  1  0  0  0  0
 13 18  2  0  0  0  0
 13 14  1  0  0  0  0
 14 15  2  0  0  0  0
 15 16  1  0  0  0  0
 15 19  1  0  0  0  0
 16 23  1  0  0  0  0
 17 48  1  0  0  0  0
 17 16  2  0  0  0  0
 18 17  1  0  0  0  0
 19 20  2  0  0  0  0
 19 21  2  0  0  0  0
 22 32  1  0  0  0  0
 22 33  1  0  0  0  0
 22 19  1  0  0  0  0
 24 37  1  0  0  0  0
 24 35  1  0  0  0  0
 26  8  1  0  0  0  0
 27 12  1  0  0  0  0
 28 12  1  0  0  0  0
 30 14  1  0  0  0  0
 31 18  1  0  0  0  0
 36 24  1  0  0  0  0
 37 38  2  0  0  0  0
 38 46  1  0  0  0  0
 39 37  1  0  0  0  0
 40 38  1  0  0  0  0
 40 47  1  0  0  0  0
 41 39  2  0  0  0  0
 41 42  1  0  0  0  0
 42 40  2  0  0  0  0
 43 39  1  0  0  0  0
 44 41  1  0  0  0  0
 45 42  1  0  0  0  0
M  END