4j_fix.pdb
 OpenBabel09161415133D

 31 32  0  0  0  0  0  0  0  0999 V2000
   -0.8520    4.7990   10.1710 N   0  0  0  0  0  0  0  0  0  0  0  0
   -1.5310    4.1240   11.1130 C   0  0  0  0  0  0  0  0  0  0  0  0
   -1.8600    4.6190   12.3220 N   0  0  0  0  0  0  0  0  0  0  0  0
   -1.5100    5.8990   12.5540 C   0  0  0  0  0  0  0  0  0  0  0  0
   -0.8340    6.6810   11.6490 C   0  0  0  0  0  0  0  0  0  0  0  0
   -0.5200    6.0690   10.4600 C   0  0  0  0  0  0  0  0  0  0  0  0
   -1.9740    2.4520   10.7100 S   0  0  0  0  0  0  0  0  0  0  0  0
   -3.0740    2.0520   12.0960 C   0  0  0  0  0  0  0  0  0  0  0  0
   -4.2920    2.9570   12.1640 C   0  0  0  0  0  0  0  0  0  0  0  0
   -4.8040    3.5240   11.2030 O   0  0  0  0  0  0  0  0  0  0  0  0
   -4.9240    3.1370   13.4960 C   0  0  0  0  0  0  0  0  0  0  0  0
   -5.1070    2.0570   14.3650 C   0  0  0  0  0  0  0  0  0  0  0  0
   -5.7410    2.2590   15.6020 C   0  0  0  0  0  0  0  0  0  0  0  0
   -6.1690    3.5370   15.9750 C   0  0  0  0  0  0  0  0  0  0  0  0
   -5.9800    4.6110   15.0960 C   0  0  0  0  0  0  0  0  0  0  0  0
   -5.3710    4.4110   13.8560 C   0  0  0  0  0  0  0  0  0  0  0  0
   -6.0350    0.8940   16.6780 S   0  0  0  0  0  0  0  0  0  0  0  0
   -7.4560    0.6600   16.7560 O   0  0  0  0  0  0  0  0  0  0  0  0
   -5.1760    1.0190   17.8310 O   0  0  0  0  0  0  0  0  0  0  0  0
   -5.4350   -0.4460   15.8470 N   0  0  0  0  0  0  0  0  0  0  0  0
   -6.9360    3.8860   17.4810 Cl  0  0  0  0  0  0  0  0  0  0  0  0
   -0.5640    7.7070   11.8570 H   0  0  0  0  0  0  0  0  0  0  0  0
   -2.5030    2.1010   13.0280 H   0  0  0  0  0  0  0  0  0  0  0  0
   -3.4240    1.0240   11.9610 H   0  0  0  0  0  0  0  0  0  0  0  0
   -4.7890    1.0620   14.0650 H   0  0  0  0  0  0  0  0  0  0  0  0
   -5.2420    5.2490   13.1720 H   0  0  0  0  0  0  0  0  0  0  0  0
   -6.2100   -1.0890   15.6670 H   0  0  0  0  0  0  0  0  0  0  0  0
   -4.6950   -0.8730   16.4110 H   0  0  0  0  0  0  0  0  0  0  0  0
    0.0210    6.5960    9.6790 H   0  0  0  0  0  0  0  0  0  0  0  0
   -1.8030    6.2930   13.5230 H   0  0  0  0  0  0  0  0  0  0  0  0
   -6.3160    5.6100   15.3680 H   0  0  0  0  0  0  0  0  0  0  0  0
  1  6  2  0  0  0  0
  1  2  1  0  0  0  0
  2  3  2  0  0  0  0
  3  4  1  0  0  0  0
  4 30  1  0  0  0  0
  5 22  1  0  0  0  0
  5  4  2  0  0  0  0
  6  5  1  0  0  0  0
  7  2  1  0  0  0  0
  7  8  1  0  0  0  0
  8  9  1  0  0  0  0
  8 23  1  0  0  0  0
  9 11  1  0  0  0  0
 10  9  2  0  0  0  0
 11 16  2  0  0  0  0
 11 12  1  0  0  0  0
 12 13  2  0  0  0  0
 13 14  1  0  0  0  0
 13 17  1  0  0  0  0
 14 21  1  0  0  0  0
 15 31  1  0  0  0  0
 15 14  2  0  0  0  0
 16 15  1  0  0  0  0
 17 18  2  0  0  0  0
 17 19  2  0  0  0  0
 20 28  1  0  0  0  0
 20 17  1  0  0  0  0
 24  8  1  0  0  0  0
 25 12  1  0  0  0  0
 26 16  1  0  0  0  0
 27 20  1  0  0  0  0
 29  6  1  0  0  0  0
M  END