
  -ISIS-  09220614163D

 29 32  0  0  0  0  0  0  0  0999 V2000
   -0.0181    1.4805    0.0102 C   0  0  0  0  0  0  0  0  0  0  0  0
    0.0021   -0.0041    0.0020 C   0  0  0  0  0  0  0  0  0  0  0  0
    1.3011    1.9612    0.0002 C   0  0  0  0  0  0  0  0  0  0  0  0
   -1.0814    2.3690    0.0199 C   0  0  0  0  0  0  0  0  0  0  0  0
    1.3196   -0.4520   -0.0130 C   0  0  0  0  0  0  0  0  0  0  0  0
   -1.0384   -0.9355    0.0066 C   0  0  0  0  0  0  0  0  0  0  0  0
    2.2175    0.7605   -0.0150 C   0  0  0  0  0  0  0  0  0  0  0  0
    1.5632    3.2937    0.0044 C   0  0  0  0  0  0  0  0  0  0  0  0
   -0.8333    3.7491    0.0256 C   0  0  0  0  0  0  0  0  0  0  0  0
    1.5939   -1.8039   -0.0226 C   0  0  0  0  0  0  0  0  0  0  0  0
   -0.7547   -2.2851   -0.0038 C   0  0  0  0  0  0  0  0  0  0  0  0
    0.5047    4.2186    0.0195 C   0  0  0  0  0  0  0  0  0  0  0  0
   -1.8890    4.6786    0.0349 C   0  0  0  0  0  0  0  0  0  0  0  0
    0.5582   -2.7210   -0.0177 C   0  0  0  0  0  0  0  0  0  0  0  0
    0.7491    5.6022    0.0241 C   0  0  0  0  0  0  0  0  0  0  0  0
   -1.6134    6.0111    0.0398 C   0  0  0  0  0  0  0  0  0  0  0  0
   -0.2980    6.4719    0.0383 C   0  0  0  0  0  0  0  0  0  0  0  0
   -2.0964    2.0002    0.0228 H   0  0  0  0  0  0  0  0  0  0  0  0
   -2.0647   -0.5992    0.0186 H   0  0  0  0  0  0  0  0  0  0  0  0
    2.8329    0.7698   -0.9146 H   0  0  0  0  0  0  0  0  0  0  0  0
    2.8499    0.7602    0.8727 H   0  0  0  0  0  0  0  0  0  0  0  0
    2.5852    3.6429   -0.0034 H   0  0  0  0  0  0  0  0  0  0  0  0
    2.6180   -2.1466   -0.0343 H   0  0  0  0  0  0  0  0  0  0  0  0
   -1.5604   -3.0043    0.0001 H   0  0  0  0  0  0  0  0  0  0  0  0
   -2.9133    4.3364    0.0378 H   0  0  0  0  0  0  0  0  0  0  0  0
    0.7749   -3.7790   -0.0256 H   0  0  0  0  0  0  0  0  0  0  0  0
    1.7630    5.9741    0.0168 H   0  0  0  0  0  0  0  0  0  0  0  0
   -2.4261    6.7224    0.0465 H   0  0  0  0  0  0  0  0  0  0  0  0
   -0.1067    7.5348    0.0418 H   0  0  0  0  0  0  0  0  0  0  0  0
  1  2  1  0  0  0  0
  1  3  2  0  0  0  0
  1  4  1  0  0  0  0
  2  5  2  0  0  0  0
  2  6  1  0  0  0  0
  3  7  1  0  0  0  0
  3  8  1  0  0  0  0
  4  9  2  0  0  0  0
  4 18  1  0  0  0  0
  5 10  1  0  0  0  0
  5  7  1  0  0  0  0
  6 11  2  0  0  0  0
  6 19  1  0  0  0  0
  7 20  1  0  0  0  0
  7 21  1  0  0  0  0
  8 12  2  0  0  0  0
  8 22  1  0  0  0  0
  9 13  1  0  0  0  0
  9 12  1  0  0  0  0
 10 14  2  0  0  0  0
 10 23  1  0  0  0  0
 11 14  1  0  0  0  0
 11 24  1  0  0  0  0
 12 15  1  0  0  0  0
 13 16  2  0  0  0  0
 13 25  1  0  0  0  0
 14 26  1  0  0  0  0
 15 17  2  0  0  0  0
 15 27  1  0  0  0  0
 16 17  1  0  0  0  0
 16 28  1  0  0  0  0
 17 29  1  0  0  0  0
M  END
