
  -ISIS-  09220614083D

 24 26  0  0  0  0  0  0  0  0999 V2000
   -0.0178    1.4623    0.0101 C   0  0  0  0  0  0  0  0  0  0  0  0
    0.0021   -0.0041    0.0020 C   0  0  0  0  0  0  0  0  0  0  0  0
    1.1769    2.1799    0.0025 C   0  0  0  0  0  0  0  0  0  0  0  0
   -1.2648    2.1235    0.0314 C   0  0  0  0  0  0  0  0  0  0  0  0
    1.2158   -0.6889   -0.0127 C   0  0  0  0  0  0  0  0  0  0  0  0
   -1.2266   -0.6991    0.0100 C   0  0  0  0  0  0  0  0  0  0  0  0
    2.3905    1.4951   -0.0127 C   0  0  0  0  0  0  0  0  0  0  0  0
   -2.4095    1.3940    0.0439 C   0  0  0  0  0  0  0  0  0  0  0  0
    2.4104    0.0287   -0.0198 C   0  0  0  0  0  0  0  0  0  0  0  0
   -2.3907   -0.0011    0.0248 C   0  0  0  0  0  0  0  0  0  0  0  0
    3.6193    2.1900   -0.0202 C   0  0  0  0  0  0  0  0  0  0  0  0
    3.6575   -0.6326   -0.0352 C   0  0  0  0  0  0  0  0  0  0  0  0
    4.7834    1.4920   -0.0346 C   0  0  0  0  0  0  0  0  0  0  0  0
    4.8022    0.0968   -0.0422 C   0  0  0  0  0  0  0  0  0  0  0  0
    1.1622    3.2598    0.0081 H   0  0  0  0  0  0  0  0  0  0  0  0
   -1.3079    3.2026    0.0381 H   0  0  0  0  0  0  0  0  0  0  0  0
    1.2304   -1.7688   -0.0183 H   0  0  0  0  0  0  0  0  0  0  0  0
   -1.2403   -1.7790    0.0039 H   0  0  0  0  0  0  0  0  0  0  0  0
   -3.3598    1.9069    0.0602 H   0  0  0  0  0  0  0  0  0  0  0  0
   -3.3268   -0.5398    0.0308 H   0  0  0  0  0  0  0  0  0  0  0  0
    3.6331    3.2699   -0.0149 H   0  0  0  0  0  0  0  0  0  0  0  0
    3.7004   -1.7117   -0.0411 H   0  0  0  0  0  0  0  0  0  0  0  0
    5.7195    2.0306   -0.0403 H   0  0  0  0  0  0  0  0  0  0  0  0
    5.7526   -0.4162   -0.0536 H   0  0  0  0  0  0  0  0  0  0  0  0
  1  2  2  0  0  0  0
  1  3  1  0  0  0  0
  1  4  1  0  0  0  0
  2  5  1  0  0  0  0
  2  6  1  0  0  0  0
  3  7  2  0  0  0  0
  3 15  1  0  0  0  0
  4  8  2  0  0  0  0
  4 16  1  0  0  0  0
  5  9  2  0  0  0  0
  5 17  1  0  0  0  0
  6 10  2  0  0  0  0
  6 18  1  0  0  0  0
  7 11  1  0  0  0  0
  7  9  1  0  0  0  0
  8 10  1  0  0  0  0
  8 19  1  0  0  0  0
  9 12  1  0  0  0  0
 10 20  1  0  0  0  0
 11 13  2  0  0  0  0
 11 21  1  0  0  0  0
 12 14  2  0  0  0  0
 12 22  1  0  0  0  0
 13 14  1  0  0  0  0
 13 23  1  0  0  0  0
 14 24  1  0  0  0  0
M  END
