
  -ISIS-  09220615273D

 34 39  0  0  0  0  0  0  0  0999 V2000
   -0.0171    1.4065    0.0098 C   0  0  0  0  0  0  0  0  0  0  0  0
    0.0021   -0.0041    0.0020 C   0  0  0  0  0  0  0  0  0  0  0  0
    1.1892    2.1394    0.0022 C   0  0  0  0  0  0  0  0  0  0  0  0
   -1.2518    2.0887    0.0193 C   0  0  0  0  0  0  0  0  0  0  0  0
    1.2277   -0.7038   -0.0134 C   0  0  0  0  0  0  0  0  0  0  0  0
   -1.2137   -0.7196    0.0093 C   0  0  0  0  0  0  0  0  0  0  0  0
    2.4333    1.4712   -0.0132 C   0  0  0  0  0  0  0  0  0  0  0  0
    1.1440    3.5515    0.0097 C   0  0  0  0  0  0  0  0  0  0  0  0
   -2.4476    1.3476    0.0209 C   0  0  0  0  0  0  0  0  0  0  0  0
   -1.2633    3.5015    0.0266 C   0  0  0  0  0  0  0  0  0  0  0  0
    2.4532   -0.0020   -0.0213 C   0  0  0  0  0  0  0  0  0  0  0  0
    1.2208   -2.1166   -0.0214 C   0  0  0  0  0  0  0  0  0  0  0  0
   -2.4291   -0.0112    0.0242 C   0  0  0  0  0  0  0  0  0  0  0  0
   -1.1868   -2.1322    0.0010 C   0  0  0  0  0  0  0  0  0  0  0  0
    3.6047    2.2162   -0.0213 C   0  0  0  0  0  0  0  0  0  0  0  0
   -0.1082    4.2075    0.0251 C   0  0  0  0  0  0  0  0  0  0  0  0
    2.3464    4.2698    0.0021 C   0  0  0  0  0  0  0  0  0  0  0  0
    3.6445   -0.7148   -0.0375 C   0  0  0  0  0  0  0  0  0  0  0  0
   -0.0131   -2.8064   -0.0134 C   0  0  0  0  0  0  0  0  0  0  0  0
    2.4423   -2.8019   -0.0368 C   0  0  0  0  0  0  0  0  0  0  0  0
    3.5506    3.6015   -0.0138 C   0  0  0  0  0  0  0  0  0  0  0  0
    3.6280   -2.1010   -0.0458 C   0  0  0  0  0  0  0  0  0  0  0  0
   -3.3947    1.8664    0.0282 H   0  0  0  0  0  0  0  0  0  0  0  0
   -2.2074    4.0259    0.0335 H   0  0  0  0  0  0  0  0  0  0  0  0
   -3.3618   -0.5557    0.0295 H   0  0  0  0  0  0  0  0  0  0  0  0
   -2.1163   -2.6821    0.0069 H   0  0  0  0  0  0  0  0  0  0  0  0
    4.5613    1.7150   -0.0331 H   0  0  0  0  0  0  0  0  0  0  0  0
   -0.1438    5.2868    0.0312 H   0  0  0  0  0  0  0  0  0  0  0  0
    2.3292    5.3497    0.0077 H   0  0  0  0  0  0  0  0  0  0  0  0
    4.5871   -0.1877   -0.0440 H   0  0  0  0  0  0  0  0  0  0  0  0
   -0.0194   -3.8864   -0.0199 H   0  0  0  0  0  0  0  0  0  0  0  0
    2.4544   -3.8819   -0.0427 H   0  0  0  0  0  0  0  0  0  0  0  0
    4.4704    4.1675   -0.0199 H   0  0  0  0  0  0  0  0  0  0  0  0
    4.5628   -2.6418   -0.0584 H   0  0  0  0  0  0  0  0  0  0  0  0
  1  2  1  0  0  0  0
  1  3  2  0  0  0  0
  1  4  1  0  0  0  0
  2  5  2  0  0  0  0
  2  6  1  0  0  0  0
  3  7  1  0  0  0  0
  3  8  1  0  0  0  0
  4  9  1  0  0  0  0
  4 10  2  0  0  0  0
  5 11  1  0  0  0  0
  5 12  1  0  0  0  0
  6 13  1  0  0  0  0
  6 14  2  0  0  0  0
  7 15  2  0  0  0  0
  7 11  1  0  0  0  0
  8 16  2  0  0  0  0
  8 17  1  0  0  0  0
  9 13  2  0  0  0  0
  9 23  1  0  0  0  0
 10 16  1  0  0  0  0
 10 24  1  0  0  0  0
 11 18  2  0  0  0  0
 12 19  2  0  0  0  0
 12 20  1  0  0  0  0
 13 25  1  0  0  0  0
 14 19  1  0  0  0  0
 14 26  1  0  0  0  0
 15 21  1  0  0  0  0
 15 27  1  0  0  0  0
 16 28  1  0  0  0  0
 17 21  2  0  0  0  0
 17 29  1  0  0  0  0
 18 22  1  0  0  0  0
 18 30  1  0  0  0  0
 19 31  1  0  0  0  0
 20 22  2  0  0  0  0
 20 32  1  0  0  0  0
 21 33  1  0  0  0  0
 22 34  1  0  0  0  0
M  END
