
  -ISIS-  09220615293D

 60 90  0  0  0  0  0  0  0  0999 V2000
   -0.0167    1.3835    0.0096 C   0  0  0  0  0  0  0  0  0  0  0  0
    0.0021   -0.0041    0.0020 C   0  0  0  0  0  0  0  0  0  0  0  0
    1.3268    1.8249   -0.0008 C   0  0  0  0  0  0  0  0  0  0  0  0
   -0.8885    2.1089   -0.8576 C   0  0  0  0  0  0  0  0  0  0  0  0
    1.3429   -0.4527   -0.0066 C   0  0  0  0  0  0  0  0  0  0  0  0
   -0.8326   -0.7916   -0.8369 C   0  0  0  0  0  0  0  0  0  0  0  0
    2.1801    0.7028    0.0051 C   0  0  0  0  0  0  0  0  0  0  0  0
    1.8571   -1.5841   -0.6632 C   0  0  0  0  0  0  0  0  0  0  0  0
    3.4431    0.6268   -0.6040 C   0  0  0  0  0  0  0  0  0  0  0  0
    1.8105    2.9311   -0.7391 C   0  0  0  0  0  0  0  0  0  0  0  0
    3.1407   -1.6816   -1.2203 C   0  0  0  0  0  0  0  0  0  0  0  0
    0.9354   -2.3252   -1.4757 C   0  0  0  0  0  0  0  0  0  0  0  0
    3.9856   -0.5252   -1.1913 C   0  0  0  0  0  0  0  0  0  0  0  0
    2.9872   -2.3511   -2.4400 C   0  0  0  0  0  0  0  0  0  0  0  0
    4.6285   -0.1054   -2.3609 C   0  0  0  0  0  0  0  0  0  0  0  0
    3.8765    1.7790   -1.3419 C   0  0  0  0  0  0  0  0  0  0  0  0
    3.0533    2.9235   -1.3664 C   0  0  0  0  0  0  0  0  0  0  0  0
    4.6361    1.3147   -2.4157 C   0  0  0  0  0  0  0  0  0  0  0  0
    2.9497    3.6220   -2.6072 C   0  0  0  0  0  0  0  0  0  0  0  0
    0.8932    3.6160   -1.5969 C   0  0  0  0  0  0  0  0  0  0  0  0
   -0.4594    3.1906   -1.6209 C   0  0  0  0  0  0  0  0  0  0  0  0
    1.6130    4.0661   -2.7103 C   0  0  0  0  0  0  0  0  0  0  0  0
   -1.0754    3.1694   -2.9075 C   0  0  0  0  0  0  0  0  0  0  0  0
   -1.7002    1.3333   -1.7212 C   0  0  0  0  0  0  0  0  0  0  0  0
   -1.6970   -0.0790   -1.7272 C   0  0  0  0  0  0  0  0  0  0  0  0
   -1.8759    2.0033   -2.9656 C   0  0  0  0  0  0  0  0  0  0  0  0
   -1.8905   -0.8469   -2.8867 C   0  0  0  0  0  0  0  0  0  0  0  0
   -0.4178   -1.9235   -1.5264 C   0  0  0  0  0  0  0  0  0  0  0  0
   -1.0661   -1.9914   -2.7970 C   0  0  0  0  0  0  0  0  0  0  0  0
    1.6531   -2.8265   -2.5594 C   0  0  0  0  0  0  0  0  0  0  0  0
    0.9704    4.0212   -3.9820 C   0  0  0  0  0  0  0  0  0  0  0  0
   -0.3691    3.5728   -4.0716 C   0  0  0  0  0  0  0  0  0  0  0  0
    1.6914    3.5351   -5.0881 C   0  0  0  0  0  0  0  0  0  0  0  0
   -0.5014    2.8277   -5.2692 C   0  0  0  0  0  0  0  0  0  0  0  0
   -2.0199    1.2551   -4.1543 C   0  0  0  0  0  0  0  0  0  0  0  0
   -2.0353   -0.1647   -4.1320 C   0  0  0  0  0  0  0  0  0  0  0  0
   -1.3357    1.6694   -5.3242 C   0  0  0  0  0  0  0  0  0  0  0  0
   -1.3512   -0.6491   -5.2479 C   0  0  0  0  0  0  0  0  0  0  0  0
   -0.3367   -2.4416   -3.9295 C   0  0  0  0  0  0  0  0  0  0  0  0
    1.0153   -2.8698   -3.8284 C   0  0  0  0  0  0  0  0  0  0  0  0
   -0.4825   -1.8140   -5.1865 C   0  0  0  0  0  0  0  0  0  0  0  0
    1.7213   -2.4911   -4.9924 C   0  0  0  0  0  0  0  0  0  0  0  0
    3.6453   -1.9400   -3.6210 C   0  0  0  0  0  0  0  0  0  0  0  0
    4.4906   -0.7833   -3.5922 C   0  0  0  0  0  0  0  0  0  0  0  0
    3.0615   -2.0175   -4.8980 C   0  0  0  0  0  0  0  0  0  0  0  0
    4.4439   -0.1677   -4.8566 C   0  0  0  0  0  0  0  0  0  0  0  0
    4.5169    1.9872   -3.6648 C   0  0  0  0  0  0  0  0  0  0  0  0
    3.6639    3.1177   -3.7261 C   0  0  0  0  0  0  0  0  0  0  0  0
    4.4385    1.2635   -4.8750 C   0  0  0  0  0  0  0  0  0  0  0  0
    3.0330    3.0790   -5.0031 C   0  0  0  0  0  0  0  0  0  0  0  0
    3.5205   -0.8821   -5.6324 C   0  0  0  0  0  0  0  0  0  0  0  0
    2.6003   -0.2339   -6.5120 C   0  0  0  0  0  0  0  0  0  0  0  0
    3.5083    1.9403   -5.7027 C   0  0  0  0  0  0  0  0  0  0  0  0
    2.6063    1.1887   -6.5095 C   0  0  0  0  0  0  0  0  0  0  0  0
    0.7747    2.7603   -5.8547 C   0  0  0  0  0  0  0  0  0  0  0  0
    1.2703    1.6166   -6.5102 C   0  0  0  0  0  0  0  0  0  0  0  0
   -0.8676    0.5298   -5.9611 C   0  0  0  0  0  0  0  0  0  0  0  0
    0.4367    0.4712   -6.5579 C   0  0  0  0  0  0  0  0  0  0  0  0
    0.8016   -1.8214   -5.8264 C   0  0  0  0  0  0  0  0  0  0  0  0
    1.3048   -0.6867   -6.5778 C   0  0  0  0  0  0  0  0  0  0  0  0
  2  1  2  0  0  0  0
  3  1  1  0  0  0  0
  4  1  1  0  0  0  0
  5  2  1  0  0  0  0
  6  2  1  0  0  0  0
  7  3  2  0  0  0  0
  8  5  2  0  0  0  0
  9  7  1  0  0  0  0
 10  3  1  0  0  0  0
 11  8  1  0  0  0  0
 12 28  1  0  0  0  0
 13  9  2  0  0  0  0
 14 11  2  0  0  0  0
 15 13  1  0  0  0  0
 16 17  1  0  0  0  0
 17 10  2  0  0  0  0
 18 16  2  0  0  0  0
 19 17  1  0  0  0  0
 20 21  1  0  0  0  0
 21  4  2  0  0  0  0
 22 20  2  0  0  0  0
 23 21  1  0  0  0  0
 24  4  1  0  0  0  0
 25 24  1  0  0  0  0
 26 24  2  0  0  0  0
 27 25  2  0  0  0  0
 28  6  2  0  0  0  0
 29 28  1  0  0  0  0
 30 12  2  0  0  0  0
 31 32  1  0  0  0  0
 32 23  2  0  0  0  0
 33 31  2  0  0  0  0
 34 32  1  0  0  0  0
 35 26  1  0  0  0  0
 36 35  1  0  0  0  0
 37 35  2  0  0  0  0
 38 36  2  0  0  0  0
 39 29  2  0  0  0  0
 40 39  1  0  0  0  0
 41 39  1  0  0  0  0
 42 40  2  0  0  0  0
 43 14  1  0  0  0  0
 44 15  2  0  0  0  0
 45 43  2  0  0  0  0
 46 44  1  0  0  0  0
 47 48  1  0  0  0  0
 48 19  2  0  0  0  0
 49 47  2  0  0  0  0
 50 48  1  0  0  0  0
 51 46  2  0  0  0  0
 52 60  2  0  0  0  0
 53 50  2  0  0  0  0
 54 56  2  0  0  0  0
 55 34  2  0  0  0  0
 56 55  1  0  0  0  0
 57 37  1  0  0  0  0
 58 57  2  0  0  0  0
 59 41  2  0  0  0  0
 60 58  1  0  0  0  0
  5  7  1  0  0  0  0
 23 26  1  0  0  0  0
  6 25  1  0  0  0  0
 10 20  1  0  0  0  0
 19 22  1  0  0  0  0
  9 16  1  0  0  0  0
 11 13  1  0  0  0  0
 27 29  1  0  0  0  0
  8 12  1  0  0  0  0
 34 37  1  0  0  0  0
 27 36  1  0  0  0  0
 22 31  1  0  0  0  0
 15 18  1  0  0  0  0
 14 30  1  0  0  0  0
 38 57  1  0  0  0  0
 33 55  1  0  0  0  0
 33 50  1  0  0  0  0
 18 47  1  0  0  0  0
 43 44  1  0  0  0  0
 38 41  1  0  0  0  0
 30 40  1  0  0  0  0
 56 58  1  0  0  0  0
 49 53  1  0  0  0  0
 46 49  1  0  0  0  0
 42 59  1  0  0  0  0
 42 45  1  0  0  0  0
 59 60  1  0  0  0  0
 52 54  1  0  0  0  0
 53 54  1  0  0  0  0
 45 51  1  0  0  0  0
 51 52  1  0  0  0  0
M  END
