Benzopyrene.log
 OpenBabel10270613143D

 32 36  0  0  0  0  0  0  0  0999 V2000
    0.3134    0.2233   -0.0000 C   0  0  0  0  0
    1.7160   -0.0562    0.0000 C   0  0  0  0  0
   -0.6317   -0.8358   -0.0000 C   0  0  0  0  0
   -0.1299    1.5957    0.0000 C   0  0  0  0  0
    2.1776   -1.4057    0.0000 C   0  0  0  0  0
    2.6684    1.0112    0.0000 C   0  0  0  0  0
   -2.0421   -0.5312   -0.0000 C   0  0  0  0  0
   -0.1334   -2.1784   -0.0000 C   0  0  0  0  0
   -1.4859    1.8703   -0.0000 C   0  0  0  0  0
    0.8582    2.6463    0.0000 C   0  0  0  0  0
    1.2048   -2.4517   -0.0000 C   0  0  0  0  0
    3.5640   -1.6630    0.0000 C   0  0  0  0  0
    2.1865    2.3702    0.0000 C   0  0  0  0  0
    4.0342    0.7088    0.0001 C   0  0  0  0  0
   -2.4574    0.8421   -0.0000 C   0  0  0  0  0
   -3.0544   -1.5278   -0.0000 C   0  0  0  0  0
    4.4774   -0.6184    0.0001 C   0  0  0  0  0
   -3.8457    1.1522   -0.0001 C   0  0  0  0  0
   -4.3925   -1.1962   -0.0000 C   0  0  0  0  0
   -4.7962    0.1589   -0.0000 C   0  0  0  0  0
    1.5500   -3.4831   -0.0000 H   0  0  0  0  0
   -0.8320   -3.0075   -0.0000 H   0  0  0  0  0
   -2.7801   -2.5770   -0.0000 H   0  0  0  0  0
   -5.1422   -1.9827    0.0000 H   0  0  0  0  0
   -5.8533    0.4104   -0.0000 H   0  0  0  0  0
   -4.1414    2.1987   -0.0001 H   0  0  0  0  0
   -1.8217    2.9052   -0.0000 H   0  0  0  0  0
    0.5077    3.6756    0.0001 H   0  0  0  0  0
    2.9177    3.1750   -0.0000 H   0  0  0  0  0
    4.7558    1.5222    0.0000 H   0  0  0  0  0
    3.9088   -2.6942    0.0001 H   0  0  0  0  0
    5.5433   -0.8298    0.0001 H   0  0  0  0  0
  3  1  2  0  0  0
  1  4  1  0  0  0
  1  2  1  0  0  0
  2  5  1  0  0  0
  2  6  2  0  0  0
  7  3  1  0  0  0
  8  3  1  0  0  0
  9  4  2  0  0  0
  4 10  1  0  0  0
 11  5  1  0  0  0
  5 12  2  0  0  0
 13  6  1  0  0  0
  6 14  1  0  0  0
 15  7  2  0  0  0
  7 16  1  0  0  0
 22  8  1  0  0  0
  8 11  2  0  0  0
 15  9  1  0  0  0
 27  9  1  0  0  0
 13 10  2  0  0  0
 10 28  1  0  0  0
 21 11  1  0  0  0
 12 31  1  0  0  0
 12 17  1  0  0  0
 29 13  1  0  0  0
 30 14  1  0  0  0
 14 17  2  0  0  0
 18 15  1  0  0  0
 16 19  2  0  0  0
 16 23  1  0  0  0
 17 32  1  0  0  0
 26 18  1  0  0  0
 18 20  2  0  0  0
 20 19  1  0  0  0
 19 24  1  0  0  0
 20 25  1  0  0  0
M  END
