biphenyl.xyz
 OpenBabel10150615083D

 22 23  0  0  0  0  0  0  0  0999 V2000
    5.2739    1.9987   -8.5677 C   0  0  0  0  0
    6.6271    2.0178   -8.2092 C   0  0  0  0  0
    7.1008    2.9497   -7.9381 H   0  0  0  0  0
    7.3663    0.8289   -8.2023 C   0  0  0  0  0
    8.4102    0.8436   -7.9258 H   0  0  0  0  0
    6.7522   -0.3792   -8.5538 C   0  0  0  0  0
    7.3224   -1.2964   -8.5485 H   0  0  0  0  0
    5.3990   -0.3983   -8.9122 C   0  0  0  0  0
    4.9253   -1.3302   -9.1834 H   0  0  0  0  0
    4.6599    0.7907   -8.9192 C   0  0  0  0  0
    3.6160    0.7759   -9.1957 H   0  0  0  0  0
    4.4614    3.3056   -8.5753 C   0  0  0  0  0
    3.1082    3.2865   -8.9337 C   0  0  0  0  0
    2.6345    2.3546   -9.2049 H   0  0  0  0  0
    2.3691    4.4755   -8.9407 C   0  0  0  0  0
    1.3252    4.4608   -9.2172 H   0  0  0  0  0
    2.9831    5.6835   -8.5892 C   0  0  0  0  0
    2.4129    6.6007   -8.5945 H   0  0  0  0  0
    4.3363    5.7026   -8.2307 C   0  0  0  0  0
    4.8100    6.6346   -7.9596 H   0  0  0  0  0
    5.0755    4.5137   -8.2238 C   0  0  0  0  0
    6.1194    4.5284   -7.9473 H   0  0  0  0  0
 10  1  2  0  0  0
 12  1  1  0  0  0
  1  2  1  0  0  0
  2  4  2  0  0  0
  2  3  1  0  0  0
  6  4  1  0  0  0
  4  5  1  0  0  0
  8  6  2  0  0  0
  6  7  1  0  0  0
  9  8  1  0  0  0
 10  8  1  0  0  0
 11 10  1  0  0  0
 13 12  2  0  0  0
 12 21  1  0  0  0
 14 13  1  0  0  0
 15 13  1  0  0  0
 16 15  1  0  0  0
 15 17  2  0  0  0
 18 17  1  0  0  0
 17 19  1  0  0  0
 19 21  2  0  0  0
 19 20  1  0  0  0
 21 22  1  0  0  0
M  END
