
  -ISIS-  09220615303D

 30 33  0  0  0  0  0  0  0  0999 V2000
   -0.0170    1.4036    0.0098 C   0  0  0  0  0  0  0  0  0  0  0  0
    0.0021   -0.0041    0.0020 C   0  0  0  0  0  0  0  0  0  0  0  0
    1.2599    2.1197    0.0014 C   0  0  0  0  0  0  0  0  0  0  0  0
   -1.2408    2.0952    0.0194 C   0  0  0  0  0  0  0  0  0  0  0  0
   -1.2749   -0.7200    0.0098 C   0  0  0  0  0  0  0  0  0  0  0  0
    1.2260   -0.6954   -0.0133 C   0  0  0  0  0  0  0  0  0  0  0  0
    2.4605    1.3719   -0.0138 C   0  0  0  0  0  0  0  0  0  0  0  0
    1.3138    3.5162    0.0077 C   0  0  0  0  0  0  0  0  0  0  0  0
   -2.4235    1.4383    0.0211 C   0  0  0  0  0  0  0  0  0  0  0  0
   -2.4754    0.0280    0.0249 C   0  0  0  0  0  0  0  0  0  0  0  0
   -1.3293   -2.1165    0.0021 C   0  0  0  0  0  0  0  0  0  0  0  0
    2.4085   -0.0383   -0.0213 C   0  0  0  0  0  0  0  0  0  0  0  0
    3.6886    2.0508   -0.0221 C   0  0  0  0  0  0  0  0  0  0  0  0
    2.5249    4.1456   -0.0010 C   0  0  0  0  0  0  0  0  0  0  0  0
   -3.7037   -0.6505    0.0323 C   0  0  0  0  0  0  0  0  0  0  0  0
   -2.5405   -2.7456    0.0092 C   0  0  0  0  0  0  0  0  0  0  0  0
    3.7076    3.4139   -0.0152 C   0  0  0  0  0  0  0  0  0  0  0  0
   -3.7231   -2.0136    0.0249 C   0  0  0  0  0  0  0  0  0  0  0  0
   -1.2368    3.1752    0.0259 H   0  0  0  0  0  0  0  0  0  0  0  0
    1.2222   -1.7754   -0.0184 H   0  0  0  0  0  0  0  0  0  0  0  0
    0.4017    4.0945    0.0191 H   0  0  0  0  0  0  0  0  0  0  0  0
   -3.3440    2.0030    0.0289 H   0  0  0  0  0  0  0  0  0  0  0  0
   -0.4174   -2.6950   -0.0098 H   0  0  0  0  0  0  0  0  0  0  0  0
    3.3291   -0.6030   -0.0327 H   0  0  0  0  0  0  0  0  0  0  0  0
    4.6149    1.4957   -0.0334 H   0  0  0  0  0  0  0  0  0  0  0  0
    2.5653    5.2249    0.0036 H   0  0  0  0  0  0  0  0  0  0  0  0
   -4.6299   -0.0952    0.0441 H   0  0  0  0  0  0  0  0  0  0  0  0
   -2.5812   -3.8248    0.0029 H   0  0  0  0  0  0  0  0  0  0  0  0
    4.6546    3.9330   -0.0212 H   0  0  0  0  0  0  0  0  0  0  0  0
   -4.6702   -2.5325    0.0309 H   0  0  0  0  0  0  0  0  0  0  0  0
  1  2  1  0  0  0  0
  1  3  2  0  0  0  0
  1  4  1  0  0  0  0
  2  5  1  0  0  0  0
  2  6  2  0  0  0  0
  3  7  1  0  0  0  0
  3  8  1  0  0  0  0
  4  9  2  0  0  0  0
  4 19  1  0  0  0  0
  5 10  1  0  0  0  0
  5 11  2  0  0  0  0
  6 12  1  0  0  0  0
  6 20  1  0  0  0  0
  7 13  1  0  0  0  0
  7 12  2  0  0  0  0
  8 14  2  0  0  0  0
  8 21  1  0  0  0  0
  9 10  1  0  0  0  0
  9 22  1  0  0  0  0
 10 15  2  0  0  0  0
 11 16  1  0  0  0  0
 11 23  1  0  0  0  0
 12 24  1  0  0  0  0
 13 17  2  0  0  0  0
 13 25  1  0  0  0  0
 14 17  1  0  0  0  0
 14 26  1  0  0  0  0
 15 18  1  0  0  0  0
 15 27  1  0  0  0  0
 16 18  2  0  0  0  0
 16 28  1  0  0  0  0
 17 29  1  0  0  0  0
 18 30  1  0  0  0  0
M  END
