
  -ISIS-  09220615323D

 36 42  0  0  0  0  0  0  0  0999 V2000
   -0.0170    1.4053    0.0098 C   0  0  0  0  0  0  0  0  0  0  0  0
    0.0021   -0.0041    0.0020 C   0  0  0  0  0  0  0  0  0  0  0  0
    1.1938    2.1267    0.0021 C   0  0  0  0  0  0  0  0  0  0  0  0
   -1.2485    2.0940    0.0193 C   0  0  0  0  0  0  0  0  0  0  0  0
    1.2322   -0.6919   -0.0129 C   0  0  0  0  0  0  0  0  0  0  0  0
   -1.2100   -0.7262    0.0088 C   0  0  0  0  0  0  0  0  0  0  0  0
    2.4240    1.4388   -0.0129 C   0  0  0  0  0  0  0  0  0  0  0  0
    1.1747    3.5375    0.0089 C   0  0  0  0  0  0  0  0  0  0  0  0
   -2.4429    1.3471    0.0213 C   0  0  0  0  0  0  0  0  0  0  0  0
   -1.2373    3.5026    0.0270 C   0  0  0  0  0  0  0  0  0  0  0  0
    2.4431    0.0295   -0.0207 C   0  0  0  0  0  0  0  0  0  0  0  0
    1.2515   -2.1027   -0.0207 C   0  0  0  0  0  0  0  0  0  0  0  0
   -2.4243   -0.0123    0.0237 C   0  0  0  0  0  0  0  0  0  0  0  0
   -1.1604   -2.1340    0.0008 C   0  0  0  0  0  0  0  0  0  0  0  0
    3.6361    2.1610   -0.0202 C   0  0  0  0  0  0  0  0  0  0  0  0
   -0.0693    4.1984    0.0239 C   0  0  0  0  0  0  0  0  0  0  0  0
    2.4000    4.2323    0.0001 C   0  0  0  0  0  0  0  0  0  0  0  0
    3.6745   -0.6591   -0.0361 C   0  0  0  0  0  0  0  0  0  0  0  0
    0.0261   -2.7975   -0.0136 C   0  0  0  0  0  0  0  0  0  0  0  0
    2.4955   -2.7636   -0.0356 C   0  0  0  0  0  0  0  0  0  0  0  0
    3.5866    3.5688   -0.0117 C   0  0  0  0  0  0  0  0  0  0  0  0
    4.8504    1.4471   -0.0353 C   0  0  0  0  0  0  0  0  0  0  0  0
    3.6634   -2.0677   -0.0440 C   0  0  0  0  0  0  0  0  0  0  0  0
    4.8689    0.0878   -0.0427 C   0  0  0  0  0  0  0  0  0  0  0  0
   -3.3911    1.8641    0.0290 H   0  0  0  0  0  0  0  0  0  0  0  0
   -2.1741    4.0399    0.0343 H   0  0  0  0  0  0  0  0  0  0  0  0
   -3.3581   -0.5550    0.0286 H   0  0  0  0  0  0  0  0  0  0  0  0
   -2.0822   -2.6968    0.0062 H   0  0  0  0  0  0  0  0  0  0  0  0
   -0.0957    5.2781    0.0296 H   0  0  0  0  0  0  0  0  0  0  0  0
    2.3969    5.3123    0.0053 H   0  0  0  0  0  0  0  0  0  0  0  0
    0.0293   -3.8775   -0.0194 H   0  0  0  0  0  0  0  0  0  0  0  0
    2.5219   -3.8432   -0.0416 H   0  0  0  0  0  0  0  0  0  0  0  0
    4.5084    4.1315   -0.0167 H   0  0  0  0  0  0  0  0  0  0  0  0
    5.7841    1.9899   -0.0410 H   0  0  0  0  0  0  0  0  0  0  0  0
    4.6002   -2.6050   -0.0562 H   0  0  0  0  0  0  0  0  0  0  0  0
    5.8171   -0.4292   -0.0546 H   0  0  0  0  0  0  0  0  0  0  0  0
  1  2  1  0  0  0  0
  1  3  2  0  0  0  0
  1  4  1  0  0  0  0
  2  5  2  0  0  0  0
  2  6  1  0  0  0  0
  3  7  1  0  0  0  0
  3  8  1  0  0  0  0
  4  9  1  0  0  0  0
  4 10  2  0  0  0  0
  5 11  1  0  0  0  0
  5 12  1  0  0  0  0
  6 13  1  0  0  0  0
  6 14  2  0  0  0  0
  7 15  1  0  0  0  0
  7 11  2  0  0  0  0
  8 16  2  0  0  0  0
  8 17  1  0  0  0  0
  9 13  2  0  0  0  0
  9 25  1  0  0  0  0
 10 16  1  0  0  0  0
 10 26  1  0  0  0  0
 11 18  1  0  0  0  0
 12 19  2  0  0  0  0
 12 20  1  0  0  0  0
 13 27  1  0  0  0  0
 14 19  1  0  0  0  0
 14 28  1  0  0  0  0
 15 21  1  0  0  0  0
 15 22  2  0  0  0  0
 16 29  1  0  0  0  0
 17 21  2  0  0  0  0
 17 30  1  0  0  0  0
 18 23  1  0  0  0  0
 18 24  2  0  0  0  0
 19 31  1  0  0  0  0
 20 23  2  0  0  0  0
 20 32  1  0  0  0  0
 21 33  1  0  0  0  0
 22 24  1  0  0  0  0
 22 34  1  0  0  0  0
 23 35  1  0  0  0  0
 24 36  1  0  0  0  0
M  END
