
  -ISIS-  09220615353D

 36 40  0  0  0  0  0  0  0  0999 V2000
   -0.0178    1.4647    0.0101 C   0  0  0  0  0  0  0  0  0  0  0  0
    0.0021   -0.0041    0.0020 C   0  0  0  0  0  0  0  0  0  0  0  0
    1.2121    2.1702    0.0021 C   0  0  0  0  0  0  0  0  0  0  0  0
   -1.2220    2.1566    0.0196 C   0  0  0  0  0  0  0  0  0  0  0  0
    1.2422   -0.6777   -0.0135 C   0  0  0  0  0  0  0  0  0  0  0  0
   -1.1844   -0.7401    0.0090 C   0  0  0  0  0  0  0  0  0  0  0  0
    1.2123    3.5660    0.0092 C   0  0  0  0  0  0  0  0  0  0  0  0
    2.4723    1.4331   -0.0139 C   0  0  0  0  0  0  0  0  0  0  0  0
   -1.2218    3.5524    0.0266 C   0  0  0  0  0  0  0  0  0  0  0  0
    2.4862    0.0847   -0.0209 C   0  0  0  0  0  0  0  0  0  0  0  0
    1.2613   -2.0790   -0.0213 C   0  0  0  0  0  0  0  0  0  0  0  0
   -1.1335   -2.1106    0.0007 C   0  0  0  0  0  0  0  0  0  0  0  0
    0.0082    4.2579    0.0239 C   0  0  0  0  0  0  0  0  0  0  0  0
   -2.4820    4.2895    0.0363 C   0  0  0  0  0  0  0  0  0  0  0  0
    0.0869   -2.7741   -0.0138 C   0  0  0  0  0  0  0  0  0  0  0  0
   -0.0117    5.7267    0.0310 C   0  0  0  0  0  0  0  0  0  0  0  0
   -2.4960    5.6379    0.0426 C   0  0  0  0  0  0  0  0  0  0  0  0
   -1.2519    6.4003    0.0455 C   0  0  0  0  0  0  0  0  0  0  0  0
    1.1746    6.4629    0.0232 C   0  0  0  0  0  0  0  0  0  0  0  0
   -1.2711    7.8015    0.0522 C   0  0  0  0  0  0  0  0  0  0  0  0
    1.1236    7.8333    0.0297 C   0  0  0  0  0  0  0  0  0  0  0  0
   -0.0967    8.4968    0.0447 C   0  0  0  0  0  0  0  0  0  0  0  0
   -2.1568    1.6158    0.0211 H   0  0  0  0  0  0  0  0  0  0  0  0
   -2.1376   -0.2326    0.0213 H   0  0  0  0  0  0  0  0  0  0  0  0
    2.1471    4.1069    0.0036 H   0  0  0  0  0  0  0  0  0  0  0  0
    3.4063    1.9753   -0.0199 H   0  0  0  0  0  0  0  0  0  0  0  0
    3.4312   -0.4380   -0.0324 H   0  0  0  0  0  0  0  0  0  0  0  0
    2.2031   -2.6074   -0.0336 H   0  0  0  0  0  0  0  0  0  0  0  0
   -2.0514   -2.6796    0.0065 H   0  0  0  0  0  0  0  0  0  0  0  0
   -3.4160    3.7472    0.0382 H   0  0  0  0  0  0  0  0  0  0  0  0
    0.1065   -3.8539   -0.0202 H   0  0  0  0  0  0  0  0  0  0  0  0
   -3.4411    6.1606    0.0493 H   0  0  0  0  0  0  0  0  0  0  0  0
    2.1279    5.9554    0.0126 H   0  0  0  0  0  0  0  0  0  0  0  0
   -2.2130    8.3300    0.0628 H   0  0  0  0  0  0  0  0  0  0  0  0
    2.0415    8.4024    0.0240 H   0  0  0  0  0  0  0  0  0  0  0  0
   -0.1164    9.5766    0.0500 H   0  0  0  0  0  0  0  0  0  0  0  0
  1  2  2  0  0  0  0
  1  3  1  0  0  0  0
  1  4  1  0  0  0  0
  2  5  1  0  0  0  0
  2  6  1  0  0  0  0
  3  7  1  0  0  0  0
  3  8  2  0  0  0  0
  4  9  2  0  0  0  0
  4 23  1  0  0  0  0
  5 10  2  0  0  0  0
  5 11  1  0  0  0  0
  6 12  2  0  0  0  0
  6 24  1  0  0  0  0
  7 13  2  0  0  0  0
  7 25  1  0  0  0  0
  8 10  1  0  0  0  0
  8 26  1  0  0  0  0
  9 14  1  0  0  0  0
  9 13  1  0  0  0  0
 10 27  1  0  0  0  0
 11 15  2  0  0  0  0
 11 28  1  0  0  0  0
 12 15  1  0  0  0  0
 12 29  1  0  0  0  0
 13 16  1  0  0  0  0
 14 17  2  0  0  0  0
 14 30  1  0  0  0  0
 15 31  1  0  0  0  0
 16 18  1  0  0  0  0
 16 19  2  0  0  0  0
 17 18  1  0  0  0  0
 17 32  1  0  0  0  0
 18 20  2  0  0  0  0
 19 21  1  0  0  0  0
 19 33  1  0  0  0  0
 20 22  1  0  0  0  0
 20 34  1  0  0  0  0
 21 22  2  0  0  0  0
 21 35  1  0  0  0  0
 22 36  1  0  0  0  0
M  END
