
  -ISIS-  09220615363D

 26 29  0  0  0  0  0  0  0  0999 V2000
   -0.0166    1.3750    0.0096 C   0  0  0  0  0  0  0  0  0  0  0  0
    0.0021   -0.0041    0.0020 C   0  0  0  0  0  0  0  0  0  0  0  0
    1.2366    1.9508    0.0007 C   0  0  0  0  0  0  0  0  0  0  0  0
   -1.2536    2.1562    0.0199 C   0  0  0  0  0  0  0  0  0  0  0  0
    1.4165   -0.4076   -0.0142 C   0  0  0  0  0  0  0  0  0  0  0  0
   -1.2256   -0.6650    0.0107 C   0  0  0  0  0  0  0  0  0  0  0  0
    2.2089    0.8472   -0.0142 C   0  0  0  0  0  0  0  0  0  0  0  0
    1.3057    3.3435    0.0069 C   0  0  0  0  0  0  0  0  0  0  0  0
   -2.4567    1.4555    0.0223 C   0  0  0  0  0  0  0  0  0  0  0  0
   -1.1380    3.5436    0.0260 C   0  0  0  0  0  0  0  0  0  0  0  0
    2.0288   -1.5668   -0.0277 C   0  0  0  0  0  0  0  0  0  0  0  0
   -2.4189    0.0571    0.0254 C   0  0  0  0  0  0  0  0  0  0  0  0
    3.5187    0.7926   -0.0257 C   0  0  0  0  0  0  0  0  0  0  0  0
    0.1409    4.1105    0.0214 C   0  0  0  0  0  0  0  0  0  0  0  0
    3.5013   -1.6247   -0.0418 C   0  0  0  0  0  0  0  0  0  0  0  0
    4.2040   -0.5119   -0.0404 C   0  0  0  0  0  0  0  0  0  0  0  0
   -1.2529   -1.7447    0.0056 H   0  0  0  0  0  0  0  0  0  0  0  0
    2.2689    3.8321    0.0009 H   0  0  0  0  0  0  0  0  0  0  0  0
   -3.4002    1.9810    0.0298 H   0  0  0  0  0  0  0  0  0  0  0  0
   -2.0180    4.1697    0.0332 H   0  0  0  0  0  0  0  0  0  0  0  0
    1.4532   -2.4806   -0.0280 H   0  0  0  0  0  0  0  0  0  0  0  0
   -3.3524   -0.4859    0.0315 H   0  0  0  0  0  0  0  0  0  0  0  0
    4.0964    1.7051   -0.0247 H   0  0  0  0  0  0  0  0  0  0  0  0
    0.2299    5.1869    0.0254 H   0  0  0  0  0  0  0  0  0  0  0  0
    4.0039   -2.5806   -0.0525 H   0  0  0  0  0  0  0  0  0  0  0  0
    5.2831   -0.5548   -0.0508 H   0  0  0  0  0  0  0  0  0  0  0  0
  1  2  2  0  0  0  0
  1  3  1  0  0  0  0
  1  4  1  0  0  0  0
  2  5  1  0  0  0  0
  2  6  1  0  0  0  0
  3  7  1  0  0  0  0
  3  8  2  0  0  0  0
  4  9  2  0  0  0  0
  4 10  1  0  0  0  0
  5 11  2  0  0  0  0
  5  7  1  0  0  0  0
  6 12  2  0  0  0  0
  6 17  1  0  0  0  0
  7 13  2  0  0  0  0
  8 14  1  0  0  0  0
  8 18  1  0  0  0  0
  9 12  1  0  0  0  0
  9 19  1  0  0  0  0
 10 14  2  0  0  0  0
 10 20  1  0  0  0  0
 11 15  1  0  0  0  0
 11 21  1  0  0  0  0
 12 22  1  0  0  0  0
 13 16  1  0  0  0  0
 13 23  1  0  0  0  0
 14 24  1  0  0  0  0
 15 16  2  0  0  0  0
 15 25  1  0  0  0  0
 16 26  1  0  0  0  0
M  END
