
  -ISIS-  09220615383D

 23 25  0  0  0  0  0  0  0  0999 V2000
   -0.0180    1.4797    0.0102 C   0  0  0  0  0  0  0  0  0  0  0  0
    0.0021   -0.0041    0.0020 C   0  0  0  0  0  0  0  0  0  0  0  0
    1.2883    1.9611    0.0003 C   0  0  0  0  0  0  0  0  0  0  0  0
   -1.0808    2.3848    0.0200 C   0  0  0  0  0  0  0  0  0  0  0  0
    1.3210   -0.4497   -0.0130 C   0  0  0  0  0  0  0  0  0  0  0  0
   -1.0357   -0.9377    0.0073 C   0  0  0  0  0  0  0  0  0  0  0  0
    2.2123    0.7680   -0.0149 C   0  0  0  0  0  0  0  0  0  0  0  0
    1.5292    3.3186    0.0049 C   0  0  0  0  0  0  0  0  0  0  0  0
   -0.8305    3.7413    0.0257 C   0  0  0  0  0  0  0  0  0  0  0  0
    1.5987   -1.8002   -0.0222 C   0  0  0  0  0  0  0  0  0  0  0  0
   -0.7487   -2.2869   -0.0023 C   0  0  0  0  0  0  0  0  0  0  0  0
    0.4709    4.2099    0.0194 C   0  0  0  0  0  0  0  0  0  0  0  0
    0.5649   -2.7199   -0.0166 C   0  0  0  0  0  0  0  0  0  0  0  0
   -2.0985    2.0231    0.0227 H   0  0  0  0  0  0  0  0  0  0  0  0
   -2.0628   -0.6039    0.0193 H   0  0  0  0  0  0  0  0  0  0  0  0
    2.8275    0.7813   -0.9146 H   0  0  0  0  0  0  0  0  0  0  0  0
    2.8446    0.7717    0.8729 H   0  0  0  0  0  0  0  0  0  0  0  0
    2.5446    3.6865   -0.0025 H   0  0  0  0  0  0  0  0  0  0  0  0
   -1.6538    4.4402    0.0332 H   0  0  0  0  0  0  0  0  0  0  0  0
    2.6236   -2.1403   -0.0342 H   0  0  0  0  0  0  0  0  0  0  0  0
   -1.5527   -3.0080    0.0022 H   0  0  0  0  0  0  0  0  0  0  0  0
    0.6612    5.2730    0.0233 H   0  0  0  0  0  0  0  0  0  0  0  0
    0.7840   -3.7775   -0.0239 H   0  0  0  0  0  0  0  0  0  0  0  0
  1  2  1  0  0  0  0
  1  3  2  0  0  0  0
  1  4  1  0  0  0  0
  2  5  1  0  0  0  0
  2  6  2  0  0  0  0
  3  7  1  0  0  0  0
  3  8  1  0  0  0  0
  4  9  2  0  0  0  0
  4 14  1  0  0  0  0
  5 10  2  0  0  0  0
  5  7  1  0  0  0  0
  6 11  1  0  0  0  0
  6 15  1  0  0  0  0
  7 16  1  0  0  0  0
  7 17  1  0  0  0  0
  8 12  2  0  0  0  0
  8 18  1  0  0  0  0
  9 12  1  0  0  0  0
  9 19  1  0  0  0  0
 10 13  1  0  0  0  0
 10 20  1  0  0  0  0
 11 13  2  0  0  0  0
 11 21  1  0  0  0  0
 12 22  1  0  0  0  0
 13 23  1  0  0  0  0
M  END
