
  -ISIS-  09220615423D

 18 19  0  0  0  0  0  0  0  0999 V2000
   -0.0171    1.4132    0.0098 C   0  0  0  0  0  0  0  0  0  0  0  0
    0.0021   -0.0041    0.0020 C   0  0  0  0  0  0  0  0  0  0  0  0
    1.1981    2.1188    0.0020 C   0  0  0  0  0  0  0  0  0  0  0  0
   -1.2510    2.0854    0.0310 C   0  0  0  0  0  0  0  0  0  0  0  0
    1.2361   -0.6761   -0.0133 C   0  0  0  0  0  0  0  0  0  0  0  0
   -1.2133   -0.7095    0.0108 C   0  0  0  0  0  0  0  0  0  0  0  0
    2.3743    1.4340   -0.0129 C   0  0  0  0  0  0  0  0  0  0  0  0
   -2.4081    1.3688    0.0438 C   0  0  0  0  0  0  0  0  0  0  0  0
    2.3932    0.0406   -0.0204 C   0  0  0  0  0  0  0  0  0  0  0  0
   -2.3893   -0.0246    0.0266 C   0  0  0  0  0  0  0  0  0  0  0  0
    1.1988    3.1988    0.0074 H   0  0  0  0  0  0  0  0  0  0  0  0
   -1.2810    3.1650    0.0375 H   0  0  0  0  0  0  0  0  0  0  0  0
    1.2662   -1.7557   -0.0190 H   0  0  0  0  0  0  0  0  0  0  0  0
   -1.2141   -1.7895    0.0046 H   0  0  0  0  0  0  0  0  0  0  0  0
    3.3068    1.9787   -0.0189 H   0  0  0  0  0  0  0  0  0  0  0  0
   -3.3551    1.8878    0.0604 H   0  0  0  0  0  0  0  0  0  0  0  0
    3.3402   -0.4784   -0.0322 H   0  0  0  0  0  0  0  0  0  0  0  0
   -3.3219   -0.5692    0.0333 H   0  0  0  0  0  0  0  0  0  0  0  0
  1  2  1  0  0  0  0
  1  3  2  0  0  0  0
  1  4  1  0  0  0  0
  2  5  2  0  0  0  0
  2  6  1  0  0  0  0
  3  7  1  0  0  0  0
  3 11  1  0  0  0  0
  4  8  2  0  0  0  0
  4 12  1  0  0  0  0
  5  9  1  0  0  0  0
  5 13  1  0  0  0  0
  6 10  2  0  0  0  0
  6 14  1  0  0  0  0
  7  9  2  0  0  0  0
  7 15  1  0  0  0  0
  8 10  1  0  0  0  0
  8 16  1  0  0  0  0
  9 17  1  0  0  0  0
 10 18  1  0  0  0  0
M  END
