
  -ISIS-  09220615393D

 30 33  0  0  0  0  0  0  0  0999 V2000
   -0.0179    1.4653    0.0101 C   0  0  0  0  0  0  0  0  0  0  0  0
    0.0021   -0.0041    0.0020 C   0  0  0  0  0  0  0  0  0  0  0  0
    1.1861    2.1820    0.0025 C   0  0  0  0  0  0  0  0  0  0  0  0
   -1.2407    2.1490    0.0313 C   0  0  0  0  0  0  0  0  0  0  0  0
    1.2254   -0.6871   -0.0138 C   0  0  0  0  0  0  0  0  0  0  0  0
   -1.2023   -0.7202    0.0106 C   0  0  0  0  0  0  0  0  0  0  0  0
    2.3960    1.4981   -0.0127 C   0  0  0  0  0  0  0  0  0  0  0  0
   -2.4316    1.4323    0.0446 C   0  0  0  0  0  0  0  0  0  0  0  0
    2.4162    0.0300   -0.0217 C   0  0  0  0  0  0  0  0  0  0  0  0
   -2.4120   -0.0357    0.0267 C   0  0  0  0  0  0  0  0  0  0  0  0
    3.6259    2.1934   -0.0204 C   0  0  0  0  0  0  0  0  0  0  0  0
   -3.6798    2.0938    0.0666 C   0  0  0  0  0  0  0  0  0  0  0  0
    3.6651   -0.6304   -0.0379 C   0  0  0  0  0  0  0  0  0  0  0  0
   -3.6425   -0.7299    0.0357 C   0  0  0  0  0  0  0  0  0  0  0  0
    4.7894    1.4957   -0.0349 C   0  0  0  0  0  0  0  0  0  0  0  0
   -4.8238    1.3646    0.0796 C   0  0  0  0  0  0  0  0  0  0  0  0
    4.8086    0.0996   -0.0455 C   0  0  0  0  0  0  0  0  0  0  0  0
   -4.8055   -0.0313    0.0515 C   0  0  0  0  0  0  0  0  0  0  0  0
    1.1740    3.2620    0.0080 H   0  0  0  0  0  0  0  0  0  0  0  0
   -1.2579    3.2288    0.0376 H   0  0  0  0  0  0  0  0  0  0  0  0
    1.2432   -1.7670   -0.0194 H   0  0  0  0  0  0  0  0  0  0  0  0
   -1.1907   -1.8001    0.0043 H   0  0  0  0  0  0  0  0  0  0  0  0
    3.6398    3.2733   -0.0151 H   0  0  0  0  0  0  0  0  0  0  0  0
   -3.7230    3.1729    0.0733 H   0  0  0  0  0  0  0  0  0  0  0  0
    3.7091   -1.7095   -0.0438 H   0  0  0  0  0  0  0  0  0  0  0  0
   -3.6573   -1.8098    0.0297 H   0  0  0  0  0  0  0  0  0  0  0  0
    5.7254    2.0344   -0.0407 H   0  0  0  0  0  0  0  0  0  0  0  0
   -5.7741    1.8776    0.0968 H   0  0  0  0  0  0  0  0  0  0  0  0
    5.7592   -0.4128   -0.0579 H   0  0  0  0  0  0  0  0  0  0  0  0
   -5.7418   -0.5695    0.0582 H   0  0  0  0  0  0  0  0  0  0  0  0
  1  2  1  0  0  0  0
  1  3  1  0  0  0  0
  1  4  2  0  0  0  0
  2  5  1  0  0  0  0
  2  6  2  0  0  0  0
  3  7  2  0  0  0  0
  3 19  1  0  0  0  0
  4  8  1  0  0  0  0
  4 20  1  0  0  0  0
  5  9  2  0  0  0  0
  5 21  1  0  0  0  0
  6 10  1  0  0  0  0
  6 22  1  0  0  0  0
  7 11  1  0  0  0  0
  7  9  1  0  0  0  0
  8 12  2  0  0  0  0
  8 10  1  0  0  0  0
  9 13  1  0  0  0  0
 10 14  2  0  0  0  0
 11 15  2  0  0  0  0
 11 23  1  0  0  0  0
 12 16  1  0  0  0  0
 12 24  1  0  0  0  0
 13 17  2  0  0  0  0
 13 25  1  0  0  0  0
 14 18  1  0  0  0  0
 14 26  1  0  0  0  0
 15 17  1  0  0  0  0
 15 27  1  0  0  0  0
 16 18  2  0  0  0  0
 16 28  1  0  0  0  0
 17 29  1  0  0  0  0
 18 30  1  0  0  0  0
M  END
