
  -ISIS-  09220615463D

 24 26  0  0  0  0  0  0  0  0999 V2000
   -0.0178    1.4613    0.0101 C   0  0  0  0  0  0  0  0  0  0  0  0
    0.0021   -0.0041    0.0020 C   0  0  0  0  0  0  0  0  0  0  0  0
    1.2125    2.1568    0.0021 C   0  0  0  0  0  0  0  0  0  0  0  0
   -1.2169    2.1765    0.0196 C   0  0  0  0  0  0  0  0  0  0  0  0
    1.2508   -0.6658   -0.0135 C   0  0  0  0  0  0  0  0  0  0  0  0
   -1.1771   -0.7516    0.0098 C   0  0  0  0  0  0  0  0  0  0  0  0
    2.4290    1.4361   -0.0139 C   0  0  0  0  0  0  0  0  0  0  0  0
    1.2051    3.5590    0.0097 C   0  0  0  0  0  0  0  0  0  0  0  0
   -1.1905    3.5420    0.0264 C   0  0  0  0  0  0  0  0  0  0  0  0
    2.4473    0.0878   -0.0204 C   0  0  0  0  0  0  0  0  0  0  0  0
    1.2814   -2.0676   -0.0213 C   0  0  0  0  0  0  0  0  0  0  0  0
   -1.1137   -2.1158    0.0023 C   0  0  0  0  0  0  0  0  0  0  0  0
    0.0174    4.2296    0.0246 C   0  0  0  0  0  0  0  0  0  0  0  0
    0.1124   -2.7703   -0.0139 C   0  0  0  0  0  0  0  0  0  0  0  0
   -2.1611    1.6522    0.0212 H   0  0  0  0  0  0  0  0  0  0  0  0
   -2.1351   -0.2532    0.0220 H   0  0  0  0  0  0  0  0  0  0  0  0
    3.3636    1.9772   -0.0199 H   0  0  0  0  0  0  0  0  0  0  0  0
    2.1363    4.1060    0.0041 H   0  0  0  0  0  0  0  0  0  0  0  0
   -2.1189    4.0938    0.0335 H   0  0  0  0  0  0  0  0  0  0  0  0
    3.3963   -0.4277   -0.0319 H   0  0  0  0  0  0  0  0  0  0  0  0
    2.2271   -2.5891   -0.0336 H   0  0  0  0  0  0  0  0  0  0  0  0
   -2.0267   -2.6927    0.0083 H   0  0  0  0  0  0  0  0  0  0  0  0
    0.0156    5.3096    0.0305 H   0  0  0  0  0  0  0  0  0  0  0  0
    0.1398   -3.8500   -0.0204 H   0  0  0  0  0  0  0  0  0  0  0  0
  1  2  2  0  0  0  0
  1  3  1  0  0  0  0
  1  4  1  0  0  0  0
  2  5  1  0  0  0  0
  2  6  1  0  0  0  0
  3  7  2  0  0  0  0
  3  8  1  0  0  0  0
  4  9  2  0  0  0  0
  4 15  1  0  0  0  0
  5 10  2  0  0  0  0
  5 11  1  0  0  0  0
  6 12  2  0  0  0  0
  6 16  1  0  0  0  0
  7 10  1  0  0  0  0
  7 17  1  0  0  0  0
  8 13  2  0  0  0  0
  8 18  1  0  0  0  0
  9 13  1  0  0  0  0
  9 19  1  0  0  0  0
 10 20  1  0  0  0  0
 11 14  2  0  0  0  0
 11 21  1  0  0  0  0
 12 14  1  0  0  0  0
 12 22  1  0  0  0  0
 13 23  1  0  0  0  0
 14 24  1  0  0  0  0
M  END
