
  -ISIS-  09220615443D

 32 36  0  0  0  0  0  0  0  0999 V2000
   -0.0171    1.4081    0.0098 C   0  0  0  0  0  0  0  0  0  0  0  0
    0.0021   -0.0041    0.0020 C   0  0  0  0  0  0  0  0  0  0  0  0
    1.1854    2.1488    0.0023 C   0  0  0  0  0  0  0  0  0  0  0  0
   -1.2563    2.0896    0.0193 C   0  0  0  0  0  0  0  0  0  0  0  0
    1.2945   -0.7145   -0.0142 C   0  0  0  0  0  0  0  0  0  0  0  0
   -1.1970   -0.6997    0.0094 C   0  0  0  0  0  0  0  0  0  0  0  0
    2.4778    1.4384   -0.0138 C   0  0  0  0  0  0  0  0  0  0  0  0
    1.1307    3.5340    0.0097 C   0  0  0  0  0  0  0  0  0  0  0  0
   -2.4495    1.3466    0.0215 C   0  0  0  0  0  0  0  0  0  0  0  0
   -1.2681    3.4952    0.0269 C   0  0  0  0  0  0  0  0  0  0  0  0
    2.4970    0.0263   -0.0216 C   0  0  0  0  0  0  0  0  0  0  0  0
    1.3499   -2.0996   -0.0229 C   0  0  0  0  0  0  0  0  0  0  0  0
   -2.4068   -0.0165    0.0237 C   0  0  0  0  0  0  0  0  0  0  0  0
    3.6765    2.1347   -0.0217 C   0  0  0  0  0  0  0  0  0  0  0  0
   -0.0943    4.1896    0.0248 C   0  0  0  0  0  0  0  0  0  0  0  0
    3.7365   -0.6546   -0.0376 C   0  0  0  0  0  0  0  0  0  0  0  0
    2.5751   -2.7547   -0.0386 C   0  0  0  0  0  0  0  0  0  0  0  0
    4.8866    1.4519   -0.0373 C   0  0  0  0  0  0  0  0  0  0  0  0
    3.7487   -2.0602   -0.0460 C   0  0  0  0  0  0  0  0  0  0  0  0
    4.9295    0.0888   -0.0444 C   0  0  0  0  0  0  0  0  0  0  0  0
   -1.1907   -1.7797    0.0036 H   0  0  0  0  0  0  0  0  0  0  0  0
    2.0461    4.1071    0.0040 H   0  0  0  0  0  0  0  0  0  0  0  0
   -3.4018    1.8561    0.0292 H   0  0  0  0  0  0  0  0  0  0  0  0
   -2.2084    4.0263    0.0337 H   0  0  0  0  0  0  0  0  0  0  0  0
    0.4348   -2.6731   -0.0170 H   0  0  0  0  0  0  0  0  0  0  0  0
   -3.3308   -0.5755    0.0289 H   0  0  0  0  0  0  0  0  0  0  0  0
    3.6698    3.2146   -0.0161 H   0  0  0  0  0  0  0  0  0  0  0  0
   -0.1173    5.2693    0.0311 H   0  0  0  0  0  0  0  0  0  0  0  0
    2.5984   -3.8345   -0.0452 H   0  0  0  0  0  0  0  0  0  0  0  0
    5.8105    2.0111   -0.0432 H   0  0  0  0  0  0  0  0  0  0  0  0
    4.6892   -2.5911   -0.0582 H   0  0  0  0  0  0  0  0  0  0  0  0
    5.8818   -0.4204   -0.0565 H   0  0  0  0  0  0  0  0  0  0  0  0
  1  2  2  0  0  0  0
  1  3  1  0  0  0  0
  1  4  1  0  0  0  0
  2  5  1  0  0  0  0
  2  6  1  0  0  0  0
  3  7  1  0  0  0  0
  3  8  2  0  0  0  0
  4  9  2  0  0  0  0
  4 10  1  0  0  0  0
  5 11  2  0  0  0  0
  5 12  1  0  0  0  0
  6 13  2  0  0  0  0
  6 21  1  0  0  0  0
  7 14  2  0  0  0  0
  7 11  1  0  0  0  0
  8 15  1  0  0  0  0
  8 22  1  0  0  0  0
  9 13  1  0  0  0  0
  9 23  1  0  0  0  0
 10 15  2  0  0  0  0
 10 24  1  0  0  0  0
 11 16  1  0  0  0  0
 12 17  2  0  0  0  0
 12 25  1  0  0  0  0
 13 26  1  0  0  0  0
 14 18  1  0  0  0  0
 14 27  1  0  0  0  0
 15 28  1  0  0  0  0
 16 19  2  0  0  0  0
 16 20  1  0  0  0  0
 17 19  1  0  0  0  0
 17 29  1  0  0  0  0
 18 20  2  0  0  0  0
 18 30  1  0  0  0  0
 19 31  1  0  0  0  0
 20 32  1  0  0  0  0
M  END
