3aa.pdb
 OpenBabel02251613503D

 37 38  0  0  0  0  0  0  0  0999 V2000
    0.4250   -0.5610    2.6300 H   0  0  0  0  0  0  0  0  0  0  0  0
   -0.1030   -0.3650    1.6980 C   0  0  0  0  0  0  0  0  0  0  0  0
   -1.4090    0.0920    1.7150 C   0  0  0  0  0  0  0  0  0  0  0  0
   -1.9130    0.2560    2.6630 H   0  0  0  0  0  0  0  0  0  0  0  0
   -2.0740    0.2880    0.5090 C   0  0  0  0  0  0  0  0  0  0  0  0
   -3.1210    0.5820    0.5150 H   0  0  0  0  0  0  0  0  0  0  0  0
   -1.4010    0.1180   -0.7100 C   0  0  0  0  0  0  0  0  0  0  0  0
   -1.9480    0.3030   -1.6340 H   0  0  0  0  0  0  0  0  0  0  0  0
   -0.0570   -0.2880   -0.7520 C   0  0  0  0  0  0  0  0  0  0  0  0
    0.6010   -0.3260   -2.1210 C   0  0  0  0  0  0  0  0  0  0  0  0
    0.5320   -0.6130    0.4780 C   0  0  0  0  0  0  0  0  0  0  0  0
    1.4730   -1.1270    0.5810 H   0  0  0  0  0  0  0  0  0  0  0  0
   -0.1340   -0.4400   -3.1010 O   0  0  0  0  0  0  0  0  0  0  0  0
    2.1030   -0.0710   -2.3310 C   0  0  0  0  0  0  0  0  0  0  0  0
    3.0080   -0.7430   -1.2800 C   0  0  0  0  0  0  0  0  0  0  0  0
    2.3500    0.7450   -3.4080 C   0  0  0  0  0  0  0  0  0  0  0  0
    2.7650   -0.3110   -0.3260 H   0  0  0  0  0  0  0  0  0  0  0  0
    4.4490   -0.6760   -1.3040 O   0  0  0  0  0  0  0  0  0  0  0  0
    2.7630   -1.8140   -1.2550 H   0  0  0  0  0  0  0  0  0  0  0  0
    1.5150    1.0910   -4.0200 H   0  0  0  0  0  0  0  0  0  0  0  0
    3.6450    1.3590   -3.8100 C   0  0  0  0  0  0  0  0  0  0  0  0
    5.1940    0.0470   -0.3970 C   0  0  0  0  0  0  0  0  0  0  0  0
    6.3920   -0.1780   -0.2610 O   0  0  0  0  0  0  0  0  0  0  0  0
    4.5840    1.2920    0.2630 C   0  0  0  0  0  0  0  0  0  0  0  0
    4.7210    1.2830    1.3400 H   0  0  0  0  0  0  0  0  0  0  0  0
    3.5220    1.4520    0.0600 H   0  0  0  0  0  0  0  0  0  0  0  0
    5.0940    2.1850   -0.1310 H   0  0  0  0  0  0  0  0  0  0  0  0
    4.5070    1.5660   -2.7680 C   0  0  0  0  0  0  0  0  0  0  0  0
    4.0650    1.9720   -4.9780 C   0  0  0  0  0  0  0  0  0  0  0  0
    5.3940    2.4760   -5.0710 C   0  0  0  0  0  0  0  0  0  0  0  0
    5.8540    1.8690   -2.8510 C   0  0  0  0  0  0  0  0  0  0  0  0
    6.3320    2.2600   -4.0640 C   0  0  0  0  0  0  0  0  0  0  0  0
    7.3860    2.4950   -4.1580 H   0  0  0  0  0  0  0  0  0  0  0  0
    6.4870    1.8530   -1.9700 H   0  0  0  0  0  0  0  0  0  0  0  0
    3.3870    2.1290   -5.8100 F   0  0  0  0  0  0  0  0  0  0  0  0
    5.6980    3.0890   -5.9120 H   0  0  0  0  0  0  0  0  0  0  0  0
    4.0250    1.4960   -1.8290 H   0  0  0  0  0  0  0  0  0  0  0  0
  1  2  1  0  0  0  0
  2  3  2  0  0  0  0
  2 11  1  0  0  0  0
  3  4  1  0  0  0  0
  3  5  1  0  0  0  0
  5  6  1  0  0  0  0
  5  7  2  0  0  0  0
  7  8  1  0  0  0  0
  7  9  1  0  0  0  0
  9 10  1  0  0  0  0
  9 11  2  0  0  0  0
 10 13  2  0  0  0  0
 10 14  1  0  0  0  0
 11 12  1  0  0  0  0
 14 15  1  0  0  0  0
 14 16  2  0  0  0  0
 15 17  1  0  0  0  0
 15 18  1  0  0  0  0
 15 19  1  0  0  0  0
 16 20  1  0  0  0  0
 16 21  1  0  0  0  0
 18 22  1  0  0  0  0
 21 28  2  0  0  0  0
 21 29  1  0  0  0  0
 22 23  2  0  0  0  0
 22 24  1  0  0  0  0
 24 25  1  0  0  0  0
 24 26  1  0  0  0  0
 24 27  1  0  0  0  0
 28 31  1  0  0  0  0
 28 37  1  0  0  0  0
 29 30  2  0  0  0  0
 29 35  1  0  0  0  0
 30 32  1  0  0  0  0
 30 36  1  0  0  0  0
 31 32  2  0  0  0  0
 31 34  1  0  0  0  0
 32 33  1  0  0  0  0
M  END
>  <COMPND>
    UNNAMED

>  <AUTHOR>
    GENERATED BY OPEN BABEL 2.3.1

>  <MASTER>
        0    0    0    0    0    0    0    0   37    0   37    0

$$$$
