3ab.pdb
 OpenBabel02251613503D

 37 38  0  0  0  0  0  0  0  0999 V2000
    0.4070   -0.5750    2.6330 H   0  0  0  0  0  0  0  0  0  0  0  0
   -0.1150   -0.3740    1.7000 C   0  0  0  0  0  0  0  0  0  0  0  0
   -1.4180    0.0910    1.7120 C   0  0  0  0  0  0  0  0  0  0  0  0
   -1.9250    0.2570    2.6590 H   0  0  0  0  0  0  0  0  0  0  0  0
   -2.0780    0.2950    0.5050 C   0  0  0  0  0  0  0  0  0  0  0  0
   -3.1220    0.5970    0.5080 H   0  0  0  0  0  0  0  0  0  0  0  0
   -1.4020    0.1240   -0.7120 C   0  0  0  0  0  0  0  0  0  0  0  0
   -1.9430    0.3150   -1.6380 H   0  0  0  0  0  0  0  0  0  0  0  0
   -0.0610   -0.2920   -0.7490 C   0  0  0  0  0  0  0  0  0  0  0  0
    0.6010   -0.3350   -2.1110 C   0  0  0  0  0  0  0  0  0  0  0  0
    0.5230   -0.6240    0.4810 C   0  0  0  0  0  0  0  0  0  0  0  0
    1.4620   -1.1440    0.5830 H   0  0  0  0  0  0  0  0  0  0  0  0
   -0.1260   -0.4620   -3.1010 O   0  0  0  0  0  0  0  0  0  0  0  0
    2.0930   -0.0730   -2.3050 C   0  0  0  0  0  0  0  0  0  0  0  0
    3.0040   -0.7360   -1.2670 C   0  0  0  0  0  0  0  0  0  0  0  0
    2.3500    0.7340   -3.3770 C   0  0  0  0  0  0  0  0  0  0  0  0
    2.7610   -0.3080   -0.3130 H   0  0  0  0  0  0  0  0  0  0  0  0
    4.4460   -0.6590   -1.3090 O   0  0  0  0  0  0  0  0  0  0  0  0
    2.7680   -1.8070   -1.2530 H   0  0  0  0  0  0  0  0  0  0  0  0
    1.5300    1.0770   -4.0140 H   0  0  0  0  0  0  0  0  0  0  0  0
    3.6620    1.2970   -3.7490 C   0  0  0  0  0  0  0  0  0  0  0  0
    5.1790    0.0280   -0.3740 C   0  0  0  0  0  0  0  0  0  0  0  0
    6.3900   -0.2170   -0.2330 O   0  0  0  0  0  0  0  0  0  0  0  0
    4.5890    1.2640    0.3060 C   0  0  0  0  0  0  0  0  0  0  0  0
    4.7320    1.2360    1.3810 H   0  0  0  0  0  0  0  0  0  0  0  0
    3.5260    1.4310    0.1130 H   0  0  0  0  0  0  0  0  0  0  0  0
    5.1020    2.1610   -0.0780 H   0  0  0  0  0  0  0  0  0  0  0  0
    4.4920    1.5820   -2.6940 C   0  0  0  0  0  0  0  0  0  0  0  0
    4.0950    1.8520   -4.9400 C   0  0  0  0  0  0  0  0  0  0  0  0
    5.3810    2.3600   -5.0680 C   0  0  0  0  0  0  0  0  0  0  0  0
    5.8450    1.8540   -2.8060 C   0  0  0  0  0  0  0  0  0  0  0  0
    6.2880    2.2030   -4.0510 C   0  0  0  0  0  0  0  0  0  0  0  0
    7.8540    2.7780   -4.3550 Cl  0  0  0  0  0  0  0  0  0  0  0  0
    6.4970    1.8790   -1.9370 H   0  0  0  0  0  0  0  0  0  0  0  0
    3.0170    2.3490   -6.1650 Cl  0  0  0  0  0  0  0  0  0  0  0  0
    5.6650    2.9890   -5.9070 H   0  0  0  0  0  0  0  0  0  0  0  0
    3.9950    1.5640   -1.7530 H   0  0  0  0  0  0  0  0  0  0  0  0
  1  2  1  0  0  0  0
  2  3  2  0  0  0  0
  2 11  1  0  0  0  0
  3  4  1  0  0  0  0
  3  5  1  0  0  0  0
  5  6  1  0  0  0  0
  5  7  2  0  0  0  0
  7  8  1  0  0  0  0
  7  9  1  0  0  0  0
  9 10  1  0  0  0  0
  9 11  2  0  0  0  0
 10 13  2  0  0  0  0
 10 14  1  0  0  0  0
 11 12  1  0  0  0  0
 14 15  1  0  0  0  0
 14 16  2  0  0  0  0
 15 17  1  0  0  0  0
 15 18  1  0  0  0  0
 15 19  1  0  0  0  0
 16 20  1  0  0  0  0
 16 21  1  0  0  0  0
 18 22  1  0  0  0  0
 21 28  2  0  0  0  0
 21 29  1  0  0  0  0
 22 23  2  0  0  0  0
 22 24  1  0  0  0  0
 24 25  1  0  0  0  0
 24 26  1  0  0  0  0
 24 27  1  0  0  0  0
 28 31  1  0  0  0  0
 28 37  1  0  0  0  0
 29 30  2  0  0  0  0
 29 35  1  0  0  0  0
 30 32  1  0  0  0  0
 30 36  1  0  0  0  0
 31 32  2  0  0  0  0
 31 34  1  0  0  0  0
 32 33  1  0  0  0  0
M  END
>  <COMPND>
    UNNAMED

>  <AUTHOR>
    GENERATED BY OPEN BABEL 2.3.1

>  <MASTER>
        0    0    0    0    0    0    0    0   37    0   37    0

$$$$
