3ba.pdb
 OpenBabel02251613503D

 41 42  0  0  0  0  0  0  0  0999 V2000
    0.4580   -0.5920    2.5030 H   0  0  0  0  0  0  0  0  0  0  0  0
   -0.0930   -0.3860    1.5830 C   0  0  0  0  0  0  0  0  0  0  0  0
   -1.4100    0.0780    1.5440 C   0  0  0  0  0  0  0  0  0  0  0  0
   -2.1950    0.3440    2.6160 O   0  0  0  0  0  0  0  0  0  0  0  0
   -2.0780    0.2900    0.3670 C   0  0  0  0  0  0  0  0  0  0  0  0
   -3.1180    0.5980    0.4170 H   0  0  0  0  0  0  0  0  0  0  0  0
   -1.3870    0.1200   -0.8090 C   0  0  0  0  0  0  0  0  0  0  0  0
   -1.9300    0.3200   -1.7250 H   0  0  0  0  0  0  0  0  0  0  0  0
   -0.0410   -0.3030   -0.8110 C   0  0  0  0  0  0  0  0  0  0  0  0
    0.6180   -0.3390   -2.1570 C   0  0  0  0  0  0  0  0  0  0  0  0
    0.5530   -0.6490    0.4030 C   0  0  0  0  0  0  0  0  0  0  0  0
    1.4870   -1.1680    0.5410 H   0  0  0  0  0  0  0  0  0  0  0  0
   -0.1050   -0.4700   -3.1240 O   0  0  0  0  0  0  0  0  0  0  0  0
    2.1150   -0.0580   -2.3310 C   0  0  0  0  0  0  0  0  0  0  0  0
    3.0130   -0.7260   -1.2780 C   0  0  0  0  0  0  0  0  0  0  0  0
    2.3670    0.7590   -3.3970 C   0  0  0  0  0  0  0  0  0  0  0  0
    2.7690   -0.2990   -0.3220 H   0  0  0  0  0  0  0  0  0  0  0  0
    4.4500   -0.6530   -1.3170 O   0  0  0  0  0  0  0  0  0  0  0  0
    2.7730   -1.7980   -1.2590 H   0  0  0  0  0  0  0  0  0  0  0  0
    1.5390    1.0850   -4.0330 H   0  0  0  0  0  0  0  0  0  0  0  0
    3.6620    1.3760   -3.7880 C   0  0  0  0  0  0  0  0  0  0  0  0
    5.1980    0.0260   -0.3760 C   0  0  0  0  0  0  0  0  0  0  0  0
    6.3740   -0.2220   -0.2270 O   0  0  0  0  0  0  0  0  0  0  0  0
    4.5900    1.2610    0.3090 C   0  0  0  0  0  0  0  0  0  0  0  0
    4.7340    1.2240    1.3840 H   0  0  0  0  0  0  0  0  0  0  0  0
    3.5280    1.4280    0.1170 H   0  0  0  0  0  0  0  0  0  0  0  0
    5.1050    2.1560   -0.0710 H   0  0  0  0  0  0  0  0  0  0  0  0
    4.5270    1.6080   -2.7440 C   0  0  0  0  0  0  0  0  0  0  0  0
    4.0920    1.9530   -4.9630 C   0  0  0  0  0  0  0  0  0  0  0  0
    5.4040    2.4620   -5.1030 C   0  0  0  0  0  0  0  0  0  0  0  0
    5.8760    1.9100   -2.8620 C   0  0  0  0  0  0  0  0  0  0  0  0
    6.3440    2.2970   -4.0810 C   0  0  0  0  0  0  0  0  0  0  0  0
    7.3900    2.5570   -4.1950 H   0  0  0  0  0  0  0  0  0  0  0  0
    6.5210    1.8840   -1.9860 H   0  0  0  0  0  0  0  0  0  0  0  0
    3.2380    2.1270   -5.9860 F   0  0  0  0  0  0  0  0  0  0  0  0
    5.6910    3.0120   -5.9870 H   0  0  0  0  0  0  0  0  0  0  0  0
    4.0570    1.5600   -1.7980 H   0  0  0  0  0  0  0  0  0  0  0  0
   -1.4460    0.1220    3.7770 C   0  0  0  0  0  0  0  0  0  0  0  0
   -2.1090    0.3390    4.5980 H   0  0  0  0  0  0  0  0  0  0  0  0
   -0.5890    0.8110    3.7680 H   0  0  0  0  0  0  0  0  0  0  0  0
   -1.1430   -0.9340    3.7950 H   0  0  0  0  0  0  0  0  0  0  0  0
  1  2  1  0  0  0  0
  2  3  2  0  0  0  0
  2 11  1  0  0  0  0
  3  4  1  0  0  0  0
  3  5  1  0  0  0  0
  4 38  1  0  0  0  0
  5  6  1  0  0  0  0
  5  7  2  0  0  0  0
  7  8  1  0  0  0  0
  7  9  1  0  0  0  0
  9 10  1  0  0  0  0
  9 11  2  0  0  0  0
 10 13  2  0  0  0  0
 10 14  1  0  0  0  0
 11 12  1  0  0  0  0
 14 15  1  0  0  0  0
 14 16  2  0  0  0  0
 15 17  1  0  0  0  0
 15 18  1  0  0  0  0
 15 19  1  0  0  0  0
 16 20  1  0  0  0  0
 16 21  1  0  0  0  0
 18 22  1  0  0  0  0
 21 28  2  0  0  0  0
 21 29  1  0  0  0  0
 22 23  2  0  0  0  0
 22 24  1  0  0  0  0
 24 25  1  0  0  0  0
 24 26  1  0  0  0  0
 24 27  1  0  0  0  0
 28 31  1  0  0  0  0
 28 37  1  0  0  0  0
 29 30  2  0  0  0  0
 29 35  1  0  0  0  0
 30 32  1  0  0  0  0
 30 36  1  0  0  0  0
 31 32  2  0  0  0  0
 31 34  1  0  0  0  0
 32 33  1  0  0  0  0
 38 39  1  0  0  0  0
 38 40  1  0  0  0  0
 38 41  1  0  0  0  0
M  END
>  <COMPND>
    UNNAMED

>  <AUTHOR>
    GENERATED BY OPEN BABEL 2.3.1

>  <MASTER>
        0    0    0    0    0    0    0    0   41    0   41    0

$$$$
