3be.pdb
 OpenBabel02251613503D

 46 46  0  0  0  0  0  0  0  0999 V2000
   -0.2280   -1.4210    2.3810 H   0  0  0  0  0  0  0  0  0  0  0  0
   -0.4730   -0.8310    1.5030 C   0  0  0  0  0  0  0  0  0  0  0  0
   -1.5290    0.0820    1.5120 C   0  0  0  0  0  0  0  0  0  0  0  0
   -2.3260    0.3620    2.5870 O   0  0  0  0  0  0  0  0  0  0  0  0
   -1.8610    0.7570    0.3360 C   0  0  0  0  0  0  0  0  0  0  0  0
   -2.7130    1.4330    0.3240 H   0  0  0  0  0  0  0  0  0  0  0  0
   -1.1030    0.5760   -0.8230 C   0  0  0  0  0  0  0  0  0  0  0  0
   -1.3760    1.1090   -1.7320 H   0  0  0  0  0  0  0  0  0  0  0  0
   -0.0080   -0.2930   -0.8150 C   0  0  0  0  0  0  0  0  0  0  0  0
    0.7490   -0.4370   -2.0890 C   0  0  0  0  0  0  0  0  0  0  0  0
    0.2740   -1.0330    0.3350 C   0  0  0  0  0  0  0  0  0  0  0  0
    1.0450   -1.7970    0.3440 H   0  0  0  0  0  0  0  0  0  0  0  0
    0.1450   -0.7260   -3.0940 O   0  0  0  0  0  0  0  0  0  0  0  0
    2.2260   -0.0930   -2.1140 C   0  0  0  0  0  0  0  0  0  0  0  0
    3.0970   -0.7660   -1.0890 C   0  0  0  0  0  0  0  0  0  0  0  0
    2.5580    0.7250   -3.1400 C   0  0  0  0  0  0  0  0  0  0  0  0
    2.8380   -0.4190   -0.0890 H   0  0  0  0  0  0  0  0  0  0  0  0
    4.5070   -0.6330   -1.3300 O   0  0  0  0  0  0  0  0  0  0  0  0
    2.9000   -1.8440   -1.1220 H   0  0  0  0  0  0  0  0  0  0  0  0
    1.7430    1.0940   -3.7690 H   0  0  0  0  0  0  0  0  0  0  0  0
    3.9350    1.1870   -3.5920 C   0  0  0  0  0  0  0  0  0  0  0  0
    5.3740   -0.1180   -0.4310 C   0  0  0  0  0  0  0  0  0  0  0  0
    6.5840   -0.3160   -0.5420 O   0  0  0  0  0  0  0  0  0  0  0  0
    4.8240    0.7070    0.6940 C   0  0  0  0  0  0  0  0  0  0  0  0
    4.4790    0.0600    1.5030 H   0  0  0  0  0  0  0  0  0  0  0  0
    4.0230    1.3650    0.3520 H   0  0  0  0  0  0  0  0  0  0  0  0
    5.6190    1.3580    1.0740 H   0  0  0  0  0  0  0  0  0  0  0  0
    4.4330    2.3910   -2.7720 C   0  0  0  0  0  0  0  0  0  0  0  0
    3.9260    1.5120   -5.1140 C   0  0  0  0  0  0  0  0  0  0  0  0
    5.0580    2.4100   -5.5870 C   0  0  0  0  0  0  0  0  0  0  0  0
    5.9310    2.6390   -2.9440 C   0  0  0  0  0  0  0  0  0  0  0  0
   -1.7730    0.0790    3.8670 C   0  0  0  0  0  0  0  0  0  0  0  0
   -2.4320    0.5200    4.6210 H   0  0  0  0  0  0  0  0  0  0  0  0
   -0.7830    0.5340    3.9830 H   0  0  0  0  0  0  0  0  0  0  0  0
   -1.7340   -1.0000    4.0480 H   0  0  0  0  0  0  0  0  0  0  0  0
    3.0010    2.0210   -5.3990 H   0  0  0  0  0  0  0  0  0  0  0  0
    3.9930    0.5760   -5.6760 H   0  0  0  0  0  0  0  0  0  0  0  0
    4.6310    0.3500   -3.4630 H   0  0  0  0  0  0  0  0  0  0  0  0
    4.2860    2.2340   -1.7010 H   0  0  0  0  0  0  0  0  0  0  0  0
    3.8480    3.2820   -3.0370 H   0  0  0  0  0  0  0  0  0  0  0  0
    4.9250    3.4060   -5.1200 H   0  0  0  0  0  0  0  0  0  0  0  0
    5.0550    2.6590   -6.6440 H   0  0  0  0  0  0  0  0  0  0  0  0
    6.0190    1.8900   -5.4020 H   0  0  0  0  0  0  0  0  0  0  0  0
    6.5140    1.7370   -2.7770 H   0  0  0  0  0  0  0  0  0  0  0  0
    6.2610    3.5180   -2.4100 H   0  0  0  0  0  0  0  0  0  0  0  0
    6.3090    2.9410   -3.9030 H   0  0  0  0  0  0  0  0  0  0  0  0
  1  2  1  0  0  0  0
  2  3  2  0  0  0  0
  2 11  1  0  0  0  0
  3  4  1  0  0  0  0
  3  5  1  0  0  0  0
  4 32  1  0  0  0  0
  5  6  1  0  0  0  0
  5  7  2  0  0  0  0
  7  8  1  0  0  0  0
  7  9  1  0  0  0  0
  9 10  1  0  0  0  0
  9 11  2  0  0  0  0
 10 13  2  0  0  0  0
 10 14  1  0  0  0  0
 11 12  1  0  0  0  0
 14 15  1  0  0  0  0
 14 16  2  0  0  0  0
 15 17  1  0  0  0  0
 15 18  1  0  0  0  0
 15 19  1  0  0  0  0
 16 20  1  0  0  0  0
 16 21  1  0  0  0  0
 18 22  1  0  0  0  0
 21 28  1  0  0  0  0
 21 29  1  0  0  0  0
 21 38  1  0  0  0  0
 22 23  2  0  0  0  0
 22 24  1  0  0  0  0
 24 25  1  0  0  0  0
 24 26  1  0  0  0  0
 24 27  1  0  0  0  0
 28 31  1  0  0  0  0
 28 39  1  0  0  0  0
 28 40  1  0  0  0  0
 29 30  1  0  0  0  0
 29 36  1  0  0  0  0
 29 37  1  0  0  0  0
 30 41  1  0  0  0  0
 30 42  1  0  0  0  0
 30 43  1  0  0  0  0
 31 44  1  0  0  0  0
 31 45  1  0  0  0  0
 31 46  1  0  0  0  0
 32 33  1  0  0  0  0
 32 34  1  0  0  0  0
 32 35  1  0  0  0  0
M  END
>  <COMPND>
    UNNAMED

>  <AUTHOR>
    GENERATED BY OPEN BABEL 2.3.1

>  <MASTER>
        0    0    0    0    0    0    0    0   46    0   46    0

$$$$
