3bf.pdb
 OpenBabel02251613503D

 47 48  0  0  0  0  0  0  0  0999 V2000
   -0.2270   -1.4200    2.3810 H   0  0  0  0  0  0  0  0  0  0  0  0
   -0.4730   -0.8310    1.5030 C   0  0  0  0  0  0  0  0  0  0  0  0
   -1.5290    0.0810    1.5120 C   0  0  0  0  0  0  0  0  0  0  0  0
   -2.3260    0.3610    2.5870 O   0  0  0  0  0  0  0  0  0  0  0  0
   -1.8620    0.7560    0.3360 C   0  0  0  0  0  0  0  0  0  0  0  0
   -2.7150    1.4310    0.3240 H   0  0  0  0  0  0  0  0  0  0  0  0
   -1.1040    0.5750   -0.8230 C   0  0  0  0  0  0  0  0  0  0  0  0
   -1.3780    1.1070   -1.7330 H   0  0  0  0  0  0  0  0  0  0  0  0
   -0.0080   -0.2930   -0.8160 C   0  0  0  0  0  0  0  0  0  0  0  0
    0.7540   -0.4340   -2.0790 C   0  0  0  0  0  0  0  0  0  0  0  0
    0.2740   -1.0330    0.3360 C   0  0  0  0  0  0  0  0  0  0  0  0
    1.0460   -1.7960    0.3450 H   0  0  0  0  0  0  0  0  0  0  0  0
    0.1390   -0.7280   -3.1030 O   0  0  0  0  0  0  0  0  0  0  0  0
    2.2230   -0.0930   -2.1140 C   0  0  0  0  0  0  0  0  0  0  0  0
    3.0960   -0.7660   -1.0890 C   0  0  0  0  0  0  0  0  0  0  0  0
    2.5540    0.7250   -3.1400 C   0  0  0  0  0  0  0  0  0  0  0  0
    2.8380   -0.4190   -0.0890 H   0  0  0  0  0  0  0  0  0  0  0  0
    4.5070   -0.6330   -1.3300 O   0  0  0  0  0  0  0  0  0  0  0  0
    2.9000   -1.8440   -1.1220 H   0  0  0  0  0  0  0  0  0  0  0  0
    1.7410    1.0940   -3.7700 H   0  0  0  0  0  0  0  0  0  0  0  0
    3.9260    1.1810   -3.5850 C   0  0  0  0  0  0  0  0  0  0  0  0
    5.3760   -0.1190   -0.4310 C   0  0  0  0  0  0  0  0  0  0  0  0
    6.5820   -0.3180   -0.5400 O   0  0  0  0  0  0  0  0  0  0  0  0
    4.8240    0.7080    0.6940 C   0  0  0  0  0  0  0  0  0  0  0  0
    4.4800    0.0620    1.5040 H   0  0  0  0  0  0  0  0  0  0  0  0
    4.0220    1.3650    0.3510 H   0  0  0  0  0  0  0  0  0  0  0  0
    5.6190    1.3600    1.0710 H   0  0  0  0  0  0  0  0  0  0  0  0
    4.4340    2.3840   -2.7850 C   0  0  0  0  0  0  0  0  0  0  0  0
    3.9540    1.5300   -5.0920 C   0  0  0  0  0  0  0  0  0  0  0  0
    5.1270    2.4410   -5.4810 C   0  0  0  0  0  0  0  0  0  0  0  0
    5.9130    2.6470   -3.0860 C   0  0  0  0  0  0  0  0  0  0  0  0
    6.3060    2.3060   -4.5260 C   0  0  0  0  0  0  0  0  0  0  0  0
   -1.7720    0.0790    3.8670 C   0  0  0  0  0  0  0  0  0  0  0  0
   -2.4320    0.5200    4.6210 H   0  0  0  0  0  0  0  0  0  0  0  0
   -0.7830    0.5350    3.9820 H   0  0  0  0  0  0  0  0  0  0  0  0
   -1.7320   -0.9990    4.0490 H   0  0  0  0  0  0  0  0  0  0  0  0
    3.0250    2.0240   -5.4050 H   0  0  0  0  0  0  0  0  0  0  0  0
    4.0100    0.5980   -5.6680 H   0  0  0  0  0  0  0  0  0  0  0  0
    4.7880    3.4850   -5.4800 H   0  0  0  0  0  0  0  0  0  0  0  0
    5.4410    2.2200   -6.5080 H   0  0  0  0  0  0  0  0  0  0  0  0
    4.6240    0.3450   -3.4590 H   0  0  0  0  0  0  0  0  0  0  0  0
    4.3050    2.2450   -1.7090 H   0  0  0  0  0  0  0  0  0  0  0  0
    3.8470    3.2750   -3.0440 H   0  0  0  0  0  0  0  0  0  0  0  0
    6.5400    2.0570   -2.4060 H   0  0  0  0  0  0  0  0  0  0  0  0
    6.1370    3.6990   -2.8740 H   0  0  0  0  0  0  0  0  0  0  0  0
    7.1320    2.9520   -4.8440 H   0  0  0  0  0  0  0  0  0  0  0  0
    6.6830    1.2770   -4.5670 H   0  0  0  0  0  0  0  0  0  0  0  0
  1  2  1  0  0  0  0
  2  3  2  0  0  0  0
  2 11  1  0  0  0  0
  3  4  1  0  0  0  0
  3  5  1  0  0  0  0
  4 33  1  0  0  0  0
  5  6  1  0  0  0  0
  5  7  2  0  0  0  0
  7  8  1  0  0  0  0
  7  9  1  0  0  0  0
  9 10  1  0  0  0  0
  9 11  2  0  0  0  0
 10 13  2  0  0  0  0
 10 14  1  0  0  0  0
 11 12  1  0  0  0  0
 14 15  1  0  0  0  0
 14 16  2  0  0  0  0
 15 17  1  0  0  0  0
 15 18  1  0  0  0  0
 15 19  1  0  0  0  0
 16 20  1  0  0  0  0
 16 21  1  0  0  0  0
 18 22  1  0  0  0  0
 21 28  1  0  0  0  0
 21 29  1  0  0  0  0
 21 41  1  0  0  0  0
 22 23  2  0  0  0  0
 22 24  1  0  0  0  0
 24 25  1  0  0  0  0
 24 26  1  0  0  0  0
 24 27  1  0  0  0  0
 28 31  1  0  0  0  0
 28 42  1  0  0  0  0
 28 43  1  0  0  0  0
 29 30  1  0  0  0  0
 29 37  1  0  0  0  0
 29 38  1  0  0  0  0
 30 32  1  0  0  0  0
 30 39  1  0  0  0  0
 30 40  1  0  0  0  0
 31 32  1  0  0  0  0
 31 44  1  0  0  0  0
 31 45  1  0  0  0  0
 32 46  1  0  0  0  0
 32 47  1  0  0  0  0
 33 34  1  0  0  0  0
 33 35  1  0  0  0  0
 33 36  1  0  0  0  0
M  END
>  <COMPND>
    UNNAMED

>  <AUTHOR>
    GENERATED BY OPEN BABEL 2.3.1

>  <MASTER>
        0    0    0    0    0    0    0    0   47    0   47    0

$$$$
