3de.pdb
 OpenBabel02251613503D

 53 54  0  0  0  0  0  0  0  0999 V2000
   -0.1790   -1.4920    2.0740 H   0  0  0  0  0  0  0  0  0  0  0  0
   -0.3910   -0.8090    1.2580 C   0  0  0  0  0  0  0  0  0  0  0  0
   -1.4060    0.1440    1.3370 C   0  0  0  0  0  0  0  0  0  0  0  0
   -2.2010    0.3750    2.4210 O   0  0  0  0  0  0  0  0  0  0  0  0
   -1.7260    0.9160    0.2180 C   0  0  0  0  0  0  0  0  0  0  0  0
   -2.5710    1.5990    0.2580 H   0  0  0  0  0  0  0  0  0  0  0  0
   -0.9970    0.7890   -0.9600 C   0  0  0  0  0  0  0  0  0  0  0  0
   -1.2700    1.3770   -1.8340 H   0  0  0  0  0  0  0  0  0  0  0  0
    0.0480   -0.1340   -1.0210 C   0  0  0  0  0  0  0  0  0  0  0  0
    0.7320   -0.2900   -2.3140 C   0  0  0  0  0  0  0  0  0  0  0  0
    0.3280   -0.9560    0.0720 C   0  0  0  0  0  0  0  0  0  0  0  0
    1.0550   -1.7570    0.0010 H   0  0  0  0  0  0  0  0  0  0  0  0
    0.0520   -0.4770   -3.3180 O   0  0  0  0  0  0  0  0  0  0  0  0
    2.2100   -0.0710   -2.3870 C   0  0  0  0  0  0  0  0  0  0  0  0
    3.0960   -0.9140   -1.5190 C   0  0  0  0  0  0  0  0  0  0  0  0
    2.5180    0.8710   -3.2950 C   0  0  0  0  0  0  0  0  0  0  0  0
    2.8290   -0.7250   -0.4920 H   0  0  0  0  0  0  0  0  0  0  0  0
    4.5130   -0.7460   -1.7000 O   0  0  0  0  0  0  0  0  0  0  0  0
    2.8950   -1.9690   -1.7330 H   0  0  0  0  0  0  0  0  0  0  0  0
    1.6940    1.4060   -3.7780 H   0  0  0  0  0  0  0  0  0  0  0  0
    3.8910    1.2880   -3.7470 C   0  0  0  0  0  0  0  0  0  0  0  0
    5.4550   -0.4070   -0.7720 C   0  0  0  0  0  0  0  0  0  0  0  0
    6.6240   -0.6020   -0.9610 O   0  0  0  0  0  0  0  0  0  0  0  0
    5.0560    0.3320    0.4510 C   0  0  0  0  0  0  0  0  0  0  0  0
    4.1800   -0.2080    1.3840 C   0  0  0  0  0  0  0  0  0  0  0  0
    5.6590    1.5770    0.7000 C   0  0  0  0  0  0  0  0  0  0  0  0
    4.3450    2.4700   -2.8860 C   0  0  0  0  0  0  0  0  0  0  0  0
    3.8140    1.6160   -5.2490 C   0  0  0  0  0  0  0  0  0  0  0  0
    5.0090    2.3300   -5.8510 C   0  0  0  0  0  0  0  0  0  0  0  0
    5.8560    2.6420   -2.8930 C   0  0  0  0  0  0  0  0  0  0  0  0
   -1.6980   -0.0460    3.6800 C   0  0  0  0  0  0  0  0  0  0  0  0
   -2.3460    0.3910    4.4450 H   0  0  0  0  0  0  0  0  0  0  0  0
   -0.6800    0.3200    3.8550 H   0  0  0  0  0  0  0  0  0  0  0  0
   -1.7470   -1.1350    3.7770 H   0  0  0  0  0  0  0  0  0  0  0  0
    2.9450    2.2600   -5.4280 H   0  0  0  0  0  0  0  0  0  0  0  0
    3.6390    0.6840   -5.8010 H   0  0  0  0  0  0  0  0  0  0  0  0
    4.5750    0.4410   -3.6370 H   0  0  0  0  0  0  0  0  0  0  0  0
    4.0310    2.3270   -1.8440 H   0  0  0  0  0  0  0  0  0  0  0  0
    3.8510    3.3870   -3.2290 H   0  0  0  0  0  0  0  0  0  0  0  0
    5.0300    3.3740   -5.5180 H   0  0  0  0  0  0  0  0  0  0  0  0
    4.9130    2.3560   -6.9390 H   0  0  0  0  0  0  0  0  0  0  0  0
    5.9610    1.8480   -5.6060 H   0  0  0  0  0  0  0  0  0  0  0  0
    6.3640    1.6760   -2.8140 H   0  0  0  0  0  0  0  0  0  0  0  0
    6.1630    3.2740   -2.0590 H   0  0  0  0  0  0  0  0  0  0  0  0
    6.2170    3.1370   -3.7940 H   0  0  0  0  0  0  0  0  0  0  0  0
    3.8810    0.5300    2.5130 C   0  0  0  0  0  0  0  0  0  0  0  0
    5.5110    2.1850    1.9430 C   0  0  0  0  0  0  0  0  0  0  0  0
    4.7510    1.5380    2.8990 C   0  0  0  0  0  0  0  0  0  0  0  0
    6.0340    3.1050    2.1900 H   0  0  0  0  0  0  0  0  0  0  0  0
    6.3220    2.0310   -0.0290 H   0  0  0  0  0  0  0  0  0  0  0  0
    3.7060   -1.1740    1.2430 H   0  0  0  0  0  0  0  0  0  0  0  0
    2.9060    0.4330    2.9850 H   0  0  0  0  0  0  0  0  0  0  0  0
    5.0400    1.6250    3.9480 H   0  0  0  0  0  0  0  0  0  0  0  0
  1  2  1  0  0  0  0
  2  3  2  0  0  0  0
  2 11  1  0  0  0  0
  3  4  1  0  0  0  0
  3  5  1  0  0  0  0
  4 31  1  0  0  0  0
  5  6  1  0  0  0  0
  5  7  2  0  0  0  0
  7  8  1  0  0  0  0
  7  9  1  0  0  0  0
  9 10  1  0  0  0  0
  9 11  2  0  0  0  0
 10 13  2  0  0  0  0
 10 14  1  0  0  0  0
 11 12  1  0  0  0  0
 14 15  1  0  0  0  0
 14 16  2  0  0  0  0
 15 17  1  0  0  0  0
 15 18  1  0  0  0  0
 15 19  1  0  0  0  0
 16 20  1  0  0  0  0
 16 21  1  0  0  0  0
 18 22  1  0  0  0  0
 21 27  1  0  0  0  0
 21 28  1  0  0  0  0
 21 37  1  0  0  0  0
 22 23  2  0  0  0  0
 22 24  1  0  0  0  0
 24 25  2  0  0  0  0
 24 26  1  0  0  0  0
 25 46  1  0  0  0  0
 25 51  1  0  0  0  0
 26 47  2  0  0  0  0
 26 50  1  0  0  0  0
 27 30  1  0  0  0  0
 27 38  1  0  0  0  0
 27 39  1  0  0  0  0
 28 29  1  0  0  0  0
 28 35  1  0  0  0  0
 28 36  1  0  0  0  0
 29 40  1  0  0  0  0
 29 41  1  0  0  0  0
 29 42  1  0  0  0  0
 30 43  1  0  0  0  0
 30 44  1  0  0  0  0
 30 45  1  0  0  0  0
 31 32  1  0  0  0  0
 31 33  1  0  0  0  0
 31 34  1  0  0  0  0
 46 48  2  0  0  0  0
 46 52  1  0  0  0  0
 47 48  1  0  0  0  0
 47 49  1  0  0  0  0
 48 53  1  0  0  0  0
M  END
>  <COMPND>
    UNNAMED

>  <AUTHOR>
    GENERATED BY OPEN BABEL 2.3.1

>  <MASTER>
        0    0    0    0    0    0    0    0   53    0   53    0

$$$$
