3df.pdb
 OpenBabel02251613503D

 54 56  0  0  0  0  0  0  0  0999 V2000
   -0.4680   -1.6020    2.0810 H   0  0  0  0  0  0  0  0  0  0  0  0
   -0.5920   -0.8900    1.2710 C   0  0  0  0  0  0  0  0  0  0  0  0
   -1.4020    0.2400    1.4070 C   0  0  0  0  0  0  0  0  0  0  0  0
   -2.0960    0.5970    2.5300 O   0  0  0  0  0  0  0  0  0  0  0  0
   -1.5730    1.0990    0.3170 C   0  0  0  0  0  0  0  0  0  0  0  0
   -2.2320    1.9590    0.4080 H   0  0  0  0  0  0  0  0  0  0  0  0
   -0.9060    0.8620   -0.8870 C   0  0  0  0  0  0  0  0  0  0  0  0
   -1.0540    1.5340   -1.7290 H   0  0  0  0  0  0  0  0  0  0  0  0
   -0.0670   -0.2470   -1.0020 C   0  0  0  0  0  0  0  0  0  0  0  0
    0.6200   -0.4670   -2.2930 C   0  0  0  0  0  0  0  0  0  0  0  0
    0.0630   -1.1440    0.0610 C   0  0  0  0  0  0  0  0  0  0  0  0
    0.6510   -2.0520   -0.0430 H   0  0  0  0  0  0  0  0  0  0  0  0
   -0.0300   -0.8460   -3.2550 O   0  0  0  0  0  0  0  0  0  0  0  0
    2.0770   -0.0950   -2.3860 C   0  0  0  0  0  0  0  0  0  0  0  0
    2.9600   -0.5250   -1.2460 C   0  0  0  0  0  0  0  0  0  0  0  0
    2.3980    0.6030   -3.4970 C   0  0  0  0  0  0  0  0  0  0  0  0
    2.8450    0.2060   -0.4430 H   0  0  0  0  0  0  0  0  0  0  0  0
    4.3340   -0.7090   -1.6370 O   0  0  0  0  0  0  0  0  0  0  0  0
    2.6460   -1.5100   -0.8890 H   0  0  0  0  0  0  0  0  0  0  0  0
    1.5940    0.8310   -4.2000 H   0  0  0  0  0  0  0  0  0  0  0  0
    3.7490    1.1560   -3.8960 C   0  0  0  0  0  0  0  0  0  0  0  0
    5.4020   -0.3140   -0.9030 C   0  0  0  0  0  0  0  0  0  0  0  0
    6.5450   -0.3710   -1.3390 O   0  0  0  0  0  0  0  0  0  0  0  0
    5.1640    0.2640    0.4330 C   0  0  0  0  0  0  0  0  0  0  0  0
    4.5690   -0.4840    1.4550 C   0  0  0  0  0  0  0  0  0  0  0  0
    5.5760    1.5810    0.6630 C   0  0  0  0  0  0  0  0  0  0  0  0
    4.0870    2.4280   -3.1020 C   0  0  0  0  0  0  0  0  0  0  0  0
    3.7870    1.4540   -5.4070 C   0  0  0  0  0  0  0  0  0  0  0  0
    5.1320    2.0410   -5.8320 C   0  0  0  0  0  0  0  0  0  0  0  0
    5.4390    3.0040   -3.5190 C   0  0  0  0  0  0  0  0  0  0  0  0
   -1.7760   -0.0960    3.7290 C   0  0  0  0  0  0  0  0  0  0  0  0
   -2.3400    0.3670    4.5440 H   0  0  0  0  0  0  0  0  0  0  0  0
   -0.7100   -0.0040    3.9670 H   0  0  0  0  0  0  0  0  0  0  0  0
   -2.0780   -1.1470    3.6710 H   0  0  0  0  0  0  0  0  0  0  0  0
    2.9900    2.1620   -5.6730 H   0  0  0  0  0  0  0  0  0  0  0  0
    3.5980    0.5360   -5.9770 H   0  0  0  0  0  0  0  0  0  0  0  0
    4.5190    0.4000   -3.7140 H   0  0  0  0  0  0  0  0  0  0  0  0
    4.1070    2.2170   -2.0270 H   0  0  0  0  0  0  0  0  0  0  0  0
    3.3080    3.1870   -3.2550 H   0  0  0  0  0  0  0  0  0  0  0  0
    5.4900    3.2810   -5.0180 C   0  0  0  0  0  0  0  0  0  0  0  0
    5.1020    2.2970   -6.8970 H   0  0  0  0  0  0  0  0  0  0  0  0
    5.9160    1.2840   -5.7070 H   0  0  0  0  0  0  0  0  0  0  0  0
    4.3330    0.1150    2.6930 C   0  0  0  0  0  0  0  0  0  0  0  0
    5.3450    2.1700    1.9040 C   0  0  0  0  0  0  0  0  0  0  0  0
    4.7150    1.4400    2.9140 C   0  0  0  0  0  0  0  0  0  0  0  0
    5.6600    3.1940    2.0860 H   0  0  0  0  0  0  0  0  0  0  0  0
    6.0750    2.1440   -0.1230 H   0  0  0  0  0  0  0  0  0  0  0  0
    4.2880   -1.5210    1.2920 H   0  0  0  0  0  0  0  0  0  0  0  0
    3.8580   -0.4500    3.4920 H   0  0  0  0  0  0  0  0  0  0  0  0
    4.5340    1.9040    3.8810 H   0  0  0  0  0  0  0  0  0  0  0  0
    6.2350    2.3000   -3.2490 H   0  0  0  0  0  0  0  0  0  0  0  0
    5.6320    3.9310   -2.9660 H   0  0  0  0  0  0  0  0  0  0  0  0
    4.7920    4.0920   -5.2620 H   0  0  0  0  0  0  0  0  0  0  0  0
    6.4910    3.6290   -5.2960 H   0  0  0  0  0  0  0  0  0  0  0  0
  1  2  1  0  0  0  0
  2  3  2  0  0  0  0
  2 11  1  0  0  0  0
  3  4  1  0  0  0  0
  3  5  1  0  0  0  0
  4 31  1  0  0  0  0
  5  6  1  0  0  0  0
  5  7  2  0  0  0  0
  7  8  1  0  0  0  0
  7  9  1  0  0  0  0
  9 10  1  0  0  0  0
  9 11  2  0  0  0  0
 10 13  2  0  0  0  0
 10 14  1  0  0  0  0
 11 12  1  0  0  0  0
 14 15  1  0  0  0  0
 14 16  2  0  0  0  0
 15 17  1  0  0  0  0
 15 18  1  0  0  0  0
 15 19  1  0  0  0  0
 16 20  1  0  0  0  0
 16 21  1  0  0  0  0
 18 22  1  0  0  0  0
 21 27  1  0  0  0  0
 21 28  1  0  0  0  0
 21 37  1  0  0  0  0
 22 23  2  0  0  0  0
 22 24  1  0  0  0  0
 24 25  2  0  0  0  0
 24 26  1  0  0  0  0
 25 43  1  0  0  0  0
 25 48  1  0  0  0  0
 26 44  2  0  0  0  0
 26 47  1  0  0  0  0
 27 30  1  0  0  0  0
 27 38  1  0  0  0  0
 27 39  1  0  0  0  0
 28 29  1  0  0  0  0
 28 35  1  0  0  0  0
 28 36  1  0  0  0  0
 29 40  1  0  0  0  0
 29 41  1  0  0  0  0
 29 42  1  0  0  0  0
 30 40  1  0  0  0  0
 30 51  1  0  0  0  0
 30 52  1  0  0  0  0
 31 32  1  0  0  0  0
 31 33  1  0  0  0  0
 31 34  1  0  0  0  0
 40 53  1  0  0  0  0
 40 54  1  0  0  0  0
 43 45  2  0  0  0  0
 43 49  1  0  0  0  0
 44 45  1  0  0  0  0
 44 46  1  0  0  0  0
 45 50  1  0  0  0  0
M  END
>  <COMPND>
    UNNAMED

>  <AUTHOR>
    GENERATED BY OPEN BABEL 2.3.1

>  <MASTER>
        0    0    0    0    0    0    0    0   54    0   54    0

$$$$
