3dk.pdb
 OpenBabel02251613503D

 41 42  0  0  0  0  0  0  0  0999 V2000
   -0.1800   -1.4870    2.0790 H   0  0  0  0  0  0  0  0  0  0  0  0
   -0.3950   -0.8090    1.2590 C   0  0  0  0  0  0  0  0  0  0  0  0
   -1.4100    0.1440    1.3380 C   0  0  0  0  0  0  0  0  0  0  0  0
   -2.2030    0.3760    2.4230 O   0  0  0  0  0  0  0  0  0  0  0  0
   -1.7280    0.9160    0.2180 C   0  0  0  0  0  0  0  0  0  0  0  0
   -2.5680    1.6050    0.2600 H   0  0  0  0  0  0  0  0  0  0  0  0
   -0.9990    0.7860   -0.9590 C   0  0  0  0  0  0  0  0  0  0  0  0
   -1.2690    1.3770   -1.8330 H   0  0  0  0  0  0  0  0  0  0  0  0
    0.0450   -0.1390   -1.0220 C   0  0  0  0  0  0  0  0  0  0  0  0
    0.7320   -0.2920   -2.3140 C   0  0  0  0  0  0  0  0  0  0  0  0
    0.3230   -0.9600    0.0720 C   0  0  0  0  0  0  0  0  0  0  0  0
    1.0510   -1.7610    0.0040 H   0  0  0  0  0  0  0  0  0  0  0  0
    0.0540   -0.4800   -3.3210 O   0  0  0  0  0  0  0  0  0  0  0  0
    2.2120   -0.0660   -2.3870 C   0  0  0  0  0  0  0  0  0  0  0  0
    3.0940   -0.9140   -1.5190 C   0  0  0  0  0  0  0  0  0  0  0  0
    2.5200    0.8750   -3.2970 C   0  0  0  0  0  0  0  0  0  0  0  0
    2.8280   -0.7230   -0.4940 H   0  0  0  0  0  0  0  0  0  0  0  0
    4.5160   -0.7590   -1.6960 O   0  0  0  0  0  0  0  0  0  0  0  0
    2.8920   -1.9690   -1.7310 H   0  0  0  0  0  0  0  0  0  0  0  0
    1.7030    1.4040   -3.7910 H   0  0  0  0  0  0  0  0  0  0  0  0
    3.8750    1.2860   -3.7400 C   0  0  0  0  0  0  0  0  0  0  0  0
    5.4340   -0.4040   -0.7730 C   0  0  0  0  0  0  0  0  0  0  0  0
    6.6420   -0.6020   -0.9700 O   0  0  0  0  0  0  0  0  0  0  0  0
    5.0530    0.3330    0.4440 C   0  0  0  0  0  0  0  0  0  0  0  0
    4.1730   -0.2030    1.3780 C   0  0  0  0  0  0  0  0  0  0  0  0
    5.6620    1.5750    0.6950 C   0  0  0  0  0  0  0  0  0  0  0  0
   -1.6980   -0.0470    3.6820 C   0  0  0  0  0  0  0  0  0  0  0  0
   -2.3440    0.3890    4.4490 H   0  0  0  0  0  0  0  0  0  0  0  0
   -0.6800    0.3200    3.8540 H   0  0  0  0  0  0  0  0  0  0  0  0
   -1.7470   -1.1360    3.7770 H   0  0  0  0  0  0  0  0  0  0  0  0
    3.8790    0.5330    2.5110 C   0  0  0  0  0  0  0  0  0  0  0  0
    5.5230    2.1760    1.9420 C   0  0  0  0  0  0  0  0  0  0  0  0
    4.7560    1.5340    2.8980 C   0  0  0  0  0  0  0  0  0  0  0  0
    6.0520    3.0930    2.1910 H   0  0  0  0  0  0  0  0  0  0  0  0
    6.3250    2.0280   -0.0360 H   0  0  0  0  0  0  0  0  0  0  0  0
    3.7000   -1.1690    1.2400 H   0  0  0  0  0  0  0  0  0  0  0  0
    2.9360    0.3890    3.0310 H   0  0  0  0  0  0  0  0  0  0  0  0
    4.9860    1.6760    3.9530 H   0  0  0  0  0  0  0  0  0  0  0  0
    4.6550    0.7260   -3.2390 H   0  0  0  0  0  0  0  0  0  0  0  0
    4.0370    2.3450   -3.5360 H   0  0  0  0  0  0  0  0  0  0  0  0
    3.9880    1.1160   -4.8130 H   0  0  0  0  0  0  0  0  0  0  0  0
  1  2  1  0  0  0  0
  2  3  2  0  0  0  0
  2 11  1  0  0  0  0
  3  4  1  0  0  0  0
  3  5  1  0  0  0  0
  4 27  1  0  0  0  0
  5  6  1  0  0  0  0
  5  7  2  0  0  0  0
  7  8  1  0  0  0  0
  7  9  1  0  0  0  0
  9 10  1  0  0  0  0
  9 11  2  0  0  0  0
 10 13  2  0  0  0  0
 10 14  1  0  0  0  0
 11 12  1  0  0  0  0
 14 15  1  0  0  0  0
 14 16  2  0  0  0  0
 15 17  1  0  0  0  0
 15 18  1  0  0  0  0
 15 19  1  0  0  0  0
 16 20  1  0  0  0  0
 16 21  1  0  0  0  0
 18 22  1  0  0  0  0
 21 39  1  0  0  0  0
 21 40  1  0  0  0  0
 21 41  1  0  0  0  0
 22 23  2  0  0  0  0
 22 24  1  0  0  0  0
 24 25  2  0  0  0  0
 24 26  1  0  0  0  0
 25 31  1  0  0  0  0
 25 36  1  0  0  0  0
 26 32  2  0  0  0  0
 26 35  1  0  0  0  0
 27 28  1  0  0  0  0
 27 29  1  0  0  0  0
 27 30  1  0  0  0  0
 31 33  2  0  0  0  0
 31 37  1  0  0  0  0
 32 33  1  0  0  0  0
 32 34  1  0  0  0  0
 33 38  1  0  0  0  0
M  END
>  <COMPND>
    UNNAMED

>  <AUTHOR>
    GENERATED BY OPEN BABEL 2.3.1

>  <MASTER>
        0    0    0    0    0    0    0    0   41    0   41    0

$$$$
