3dl.pdb
 OpenBabel02251613503D

 48 50  0  0  0  0  0  0  0  0999 V2000
   -0.4720   -1.6050    2.0760 H   0  0  0  0  0  0  0  0  0  0  0  0
   -0.5920   -0.8920    1.2670 C   0  0  0  0  0  0  0  0  0  0  0  0
   -1.3990    0.2400    1.4050 C   0  0  0  0  0  0  0  0  0  0  0  0
   -2.0930    0.5980    2.5280 O   0  0  0  0  0  0  0  0  0  0  0  0
   -1.5650    1.1000    0.3160 C   0  0  0  0  0  0  0  0  0  0  0  0
   -2.2210    1.9630    0.4070 H   0  0  0  0  0  0  0  0  0  0  0  0
   -0.8960    0.8640   -0.8880 C   0  0  0  0  0  0  0  0  0  0  0  0
   -1.0430    1.5380   -1.7290 H   0  0  0  0  0  0  0  0  0  0  0  0
   -0.0570   -0.2460   -1.0070 C   0  0  0  0  0  0  0  0  0  0  0  0
    0.6280   -0.4690   -2.3010 C   0  0  0  0  0  0  0  0  0  0  0  0
    0.0660   -1.1460    0.0560 C   0  0  0  0  0  0  0  0  0  0  0  0
    0.6500   -2.0560   -0.0470 H   0  0  0  0  0  0  0  0  0  0  0  0
   -0.0270   -0.8680   -3.2570 O   0  0  0  0  0  0  0  0  0  0  0  0
    2.0730   -0.0640   -2.4210 C   0  0  0  0  0  0  0  0  0  0  0  0
    2.9660   -0.4820   -1.2780 C   0  0  0  0  0  0  0  0  0  0  0  0
    2.3290    0.6350   -3.5540 C   0  0  0  0  0  0  0  0  0  0  0  0
    2.8500    0.2350   -0.4610 H   0  0  0  0  0  0  0  0  0  0  0  0
    4.3360   -0.6630   -1.6750 O   0  0  0  0  0  0  0  0  0  0  0  0
    2.6560   -1.4680   -0.9120 H   0  0  0  0  0  0  0  0  0  0  0  0
    1.5050    0.7970   -4.2510 H   0  0  0  0  0  0  0  0  0  0  0  0
    3.5540    1.3440   -3.9960 C   0  0  0  0  0  0  0  0  0  0  0  0
    5.4130   -0.3030   -0.9190 C   0  0  0  0  0  0  0  0  0  0  0  0
    6.5430   -0.3770   -1.3300 O   0  0  0  0  0  0  0  0  0  0  0  0
    5.1630    0.2660    0.4280 C   0  0  0  0  0  0  0  0  0  0  0  0
    4.5720   -0.4850    1.4490 C   0  0  0  0  0  0  0  0  0  0  0  0
    5.5770    1.5810    0.6640 C   0  0  0  0  0  0  0  0  0  0  0  0
    4.2730    2.2180   -3.1690 C   0  0  0  0  0  0  0  0  0  0  0  0
    3.9000    1.3650   -5.3520 C   0  0  0  0  0  0  0  0  0  0  0  0
    4.9900    2.1220   -5.8070 C   0  0  0  0  0  0  0  0  0  0  0  0
    5.3710    2.9600   -3.6170 C   0  0  0  0  0  0  0  0  0  0  0  0
   -1.7770   -0.0980    3.7270 C   0  0  0  0  0  0  0  0  0  0  0  0
   -2.3400    0.3670    4.5430 H   0  0  0  0  0  0  0  0  0  0  0  0
   -0.7110   -0.0100    3.9670 H   0  0  0  0  0  0  0  0  0  0  0  0
   -2.0830   -1.1470    3.6680 H   0  0  0  0  0  0  0  0  0  0  0  0
    5.5980    3.0510   -4.9750 C   0  0  0  0  0  0  0  0  0  0  0  0
    4.3380    0.1110    2.6910 C   0  0  0  0  0  0  0  0  0  0  0  0
    5.3450    2.1680    1.9070 C   0  0  0  0  0  0  0  0  0  0  0  0
    4.7170    1.4360    2.9150 C   0  0  0  0  0  0  0  0  0  0  0  0
    5.6560    3.1940    2.0890 H   0  0  0  0  0  0  0  0  0  0  0  0
    6.0710    2.1490   -0.1210 H   0  0  0  0  0  0  0  0  0  0  0  0
    4.2930   -1.5220    1.2870 H   0  0  0  0  0  0  0  0  0  0  0  0
    3.8660   -0.4560    3.4900 H   0  0  0  0  0  0  0  0  0  0  0  0
    4.5360    1.8980    3.8830 H   0  0  0  0  0  0  0  0  0  0  0  0
    3.4570    2.9230   -1.8060 Cl  0  0  0  0  0  0  0  0  0  0  0  0
    5.9510    3.5580   -2.9210 H   0  0  0  0  0  0  0  0  0  0  0  0
    6.1840    3.8740   -5.3850 H   0  0  0  0  0  0  0  0  0  0  0  0
    3.2590    0.8890   -6.0920 H   0  0  0  0  0  0  0  0  0  0  0  0
    5.3830    1.9750   -6.8090 H   0  0  0  0  0  0  0  0  0  0  0  0
  1  2  1  0  0  0  0
  2  3  2  0  0  0  0
  2 11  1  0  0  0  0
  3  4  1  0  0  0  0
  3  5  1  0  0  0  0
  4 31  1  0  0  0  0
  5  6  1  0  0  0  0
  5  7  2  0  0  0  0
  7  8  1  0  0  0  0
  7  9  1  0  0  0  0
  9 10  1  0  0  0  0
  9 11  2  0  0  0  0
 10 13  2  0  0  0  0
 10 14  1  0  0  0  0
 11 12  1  0  0  0  0
 14 15  1  0  0  0  0
 14 16  2  0  0  0  0
 15 17  1  0  0  0  0
 15 18  1  0  0  0  0
 15 19  1  0  0  0  0
 16 20  1  0  0  0  0
 16 21  1  0  0  0  0
 18 22  1  0  0  0  0
 21 27  2  0  0  0  0
 21 28  1  0  0  0  0
 22 23  2  0  0  0  0
 22 24  1  0  0  0  0
 24 25  2  0  0  0  0
 24 26  1  0  0  0  0
 25 36  1  0  0  0  0
 25 41  1  0  0  0  0
 26 37  2  0  0  0  0
 26 40  1  0  0  0  0
 27 30  1  0  0  0  0
 27 44  1  0  0  0  0
 28 29  2  0  0  0  0
 28 47  1  0  0  0  0
 29 35  1  0  0  0  0
 29 48  1  0  0  0  0
 30 35  2  0  0  0  0
 30 45  1  0  0  0  0
 31 32  1  0  0  0  0
 31 33  1  0  0  0  0
 31 34  1  0  0  0  0
 35 46  1  0  0  0  0
 36 38  2  0  0  0  0
 36 42  1  0  0  0  0
 37 38  1  0  0  0  0
 37 39  1  0  0  0  0
 38 43  1  0  0  0  0
M  END
>  <COMPND>
    UNNAMED

>  <AUTHOR>
    GENERATED BY OPEN BABEL 2.3.1

>  <MASTER>
        0    0    0    0    0    0    0    0   48    0   48    0

$$$$
