3ea.pdb
 OpenBabel02251613503D

 44 45  0  0  0  0  0  0  0  0999 V2000
   -0.3350   -1.4920    2.0350 H   0  0  0  0  0  0  0  0  0  0  0  0
   -0.5610   -0.8120    1.2180 C   0  0  0  0  0  0  0  0  0  0  0  0
   -1.5010    0.2060    1.3620 C   0  0  0  0  0  0  0  0  0  0  0  0
   -2.2270    0.4750    2.4890 O   0  0  0  0  0  0  0  0  0  0  0  0
   -1.8000    1.0110    0.2620 C   0  0  0  0  0  0  0  0  0  0  0  0
   -2.5780    1.7660    0.3460 H   0  0  0  0  0  0  0  0  0  0  0  0
   -1.1130    0.8580   -0.9480 C   0  0  0  0  0  0  0  0  0  0  0  0
   -1.3690    1.4920   -1.7930 H   0  0  0  0  0  0  0  0  0  0  0  0
   -0.1330   -0.1290   -1.0850 C   0  0  0  0  0  0  0  0  0  0  0  0
    0.5160   -0.2570   -2.4160 C   0  0  0  0  0  0  0  0  0  0  0  0
    0.0770   -1.0110   -0.0200 C   0  0  0  0  0  0  0  0  0  0  0  0
    0.6940   -1.8950   -0.1300 H   0  0  0  0  0  0  0  0  0  0  0  0
   -0.1830   -0.6000   -3.3750 O   0  0  0  0  0  0  0  0  0  0  0  0
    1.9220    0.2210   -2.6210 C   0  0  0  0  0  0  0  0  0  0  0  0
    2.1160    1.2360   -3.5110 C   0  0  0  0  0  0  0  0  0  0  0  0
    4.5390   -1.8570   -0.6520 O   0  0  0  0  0  0  0  0  0  0  0  0
    1.2740    1.6710   -4.0400 H   0  0  0  0  0  0  0  0  0  0  0  0
    3.4260    1.7540   -4.0000 C   0  0  0  0  0  0  0  0  0  0  0  0
    5.4140   -0.8300   -0.4820 C   0  0  0  0  0  0  0  0  0  0  0  0
    6.4790   -0.7770   -1.1050 O   0  0  0  0  0  0  0  0  0  0  0  0
    5.0360    0.2070    0.5390 C   0  0  0  0  0  0  0  0  0  0  0  0
    4.4240    2.3240   -3.2100 C   0  0  0  0  0  0  0  0  0  0  0  0
    3.6810    1.8230   -5.3540 C   0  0  0  0  0  0  0  0  0  0  0  0
    4.9240    2.2680   -5.7900 C   0  0  0  0  0  0  0  0  0  0  0  0
    5.7530    2.3890   -3.6120 C   0  0  0  0  0  0  0  0  0  0  0  0
   -1.7170   -0.0280    3.7180 C   0  0  0  0  0  0  0  0  0  0  0  0
   -2.3340    0.3770    4.5260 H   0  0  0  0  0  0  0  0  0  0  0  0
   -0.6880    0.3070    3.8830 H   0  0  0  0  0  0  0  0  0  0  0  0
   -1.7890   -1.1200    3.7630 H   0  0  0  0  0  0  0  0  0  0  0  0
    6.0060    2.1640   -4.9380 C   0  0  0  0  0  0  0  0  0  0  0  0
    3.1130   -0.4690   -2.0320 C   0  0  0  0  0  0  0  0  0  0  0  0
    3.1490   -1.5380   -0.9450 C   0  0  0  0  0  0  0  0  0  0  0  0
    3.6840    0.3600   -1.6170 H   0  0  0  0  0  0  0  0  0  0  0  0
    3.7030   -0.8800   -2.8630 H   0  0  0  0  0  0  0  0  0  0  0  0
    2.6770   -2.4660   -1.2900 H   0  0  0  0  0  0  0  0  0  0  0  0
    2.6790   -1.2410   -0.0080 H   0  0  0  0  0  0  0  0  0  0  0  0
    4.0280    0.0660    0.9310 H   0  0  0  0  0  0  0  0  0  0  0  0
    5.0820    1.2040    0.0890 H   0  0  0  0  0  0  0  0  0  0  0  0
    5.7360    0.1420    1.3740 H   0  0  0  0  0  0  0  0  0  0  0  0
    4.0950    2.8930   -2.0530 F   0  0  0  0  0  0  0  0  0  0  0  0
    6.5490    2.6120   -2.9090 H   0  0  0  0  0  0  0  0  0  0  0  0
    6.9990    1.9490   -5.3040 H   0  0  0  0  0  0  0  0  0  0  0  0
    2.9070    1.5970   -6.0720 H   0  0  0  0  0  0  0  0  0  0  0  0
    5.0200    2.8030   -6.7290 H   0  0  0  0  0  0  0  0  0  0  0  0
  1  2  1  0  0  0  0
  2  3  2  0  0  0  0
  2 11  1  0  0  0  0
  3  4  1  0  0  0  0
  3  5  1  0  0  0  0
  4 26  1  0  0  0  0
  5  6  1  0  0  0  0
  5  7  2  0  0  0  0
  7  8  1  0  0  0  0
  7  9  1  0  0  0  0
  9 10  1  0  0  0  0
  9 11  2  0  0  0  0
 10 13  2  0  0  0  0
 10 14  1  0  0  0  0
 11 12  1  0  0  0  0
 14 15  2  0  0  0  0
 14 31  1  0  0  0  0
 15 17  1  0  0  0  0
 15 18  1  0  0  0  0
 16 19  1  0  0  0  0
 16 32  1  0  0  0  0
 18 22  2  0  0  0  0
 18 23  1  0  0  0  0
 19 20  2  0  0  0  0
 19 21  1  0  0  0  0
 21 37  1  0  0  0  0
 21 38  1  0  0  0  0
 21 39  1  0  0  0  0
 22 25  1  0  0  0  0
 22 40  1  0  0  0  0
 23 24  2  0  0  0  0
 23 43  1  0  0  0  0
 24 30  1  0  0  0  0
 24 44  1  0  0  0  0
 25 30  2  0  0  0  0
 25 41  1  0  0  0  0
 26 27  1  0  0  0  0
 26 28  1  0  0  0  0
 26 29  1  0  0  0  0
 30 42  1  0  0  0  0
 31 32  1  0  0  0  0
 31 33  1  0  0  0  0
 31 34  1  0  0  0  0
 32 35  1  0  0  0  0
 32 36  1  0  0  0  0
M  END
>  <COMPND>
    UNNAMED

>  <AUTHOR>
    GENERATED BY OPEN BABEL 2.3.1

>  <MASTER>
        0    0    0    0    0    0    0    0   44    0   44    0

$$$$
