3eb.pdb
 OpenBabel02251613503D

 44 45  0  0  0  0  0  0  0  0999 V2000
   -0.3540   -1.5060    2.0140 H   0  0  0  0  0  0  0  0  0  0  0  0
   -0.5690   -0.8130    1.2050 C   0  0  0  0  0  0  0  0  0  0  0  0
   -1.5000    0.2120    1.3550 C   0  0  0  0  0  0  0  0  0  0  0  0
   -2.2220    0.4810    2.4840 O   0  0  0  0  0  0  0  0  0  0  0  0
   -1.7930    1.0260    0.2590 C   0  0  0  0  0  0  0  0  0  0  0  0
   -2.5670    1.7850    0.3480 H   0  0  0  0  0  0  0  0  0  0  0  0
   -1.1060    0.8760   -0.9520 C   0  0  0  0  0  0  0  0  0  0  0  0
   -1.3640    1.5110   -1.7950 H   0  0  0  0  0  0  0  0  0  0  0  0
   -0.1320   -0.1150   -1.0870 C   0  0  0  0  0  0  0  0  0  0  0  0
    0.5090   -0.2660   -2.4250 C   0  0  0  0  0  0  0  0  0  0  0  0
    0.0750   -1.0040   -0.0300 C   0  0  0  0  0  0  0  0  0  0  0  0
    0.6900   -1.8880   -0.1500 H   0  0  0  0  0  0  0  0  0  0  0  0
   -0.1610   -0.6180   -3.3570 O   0  0  0  0  0  0  0  0  0  0  0  0
    1.9220    0.2070   -2.6120 C   0  0  0  0  0  0  0  0  0  0  0  0
    2.0930    1.2190   -3.4960 C   0  0  0  0  0  0  0  0  0  0  0  0
    4.5390   -1.8620   -0.6480 O   0  0  0  0  0  0  0  0  0  0  0  0
    1.2330    1.6460   -4.0270 H   0  0  0  0  0  0  0  0  0  0  0  0
    3.4140    1.7510   -3.9380 C   0  0  0  0  0  0  0  0  0  0  0  0
    5.4400   -0.8530   -0.4600 C   0  0  0  0  0  0  0  0  0  0  0  0
    6.4950   -0.8140   -1.0540 O   0  0  0  0  0  0  0  0  0  0  0  0
    5.0500    0.1930    0.5580 C   0  0  0  0  0  0  0  0  0  0  0  0
    4.4360    2.1690   -3.1090 C   0  0  0  0  0  0  0  0  0  0  0  0
    3.6870    1.9900   -5.3010 C   0  0  0  0  0  0  0  0  0  0  0  0
    4.9170    2.3620   -5.8070 C   0  0  0  0  0  0  0  0  0  0  0  0
    5.7290    2.3680   -3.5820 C   0  0  0  0  0  0  0  0  0  0  0  0
   -1.7150   -0.0300    3.7110 C   0  0  0  0  0  0  0  0  0  0  0  0
   -2.3300    0.3760    4.5210 H   0  0  0  0  0  0  0  0  0  0  0  0
   -0.6840    0.2980    3.8790 H   0  0  0  0  0  0  0  0  0  0  0  0
   -1.7930   -1.1210    3.7520 H   0  0  0  0  0  0  0  0  0  0  0  0
    5.9770    2.3280   -4.9580 C   0  0  0  0  0  0  0  0  0  0  0  0
    3.1270   -0.4710   -2.0420 C   0  0  0  0  0  0  0  0  0  0  0  0
    3.1580   -1.5280   -0.9500 C   0  0  0  0  0  0  0  0  0  0  0  0
    3.7060    0.3480   -1.6230 H   0  0  0  0  0  0  0  0  0  0  0  0
    3.7170   -0.8730   -2.8780 H   0  0  0  0  0  0  0  0  0  0  0  0
    2.6790   -2.4500   -1.2960 H   0  0  0  0  0  0  0  0  0  0  0  0
    2.6840   -1.2140   -0.0220 H   0  0  0  0  0  0  0  0  0  0  0  0
    4.0430    0.0560    0.9500 H   0  0  0  0  0  0  0  0  0  0  0  0
    5.0980    1.1840    0.0950 H   0  0  0  0  0  0  0  0  0  0  0  0
    5.7480    0.1400    1.3950 H   0  0  0  0  0  0  0  0  0  0  0  0
    6.5480    2.5470   -2.9000 H   0  0  0  0  0  0  0  0  0  0  0  0
    7.4980    1.9740   -5.6160 Cl  0  0  0  0  0  0  0  0  0  0  0  0
    2.5650    1.3830   -6.4540 Cl  0  0  0  0  0  0  0  0  0  0  0  0
    5.0530    2.5350   -6.8890 H   0  0  0  0  0  0  0  0  0  0  0  0
    4.1920    2.3550   -2.0720 H   0  0  0  0  0  0  0  0  0  0  0  0
  1  2  1  0  0  0  0
  2  3  2  0  0  0  0
  2 11  1  0  0  0  0
  3  4  1  0  0  0  0
  3  5  1  0  0  0  0
  4 26  1  0  0  0  0
  5  6  1  0  0  0  0
  5  7  2  0  0  0  0
  7  8  1  0  0  0  0
  7  9  1  0  0  0  0
  9 10  1  0  0  0  0
  9 11  2  0  0  0  0
 10 13  2  0  0  0  0
 10 14  1  0  0  0  0
 11 12  1  0  0  0  0
 14 15  2  0  0  0  0
 14 31  1  0  0  0  0
 15 17  1  0  0  0  0
 15 18  1  0  0  0  0
 16 19  1  0  0  0  0
 16 32  1  0  0  0  0
 18 22  2  0  0  0  0
 18 23  1  0  0  0  0
 19 20  2  0  0  0  0
 19 21  1  0  0  0  0
 21 37  1  0  0  0  0
 21 38  1  0  0  0  0
 21 39  1  0  0  0  0
 22 25  1  0  0  0  0
 22 44  1  0  0  0  0
 23 24  2  0  0  0  0
 23 42  1  0  0  0  0
 24 30  1  0  0  0  0
 24 43  1  0  0  0  0
 25 30  2  0  0  0  0
 25 40  1  0  0  0  0
 26 27  1  0  0  0  0
 26 28  1  0  0  0  0
 26 29  1  0  0  0  0
 30 41  1  0  0  0  0
 31 32  1  0  0  0  0
 31 33  1  0  0  0  0
 31 34  1  0  0  0  0
 32 35  1  0  0  0  0
 32 36  1  0  0  0  0
M  END
>  <COMPND>
    UNNAMED

>  <AUTHOR>
    GENERATED BY OPEN BABEL 2.3.1

>  <MASTER>
        0    0    0    0    0    0    0    0   44    0   44    0

$$$$
