3ee.pdb
 OpenBabel02251613503D

 49 49  0  0  0  0  0  0  0  0999 V2000
   -0.2780   -1.4530    2.1090 H   0  0  0  0  0  0  0  0  0  0  0  0
   -0.5210   -0.8020    1.2730 C   0  0  0  0  0  0  0  0  0  0  0  0
   -1.4870    0.1920    1.3760 C   0  0  0  0  0  0  0  0  0  0  0  0
   -2.2440    0.4450    2.4830 O   0  0  0  0  0  0  0  0  0  0  0  0
   -1.7910    0.9720    0.2590 C   0  0  0  0  0  0  0  0  0  0  0  0
   -2.5970    1.6980    0.3070 H   0  0  0  0  0  0  0  0  0  0  0  0
   -1.0880    0.8200   -0.9330 C   0  0  0  0  0  0  0  0  0  0  0  0
   -1.3270    1.4400   -1.7940 H   0  0  0  0  0  0  0  0  0  0  0  0
   -0.1210   -0.1720   -1.0540 C   0  0  0  0  0  0  0  0  0  0  0  0
    0.4780   -0.2650   -2.4110 C   0  0  0  0  0  0  0  0  0  0  0  0
    0.1020   -1.0300    0.0380 C   0  0  0  0  0  0  0  0  0  0  0  0
    0.7120   -1.9240   -0.0170 H   0  0  0  0  0  0  0  0  0  0  0  0
   -0.2350   -0.5790   -3.3710 O   0  0  0  0  0  0  0  0  0  0  0  0
    1.8650    0.1810   -2.6390 C   0  0  0  0  0  0  0  0  0  0  0  0
    2.2720    1.1280   -3.5120 C   0  0  0  0  0  0  0  0  0  0  0  0
    4.4910   -1.7370   -0.8140 O   0  0  0  0  0  0  0  0  0  0  0  0
    1.5280    1.6830   -4.0710 H   0  0  0  0  0  0  0  0  0  0  0  0
    3.7800    1.4220   -3.8330 C   0  0  0  0  0  0  0  0  0  0  0  0
    5.3790   -0.6910   -0.5920 C   0  0  0  0  0  0  0  0  0  0  0  0
    6.4760   -0.6220   -1.1320 O   0  0  0  0  0  0  0  0  0  0  0  0
    5.0330    0.2630    0.4990 C   0  0  0  0  0  0  0  0  0  0  0  0
    4.3320    2.5340   -2.9180 C   0  0  0  0  0  0  0  0  0  0  0  0
    3.8020    1.6740   -5.3370 C   0  0  0  0  0  0  0  0  0  0  0  0
    5.0280    2.3410   -5.9060 C   0  0  0  0  0  0  0  0  0  0  0  0
    5.8570    2.6630   -2.8840 C   0  0  0  0  0  0  0  0  0  0  0  0
   -1.7200   -0.0300    3.7160 C   0  0  0  0  0  0  0  0  0  0  0  0
   -2.3420    0.3810    4.5150 H   0  0  0  0  0  0  0  0  0  0  0  0
   -0.6940    0.3230    3.8700 H   0  0  0  0  0  0  0  0  0  0  0  0
   -1.7710   -1.1230    3.7780 H   0  0  0  0  0  0  0  0  0  0  0  0
    2.9470    2.3040   -5.5920 H   0  0  0  0  0  0  0  0  0  0  0  0
    3.6500    0.7100   -5.8450 H   0  0  0  0  0  0  0  0  0  0  0  0
    4.4400    0.5510   -3.6800 H   0  0  0  0  0  0  0  0  0  0  0  0
    4.0240    2.3460   -1.8820 H   0  0  0  0  0  0  0  0  0  0  0  0
    3.8830    3.4860   -3.2050 H   0  0  0  0  0  0  0  0  0  0  0  0
    5.0750    3.3810   -5.5700 H   0  0  0  0  0  0  0  0  0  0  0  0
    4.9500    2.3590   -6.9960 H   0  0  0  0  0  0  0  0  0  0  0  0
    5.9500    1.8200   -5.6340 H   0  0  0  0  0  0  0  0  0  0  0  0
    6.3560    1.6940   -2.7830 H   0  0  0  0  0  0  0  0  0  0  0  0
    6.1600    3.2870   -2.0360 H   0  0  0  0  0  0  0  0  0  0  0  0
    6.2490    3.1570   -3.7730 H   0  0  0  0  0  0  0  0  0  0  0  0
    3.0000   -0.4720   -2.0260 C   0  0  0  0  0  0  0  0  0  0  0  0
    3.0460   -1.5380   -1.0270 C   0  0  0  0  0  0  0  0  0  0  0  0
    3.4820    0.3600   -1.5160 H   0  0  0  0  0  0  0  0  0  0  0  0
    3.5760   -0.9100   -2.8440 H   0  0  0  0  0  0  0  0  0  0  0  0
    2.5600   -2.4380   -1.4260 H   0  0  0  0  0  0  0  0  0  0  0  0
    2.5340   -1.1900   -0.1420 H   0  0  0  0  0  0  0  0  0  0  0  0
    4.0440    0.0580    0.8520 H   0  0  0  0  0  0  0  0  0  0  0  0
    5.0780    1.2640    0.1250 H   0  0  0  0  0  0  0  0  0  0  0  0
    5.7290    0.1510    1.3040 H   0  0  0  0  0  0  0  0  0  0  0  0
  1  2  1  0  0  0  0
  2  3  2  0  0  0  0
  2 11  1  0  0  0  0
  3  4  1  0  0  0  0
  3  5  1  0  0  0  0
  4 26  1  0  0  0  0
  5  6  1  0  0  0  0
  5  7  2  0  0  0  0
  7  8  1  0  0  0  0
  7  9  1  0  0  0  0
  9 10  1  0  0  0  0
  9 11  2  0  0  0  0
 10 13  2  0  0  0  0
 10 14  1  0  0  0  0
 11 12  1  0  0  0  0
 14 15  2  0  0  0  0
 14 41  1  0  0  0  0
 15 17  1  0  0  0  0
 15 18  1  0  0  0  0
 16 19  1  0  0  0  0
 16 42  1  0  0  0  0
 18 22  1  0  0  0  0
 18 23  1  0  0  0  0
 18 32  1  0  0  0  0
 19 20  2  0  0  0  0
 19 21  1  0  0  0  0
 21 47  1  0  0  0  0
 21 48  1  0  0  0  0
 21 49  1  0  0  0  0
 22 25  1  0  0  0  0
 22 33  1  0  0  0  0
 22 34  1  0  0  0  0
 23 24  1  0  0  0  0
 23 30  1  0  0  0  0
 23 31  1  0  0  0  0
 24 35  1  0  0  0  0
 24 36  1  0  0  0  0
 24 37  1  0  0  0  0
 25 38  1  0  0  0  0
 25 39  1  0  0  0  0
 25 40  1  0  0  0  0
 26 27  1  0  0  0  0
 26 28  1  0  0  0  0
 26 29  1  0  0  0  0
 41 42  1  0  0  0  0
 41 43  1  0  0  0  0
 41 44  1  0  0  0  0
 42 45  1  0  0  0  0
 42 46  1  0  0  0  0
M  END
>  <COMPND>
    UNNAMED

>  <AUTHOR>
    GENERATED BY OPEN BABEL 2.3.1

>  <MASTER>
        0    0    0    0    0    0    0    0   49    0   49    0

$$$$
