3ef.pdb
 OpenBabel02251613503D

 50 51  0  0  0  0  0  0  0  0999 V2000
   -0.3100   -1.4740    2.0660 H   0  0  0  0  0  0  0  0  0  0  0  0
   -0.5460   -0.8080    1.2390 C   0  0  0  0  0  0  0  0  0  0  0  0
   -1.4990    0.1990    1.3700 C   0  0  0  0  0  0  0  0  0  0  0  0
   -2.2350    0.4640    2.4900 O   0  0  0  0  0  0  0  0  0  0  0  0
   -1.8030    0.9950    0.2640 C   0  0  0  0  0  0  0  0  0  0  0  0
   -2.5900    1.7410    0.3360 H   0  0  0  0  0  0  0  0  0  0  0  0
   -1.1120    0.8400   -0.9410 C   0  0  0  0  0  0  0  0  0  0  0  0
   -1.3610    1.4720   -1.7900 H   0  0  0  0  0  0  0  0  0  0  0  0
   -0.1440   -0.1520   -1.0710 C   0  0  0  0  0  0  0  0  0  0  0  0
    0.4750   -0.2760   -2.4130 C   0  0  0  0  0  0  0  0  0  0  0  0
    0.0830   -1.0200    0.0000 C   0  0  0  0  0  0  0  0  0  0  0  0
    0.7000   -1.9060   -0.0950 H   0  0  0  0  0  0  0  0  0  0  0  0
   -0.2340   -0.5940   -3.3720 O   0  0  0  0  0  0  0  0  0  0  0  0
    1.8890    0.1550   -2.6220 C   0  0  0  0  0  0  0  0  0  0  0  0
    2.2000    1.1400   -3.4960 C   0  0  0  0  0  0  0  0  0  0  0  0
    4.5260   -1.8310   -0.6980 O   0  0  0  0  0  0  0  0  0  0  0  0
    1.4270    1.6800   -4.0330 H   0  0  0  0  0  0  0  0  0  0  0  0
    3.6460    1.4620   -3.9000 C   0  0  0  0  0  0  0  0  0  0  0  0
    5.3970   -0.7910   -0.5260 C   0  0  0  0  0  0  0  0  0  0  0  0
    6.4530   -0.7200   -1.1460 O   0  0  0  0  0  0  0  0  0  0  0  0
    5.0220    0.2260    0.5190 C   0  0  0  0  0  0  0  0  0  0  0  0
    4.3830    2.5230   -3.0870 C   0  0  0  0  0  0  0  0  0  0  0  0
    3.6750    1.7660   -5.3970 C   0  0  0  0  0  0  0  0  0  0  0  0
    4.9170    2.5210   -5.8440 C   0  0  0  0  0  0  0  0  0  0  0  0
    5.8940    2.4460   -3.4900 C   0  0  0  0  0  0  0  0  0  0  0  0
   -1.7190   -0.0280    3.7210 C   0  0  0  0  0  0  0  0  0  0  0  0
   -2.3390    0.3790    4.5260 H   0  0  0  0  0  0  0  0  0  0  0  0
   -0.6920    0.3160    3.8820 H   0  0  0  0  0  0  0  0  0  0  0  0
   -1.7830   -1.1190    3.7720 H   0  0  0  0  0  0  0  0  0  0  0  0
    2.7970    2.3410   -5.6930 H   0  0  0  0  0  0  0  0  0  0  0  0
    3.6310    0.7980   -5.9160 H   0  0  0  0  0  0  0  0  0  0  0  0
    4.2840    0.5750   -3.7840 H   0  0  0  0  0  0  0  0  0  0  0  0
    4.2430    2.3730   -2.0050 H   0  0  0  0  0  0  0  0  0  0  0  0
    3.9730    3.5190   -3.2900 H   0  0  0  0  0  0  0  0  0  0  0  0
    4.8280    3.5980   -5.6740 H   0  0  0  0  0  0  0  0  0  0  0  0
    5.0280    2.3850   -6.9280 H   0  0  0  0  0  0  0  0  0  0  0  0
    6.1050    2.0320   -5.0270 C   0  0  0  0  0  0  0  0  0  0  0  0
    3.0520   -0.5020   -2.0080 C   0  0  0  0  0  0  0  0  0  0  0  0
    3.1180   -1.5580   -0.9470 C   0  0  0  0  0  0  0  0  0  0  0  0
    3.5940    0.3430   -1.5790 H   0  0  0  0  0  0  0  0  0  0  0  0
    3.6430   -0.9320   -2.8270 H   0  0  0  0  0  0  0  0  0  0  0  0
    2.6500   -2.4750   -1.3220 H   0  0  0  0  0  0  0  0  0  0  0  0
    2.6530   -1.2510   -0.0150 H   0  0  0  0  0  0  0  0  0  0  0  0
    4.0160    0.0740    0.9100 H   0  0  0  0  0  0  0  0  0  0  0  0
    5.0710    1.2370    0.0990 H   0  0  0  0  0  0  0  0  0  0  0  0
    5.7280    0.1400    1.3470 H   0  0  0  0  0  0  0  0  0  0  0  0
    6.3990    1.7450   -2.8010 H   0  0  0  0  0  0  0  0  0  0  0  0
    6.3410    3.4210   -3.2400 H   0  0  0  0  0  0  0  0  0  0  0  0
    7.0220    2.4090   -5.5060 H   0  0  0  0  0  0  0  0  0  0  0  0
    6.1460    0.9370   -5.1750 H   0  0  0  0  0  0  0  0  0  0  0  0
  1  2  1  0  0  0  0
  2  3  2  0  0  0  0
  2 11  1  0  0  0  0
  3  4  1  0  0  0  0
  3  5  1  0  0  0  0
  4 26  1  0  0  0  0
  5  6  1  0  0  0  0
  5  7  2  0  0  0  0
  7  8  1  0  0  0  0
  7  9  1  0  0  0  0
  9 10  1  0  0  0  0
  9 11  2  0  0  0  0
 10 13  2  0  0  0  0
 10 14  1  0  0  0  0
 11 12  1  0  0  0  0
 14 15  2  0  0  0  0
 14 38  1  0  0  0  0
 15 17  1  0  0  0  0
 15 18  1  0  0  0  0
 16 19  1  0  0  0  0
 16 39  1  0  0  0  0
 18 22  1  0  0  0  0
 18 23  1  0  0  0  0
 18 32  1  0  0  0  0
 19 20  2  0  0  0  0
 19 21  1  0  0  0  0
 21 44  1  0  0  0  0
 21 45  1  0  0  0  0
 21 46  1  0  0  0  0
 22 25  1  0  0  0  0
 22 33  1  0  0  0  0
 22 34  1  0  0  0  0
 23 24  1  0  0  0  0
 23 30  1  0  0  0  0
 23 31  1  0  0  0  0
 24 35  1  0  0  0  0
 24 36  1  0  0  0  0
 24 37  1  0  0  0  0
 25 37  1  0  0  0  0
 25 47  1  0  0  0  0
 25 48  1  0  0  0  0
 26 27  1  0  0  0  0
 26 28  1  0  0  0  0
 26 29  1  0  0  0  0
 37 49  1  0  0  0  0
 37 50  1  0  0  0  0
 38 39  1  0  0  0  0
 38 40  1  0  0  0  0
 38 41  1  0  0  0  0
 39 42  1  0  0  0  0
 39 43  1  0  0  0  0
M  END
>  <COMPND>
    UNNAMED

>  <AUTHOR>
    GENERATED BY OPEN BABEL 2.3.1

>  <MASTER>
        0    0    0    0    0    0    0    0   50    0   50    0

$$$$
