3eh.pdb
 OpenBabel02251613503D

 46 47  0  0  0  0  0  0  0  0999 V2000
   -1.1470   -1.5900    1.7520 H   0  0  0  0  0  0  0  0  0  0  0  0
   -0.9150   -0.8060    1.0380 C   0  0  0  0  0  0  0  0  0  0  0  0
   -1.2220    0.5310    1.2840 C   0  0  0  0  0  0  0  0  0  0  0  0
   -1.8180    1.0190    2.4140 O   0  0  0  0  0  0  0  0  0  0  0  0
   -0.9290    1.4930    0.3120 C   0  0  0  0  0  0  0  0  0  0  0  0
   -1.1970    2.5330    0.4920 H   0  0  0  0  0  0  0  0  0  0  0  0
   -0.2970    1.1370   -0.8840 C   0  0  0  0  0  0  0  0  0  0  0  0
   -0.0950    1.9090   -1.6200 H   0  0  0  0  0  0  0  0  0  0  0  0
    0.0230   -0.1990   -1.1180 C   0  0  0  0  0  0  0  0  0  0  0  0
    0.7070   -0.6580   -2.3490 C   0  0  0  0  0  0  0  0  0  0  0  0
   -0.3070   -1.1720   -0.1660 C   0  0  0  0  0  0  0  0  0  0  0  0
   -0.0840   -2.2210   -0.3570 H   0  0  0  0  0  0  0  0  0  0  0  0
    0.3020   -1.6450   -2.9530 O   0  0  0  0  0  0  0  0  0  0  0  0
    2.0310   -0.0590   -2.6880 C   0  0  0  0  0  0  0  0  0  0  0  0
    2.0420    1.1010   -3.3700 C   0  0  0  0  0  0  0  0  0  0  0  0
    4.5540   -2.0450   -0.6860 O   0  0  0  0  0  0  0  0  0  0  0  0
    1.1220    1.6160   -3.6380 H   0  0  0  0  0  0  0  0  0  0  0  0
    3.2630    1.6780   -3.9390 C   0  0  0  0  0  0  0  0  0  0  0  0
    5.5030   -1.3720    0.0060 C   0  0  0  0  0  0  0  0  0  0  0  0
    6.6270   -1.8430    0.1550 O   0  0  0  0  0  0  0  0  0  0  0  0
    5.1250   -0.0470    0.5980 C   0  0  0  0  0  0  0  0  0  0  0  0
    4.1670    2.3990   -3.1480 C   0  0  0  0  0  0  0  0  0  0  0  0
    3.5580    1.4360   -5.2870 C   0  0  0  0  0  0  0  0  0  0  0  0
    4.7580    1.8870   -5.8430 C   0  0  0  0  0  0  0  0  0  0  0  0
    5.3740    2.8500   -3.6940 C   0  0  0  0  0  0  0  0  0  0  0  0
   -1.9200    0.1280    3.5190 C   0  0  0  0  0  0  0  0  0  0  0  0
   -2.3380    0.6860    4.3620 H   0  0  0  0  0  0  0  0  0  0  0  0
   -0.9330   -0.2410    3.8200 H   0  0  0  0  0  0  0  0  0  0  0  0
   -2.6010   -0.7000    3.2980 H   0  0  0  0  0  0  0  0  0  0  0  0
    5.6680    2.5850   -5.0390 C   0  0  0  0  0  0  0  0  0  0  0  0
    3.2280   -0.9330   -2.3890 C   0  0  0  0  0  0  0  0  0  0  0  0
    3.2430   -1.5130   -0.9730 C   0  0  0  0  0  0  0  0  0  0  0  0
    4.1650   -0.3900   -2.5480 H   0  0  0  0  0  0  0  0  0  0  0  0
    3.2540   -1.7620   -3.1090 H   0  0  0  0  0  0  0  0  0  0  0  0
    2.5470   -2.3560   -0.9050 H   0  0  0  0  0  0  0  0  0  0  0  0
    2.9300   -0.7820   -0.2230 H   0  0  0  0  0  0  0  0  0  0  0  0
    4.3650   -0.1830    1.3710 H   0  0  0  0  0  0  0  0  0  0  0  0
    4.7890    0.6420   -0.1800 H   0  0  0  0  0  0  0  0  0  0  0  0
    6.0070    0.3950    1.0720 H   0  0  0  0  0  0  0  0  0  0  0  0
    6.0740    3.3920   -3.0610 H   0  0  0  0  0  0  0  0  0  0  0  0
    6.9480    3.0260   -5.6080 N   0  0  0  0  0  0  0  0  0  0  0  0
    2.8640    0.8710   -5.9090 H   0  0  0  0  0  0  0  0  0  0  0  0
    4.9710    1.6720   -6.8880 H   0  0  0  0  0  0  0  0  0  0  0  0
    3.9510    2.5950   -2.1000 H   0  0  0  0  0  0  0  0  0  0  0  0
    7.1290    2.8550   -6.8220 O   0  0  0  0  0  0  0  0  0  0  0  0
    7.7710    3.5410   -4.8390 O   0  0  0  0  0  0  0  0  0  0  0  0
  1  2  1  0  0  0  0
  2  3  2  0  0  0  0
  2 11  1  0  0  0  0
  3  4  1  0  0  0  0
  3  5  1  0  0  0  0
  4 26  1  0  0  0  0
  5  6  1  0  0  0  0
  5  7  2  0  0  0  0
  7  8  1  0  0  0  0
  7  9  1  0  0  0  0
  9 10  1  0  0  0  0
  9 11  2  0  0  0  0
 10 13  2  0  0  0  0
 10 14  1  0  0  0  0
 11 12  1  0  0  0  0
 14 15  2  0  0  0  0
 14 31  1  0  0  0  0
 15 17  1  0  0  0  0
 15 18  1  0  0  0  0
 16 19  1  0  0  0  0
 16 32  1  0  0  0  0
 18 22  2  0  0  0  0
 18 23  1  0  0  0  0
 19 20  2  0  0  0  0
 19 21  1  0  0  0  0
 21 37  1  0  0  0  0
 21 38  1  0  0  0  0
 21 39  1  0  0  0  0
 22 25  1  0  0  0  0
 22 44  1  0  0  0  0
 23 24  2  0  0  0  0
 23 42  1  0  0  0  0
 24 30  1  0  0  0  0
 24 43  1  0  0  0  0
 25 30  2  0  0  0  0
 25 40  1  0  0  0  0
 26 27  1  0  0  0  0
 26 28  1  0  0  0  0
 26 29  1  0  0  0  0
 30 41  1  0  0  0  0
 31 32  1  0  0  0  0
 31 33  1  0  0  0  0
 31 34  1  0  0  0  0
 32 35  1  0  0  0  0
 32 36  1  0  0  0  0
 41 45  2  0  0  0  0
 41 46  2  0  0  0  0
M  END
>  <COMPND>
    UNNAMED

>  <AUTHOR>
    GENERATED BY OPEN BABEL 2.3.1

>  <MASTER>
        0    0    0    0    0    0    0    0   46    0   46    0

$$$$
