3ei.pdb
 OpenBabel02251613503D

 44 45  0  0  0  0  0  0  0  0999 V2000
   -0.3520   -1.5040    2.0160 H   0  0  0  0  0  0  0  0  0  0  0  0
   -0.5680   -0.8130    1.2060 C   0  0  0  0  0  0  0  0  0  0  0  0
   -1.5000    0.2110    1.3560 C   0  0  0  0  0  0  0  0  0  0  0  0
   -2.2230    0.4800    2.4840 O   0  0  0  0  0  0  0  0  0  0  0  0
   -1.7940    1.0250    0.2590 C   0  0  0  0  0  0  0  0  0  0  0  0
   -2.5680    1.7830    0.3480 H   0  0  0  0  0  0  0  0  0  0  0  0
   -1.1070    0.8740   -0.9510 C   0  0  0  0  0  0  0  0  0  0  0  0
   -1.3650    1.5090   -1.7950 H   0  0  0  0  0  0  0  0  0  0  0  0
   -0.1300   -0.1150   -1.0880 C   0  0  0  0  0  0  0  0  0  0  0  0
    0.5190   -0.2560   -2.4150 C   0  0  0  0  0  0  0  0  0  0  0  0
    0.0750   -1.0050   -0.0300 C   0  0  0  0  0  0  0  0  0  0  0  0
    0.6910   -1.8880   -0.1480 H   0  0  0  0  0  0  0  0  0  0  0  0
   -0.1670   -0.6190   -3.3680 O   0  0  0  0  0  0  0  0  0  0  0  0
    1.9210    0.2110   -2.6230 C   0  0  0  0  0  0  0  0  0  0  0  0
    2.0820    1.2000   -3.5450 C   0  0  0  0  0  0  0  0  0  0  0  0
    4.5390   -1.8600   -0.6490 O   0  0  0  0  0  0  0  0  0  0  0  0
    1.2300    1.6490   -4.0490 H   0  0  0  0  0  0  0  0  0  0  0  0
    3.3800    1.6830   -4.0250 C   0  0  0  0  0  0  0  0  0  0  0  0
    5.4320   -0.8500   -0.4580 C   0  0  0  0  0  0  0  0  0  0  0  0
    6.4970   -0.8120   -1.0650 O   0  0  0  0  0  0  0  0  0  0  0  0
    5.0490    0.1940    0.5560 C   0  0  0  0  0  0  0  0  0  0  0  0
    4.4240    2.1240   -3.2300 C   0  0  0  0  0  0  0  0  0  0  0  0
    3.6650    1.8460   -5.3660 C   0  0  0  0  0  0  0  0  0  0  0  0
    4.9080    2.2550   -5.7980 C   0  0  0  0  0  0  0  0  0  0  0  0
    5.7210    2.3240   -3.6740 C   0  0  0  0  0  0  0  0  0  0  0  0
   -1.7150   -0.0300    3.7120 C   0  0  0  0  0  0  0  0  0  0  0  0
   -2.3300    0.3760    4.5210 H   0  0  0  0  0  0  0  0  0  0  0  0
   -0.6840    0.2990    3.8800 H   0  0  0  0  0  0  0  0  0  0  0  0
   -1.7930   -1.1210    3.7530 H   0  0  0  0  0  0  0  0  0  0  0  0
    6.0180    2.2830   -5.0090 C   0  0  0  0  0  0  0  0  0  0  0  0
    3.1240   -0.4690   -2.0440 C   0  0  0  0  0  0  0  0  0  0  0  0
    3.1560   -1.5280   -0.9500 C   0  0  0  0  0  0  0  0  0  0  0  0
    3.7040    0.3470   -1.6240 H   0  0  0  0  0  0  0  0  0  0  0  0
    3.7160   -0.8730   -2.8770 H   0  0  0  0  0  0  0  0  0  0  0  0
    2.6790   -2.4510   -1.2960 H   0  0  0  0  0  0  0  0  0  0  0  0
    2.6840   -1.2160   -0.0210 H   0  0  0  0  0  0  0  0  0  0  0  0
    4.0410    0.0570    0.9480 H   0  0  0  0  0  0  0  0  0  0  0  0
    5.0970    1.1860    0.0950 H   0  0  0  0  0  0  0  0  0  0  0  0
    5.7470    0.1410    1.3930 H   0  0  0  0  0  0  0  0  0  0  0  0
    6.6840    2.5940   -2.7890 F   0  0  0  0  0  0  0  0  0  0  0  0
    7.2240    2.0190   -5.5220 F   0  0  0  0  0  0  0  0  0  0  0  0
    2.7090    1.6110   -6.2740 F   0  0  0  0  0  0  0  0  0  0  0  0
    5.0650    2.6110   -7.0790 F   0  0  0  0  0  0  0  0  0  0  0  0
    4.1470    2.4150   -1.9460 F   0  0  0  0  0  0  0  0  0  0  0  0
  1  2  1  0  0  0  0
  2  3  2  0  0  0  0
  2 11  1  0  0  0  0
  3  4  1  0  0  0  0
  3  5  1  0  0  0  0
  4 26  1  0  0  0  0
  5  6  1  0  0  0  0
  5  7  2  0  0  0  0
  7  8  1  0  0  0  0
  7  9  1  0  0  0  0
  9 10  1  0  0  0  0
  9 11  2  0  0  0  0
 10 13  2  0  0  0  0
 10 14  1  0  0  0  0
 11 12  1  0  0  0  0
 14 15  2  0  0  0  0
 14 31  1  0  0  0  0
 15 17  1  0  0  0  0
 15 18  1  0  0  0  0
 16 19  1  0  0  0  0
 16 32  1  0  0  0  0
 18 22  2  0  0  0  0
 18 23  1  0  0  0  0
 19 20  2  0  0  0  0
 19 21  1  0  0  0  0
 21 37  1  0  0  0  0
 21 38  1  0  0  0  0
 21 39  1  0  0  0  0
 22 25  1  0  0  0  0
 22 44  1  0  0  0  0
 23 24  2  0  0  0  0
 23 42  1  0  0  0  0
 24 30  1  0  0  0  0
 24 43  1  0  0  0  0
 25 30  2  0  0  0  0
 25 40  1  0  0  0  0
 26 27  1  0  0  0  0
 26 28  1  0  0  0  0
 26 29  1  0  0  0  0
 30 41  1  0  0  0  0
 31 32  1  0  0  0  0
 31 33  1  0  0  0  0
 31 34  1  0  0  0  0
 32 35  1  0  0  0  0
 32 36  1  0  0  0  0
M  END
>  <COMPND>
    UNNAMED

>  <AUTHOR>
    GENERATED BY OPEN BABEL 2.3.1

>  <MASTER>
        0    0    0    0    0    0    0    0   44    0   44    0

$$$$
