3el.pdb
 OpenBabel02251613503D

 44 45  0  0  0  0  0  0  0  0999 V2000
   -0.3440   -1.4980    2.0250 H   0  0  0  0  0  0  0  0  0  0  0  0
   -0.5650   -0.8130    1.2110 C   0  0  0  0  0  0  0  0  0  0  0  0
   -1.5010    0.2080    1.3590 C   0  0  0  0  0  0  0  0  0  0  0  0
   -2.2250    0.4770    2.4860 O   0  0  0  0  0  0  0  0  0  0  0  0
   -1.7970    1.0180    0.2610 C   0  0  0  0  0  0  0  0  0  0  0  0
   -2.5730    1.7750    0.3470 H   0  0  0  0  0  0  0  0  0  0  0  0
   -1.1110    0.8660   -0.9500 C   0  0  0  0  0  0  0  0  0  0  0  0
   -1.3670    1.5010   -1.7940 H   0  0  0  0  0  0  0  0  0  0  0  0
   -0.1320   -0.1210   -1.0860 C   0  0  0  0  0  0  0  0  0  0  0  0
    0.5160   -0.2530   -2.4150 C   0  0  0  0  0  0  0  0  0  0  0  0
    0.0760   -1.0080   -0.0250 C   0  0  0  0  0  0  0  0  0  0  0  0
    0.6930   -1.8910   -0.1400 H   0  0  0  0  0  0  0  0  0  0  0  0
   -0.1710   -0.6090   -3.3700 O   0  0  0  0  0  0  0  0  0  0  0  0
    1.9220    0.2170   -2.6280 C   0  0  0  0  0  0  0  0  0  0  0  0
    2.1020    1.1960   -3.5600 C   0  0  0  0  0  0  0  0  0  0  0  0
    4.5390   -1.8590   -0.6500 O   0  0  0  0  0  0  0  0  0  0  0  0
    1.2470    1.6650   -4.0430 H   0  0  0  0  0  0  0  0  0  0  0  0
    3.4340    1.6600   -4.0670 C   0  0  0  0  0  0  0  0  0  0  0  0
    5.4210   -0.8400   -0.4690 C   0  0  0  0  0  0  0  0  0  0  0  0
    6.4910   -0.7940   -1.0860 O   0  0  0  0  0  0  0  0  0  0  0  0
    5.0430    0.1990    0.5490 C   0  0  0  0  0  0  0  0  0  0  0  0
    4.4610    2.1480   -3.2430 C   0  0  0  0  0  0  0  0  0  0  0  0
    3.6670    1.8220   -5.4180 C   0  0  0  0  0  0  0  0  0  0  0  0
    4.9360    2.2390   -5.8470 C   0  0  0  0  0  0  0  0  0  0  0  0
    5.7900    2.3100   -3.6480 C   0  0  0  0  0  0  0  0  0  0  0  0
   -1.7160   -0.0290    3.7150 C   0  0  0  0  0  0  0  0  0  0  0  0
   -2.3320    0.3770    4.5240 H   0  0  0  0  0  0  0  0  0  0  0  0
   -0.6860    0.3030    3.8820 H   0  0  0  0  0  0  0  0  0  0  0  0
   -1.7910   -1.1200    3.7580 H   0  0  0  0  0  0  0  0  0  0  0  0
    6.0390    2.1770   -4.9920 C   0  0  0  0  0  0  0  0  0  0  0  0
    3.1170   -0.4710   -2.0400 C   0  0  0  0  0  0  0  0  0  0  0  0
    3.1530   -1.5320   -0.9480 C   0  0  0  0  0  0  0  0  0  0  0  0
    3.6970    0.3450   -1.6200 H   0  0  0  0  0  0  0  0  0  0  0  0
    3.7100   -0.8740   -2.8720 H   0  0  0  0  0  0  0  0  0  0  0  0
    2.6790   -2.4570   -1.2940 H   0  0  0  0  0  0  0  0  0  0  0  0
    2.6820   -1.2270   -0.0150 H   0  0  0  0  0  0  0  0  0  0  0  0
    4.0350    0.0620    0.9400 H   0  0  0  0  0  0  0  0  0  0  0  0
    5.0920    1.1930    0.0950 H   0  0  0  0  0  0  0  0  0  0  0  0
    5.7420    0.1420    1.3850 H   0  0  0  0  0  0  0  0  0  0  0  0
    6.5730    2.5920   -2.9410 H   0  0  0  0  0  0  0  0  0  0  0  0
    7.0550    2.0870   -5.3640 H   0  0  0  0  0  0  0  0  0  0  0  0
    2.8690    1.6390   -6.1300 H   0  0  0  0  0  0  0  0  0  0  0  0
    5.0550    2.6640   -6.8380 H   0  0  0  0  0  0  0  0  0  0  0  0
    3.9440    3.0310   -1.8610 Cl  0  0  0  0  0  0  0  0  0  0  0  0
  1  2  1  0  0  0  0
  2  3  2  0  0  0  0
  2 11  1  0  0  0  0
  3  4  1  0  0  0  0
  3  5  1  0  0  0  0
  4 26  1  0  0  0  0
  5  6  1  0  0  0  0
  5  7  2  0  0  0  0
  7  8  1  0  0  0  0
  7  9  1  0  0  0  0
  9 10  1  0  0  0  0
  9 11  2  0  0  0  0
 10 13  2  0  0  0  0
 10 14  1  0  0  0  0
 11 12  1  0  0  0  0
 14 15  2  0  0  0  0
 14 31  1  0  0  0  0
 15 17  1  0  0  0  0
 15 18  1  0  0  0  0
 16 19  1  0  0  0  0
 16 32  1  0  0  0  0
 18 22  2  0  0  0  0
 18 23  1  0  0  0  0
 19 20  2  0  0  0  0
 19 21  1  0  0  0  0
 21 37  1  0  0  0  0
 21 38  1  0  0  0  0
 21 39  1  0  0  0  0
 22 25  1  0  0  0  0
 22 44  1  0  0  0  0
 23 24  2  0  0  0  0
 23 42  1  0  0  0  0
 24 30  1  0  0  0  0
 24 43  1  0  0  0  0
 25 30  2  0  0  0  0
 25 40  1  0  0  0  0
 26 27  1  0  0  0  0
 26 28  1  0  0  0  0
 26 29  1  0  0  0  0
 30 41  1  0  0  0  0
 31 32  1  0  0  0  0
 31 33  1  0  0  0  0
 31 34  1  0  0  0  0
 32 35  1  0  0  0  0
 32 36  1  0  0  0  0
M  END
>  <COMPND>
    UNNAMED

>  <AUTHOR>
    GENERATED BY OPEN BABEL 2.3.1

>  <MASTER>
        0    0    0    0    0    0    0    0   44    0   44    0

$$$$
