3en.pdb
 OpenBabel02251613503D

 44 45  0  0  0  0  0  0  0  0999 V2000
   -0.3490   -1.5020    2.0190 H   0  0  0  0  0  0  0  0  0  0  0  0
   -0.5670   -0.8130    1.2080 C   0  0  0  0  0  0  0  0  0  0  0  0
   -1.5000    0.2100    1.3570 C   0  0  0  0  0  0  0  0  0  0  0  0
   -2.2240    0.4790    2.4850 O   0  0  0  0  0  0  0  0  0  0  0  0
   -1.7950    1.0220    0.2600 C   0  0  0  0  0  0  0  0  0  0  0  0
   -2.5700    1.7800    0.3480 H   0  0  0  0  0  0  0  0  0  0  0  0
   -1.1090    0.8710   -0.9500 C   0  0  0  0  0  0  0  0  0  0  0  0
   -1.3660    1.5060   -1.7950 H   0  0  0  0  0  0  0  0  0  0  0  0
   -0.1300   -0.1170   -1.0880 C   0  0  0  0  0  0  0  0  0  0  0  0
    0.5200   -0.2530   -2.4160 C   0  0  0  0  0  0  0  0  0  0  0  0
    0.0750   -1.0060   -0.0280 C   0  0  0  0  0  0  0  0  0  0  0  0
    0.6920   -1.8890   -0.1450 H   0  0  0  0  0  0  0  0  0  0  0  0
   -0.1700   -0.6150   -3.3690 O   0  0  0  0  0  0  0  0  0  0  0  0
    1.9250    0.2170   -2.6290 C   0  0  0  0  0  0  0  0  0  0  0  0
    2.0970    1.2010   -3.5520 C   0  0  0  0  0  0  0  0  0  0  0  0
    4.5390   -1.8600   -0.6480 O   0  0  0  0  0  0  0  0  0  0  0  0
    1.2430    1.6540   -4.0470 H   0  0  0  0  0  0  0  0  0  0  0  0
    3.4030    1.6890   -4.0610 C   0  0  0  0  0  0  0  0  0  0  0  0
    5.4290   -0.8470   -0.4640 C   0  0  0  0  0  0  0  0  0  0  0  0
    6.4950   -0.8040   -1.0700 O   0  0  0  0  0  0  0  0  0  0  0  0
    5.0470    0.1960    0.5530 C   0  0  0  0  0  0  0  0  0  0  0  0
    4.4150    2.1370   -3.1630 C   0  0  0  0  0  0  0  0  0  0  0  0
    3.6280    1.8190   -5.4080 C   0  0  0  0  0  0  0  0  0  0  0  0
    4.8450    2.2840   -5.8520 C   0  0  0  0  0  0  0  0  0  0  0  0
    5.7210    2.3360   -3.5840 C   0  0  0  0  0  0  0  0  0  0  0  0
   -1.7150   -0.0300    3.7130 C   0  0  0  0  0  0  0  0  0  0  0  0
   -2.3310    0.3770    4.5220 H   0  0  0  0  0  0  0  0  0  0  0  0
   -0.6850    0.3010    3.8810 H   0  0  0  0  0  0  0  0  0  0  0  0
   -1.7920   -1.1210    3.7550 H   0  0  0  0  0  0  0  0  0  0  0  0
    5.8940    2.3800   -4.9220 C   0  0  0  0  0  0  0  0  0  0  0  0
    3.1230   -0.4680   -2.0430 C   0  0  0  0  0  0  0  0  0  0  0  0
    3.1550   -1.5290   -0.9510 C   0  0  0  0  0  0  0  0  0  0  0  0
    3.7020    0.3510   -1.6240 H   0  0  0  0  0  0  0  0  0  0  0  0
    3.7140   -0.8740   -2.8760 H   0  0  0  0  0  0  0  0  0  0  0  0
    2.6790   -2.4530   -1.2950 H   0  0  0  0  0  0  0  0  0  0  0  0
    2.6830   -1.2200   -0.0190 H   0  0  0  0  0  0  0  0  0  0  0  0
    4.0390    0.0590    0.9450 H   0  0  0  0  0  0  0  0  0  0  0  0
    5.0950    1.1890    0.0940 H   0  0  0  0  0  0  0  0  0  0  0  0
    5.7450    0.1410    1.3900 H   0  0  0  0  0  0  0  0  0  0  0  0
    6.5590    2.5680   -2.9110 H   0  0  0  0  0  0  0  0  0  0  0  0
    7.3840    1.9160   -5.6290 Cl  0  0  0  0  0  0  0  0  0  0  0  0
    2.8510    1.6410   -6.1510 H   0  0  0  0  0  0  0  0  0  0  0  0
    5.0480    2.5880   -6.8600 H   0  0  0  0  0  0  0  0  0  0  0  0
    4.1910    2.3840   -2.1590 H   0  0  0  0  0  0  0  0  0  0  0  0
  1  2  1  0  0  0  0
  2  3  2  0  0  0  0
  2 11  1  0  0  0  0
  3  4  1  0  0  0  0
  3  5  1  0  0  0  0
  4 26  1  0  0  0  0
  5  6  1  0  0  0  0
  5  7  2  0  0  0  0
  7  8  1  0  0  0  0
  7  9  1  0  0  0  0
  9 10  1  0  0  0  0
  9 11  2  0  0  0  0
 10 13  2  0  0  0  0
 10 14  1  0  0  0  0
 11 12  1  0  0  0  0
 14 15  2  0  0  0  0
 14 31  1  0  0  0  0
 15 17  1  0  0  0  0
 15 18  1  0  0  0  0
 16 19  1  0  0  0  0
 16 32  1  0  0  0  0
 18 22  2  0  0  0  0
 18 23  1  0  0  0  0
 19 20  2  0  0  0  0
 19 21  1  0  0  0  0
 21 37  1  0  0  0  0
 21 38  1  0  0  0  0
 21 39  1  0  0  0  0
 22 25  1  0  0  0  0
 22 44  1  0  0  0  0
 23 24  2  0  0  0  0
 23 42  1  0  0  0  0
 24 30  1  0  0  0  0
 24 43  1  0  0  0  0
 25 30  2  0  0  0  0
 25 40  1  0  0  0  0
 26 27  1  0  0  0  0
 26 28  1  0  0  0  0
 26 29  1  0  0  0  0
 30 41  1  0  0  0  0
 31 32  1  0  0  0  0
 31 33  1  0  0  0  0
 31 34  1  0  0  0  0
 32 35  1  0  0  0  0
 32 36  1  0  0  0  0
M  END
>  <COMPND>
    UNNAMED

>  <AUTHOR>
    GENERATED BY OPEN BABEL 2.3.1

>  <MASTER>
        0    0    0    0    0    0    0    0   44    0   44    0

$$$$
