3ff.pdb
 OpenBabel02251613503D

 53 54  0  0  1  0  0  0  0  0999 V2000
   -0.3240   -1.4780    2.0570 H   0  0  0  0  0  0  0  0  0  0  0  0
   -0.5640   -0.8000    1.2430 C   0  0  0  0  0  0  0  0  0  0  0  0
   -1.5070    0.2080    1.3720 C   0  0  0  0  0  0  0  0  0  0  0  0
   -2.2360    0.4730    2.4940 O   0  0  0  0  0  0  0  0  0  0  0  0
   -1.8070    1.0060    0.2660 C   0  0  0  0  0  0  0  0  0  0  0  0
   -2.5890    1.7550    0.3430 H   0  0  0  0  0  0  0  0  0  0  0  0
   -1.1210    0.8530   -0.9420 C   0  0  0  0  0  0  0  0  0  0  0  0
   -1.3700    1.4840   -1.7910 H   0  0  0  0  0  0  0  0  0  0  0  0
   -0.1530   -0.1370   -1.0720 C   0  0  0  0  0  0  0  0  0  0  0  0
    0.4770   -0.2620   -2.4130 C   0  0  0  0  0  0  0  0  0  0  0  0
    0.0600   -1.0000    0.0090 C   0  0  0  0  0  0  0  0  0  0  0  0
    0.6640   -1.8890   -0.0500 H   0  0  0  0  0  0  0  0  0  0  0  0
   -0.2190   -0.5930   -3.3640 O   0  0  0  0  0  0  0  0  0  0  0  0
    1.8940    0.1780   -2.6060 C   0  0  0  0  0  0  0  0  0  0  0  0
    2.1850    1.1550   -3.4970 C   0  0  0  0  0  0  0  0  0  0  0  0
    4.5640   -1.7910   -0.6380 O   0  0  0  0  0  0  0  0  0  0  0  0
    1.3920    1.6770   -4.0250 H   0  0  0  0  0  0  0  0  0  0  0  0
    3.6220    1.4750   -3.9220 C   0  0  0  0  0  0  0  0  0  0  0  0
    5.4520   -0.7750   -0.4980 C   0  0  0  0  0  0  0  0  0  0  0  0
    6.4780   -0.7220   -1.1290 O   0  0  0  0  0  0  0  0  0  0  0  0
    5.0470    0.2380    0.5400 C   0  0  0  0  0  0  0  0  0  0  0  0
    4.3850    2.5270   -3.1110 C   0  0  0  0  0  0  0  0  0  0  0  0
    3.6570    1.7790   -5.4170 C   0  0  0  0  0  0  0  0  0  0  0  0
    4.9160    2.5260   -5.8410 C   0  0  0  0  0  0  0  0  0  0  0  0
    5.8850    2.4510   -3.5110 C   0  0  0  0  0  0  0  0  0  0  0  0
   -1.7190   -0.0270    3.7210 C   0  0  0  0  0  0  0  0  0  0  0  0
   -2.3370    0.3780    4.5280 H   0  0  0  0  0  0  0  0  0  0  0  0
   -0.6910    0.3130    3.8830 H   0  0  0  0  0  0  0  0  0  0  0  0
   -1.7860   -1.1190    3.7690 H   0  0  0  0  0  0  0  0  0  0  0  0
    2.7820    2.3550   -5.7210 H   0  0  0  0  0  0  0  0  0  0  0  0
    3.6170    0.8150   -5.9430 H   0  0  0  0  0  0  0  0  0  0  0  0
    4.2450    0.5760   -3.8210 H   0  0  0  0  0  0  0  0  0  0  0  0
    4.2750    2.3770   -2.0280 H   0  0  0  0  0  0  0  0  0  0  0  0
    3.9820    3.5260   -3.3100 H   0  0  0  0  0  0  0  0  0  0  0  0
    4.7990    3.6050   -5.6850 H   0  0  0  0  0  0  0  0  0  0  0  0
    5.0670    2.3770   -6.9150 H   0  0  0  0  0  0  0  0  0  0  0  0
    6.0970    2.0490   -5.0060 C   0  0  0  0  0  0  0  0  0  0  0  0
    3.0940   -0.4400   -1.9850 C   0  0  0  0  0  0  0  0  0  0  0  0
    3.1850   -1.4360   -0.8670 C   0  0  1  0  0  0  0  0  0  0  0  0
    3.6490    0.4110   -1.6070 H   0  0  0  0  0  0  0  0  0  0  0  0
    3.6600   -0.9050   -2.8110 H   0  0  0  0  0  0  0  0  0  0  0  0
    2.5810   -2.6850   -1.3870 C   0  0  0  0  0  0  0  0  0  0  0  0
    2.6950   -1.1570    0.0650 H   0  0  0  0  0  0  0  0  0  0  0  0
    4.0380    0.0830    0.9270 H   0  0  0  0  0  0  0  0  0  0  0  0
    5.0800    1.2350    0.0980 H   0  0  0  0  0  0  0  0  0  0  0  0
    5.7400    0.1490    1.3720 H   0  0  0  0  0  0  0  0  0  0  0  0
    6.3980    1.7320   -2.8540 H   0  0  0  0  0  0  0  0  0  0  0  0
    6.3460    3.4210   -3.2920 H   0  0  0  0  0  0  0  0  0  0  0  0
    7.0300    2.4410   -5.4270 H   0  0  0  0  0  0  0  0  0  0  0  0
    6.1650    0.9550   -5.1150 H   0  0  0  0  0  0  0  0  0  0  0  0
    3.0970   -2.9520   -2.3130 H   0  0  0  0  0  0  0  0  0  0  0  0
    1.5400   -2.4870   -1.6100 H   0  0  0  0  0  0  0  0  0  0  0  0
    2.7160   -3.4330   -0.6090 H   0  0  0  0  0  0  0  0  0  0  0  0
  1  2  1  0  0  0  0
  2  3  2  0  0  0  0
  2 11  1  0  0  0  0
  3  4  1  0  0  0  0
  3  5  1  0  0  0  0
  4 26  1  0  0  0  0
  5  6  1  0  0  0  0
  5  7  2  0  0  0  0
  7  8  1  0  0  0  0
  7  9  1  0  0  0  0
  9 10  1  0  0  0  0
  9 11  2  0  0  0  0
 10 13  2  0  0  0  0
 10 14  1  0  0  0  0
 11 12  1  0  0  0  0
 14 15  2  0  0  0  0
 14 38  1  0  0  0  0
 15 17  1  0  0  0  0
 15 18  1  0  0  0  0
 16 19  1  0  0  0  0
 16 39  1  0  0  0  0
 18 22  1  0  0  0  0
 18 23  1  0  0  0  0
 18 32  1  0  0  0  0
 19 20  2  0  0  0  0
 19 21  1  0  0  0  0
 21 44  1  0  0  0  0
 21 45  1  0  0  0  0
 21 46  1  0  0  0  0
 22 25  1  0  0  0  0
 22 33  1  0  0  0  0
 22 34  1  0  0  0  0
 23 24  1  0  0  0  0
 23 30  1  0  0  0  0
 23 31  1  0  0  0  0
 24 35  1  0  0  0  0
 24 36  1  0  0  0  0
 24 37  1  0  0  0  0
 25 37  1  0  0  0  0
 25 47  1  0  0  0  0
 25 48  1  0  0  0  0
 26 27  1  0  0  0  0
 26 28  1  0  0  0  0
 26 29  1  0  0  0  0
 37 49  1  0  0  0  0
 37 50  1  0  0  0  0
 38 39  1  0  0  0  0
 38 40  1  0  0  0  0
 38 41  1  0  0  0  0
 39 42  1  0  0  0  0
 39 43  1  1  0  0  0
 42 51  1  0  0  0  0
 42 52  1  0  0  0  0
 42 53  1  0  0  0  0
M  END
>  <COMPND>
    UNNAMED

>  <AUTHOR>
    GENERATED BY OPEN BABEL 2.3.1

>  <MASTER>
        0    0    0    0    0    0    0    0   53    0   53    0

$$$$
