3fi.pdb
 OpenBabel02251613503D

 47 48  0  0  1  0  0  0  0  0999 V2000
   -0.3650   -1.5050    2.0130 H   0  0  0  0  0  0  0  0  0  0  0  0
   -0.5840   -0.8020    1.2150 C   0  0  0  0  0  0  0  0  0  0  0  0
   -1.5060    0.2210    1.3580 C   0  0  0  0  0  0  0  0  0  0  0  0
   -2.2270    0.4870    2.4860 O   0  0  0  0  0  0  0  0  0  0  0  0
   -1.7930    1.0350    0.2590 C   0  0  0  0  0  0  0  0  0  0  0  0
   -2.5660    1.7940    0.3490 H   0  0  0  0  0  0  0  0  0  0  0  0
   -1.1080    0.8860   -0.9520 C   0  0  0  0  0  0  0  0  0  0  0  0
   -1.3630    1.5210   -1.7970 H   0  0  0  0  0  0  0  0  0  0  0  0
   -0.1370   -0.1030   -1.0850 C   0  0  0  0  0  0  0  0  0  0  0  0
    0.5180   -0.2470   -2.4120 C   0  0  0  0  0  0  0  0  0  0  0  0
    0.0530   -0.9840   -0.0150 C   0  0  0  0  0  0  0  0  0  0  0  0
    0.6500   -1.8750   -0.0850 H   0  0  0  0  0  0  0  0  0  0  0  0
   -0.1600   -0.6260   -3.3630 O   0  0  0  0  0  0  0  0  0  0  0  0
    1.9240    0.2390   -2.6180 C   0  0  0  0  0  0  0  0  0  0  0  0
    2.0760    1.2230   -3.5440 C   0  0  0  0  0  0  0  0  0  0  0  0
    4.5730   -1.8020   -0.6170 O   0  0  0  0  0  0  0  0  0  0  0  0
    1.2080    1.6390   -4.0540 H   0  0  0  0  0  0  0  0  0  0  0  0
    3.3870    1.7360   -4.0340 C   0  0  0  0  0  0  0  0  0  0  0  0
    5.4900   -0.8220   -0.4390 C   0  0  0  0  0  0  0  0  0  0  0  0
    6.5280   -0.8060   -1.0430 O   0  0  0  0  0  0  0  0  0  0  0  0
    5.0770    0.2110    0.5760 C   0  0  0  0  0  0  0  0  0  0  0  0
    4.4230    2.1560   -3.1890 C   0  0  0  0  0  0  0  0  0  0  0  0
    3.6420    1.8600   -5.3980 C   0  0  0  0  0  0  0  0  0  0  0  0
    4.9060    2.2120   -5.8680 C   0  0  0  0  0  0  0  0  0  0  0  0
    5.7280    2.3240   -3.6500 C   0  0  0  0  0  0  0  0  0  0  0  0
   -1.7150   -0.0300    3.7100 C   0  0  0  0  0  0  0  0  0  0  0  0
   -2.3280    0.3750    4.5200 H   0  0  0  0  0  0  0  0  0  0  0  0
   -0.6820    0.2950    3.8770 H   0  0  0  0  0  0  0  0  0  0  0  0
   -1.7950   -1.1210    3.7480 H   0  0  0  0  0  0  0  0  0  0  0  0
    5.9810    2.2460   -5.0030 C   0  0  0  0  0  0  0  0  0  0  0  0
    3.1530   -0.4040   -2.0330 C   0  0  0  0  0  0  0  0  0  0  0  0
    3.2160   -1.4000   -0.8890 C   0  0  1  0  0  0  0  0  0  0  0  0
    3.7380    0.4120   -1.6450 H   0  0  0  0  0  0  0  0  0  0  0  0
    3.7250   -0.8380   -2.8730 H   0  0  0  0  0  0  0  0  0  0  0  0
    2.6050   -2.6580   -1.3710 C   0  0  0  0  0  0  0  0  0  0  0  0
    2.7180   -1.1020    0.0360 H   0  0  0  0  0  0  0  0  0  0  0  0
    4.0670    0.0630    0.9650 H   0  0  0  0  0  0  0  0  0  0  0  0
    5.1080    1.1930    0.1020 H   0  0  0  0  0  0  0  0  0  0  0  0
    5.7640    0.1500    1.4150 H   0  0  0  0  0  0  0  0  0  0  0  0
    6.7130    2.5830   -2.7800 F   0  0  0  0  0  0  0  0  0  0  0  0
    7.2290    2.1430   -5.4810 F   0  0  0  0  0  0  0  0  0  0  0  0
    2.6710    1.6210   -6.2890 F   0  0  0  0  0  0  0  0  0  0  0  0
    5.0770    2.5390   -7.1540 F   0  0  0  0  0  0  0  0  0  0  0  0
    4.1630    2.4060   -1.8970 F   0  0  0  0  0  0  0  0  0  0  0  0
    3.1180   -2.9500   -2.2890 H   0  0  0  0  0  0  0  0  0  0  0  0
    1.5680   -2.4610   -1.5950 H   0  0  0  0  0  0  0  0  0  0  0  0
    2.7380   -3.3890   -0.5730 H   0  0  0  0  0  0  0  0  0  0  0  0
  1  2  1  0  0  0  0
  2  3  2  0  0  0  0
  2 11  1  0  0  0  0
  3  4  1  0  0  0  0
  3  5  1  0  0  0  0
  4 26  1  0  0  0  0
  5  6  1  0  0  0  0
  5  7  2  0  0  0  0
  7  8  1  0  0  0  0
  7  9  1  0  0  0  0
  9 10  1  0  0  0  0
  9 11  2  0  0  0  0
 10 13  2  0  0  0  0
 10 14  1  0  0  0  0
 11 12  1  0  0  0  0
 14 15  2  0  0  0  0
 14 31  1  0  0  0  0
 15 17  1  0  0  0  0
 15 18  1  0  0  0  0
 16 19  1  0  0  0  0
 16 32  1  0  0  0  0
 18 22  2  0  0  0  0
 18 23  1  0  0  0  0
 19 20  2  0  0  0  0
 19 21  1  0  0  0  0
 21 37  1  0  0  0  0
 21 38  1  0  0  0  0
 21 39  1  0  0  0  0
 22 25  1  0  0  0  0
 22 44  1  0  0  0  0
 23 24  2  0  0  0  0
 23 42  1  0  0  0  0
 24 30  1  0  0  0  0
 24 43  1  0  0  0  0
 25 30  2  0  0  0  0
 25 40  1  0  0  0  0
 26 27  1  0  0  0  0
 26 28  1  0  0  0  0
 26 29  1  0  0  0  0
 30 41  1  0  0  0  0
 31 32  1  0  0  0  0
 31 33  1  0  0  0  0
 31 34  1  0  0  0  0
 32 35  1  0  0  0  0
 32 36  1  1  0  0  0
 35 45  1  0  0  0  0
 35 46  1  0  0  0  0
 35 47  1  0  0  0  0
M  END
>  <COMPND>
    UNNAMED

>  <AUTHOR>
    GENERATED BY OPEN BABEL 2.3.1

>  <MASTER>
        0    0    0    0    0    0    0    0   47    0   47    0

$$$$
