3fn.pdb
 OpenBabel02251613503D

 47 48  0  0  1  0  0  0  0  0999 V2000
   -0.6680   -1.4790    1.9800 H   0  0  0  0  0  0  0  0  0  0  0  0
   -0.6790   -0.7230    1.2020 C   0  0  0  0  0  0  0  0  0  0  0  0
   -1.3860    0.4700    1.3450 C   0  0  0  0  0  0  0  0  0  0  0  0
   -2.1080    0.8360    2.4470 O   0  0  0  0  0  0  0  0  0  0  0  0
   -1.4160    1.3820    0.2840 C   0  0  0  0  0  0  0  0  0  0  0  0
   -2.0090    2.2890    0.3760 H   0  0  0  0  0  0  0  0  0  0  0  0
   -0.7070    1.1320   -0.8970 C   0  0  0  0  0  0  0  0  0  0  0  0
   -0.7700    1.8400   -1.7200 H   0  0  0  0  0  0  0  0  0  0  0  0
    0.0250   -0.0490   -1.0190 C   0  0  0  0  0  0  0  0  0  0  0  0
    0.7000   -0.3790   -2.2880 C   0  0  0  0  0  0  0  0  0  0  0  0
    0.0070   -0.9910    0.0140 C   0  0  0  0  0  0  0  0  0  0  0  0
    0.4980   -1.9520   -0.1020 H   0  0  0  0  0  0  0  0  0  0  0  0
    0.1610   -1.1390   -3.0860 O   0  0  0  0  0  0  0  0  0  0  0  0
    2.0340    0.2130   -2.5680 C   0  0  0  0  0  0  0  0  0  0  0  0
    2.0100    1.2910   -3.3820 C   0  0  0  0  0  0  0  0  0  0  0  0
    4.7220   -1.9070   -0.7940 O   0  0  0  0  0  0  0  0  0  0  0  0
    1.0740    1.7140   -3.7400 H   0  0  0  0  0  0  0  0  0  0  0  0
    3.2270    1.8600   -3.9820 C   0  0  0  0  0  0  0  0  0  0  0  0
    5.5400   -1.1490   -0.0320 C   0  0  0  0  0  0  0  0  0  0  0  0
    6.7500   -1.3600   -0.0150 O   0  0  0  0  0  0  0  0  0  0  0  0
    4.9310   -0.0470    0.7770 C   0  0  0  0  0  0  0  0  0  0  0  0
    4.1840    2.5290   -3.2080 C   0  0  0  0  0  0  0  0  0  0  0  0
    3.4750    1.6440   -5.3430 C   0  0  0  0  0  0  0  0  0  0  0  0
    4.6840    2.0520   -5.9140 C   0  0  0  0  0  0  0  0  0  0  0  0
    5.4000    2.9220   -3.7750 C   0  0  0  0  0  0  0  0  0  0  0  0
   -1.8650    0.1010    3.6410 C   0  0  0  0  0  0  0  0  0  0  0  0
   -2.4270    0.5770    4.4490 H   0  0  0  0  0  0  0  0  0  0  0  0
   -0.8050    0.1280    3.9100 H   0  0  0  0  0  0  0  0  0  0  0  0
   -2.2220   -0.9290    3.5510 H   0  0  0  0  0  0  0  0  0  0  0  0
    5.6470    2.6760   -5.1240 C   0  0  0  0  0  0  0  0  0  0  0  0
    3.3120   -0.5100   -2.1950 C   0  0  0  0  0  0  0  0  0  0  0  0
    3.3330   -1.6020   -1.1150 C   0  0  1  0  0  0  0  0  0  0  0  0
    4.0290    0.2490   -1.8690 H   0  0  0  0  0  0  0  0  0  0  0  0
    3.7510   -0.9290   -3.1110 H   0  0  0  0  0  0  0  0  0  0  0  0
    2.7520   -2.9230   -1.6170 C   0  0  0  0  0  0  0  0  0  0  0  0
    2.8120   -1.2900   -0.2080 H   0  0  0  0  0  0  0  0  0  0  0  0
    4.0360   -0.3840    1.2990 H   0  0  0  0  0  0  0  0  0  0  0  0
    4.7250    0.8230    0.1540 H   0  0  0  0  0  0  0  0  0  0  0  0
    5.6480    0.2520    1.5490 H   0  0  0  0  0  0  0  0  0  0  0  0
    6.1550    3.4010   -3.1570 H   0  0  0  0  0  0  0  0  0  0  0  0
    7.1570    3.1280   -5.8130 Cl  0  0  0  0  0  0  0  0  0  0  0  0
    2.7450    1.1250   -5.9620 H   0  0  0  0  0  0  0  0  0  0  0  0
    4.8760    1.8590   -6.9670 H   0  0  0  0  0  0  0  0  0  0  0  0
    4.0110    2.7110   -2.1500 H   0  0  0  0  0  0  0  0  0  0  0  0
    3.3240   -3.2990   -2.4730 H   0  0  0  0  0  0  0  0  0  0  0  0
    1.7050   -2.8460   -1.9140 H   0  0  0  0  0  0  0  0  0  0  0  0
    2.8270   -3.6860   -0.8350 H   0  0  0  0  0  0  0  0  0  0  0  0
  1  2  1  0  0  0  0
  2  3  2  0  0  0  0
  2 11  1  0  0  0  0
  3  4  1  0  0  0  0
  3  5  1  0  0  0  0
  4 26  1  0  0  0  0
  5  6  1  0  0  0  0
  5  7  2  0  0  0  0
  7  8  1  0  0  0  0
  7  9  1  0  0  0  0
  9 10  1  0  0  0  0
  9 11  2  0  0  0  0
 10 13  2  0  0  0  0
 10 14  1  0  0  0  0
 11 12  1  0  0  0  0
 14 15  2  0  0  0  0
 14 31  1  0  0  0  0
 15 17  1  0  0  0  0
 15 18  1  0  0  0  0
 16 19  1  0  0  0  0
 16 32  1  0  0  0  0
 18 22  2  0  0  0  0
 18 23  1  0  0  0  0
 19 20  2  0  0  0  0
 19 21  1  0  0  0  0
 21 37  1  0  0  0  0
 21 38  1  0  0  0  0
 21 39  1  0  0  0  0
 22 25  1  0  0  0  0
 22 44  1  0  0  0  0
 23 24  2  0  0  0  0
 23 42  1  0  0  0  0
 24 30  1  0  0  0  0
 24 43  1  0  0  0  0
 25 30  2  0  0  0  0
 25 40  1  0  0  0  0
 26 27  1  0  0  0  0
 26 28  1  0  0  0  0
 26 29  1  0  0  0  0
 30 41  1  0  0  0  0
 31 32  1  0  0  0  0
 31 33  1  0  0  0  0
 31 34  1  0  0  0  0
 32 35  1  0  0  0  0
 32 36  1  1  0  0  0
 35 45  1  0  0  0  0
 35 46  1  0  0  0  0
 35 47  1  0  0  0  0
M  END
>  <COMPND>
    UNNAMED

>  <AUTHOR>
    GENERATED BY OPEN BABEL 2.3.1

>  <MASTER>
        0    0    0    0    0    0    0    0   47    0   47    0

$$$$
