3gb.pdb
 OpenBabel02251613503D

 44 45  0  0  0  0  0  0  0  0999 V2000
   -0.3670   -1.5060    2.0120 H   0  0  0  0  0  0  0  0  0  0  0  0
   -0.5850   -0.8020    1.2140 C   0  0  0  0  0  0  0  0  0  0  0  0
   -1.5070    0.2220    1.3580 C   0  0  0  0  0  0  0  0  0  0  0  0
   -2.2260    0.4880    2.4860 O   0  0  0  0  0  0  0  0  0  0  0  0
   -1.7920    1.0370    0.2590 C   0  0  0  0  0  0  0  0  0  0  0  0
   -2.5640    1.7960    0.3480 H   0  0  0  0  0  0  0  0  0  0  0  0
   -1.1080    0.8860   -0.9530 C   0  0  0  0  0  0  0  0  0  0  0  0
   -1.3610    1.5220   -1.7970 H   0  0  0  0  0  0  0  0  0  0  0  0
   -0.1380   -0.1040   -1.0850 C   0  0  0  0  0  0  0  0  0  0  0  0
    0.5240   -0.2500   -2.4080 C   0  0  0  0  0  0  0  0  0  0  0  0
    0.0520   -0.9840   -0.0150 C   0  0  0  0  0  0  0  0  0  0  0  0
    0.6480   -1.8760   -0.0860 H   0  0  0  0  0  0  0  0  0  0  0  0
   -0.1550   -0.6290   -3.3630 O   0  0  0  0  0  0  0  0  0  0  0  0
    1.9310    0.2440   -2.5970 C   0  0  0  0  0  0  0  0  0  0  0  0
    2.0870    1.2580   -3.4850 C   0  0  0  0  0  0  0  0  0  0  0  0
    4.5760   -1.8040   -0.6140 C   0  0  0  0  0  0  0  0  0  0  0  0
    1.2160    1.6540   -4.0050 H   0  0  0  0  0  0  0  0  0  0  0  0
    3.3900    1.8090   -3.9730 C   0  0  0  0  0  0  0  0  0  0  0  0
    4.4200    2.2130   -3.1050 C   0  0  0  0  0  0  0  0  0  0  0  0
    3.6490    1.9270   -5.3480 C   0  0  0  0  0  0  0  0  0  0  0  0
    4.8990    2.3160   -5.8280 C   0  0  0  0  0  0  0  0  0  0  0  0
    5.7290    2.3800   -3.5810 C   0  0  0  0  0  0  0  0  0  0  0  0
   -1.7150   -0.0300    3.7090 C   0  0  0  0  0  0  0  0  0  0  0  0
   -2.3280    0.3750    4.5200 H   0  0  0  0  0  0  0  0  0  0  0  0
   -0.6820    0.2940    3.8760 H   0  0  0  0  0  0  0  0  0  0  0  0
   -1.7960   -1.1210    3.7470 H   0  0  0  0  0  0  0  0  0  0  0  0
    5.9650    2.3330   -4.9490 C   0  0  0  0  0  0  0  0  0  0  0  0
    3.1600   -0.4030   -2.0300 C   0  0  0  0  0  0  0  0  0  0  0  0
    3.2200   -1.4020   -0.8880 C   0  0  0  0  0  0  0  0  0  0  0  0
    3.7460    0.4170   -1.6420 H   0  0  0  0  0  0  0  0  0  0  0  0
    3.7260   -0.8350   -2.8740 H   0  0  0  0  0  0  0  0  0  0  0  0
    2.6050   -2.6590   -1.3720 C   0  0  0  0  0  0  0  0  0  0  0  0
    2.7200   -1.1000    0.0350 H   0  0  0  0  0  0  0  0  0  0  0  0
    6.5550    2.5240   -2.8880 H   0  0  0  0  0  0  0  0  0  0  0  0
    7.5450    2.0710   -5.5800 Cl  0  0  0  0  0  0  0  0  0  0  0  0
    2.5040    1.4150   -6.5320 Cl  0  0  0  0  0  0  0  0  0  0  0  0
    5.0630    2.4630   -6.8910 H   0  0  0  0  0  0  0  0  0  0  0  0
    4.2290    2.3290   -2.0420 H   0  0  0  0  0  0  0  0  0  0  0  0
    3.1180   -2.9550   -2.2880 H   0  0  0  0  0  0  0  0  0  0  0  0
    1.5680   -2.4630   -1.5990 H   0  0  0  0  0  0  0  0  0  0  0  0
    2.7320   -3.3910   -0.5730 H   0  0  0  0  0  0  0  0  0  0  0  0
    5.0520   -2.0970   -1.5260 H   0  0  0  0  0  0  0  0  0  0  0  0
    4.5730   -2.6290    0.0670 H   0  0  0  0  0  0  0  0  0  0  0  0
    5.1100   -0.9850   -0.1800 H   0  0  0  0  0  0  0  0  0  0  0  0
  1  2  1  0  0  0  0
  2  3  2  0  0  0  0
  2 11  1  0  0  0  0
  3  4  1  0  0  0  0
  3  5  1  0  0  0  0
  4 23  1  0  0  0  0
  5  6  1  0  0  0  0
  5  7  2  0  0  0  0
  7  8  1  0  0  0  0
  7  9  1  0  0  0  0
  9 10  1  0  0  0  0
  9 11  2  0  0  0  0
 10 13  2  0  0  0  0
 10 14  1  0  0  0  0
 11 12  1  0  0  0  0
 14 15  2  0  0  0  0
 14 28  1  0  0  0  0
 15 17  1  0  0  0  0
 15 18  1  0  0  0  0
 16 29  1  0  0  0  0
 16 42  1  0  0  0  0
 16 43  1  0  0  0  0
 16 44  1  0  0  0  0
 18 19  2  0  0  0  0
 18 20  1  0  0  0  0
 19 22  1  0  0  0  0
 19 38  1  0  0  0  0
 20 21  2  0  0  0  0
 20 36  1  0  0  0  0
 21 27  1  0  0  0  0
 21 37  1  0  0  0  0
 22 27  2  0  0  0  0
 22 34  1  0  0  0  0
 23 24  1  0  0  0  0
 23 25  1  0  0  0  0
 23 26  1  0  0  0  0
 27 35  1  0  0  0  0
 28 29  1  0  0  0  0
 28 30  1  0  0  0  0
 28 31  1  0  0  0  0
 29 32  1  0  0  0  0
 29 33  1  0  0  0  0
 32 39  1  0  0  0  0
 32 40  1  0  0  0  0
 32 41  1  0  0  0  0
M  END
>  <COMPND>
    UNNAMED

>  <AUTHOR>
    GENERATED BY OPEN BABEL 2.3.1

>  <MASTER>
        0    0    0    0    0    0    0    0   44    0   44    0

$$$$
