3gh.pdb
 OpenBabel02251613503D

 46 47  0  0  0  0  0  0  0  0999 V2000
   -1.1520   -1.5860    1.7560 H   0  0  0  0  0  0  0  0  0  0  0  0
   -0.9340   -0.7950    1.0460 C   0  0  0  0  0  0  0  0  0  0  0  0
   -1.2250    0.5390    1.2910 C   0  0  0  0  0  0  0  0  0  0  0  0
   -1.8180    1.0260    2.4200 O   0  0  0  0  0  0  0  0  0  0  0  0
   -0.9290    1.5000    0.3160 C   0  0  0  0  0  0  0  0  0  0  0  0
   -1.1930    2.5390    0.4970 H   0  0  0  0  0  0  0  0  0  0  0  0
   -0.3030    1.1500   -0.8850 C   0  0  0  0  0  0  0  0  0  0  0  0
   -0.0910    1.9190   -1.6180 H   0  0  0  0  0  0  0  0  0  0  0  0
   -0.0070   -0.1820   -1.1310 C   0  0  0  0  0  0  0  0  0  0  0  0
    0.6730   -0.6290   -2.3920 C   0  0  0  0  0  0  0  0  0  0  0  0
   -0.3640   -1.1510   -0.1720 C   0  0  0  0  0  0  0  0  0  0  0  0
   -0.1800   -2.2110   -0.3390 H   0  0  0  0  0  0  0  0  0  0  0  0
    0.2730   -1.5980   -2.9900 O   0  0  0  0  0  0  0  0  0  0  0  0
    2.0250   -0.0350   -2.7060 C   0  0  0  0  0  0  0  0  0  0  0  0
    2.0360    1.1220   -3.3840 C   0  0  0  0  0  0  0  0  0  0  0  0
    4.6870   -2.0060   -0.6740 C   0  0  0  0  0  0  0  0  0  0  0  0
    1.1140    1.6290   -3.6470 H   0  0  0  0  0  0  0  0  0  0  0  0
    3.2620    1.6890   -3.9460 C   0  0  0  0  0  0  0  0  0  0  0  0
    4.1660    2.4030   -3.1500 C   0  0  0  0  0  0  0  0  0  0  0  0
    3.5590    1.4380   -5.2910 C   0  0  0  0  0  0  0  0  0  0  0  0
    4.7590    1.8870   -5.8440 C   0  0  0  0  0  0  0  0  0  0  0  0
    5.3740    2.8520   -3.6940 C   0  0  0  0  0  0  0  0  0  0  0  0
   -1.9210    0.1290    3.5200 C   0  0  0  0  0  0  0  0  0  0  0  0
   -2.3380    0.6870    4.3630 H   0  0  0  0  0  0  0  0  0  0  0  0
   -0.9350   -0.2420    3.8200 H   0  0  0  0  0  0  0  0  0  0  0  0
   -2.6030   -0.6980    3.2970 H   0  0  0  0  0  0  0  0  0  0  0  0
    5.6670    2.5860   -5.0390 C   0  0  0  0  0  0  0  0  0  0  0  0
    3.2540   -0.8810   -2.4250 C   0  0  0  0  0  0  0  0  0  0  0  0
    3.3450   -1.3970   -0.9870 C   0  0  0  0  0  0  0  0  0  0  0  0
    4.1810   -0.3340   -2.6130 H   0  0  0  0  0  0  0  0  0  0  0  0
    3.2580   -1.7280   -3.1300 H   0  0  0  0  0  0  0  0  0  0  0  0
    2.4500   -2.5730   -0.8560 C   0  0  0  0  0  0  0  0  0  0  0  0
    3.0350   -0.6550   -0.2390 H   0  0  0  0  0  0  0  0  0  0  0  0
    6.0730    3.3930   -3.0600 H   0  0  0  0  0  0  0  0  0  0  0  0
    6.9470    3.0290   -5.6070 N   0  0  0  0  0  0  0  0  0  0  0  0
    2.8650    0.8700   -5.9090 H   0  0  0  0  0  0  0  0  0  0  0  0
    4.9720    1.6720   -6.8890 H   0  0  0  0  0  0  0  0  0  0  0  0
    3.9490    2.5920   -2.1010 H   0  0  0  0  0  0  0  0  0  0  0  0
    7.1290    2.8560   -6.8210 O   0  0  0  0  0  0  0  0  0  0  0  0
    7.7700    3.5440   -4.8390 O   0  0  0  0  0  0  0  0  0  0  0  0
    4.9290   -2.7630   -1.4340 H   0  0  0  0  0  0  0  0  0  0  0  0
    4.6390   -2.5190    0.2980 H   0  0  0  0  0  0  0  0  0  0  0  0
    5.4310   -1.2200   -0.6500 H   0  0  0  0  0  0  0  0  0  0  0  0
    2.7130   -3.3090   -1.6160 H   0  0  0  0  0  0  0  0  0  0  0  0
    1.4840   -2.2150   -1.0730 H   0  0  0  0  0  0  0  0  0  0  0  0
    2.4870   -2.9340    0.1700 H   0  0  0  0  0  0  0  0  0  0  0  0
  1  2  1  0  0  0  0
  2  3  2  0  0  0  0
  2 11  1  0  0  0  0
  3  4  1  0  0  0  0
  3  5  1  0  0  0  0
  4 23  1  0  0  0  0
  5  6  1  0  0  0  0
  5  7  2  0  0  0  0
  7  8  1  0  0  0  0
  7  9  1  0  0  0  0
  9 10  1  0  0  0  0
  9 11  2  0  0  0  0
 10 13  2  0  0  0  0
 10 14  1  0  0  0  0
 11 12  1  0  0  0  0
 14 15  2  0  0  0  0
 14 28  1  0  0  0  0
 15 17  1  0  0  0  0
 15 18  1  0  0  0  0
 16 29  1  0  0  0  0
 16 41  1  0  0  0  0
 16 42  1  0  0  0  0
 16 43  1  0  0  0  0
 18 19  2  0  0  0  0
 18 20  1  0  0  0  0
 19 22  1  0  0  0  0
 19 38  1  0  0  0  0
 20 21  2  0  0  0  0
 20 36  1  0  0  0  0
 21 27  1  0  0  0  0
 21 37  1  0  0  0  0
 22 27  2  0  0  0  0
 22 34  1  0  0  0  0
 23 24  1  0  0  0  0
 23 25  1  0  0  0  0
 23 26  1  0  0  0  0
 27 35  1  0  0  0  0
 28 29  1  0  0  0  0
 28 30  1  0  0  0  0
 28 31  1  0  0  0  0
 29 32  1  0  0  0  0
 29 33  1  0  0  0  0
 32 44  1  0  0  0  0
 32 45  1  0  0  0  0
 32 46  1  0  0  0  0
 35 39  2  0  0  0  0
 35 40  2  0  0  0  0
M  END
>  <COMPND>
    UNNAMED

>  <AUTHOR>
    GENERATED BY OPEN BABEL 2.3.1

>  <MASTER>
        0    0    0    0    0    0    0    0   46    0   46    0

$$$$
