3gn.pdb
 OpenBabel02251613503D

 44 45  0  0  0  0  0  0  0  0999 V2000
   -1.0130   -1.5090    1.8790 H   0  0  0  0  0  0  0  0  0  0  0  0
   -0.8070   -0.7250    1.1580 C   0  0  0  0  0  0  0  0  0  0  0  0
   -1.1600    0.6050    1.3930 C   0  0  0  0  0  0  0  0  0  0  0  0
   -1.7810    1.0830    2.5140 O   0  0  0  0  0  0  0  0  0  0  0  0
   -0.8930    1.5710    0.4170 C   0  0  0  0  0  0  0  0  0  0  0  0
   -1.1960    2.6020    0.5860 H   0  0  0  0  0  0  0  0  0  0  0  0
   -0.2530    1.2250   -0.7750 C   0  0  0  0  0  0  0  0  0  0  0  0
   -0.0780    1.9870   -1.5290 H   0  0  0  0  0  0  0  0  0  0  0  0
    0.1050   -0.1060   -0.9990 C   0  0  0  0  0  0  0  0  0  0  0  0
    0.7200   -0.5180   -2.2750 C   0  0  0  0  0  0  0  0  0  0  0  0
   -0.1920   -1.0840   -0.0460 C   0  0  0  0  0  0  0  0  0  0  0  0
    0.0540   -2.1260   -0.2380 H   0  0  0  0  0  0  0  0  0  0  0  0
    0.1390   -1.3010   -3.0170 O   0  0  0  0  0  0  0  0  0  0  0  0
    2.0450    0.0540   -2.6230 C   0  0  0  0  0  0  0  0  0  0  0  0
    1.9920    1.0460   -3.5350 C   0  0  0  0  0  0  0  0  0  0  0  0
    4.6990   -1.9890   -0.5610 C   0  0  0  0  0  0  0  0  0  0  0  0
    1.0420    1.3750   -3.9520 H   0  0  0  0  0  0  0  0  0  0  0  0
    3.1730    1.7210   -4.0850 C   0  0  0  0  0  0  0  0  0  0  0  0
    3.9780    2.5480   -3.2910 C   0  0  0  0  0  0  0  0  0  0  0  0
    3.5070    1.5200   -5.4280 C   0  0  0  0  0  0  0  0  0  0  0  0
    4.6470    2.1190   -5.9690 C   0  0  0  0  0  0  0  0  0  0  0  0
    5.1210    3.1450   -3.8300 C   0  0  0  0  0  0  0  0  0  0  0  0
   -1.9210    0.1800    3.6040 C   0  0  0  0  0  0  0  0  0  0  0  0
   -2.3860    0.7250    4.4310 H   0  0  0  0  0  0  0  0  0  0  0  0
   -0.9440   -0.1760    3.9470 H   0  0  0  0  0  0  0  0  0  0  0  0
   -2.5790   -0.6550    3.3450 H   0  0  0  0  0  0  0  0  0  0  0  0
    5.4530    2.9240   -5.1660 C   0  0  0  0  0  0  0  0  0  0  0  0
    3.3240   -0.5310   -2.0680 C   0  0  0  0  0  0  0  0  0  0  0  0
    3.2900   -1.7540   -1.1250 C   0  0  0  0  0  0  0  0  0  0  0  0
    3.8320    0.2760   -1.5250 H   0  0  0  0  0  0  0  0  0  0  0  0
    3.9730   -0.7890   -2.9180 H   0  0  0  0  0  0  0  0  0  0  0  0
    2.8200   -3.0390   -1.8060 C   0  0  0  0  0  0  0  0  0  0  0  0
    2.6340   -1.5390   -0.2750 H   0  0  0  0  0  0  0  0  0  0  0  0
    5.7490    3.7740   -3.2040 H   0  0  0  0  0  0  0  0  0  0  0  0
    6.8680    3.6460   -5.8260 Cl  0  0  0  0  0  0  0  0  0  0  0  0
    2.8900    0.8820   -6.0590 H   0  0  0  0  0  0  0  0  0  0  0  0
    4.9030    1.9470   -7.0110 H   0  0  0  0  0  0  0  0  0  0  0  0
    3.7290    2.7270   -2.2480 H   0  0  0  0  0  0  0  0  0  0  0  0
    3.4340   -3.2740   -2.6820 H   0  0  0  0  0  0  0  0  0  0  0  0
    1.7800   -2.9800   -2.1300 H   0  0  0  0  0  0  0  0  0  0  0  0
    2.8860   -3.8860   -1.1140 H   0  0  0  0  0  0  0  0  0  0  0  0
    5.4100   -2.2320   -1.3580 H   0  0  0  0  0  0  0  0  0  0  0  0
    4.6990   -2.8170    0.1570 H   0  0  0  0  0  0  0  0  0  0  0  0
    5.0670   -1.0990   -0.0400 H   0  0  0  0  0  0  0  0  0  0  0  0
  1  2  1  0  0  0  0
  2  3  2  0  0  0  0
  2 11  1  0  0  0  0
  3  4  1  0  0  0  0
  3  5  1  0  0  0  0
  4 23  1  0  0  0  0
  5  6  1  0  0  0  0
  5  7  2  0  0  0  0
  7  8  1  0  0  0  0
  7  9  1  0  0  0  0
  9 10  1  0  0  0  0
  9 11  2  0  0  0  0
 10 13  2  0  0  0  0
 10 14  1  0  0  0  0
 11 12  1  0  0  0  0
 14 15  2  0  0  0  0
 14 28  1  0  0  0  0
 15 17  1  0  0  0  0
 15 18  1  0  0  0  0
 16 29  1  0  0  0  0
 16 42  1  0  0  0  0
 16 43  1  0  0  0  0
 16 44  1  0  0  0  0
 18 19  2  0  0  0  0
 18 20  1  0  0  0  0
 19 22  1  0  0  0  0
 19 38  1  0  0  0  0
 20 21  2  0  0  0  0
 20 36  1  0  0  0  0
 21 27  1  0  0  0  0
 21 37  1  0  0  0  0
 22 27  2  0  0  0  0
 22 34  1  0  0  0  0
 23 24  1  0  0  0  0
 23 25  1  0  0  0  0
 23 26  1  0  0  0  0
 27 35  1  0  0  0  0
 28 29  1  0  0  0  0
 28 30  1  0  0  0  0
 28 31  1  0  0  0  0
 29 32  1  0  0  0  0
 29 33  1  0  0  0  0
 32 39  1  0  0  0  0
 32 40  1  0  0  0  0
 32 41  1  0  0  0  0
M  END
>  <COMPND>
    UNNAMED

>  <AUTHOR>
    GENERATED BY OPEN BABEL 2.3.1

>  <MASTER>
        0    0    0    0    0    0    0    0   44    0   44    0

$$$$
