3go.pdb
 OpenBabel02251613503D

 47 48  0  0  0  0  0  0  0  0999 V2000
   -1.1560   -1.5820    1.7560 H   0  0  0  0  0  0  0  0  0  0  0  0
   -0.9400   -0.7910    1.0450 C   0  0  0  0  0  0  0  0  0  0  0  0
   -1.2270    0.5440    1.2920 C   0  0  0  0  0  0  0  0  0  0  0  0
   -1.8180    1.0300    2.4230 O   0  0  0  0  0  0  0  0  0  0  0  0
   -0.9290    1.5040    0.3170 C   0  0  0  0  0  0  0  0  0  0  0  0
   -1.1910    2.5430    0.4990 H   0  0  0  0  0  0  0  0  0  0  0  0
   -0.3040    1.1540   -0.8850 C   0  0  0  0  0  0  0  0  0  0  0  0
   -0.0900    1.9230   -1.6170 H   0  0  0  0  0  0  0  0  0  0  0  0
   -0.0110   -0.1810   -1.1340 C   0  0  0  0  0  0  0  0  0  0  0  0
    0.6780   -0.6140   -2.3830 C   0  0  0  0  0  0  0  0  0  0  0  0
   -0.3760   -1.1480   -0.1760 C   0  0  0  0  0  0  0  0  0  0  0  0
   -0.2050   -2.2080   -0.3430 H   0  0  0  0  0  0  0  0  0  0  0  0
    0.2600   -1.5970   -3.0080 O   0  0  0  0  0  0  0  0  0  0  0  0
    2.0220   -0.0340   -2.7040 C   0  0  0  0  0  0  0  0  0  0  0  0
    2.0310    1.1260   -3.3850 C   0  0  0  0  0  0  0  0  0  0  0  0
    4.7010   -1.9970   -0.6730 C   0  0  0  0  0  0  0  0  0  0  0  0
    1.1120    1.6340   -3.6510 H   0  0  0  0  0  0  0  0  0  0  0  0
    3.2510    1.6900   -3.9430 C   0  0  0  0  0  0  0  0  0  0  0  0
    4.1560    2.4030   -3.1430 C   0  0  0  0  0  0  0  0  0  0  0  0
    3.5460    1.4340   -5.2900 C   0  0  0  0  0  0  0  0  0  0  0  0
    4.7170    1.8700   -5.8350 C   0  0  0  0  0  0  0  0  0  0  0  0
    5.3390    2.8440   -3.6690 C   0  0  0  0  0  0  0  0  0  0  0  0
   -1.9220    0.1300    3.5210 C   0  0  0  0  0  0  0  0  0  0  0  0
   -2.3390    0.6870    4.3650 H   0  0  0  0  0  0  0  0  0  0  0  0
   -0.9360   -0.2420    3.8200 H   0  0  0  0  0  0  0  0  0  0  0  0
   -2.6040   -0.6960    3.2970 H   0  0  0  0  0  0  0  0  0  0  0  0
    5.6180    2.5700   -5.0180 C   0  0  0  0  0  0  0  0  0  0  0  0
    3.2540   -0.8780   -2.4230 C   0  0  0  0  0  0  0  0  0  0  0  0
    3.3470   -1.4030   -0.9870 C   0  0  0  0  0  0  0  0  0  0  0  0
    4.1790   -0.3270   -2.6200 H   0  0  0  0  0  0  0  0  0  0  0  0
    3.2590   -1.7200   -3.1310 H   0  0  0  0  0  0  0  0  0  0  0  0
    2.4510   -2.5900   -0.8510 C   0  0  0  0  0  0  0  0  0  0  0  0
    3.0540   -0.6460   -0.2470 H   0  0  0  0  0  0  0  0  0  0  0  0
    6.0680    3.3890   -3.0640 H   0  0  0  0  0  0  0  0  0  0  0  0
    6.8920    3.0110   -5.5840 C   0  0  0  0  0  0  0  0  0  0  0  0
    2.8590    0.8660   -5.9110 H   0  0  0  0  0  0  0  0  0  0  0  0
    4.9670    1.6710   -6.8810 H   0  0  0  0  0  0  0  0  0  0  0  0
    3.9440    2.5920   -2.0950 H   0  0  0  0  0  0  0  0  0  0  0  0
    4.9530   -2.7540   -1.4280 H   0  0  0  0  0  0  0  0  0  0  0  0
    4.6630   -2.5080    0.2980 H   0  0  0  0  0  0  0  0  0  0  0  0
    5.4550   -1.2170   -0.6490 H   0  0  0  0  0  0  0  0  0  0  0  0
    2.7040   -3.3430   -1.5990 H   0  0  0  0  0  0  0  0  0  0  0  0
    1.4700   -2.2680   -1.0710 H   0  0  0  0  0  0  0  0  0  0  0  0
    2.4750   -2.9640    0.1710 H   0  0  0  0  0  0  0  0  0  0  0  0
    7.9480    2.4610   -4.9360 F   0  0  0  0  0  0  0  0  0  0  0  0
    7.0390    4.3560   -5.5090 F   0  0  0  0  0  0  0  0  0  0  0  0
    7.0230    2.6770   -6.8920 F   0  0  0  0  0  0  0  0  0  0  0  0
  1  2  1  0  0  0  0
  2  3  2  0  0  0  0
  2 11  1  0  0  0  0
  3  4  1  0  0  0  0
  3  5  1  0  0  0  0
  4 23  1  0  0  0  0
  5  6  1  0  0  0  0
  5  7  2  0  0  0  0
  7  8  1  0  0  0  0
  7  9  1  0  0  0  0
  9 10  1  0  0  0  0
  9 11  2  0  0  0  0
 10 13  2  0  0  0  0
 10 14  1  0  0  0  0
 11 12  1  0  0  0  0
 14 15  2  0  0  0  0
 14 28  1  0  0  0  0
 15 17  1  0  0  0  0
 15 18  1  0  0  0  0
 16 29  1  0  0  0  0
 16 39  1  0  0  0  0
 16 40  1  0  0  0  0
 16 41  1  0  0  0  0
 18 19  2  0  0  0  0
 18 20  1  0  0  0  0
 19 22  1  0  0  0  0
 19 38  1  0  0  0  0
 20 21  2  0  0  0  0
 20 36  1  0  0  0  0
 21 27  1  0  0  0  0
 21 37  1  0  0  0  0
 22 27  2  0  0  0  0
 22 34  1  0  0  0  0
 23 24  1  0  0  0  0
 23 25  1  0  0  0  0
 23 26  1  0  0  0  0
 27 35  1  0  0  0  0
 28 29  1  0  0  0  0
 28 30  1  0  0  0  0
 28 31  1  0  0  0  0
 29 32  1  0  0  0  0
 29 33  1  0  0  0  0
 32 42  1  0  0  0  0
 32 43  1  0  0  0  0
 32 44  1  0  0  0  0
 35 45  1  0  0  0  0
 35 46  1  0  0  0  0
 35 47  1  0  0  0  0
M  END
>  <COMPND>
    UNNAMED

>  <AUTHOR>
    GENERATED BY OPEN BABEL 2.3.1

>  <MASTER>
        0    0    0    0    0    0    0    0   47    0   47    0

$$$$
