3hb.pdb
 OpenBabel02251613503D

 51 53  0  0  0  0  0  0  0  0999 V2000
   -0.0750   -1.1710    2.1140 H   0  0  0  0  0  0  0  0  0  0  0  0
   -0.2740   -0.5530    1.2390 C   0  0  0  0  0  0  0  0  0  0  0  0
   -1.1980    0.5170    1.2160 C   0  0  0  0  0  0  0  0  0  0  0  0
   -1.5040    1.2940    0.1300 C   0  0  0  0  0  0  0  0  0  0  0  0
   -2.2560    2.0740    0.2380 H   0  0  0  0  0  0  0  0  0  0  0  0
   -0.8610    0.9910   -1.0340 C   0  0  0  0  0  0  0  0  0  0  0  0
   -1.1230    1.5570   -1.9140 H   0  0  0  0  0  0  0  0  0  0  0  0
    0.0750   -0.0620   -1.0210 C   0  0  0  0  0  0  0  0  0  0  0  0
    0.7130   -0.4180   -2.2750 C   0  0  0  0  0  0  0  0  0  0  0  0
    0.3750   -0.8510    0.0800 C   0  0  0  0  0  0  0  0  0  0  0  0
    1.0490   -1.6980    0.0570 H   0  0  0  0  0  0  0  0  0  0  0  0
    0.0710   -0.9620   -3.1270 O   0  0  0  0  0  0  0  0  0  0  0  0
    2.1030    0.0920   -2.4500 C   0  0  0  0  0  0  0  0  0  0  0  0
    2.0740    1.0250   -3.4290 C   0  0  0  0  0  0  0  0  0  0  0  0
    1.1190    1.3500   -3.8500 H   0  0  0  0  0  0  0  0  0  0  0  0
    3.2210    1.6590   -4.0810 C   0  0  0  0  0  0  0  0  0  0  0  0
    4.3710    0.0560   -0.9510 C   0  0  0  0  0  0  0  0  0  0  0  0
    4.3790    0.2040    0.5910 C   0  0  0  0  0  0  0  0  0  0  0  0
    4.0310    2.4870   -3.3000 C   0  0  0  0  0  0  0  0  0  0  0  0
    3.5200    1.5150   -5.4470 C   0  0  0  0  0  0  0  0  0  0  0  0
    4.6790    2.0870   -5.9800 C   0  0  0  0  0  0  0  0  0  0  0  0
    5.1990    3.0350   -3.8170 C   0  0  0  0  0  0  0  0  0  0  0  0
    5.5300    2.8130   -5.1500 C   0  0  0  0  0  0  0  0  0  0  0  0
    3.2850   -0.6790   -1.8540 C   0  0  0  0  0  0  0  0  0  0  0  0
    5.8440    3.6200   -3.1690 H   0  0  0  0  0  0  0  0  0  0  0  0
    7.0060    3.4410   -5.7660 Cl  0  0  0  0  0  0  0  0  0  0  0  0
    2.4870    0.6460   -6.5280 Cl  0  0  0  0  0  0  0  0  0  0  0  0
    4.9260    1.9540   -7.0300 H   0  0  0  0  0  0  0  0  0  0  0  0
    3.7600    2.7000   -2.2700 H   0  0  0  0  0  0  0  0  0  0  0  0
   -1.9560    0.9130    2.2640 O   0  0  0  0  0  0  0  0  0  0  0  0
    5.7520   -0.4700   -1.3940 C   0  0  0  0  0  0  0  0  0  0  0  0
    6.9860    0.2920   -0.9480 C   0  0  0  0  0  0  0  0  0  0  0  0
    5.5940    1.0450    1.1080 C   0  0  0  0  0  0  0  0  0  0  0  0
    6.8380    1.2140    0.2370 C   0  0  0  0  0  0  0  0  0  0  0  0
    3.8200   -0.9570   -2.7790 H   0  0  0  0  0  0  0  0  0  0  0  0
    2.9850   -1.6630   -1.4670 H   0  0  0  0  0  0  0  0  0  0  0  0
    4.2260    1.0890   -1.2220 H   0  0  0  0  0  0  0  0  0  0  0  0
    4.3580   -0.7490    1.1380 H   0  0  0  0  0  0  0  0  0  0  0  0
    3.4850    0.7540    0.9130 H   0  0  0  0  0  0  0  0  0  0  0  0
    5.9170    0.6610    2.0850 H   0  0  0  0  0  0  0  0  0  0  0  0
    5.2400    2.0640    1.3170 H   0  0  0  0  0  0  0  0  0  0  0  0
    6.8860    2.2500   -0.1280 H   0  0  0  0  0  0  0  0  0  0  0  0
    7.7380    1.1190    0.8630 H   0  0  0  0  0  0  0  0  0  0  0  0
    5.7970   -0.5060   -2.4880 H   0  0  0  0  0  0  0  0  0  0  0  0
    5.8670   -1.5090   -1.0560 H   0  0  0  0  0  0  0  0  0  0  0  0
    7.3660    0.8780   -1.7960 H   0  0  0  0  0  0  0  0  0  0  0  0
    7.7840   -0.4320   -0.7370 H   0  0  0  0  0  0  0  0  0  0  0  0
   -1.5770    0.1540    3.3680 C   0  0  0  0  0  0  0  0  0  0  0  0
   -2.1860    0.5580    4.1500 H   0  0  0  0  0  0  0  0  0  0  0  0
   -0.5040    0.3390    3.5640 H   0  0  0  0  0  0  0  0  0  0  0  0
   -1.8570   -0.8890    3.1500 H   0  0  0  0  0  0  0  0  0  0  0  0
  1  2  1  0  0  0  0
  2  3  2  0  0  0  0
  2 10  1  0  0  0  0
  3  4  1  0  0  0  0
  3 30  1  0  0  0  0
  4  5  1  0  0  0  0
  4  6  2  0  0  0  0
  6  7  1  0  0  0  0
  6  8  1  0  0  0  0
  8  9  1  0  0  0  0
  8 10  2  0  0  0  0
  9 12  2  0  0  0  0
  9 13  1  0  0  0  0
 10 11  1  0  0  0  0
 13 14  2  0  0  0  0
 13 24  1  0  0  0  0
 14 15  1  0  0  0  0
 14 16  1  0  0  0  0
 16 19  2  0  0  0  0
 16 20  1  0  0  0  0
 17 18  1  0  0  0  0
 17 31  1  0  0  0  0
 17 24  1  0  0  0  0
 17 37  1  0  0  0  0
 18 33  1  0  0  0  0
 18 38  1  0  0  0  0
 18 39  1  0  0  0  0
 19 22  1  0  0  0  0
 19 29  1  0  0  0  0
 20 21  2  0  0  0  0
 20 27  1  0  0  0  0
 21 23  1  0  0  0  0
 21 28  1  0  0  0  0
 22 23  2  0  0  0  0
 22 25  1  0  0  0  0
 23 26  1  0  0  0  0
 24 35  1  0  0  0  0
 24 36  1  0  0  0  0
 30 48  1  0  0  0  0
 31 32  1  0  0  0  0
 31 44  1  0  0  0  0
 31 45  1  0  0  0  0
 32 34  1  0  0  0  0
 32 46  1  0  0  0  0
 32 47  1  0  0  0  0
 33 34  1  0  0  0  0
 33 40  1  0  0  0  0
 33 41  1  0  0  0  0
 34 42  1  0  0  0  0
 34 43  1  0  0  0  0
 48 49  1  0  0  0  0
 48 50  1  0  0  0  0
 48 51  1  0  0  0  0
M  END
>  <COMPND>
    UNNAMED

>  <AUTHOR>
    GENERATED BY OPEN BABEL 2.3.1

>  <MASTER>
        0    0    0    0    0    0    0    0   51    0   51    0

$$$$
