3ho.pdb
 OpenBabel02251613503D

 54 56  0  0  0  0  0  0  0  0999 V2000
   -1.1920   -1.5580    1.7450 H   0  0  0  0  0  0  0  0  0  0  0  0
   -0.9790   -0.7680    1.0320 C   0  0  0  0  0  0  0  0  0  0  0  0
   -1.2380    0.5690    1.2980 C   0  0  0  0  0  0  0  0  0  0  0  0
   -1.8120    1.0520    2.4400 O   0  0  0  0  0  0  0  0  0  0  0  0
   -0.9320    1.5310    0.3280 C   0  0  0  0  0  0  0  0  0  0  0  0
   -1.1770    2.5720    0.5150 H   0  0  0  0  0  0  0  0  0  0  0  0
   -0.3120    1.1800   -0.8780 C   0  0  0  0  0  0  0  0  0  0  0  0
   -0.0840    1.9520   -1.6030 H   0  0  0  0  0  0  0  0  0  0  0  0
   -0.0450   -0.1580   -1.1500 C   0  0  0  0  0  0  0  0  0  0  0  0
    0.6350   -0.5730   -2.4170 C   0  0  0  0  0  0  0  0  0  0  0  0
   -0.4430   -1.1270   -0.2060 C   0  0  0  0  0  0  0  0  0  0  0  0
   -0.3180   -2.1900   -0.3930 H   0  0  0  0  0  0  0  0  0  0  0  0
    0.1940   -1.5030   -3.0770 O   0  0  0  0  0  0  0  0  0  0  0  0
    1.9810    0.0090   -2.7380 C   0  0  0  0  0  0  0  0  0  0  0  0
    1.9790    1.1760   -3.4030 C   0  0  0  0  0  0  0  0  0  0  0  0
    4.7560   -1.9020   -0.8310 C   0  0  0  0  0  0  0  0  0  0  0  0
    1.0610    1.6850   -3.6700 H   0  0  0  0  0  0  0  0  0  0  0  0
    3.2100    1.7280   -3.9540 C   0  0  0  0  0  0  0  0  0  0  0  0
    4.1200    2.4180   -3.1470 C   0  0  0  0  0  0  0  0  0  0  0  0
    3.5150    1.4450   -5.2880 C   0  0  0  0  0  0  0  0  0  0  0  0
    4.7190    1.8780   -5.8290 C   0  0  0  0  0  0  0  0  0  0  0  0
    5.3310    2.8450   -3.6890 C   0  0  0  0  0  0  0  0  0  0  0  0
   -1.9250    0.1400    3.5280 C   0  0  0  0  0  0  0  0  0  0  0  0
   -2.3410    0.6870    4.3780 H   0  0  0  0  0  0  0  0  0  0  0  0
   -0.9410   -0.2420    3.8230 H   0  0  0  0  0  0  0  0  0  0  0  0
   -2.6110   -0.6820    3.2940 H   0  0  0  0  0  0  0  0  0  0  0  0
    5.6360    2.5790   -5.0340 C   0  0  0  0  0  0  0  0  0  0  0  0
    3.2400   -0.8150   -2.5190 C   0  0  0  0  0  0  0  0  0  0  0  0
    3.3470   -1.3740   -1.1160 C   0  0  0  0  0  0  0  0  0  0  0  0
    4.1580   -0.2490   -2.7120 H   0  0  0  0  0  0  0  0  0  0  0  0
    3.2550   -1.6460   -3.2340 H   0  0  0  0  0  0  0  0  0  0  0  0
    2.3940   -2.5570   -1.0310 C   0  0  0  0  0  0  0  0  0  0  0  0
    3.1040   -0.5960   -0.3730 H   0  0  0  0  0  0  0  0  0  0  0  0
    6.0430    3.3780   -3.0600 H   0  0  0  0  0  0  0  0  0  0  0  0
    6.9490    3.0340   -5.6080 C   0  0  0  0  0  0  0  0  0  0  0  0
    2.8280    0.8650   -5.9030 H   0  0  0  0  0  0  0  0  0  0  0  0
    4.9430    1.6570   -6.8710 H   0  0  0  0  0  0  0  0  0  0  0  0
    3.9110    2.5920   -2.0940 H   0  0  0  0  0  0  0  0  0  0  0  0
    5.0450   -2.6070   -1.6200 H   0  0  0  0  0  0  0  0  0  0  0  0
    4.8000   -2.6020    0.5240 C   0  0  0  0  0  0  0  0  0  0  0  0
    5.5000   -1.0960   -0.8470 H   0  0  0  0  0  0  0  0  0  0  0  0
    2.6910   -3.3470   -1.7310 H   0  0  0  0  0  0  0  0  0  0  0  0
    1.3990   -2.3300   -1.3390 H   0  0  0  0  0  0  0  0  0  0  0  0
    2.2990   -3.0280    0.3840 C   0  0  0  0  0  0  0  0  0  0  0  0
    8.0130    2.4900   -4.9570 F   0  0  0  0  0  0  0  0  0  0  0  0
    7.1060    4.3840   -5.5300 F   0  0  0  0  0  0  0  0  0  0  0  0
    7.1070    2.7120   -6.9220 F   0  0  0  0  0  0  0  0  0  0  0  0
    3.6490   -3.5830    0.7470 C   0  0  0  0  0  0  0  0  0  0  0  0
    1.5260   -3.7990    0.4510 H   0  0  0  0  0  0  0  0  0  0  0  0
    2.0060   -2.2070    1.0520 H   0  0  0  0  0  0  0  0  0  0  0  0
    3.8150   -4.4640    0.1180 H   0  0  0  0  0  0  0  0  0  0  0  0
    3.6180   -3.8990    1.7890 H   0  0  0  0  0  0  0  0  0  0  0  0
    4.7810   -1.8410    1.3110 H   0  0  0  0  0  0  0  0  0  0  0  0
    5.7440   -3.1490    0.6080 H   0  0  0  0  0  0  0  0  0  0  0  0
  1  2  1  0  0  0  0
  2  3  2  0  0  0  0
  2 11  1  0  0  0  0
  3  4  1  0  0  0  0
  3  5  1  0  0  0  0
  4 23  1  0  0  0  0
  5  6  1  0  0  0  0
  5  7  2  0  0  0  0
  7  8  1  0  0  0  0
  7  9  1  0  0  0  0
  9 10  1  0  0  0  0
  9 11  2  0  0  0  0
 10 13  2  0  0  0  0
 10 14  1  0  0  0  0
 11 12  1  0  0  0  0
 14 15  2  0  0  0  0
 14 28  1  0  0  0  0
 15 17  1  0  0  0  0
 15 18  1  0  0  0  0
 16 29  1  0  0  0  0
 16 39  1  0  0  0  0
 16 40  1  0  0  0  0
 16 41  1  0  0  0  0
 18 19  2  0  0  0  0
 18 20  1  0  0  0  0
 19 22  1  0  0  0  0
 19 38  1  0  0  0  0
 20 21  2  0  0  0  0
 20 36  1  0  0  0  0
 21 27  1  0  0  0  0
 21 37  1  0  0  0  0
 22 27  2  0  0  0  0
 22 34  1  0  0  0  0
 23 24  1  0  0  0  0
 23 25  1  0  0  0  0
 23 26  1  0  0  0  0
 27 35  1  0  0  0  0
 28 29  1  0  0  0  0
 28 30  1  0  0  0  0
 28 31  1  0  0  0  0
 29 32  1  0  0  0  0
 29 33  1  0  0  0  0
 32 42  1  0  0  0  0
 32 43  1  0  0  0  0
 32 44  1  0  0  0  0
 35 45  1  0  0  0  0
 35 46  1  0  0  0  0
 35 47  1  0  0  0  0
 40 48  1  0  0  0  0
 40 53  1  0  0  0  0
 40 54  1  0  0  0  0
 44 48  1  0  0  0  0
 44 49  1  0  0  0  0
 44 50  1  0  0  0  0
 48 51  1  0  0  0  0
 48 52  1  0  0  0  0
M  END
>  <COMPND>
    UNNAMED

>  <AUTHOR>
    GENERATED BY OPEN BABEL 2.3.1

>  <MASTER>
        0    0    0    0    0    0    0    0   54    0   54    0

$$$$
