3ib.pdb
 OpenBabel02251613503D

 52 54  0  0  0  0  0  0  0  0999 V2000
   -0.0650   -1.1680    2.0430 H   0  0  0  0  0  0  0  0  0  0  0  0
   -0.2830   -0.5390    1.1840 C   0  0  0  0  0  0  0  0  0  0  0  0
   -1.2010    0.5330    1.1900 C   0  0  0  0  0  0  0  0  0  0  0  0
   -1.5260    1.3170    0.1250 C   0  0  0  0  0  0  0  0  0  0  0  0
   -2.2770    2.0960    0.2500 H   0  0  0  0  0  0  0  0  0  0  0  0
   -0.9190    1.0230   -1.0670 C   0  0  0  0  0  0  0  0  0  0  0  0
   -1.2080    1.5920   -1.9310 H   0  0  0  0  0  0  0  0  0  0  0  0
    0.0030   -0.0420   -1.1000 C   0  0  0  0  0  0  0  0  0  0  0  0
    0.5320   -0.3790   -2.4100 C   0  0  0  0  0  0  0  0  0  0  0  0
    0.3250   -0.8350   -0.0100 C   0  0  0  0  0  0  0  0  0  0  0  0
    0.9750   -1.7000   -0.0330 H   0  0  0  0  0  0  0  0  0  0  0  0
   -0.2110   -0.9200   -3.2230 O   0  0  0  0  0  0  0  0  0  0  0  0
    1.8780    0.1090   -2.7490 C   0  0  0  0  0  0  0  0  0  0  0  0
    1.8610    1.0970   -3.6720 C   0  0  0  0  0  0  0  0  0  0  0  0
    4.0350   -1.9040   -0.3610 C   0  0  0  0  0  0  0  0  0  0  0  0
    0.9240    1.4480   -4.1020 H   0  0  0  0  0  0  0  0  0  0  0  0
    3.0800    1.7230   -4.2100 C   0  0  0  0  0  0  0  0  0  0  0  0
    5.0590   -0.8640   -0.1110 C   0  0  0  0  0  0  0  0  0  0  0  0
    4.9240    0.0000    0.9770 C   0  0  0  0  0  0  0  0  0  0  0  0
    3.9140    2.4630   -3.3540 C   0  0  0  0  0  0  0  0  0  0  0  0
    3.4650    1.5620   -5.5520 C   0  0  0  0  0  0  0  0  0  0  0  0
    4.6740    2.0880   -6.0150 C   0  0  0  0  0  0  0  0  0  0  0  0
    5.1290    2.9770   -3.8130 C   0  0  0  0  0  0  0  0  0  0  0  0
    5.5050    2.7810   -5.1390 C   0  0  0  0  0  0  0  0  0  0  0  0
    3.1440   -0.4400   -2.1690 C   0  0  0  0  0  0  0  0  0  0  0  0
    3.0980   -1.6760   -1.3920 N   0  0  0  0  0  0  0  0  0  0  0  0
    3.5370    0.3520   -1.5270 H   0  0  0  0  0  0  0  0  0  0  0  0
    3.8670   -0.6240   -2.9710 H   0  0  0  0  0  0  0  0  0  0  0  0
    2.5620   -2.8810   -2.0150 C   0  0  0  0  0  0  0  0  0  0  0  0
    5.7780    3.5200   -3.1300 H   0  0  0  0  0  0  0  0  0  0  0  0
    7.0140    3.3910   -5.6950 Cl  0  0  0  0  0  0  0  0  0  0  0  0
    2.4880    0.6860   -6.6790 Cl  0  0  0  0  0  0  0  0  0  0  0  0
    4.9700    1.9470   -7.0510 H   0  0  0  0  0  0  0  0  0  0  0  0
    3.6380    2.6270   -2.3130 H   0  0  0  0  0  0  0  0  0  0  0  0
   -1.9470    0.9090    2.2580 O   0  0  0  0  0  0  0  0  0  0  0  0
    2.4160   -3.6690   -1.2710 H   0  0  0  0  0  0  0  0  0  0  0  0
    3.2820   -3.2330   -2.7590 H   0  0  0  0  0  0  0  0  0  0  0  0
    1.6050   -2.6900   -2.4990 H   0  0  0  0  0  0  0  0  0  0  0  0
    4.0820   -2.9240    0.3140 O   0  0  0  0  0  0  0  0  0  0  0  0
    6.1200   -0.7200   -1.0150 C   0  0  0  0  0  0  0  0  0  0  0  0
    7.0280    0.3250   -0.8500 C   0  0  0  0  0  0  0  0  0  0  0  0
    5.8400    1.0410    1.1380 C   0  0  0  0  0  0  0  0  0  0  0  0
    6.8840    1.2070    0.2220 C   0  0  0  0  0  0  0  0  0  0  0  0
    7.5930    2.0220    0.3500 H   0  0  0  0  0  0  0  0  0  0  0  0
    7.8470    0.4520   -1.5540 H   0  0  0  0  0  0  0  0  0  0  0  0
    4.1060   -0.1260    1.6810 H   0  0  0  0  0  0  0  0  0  0  0  0
    5.7430    1.7270    1.9760 H   0  0  0  0  0  0  0  0  0  0  0  0
    6.2270   -1.4070   -1.8500 H   0  0  0  0  0  0  0  0  0  0  0  0
   -1.5570    0.1350    3.3470 C   0  0  0  0  0  0  0  0  0  0  0  0
   -2.1590    0.5260    4.1420 H   0  0  0  0  0  0  0  0  0  0  0  0
   -0.4830    0.3190    3.5340 H   0  0  0  0  0  0  0  0  0  0  0  0
   -1.8340   -0.9070    3.1200 H   0  0  0  0  0  0  0  0  0  0  0  0
  1  2  1  0  0  0  0
  2  3  2  0  0  0  0
  2 10  1  0  0  0  0
  3  4  1  0  0  0  0
  3 35  1  0  0  0  0
  4  5  1  0  0  0  0
  4  6  2  0  0  0  0
  6  7  1  0  0  0  0
  6  8  1  0  0  0  0
  8  9  1  0  0  0  0
  8 10  2  0  0  0  0
  9 12  2  0  0  0  0
  9 13  1  0  0  0  0
 10 11  1  0  0  0  0
 13 14  2  0  0  0  0
 13 25  1  0  0  0  0
 14 16  1  0  0  0  0
 14 17  1  0  0  0  0
 15 18  1  0  0  0  0
 15 26  1  0  0  0  0
 15 39  2  0  0  0  0
 17 20  2  0  0  0  0
 17 21  1  0  0  0  0
 18 19  2  0  0  0  0
 18 40  1  0  0  0  0
 19 42  1  0  0  0  0
 19 46  1  0  0  0  0
 20 23  1  0  0  0  0
 20 34  1  0  0  0  0
 21 22  2  0  0  0  0
 21 32  1  0  0  0  0
 22 24  1  0  0  0  0
 22 33  1  0  0  0  0
 23 24  2  0  0  0  0
 23 30  1  0  0  0  0
 24 31  1  0  0  0  0
 25 26  1  0  0  0  0
 25 27  1  0  0  0  0
 25 28  1  0  0  0  0
 26 29  1  0  0  0  0
 29 36  1  0  0  0  0
 29 37  1  0  0  0  0
 29 38  1  0  0  0  0
 35 49  1  0  0  0  0
 40 41  2  0  0  0  0
 40 48  1  0  0  0  0
 41 43  1  0  0  0  0
 41 45  1  0  0  0  0
 42 43  2  0  0  0  0
 42 47  1  0  0  0  0
 43 44  1  0  0  0  0
 49 50  1  0  0  0  0
 49 51  1  0  0  0  0
 49 52  1  0  0  0  0
M  END
>  <COMPND>
    UNNAMED

>  <AUTHOR>
    GENERATED BY OPEN BABEL 2.3.1

>  <MASTER>
        0    0    0    0    0    0    0    0   52    0   52    0

$$$$
