3if.pdb
 OpenBabel02251613503D

 58 60  0  0  0  0  0  0  0  0999 V2000
   -0.0990   -1.1660    2.0770 H   0  0  0  0  0  0  0  0  0  0  0  0
   -0.3240   -0.5320    1.2260 C   0  0  0  0  0  0  0  0  0  0  0  0
   -1.1710    0.5740    1.3340 C   0  0  0  0  0  0  0  0  0  0  0  0
   -1.4410    1.3470    0.2000 C   0  0  0  0  0  0  0  0  0  0  0  0
   -2.1150    2.1970    0.2750 H   0  0  0  0  0  0  0  0  0  0  0  0
   -0.8710    1.0230   -1.0320 C   0  0  0  0  0  0  0  0  0  0  0  0
   -1.1150    1.6120   -1.9130 H   0  0  0  0  0  0  0  0  0  0  0  0
   -0.0160   -0.0770   -1.1280 C   0  0  0  0  0  0  0  0  0  0  0  0
    0.5130   -0.4310   -2.4570 C   0  0  0  0  0  0  0  0  0  0  0  0
    0.2460   -0.8660   -0.0080 C   0  0  0  0  0  0  0  0  0  0  0  0
    0.8680   -1.7530   -0.0820 H   0  0  0  0  0  0  0  0  0  0  0  0
   -0.2010   -1.0160   -3.2640 O   0  0  0  0  0  0  0  0  0  0  0  0
    1.8530    0.1020   -2.8260 C   0  0  0  0  0  0  0  0  0  0  0  0
    1.8070    1.0460   -3.7970 C   0  0  0  0  0  0  0  0  0  0  0  0
    3.9880   -1.9440   -0.4440 C   0  0  0  0  0  0  0  0  0  0  0  0
    0.8320    1.2600   -4.2420 H   0  0  0  0  0  0  0  0  0  0  0  0
    2.9090    1.9170   -4.3710 C   0  0  0  0  0  0  0  0  0  0  0  0
    4.9950   -0.9150   -0.1040 C   0  0  0  0  0  0  0  0  0  0  0  0
    4.8200   -0.1020    1.0160 C   0  0  0  0  0  0  0  0  0  0  0  0
    3.9390    2.4680   -3.3650 C   0  0  0  0  0  0  0  0  0  0  0  0
    3.6000    1.2270   -5.5550 C   0  0  0  0  0  0  0  0  0  0  0  0
    4.6350    2.1390   -6.2130 C   0  0  0  0  0  0  0  0  0  0  0  0
    4.9540    3.3860   -4.0440 C   0  0  0  0  0  0  0  0  0  0  0  0
    5.6460    2.6780   -5.2050 C   0  0  0  0  0  0  0  0  0  0  0  0
    3.1020   -0.3580   -2.1480 C   0  0  0  0  0  0  0  0  0  0  0  0
    3.0950   -1.6700   -1.4980 N   0  0  0  0  0  0  0  0  0  0  0  0
    3.3400    0.4000   -1.3960 H   0  0  0  0  0  0  0  0  0  0  0  0
    3.9210   -0.4070   -2.8740 H   0  0  0  0  0  0  0  0  0  0  0  0
    2.6660   -2.8400   -2.2580 C   0  0  0  0  0  0  0  0  0  0  0  0
   -1.8000    0.9970    2.4720 O   0  0  0  0  0  0  0  0  0  0  0  0
    2.5680   -3.7130   -1.6060 H   0  0  0  0  0  0  0  0  0  0  0  0
    3.4250   -3.0560   -3.0150 H   0  0  0  0  0  0  0  0  0  0  0  0
    1.7060   -2.6750   -2.7440 H   0  0  0  0  0  0  0  0  0  0  0  0
    4.0290   -3.0050    0.1700 O   0  0  0  0  0  0  0  0  0  0  0  0
    6.1020   -0.7500   -0.9460 C   0  0  0  0  0  0  0  0  0  0  0  0
    7.0210    0.2630   -0.6850 C   0  0  0  0  0  0  0  0  0  0  0  0
    5.7460    0.9110    1.2720 C   0  0  0  0  0  0  0  0  0  0  0  0
    6.8390    1.0970    0.4200 C   0  0  0  0  0  0  0  0  0  0  0  0
    7.5560    1.8890    0.6230 H   0  0  0  0  0  0  0  0  0  0  0  0
    7.8790    0.4040   -1.3390 H   0  0  0  0  0  0  0  0  0  0  0  0
    3.9660   -0.2450    1.6730 H   0  0  0  0  0  0  0  0  0  0  0  0
    5.6180    1.5600    2.1350 H   0  0  0  0  0  0  0  0  0  0  0  0
    6.2400   -1.4030   -1.8050 H   0  0  0  0  0  0  0  0  0  0  0  0
   -1.6310    0.1980    3.6360 C   0  0  0  0  0  0  0  0  0  0  0  0
   -2.2260    0.6460    4.4370 H   0  0  0  0  0  0  0  0  0  0  0  0
   -0.5850    0.1940    3.9590 H   0  0  0  0  0  0  0  0  0  0  0  0
   -2.0000   -0.8200    3.4760 H   0  0  0  0  0  0  0  0  0  0  0  0
    2.3900    2.8010   -4.7720 H   0  0  0  0  0  0  0  0  0  0  0  0
    4.5080    1.6630   -2.8940 H   0  0  0  0  0  0  0  0  0  0  0  0
    3.4290    3.0140   -2.5630 H   0  0  0  0  0  0  0  0  0  0  0  0
    5.7030    3.7080   -3.3120 H   0  0  0  0  0  0  0  0  0  0  0  0
    4.4500    4.2900   -4.4070 H   0  0  0  0  0  0  0  0  0  0  0  0
    6.3320    3.3720   -5.7040 H   0  0  0  0  0  0  0  0  0  0  0  0
    6.2530    1.8500   -4.8190 H   0  0  0  0  0  0  0  0  0  0  0  0
    2.8580    0.9300   -6.3060 H   0  0  0  0  0  0  0  0  0  0  0  0
    4.0950    0.3070   -5.2190 H   0  0  0  0  0  0  0  0  0  0  0  0
    4.1220    2.9810   -6.6960 H   0  0  0  0  0  0  0  0  0  0  0  0
    5.1590    1.5900   -7.0040 H   0  0  0  0  0  0  0  0  0  0  0  0
  1  2  1  0  0  0  0
  2  3  2  0  0  0  0
  2 10  1  0  0  0  0
  3  4  1  0  0  0  0
  3 30  1  0  0  0  0
  4  5  1  0  0  0  0
  4  6  2  0  0  0  0
  6  7  1  0  0  0  0
  6  8  1  0  0  0  0
  8  9  1  0  0  0  0
  8 10  2  0  0  0  0
  9 12  2  0  0  0  0
  9 13  1  0  0  0  0
 10 11  1  0  0  0  0
 13 14  2  0  0  0  0
 13 25  1  0  0  0  0
 14 16  1  0  0  0  0
 14 17  1  0  0  0  0
 15 18  1  0  0  0  0
 15 26  1  0  0  0  0
 15 34  2  0  0  0  0
 17 20  1  0  0  0  0
 17 21  1  0  0  0  0
 17 48  1  0  0  0  0
 18 19  2  0  0  0  0
 18 35  1  0  0  0  0
 19 37  1  0  0  0  0
 19 41  1  0  0  0  0
 20 23  1  0  0  0  0
 20 49  1  0  0  0  0
 20 50  1  0  0  0  0
 21 22  1  0  0  0  0
 21 55  1  0  0  0  0
 21 56  1  0  0  0  0
 22 24  1  0  0  0  0
 22 57  1  0  0  0  0
 22 58  1  0  0  0  0
 23 24  1  0  0  0  0
 23 51  1  0  0  0  0
 23 52  1  0  0  0  0
 24 53  1  0  0  0  0
 24 54  1  0  0  0  0
 25 26  1  0  0  0  0
 25 27  1  0  0  0  0
 25 28  1  0  0  0  0
 26 29  1  0  0  0  0
 29 31  1  0  0  0  0
 29 32  1  0  0  0  0
 29 33  1  0  0  0  0
 30 44  1  0  0  0  0
 35 36  2  0  0  0  0
 35 43  1  0  0  0  0
 36 38  1  0  0  0  0
 36 40  1  0  0  0  0
 37 38  2  0  0  0  0
 37 42  1  0  0  0  0
 38 39  1  0  0  0  0
 44 45  1  0  0  0  0
 44 46  1  0  0  0  0
 44 47  1  0  0  0  0
M  END
>  <COMPND>
    UNNAMED

>  <AUTHOR>
    GENERATED BY OPEN BABEL 2.3.1

>  <MASTER>
        0    0    0    0    0    0    0    0   58    0   58    0

$$$$
