4aa.pdb
 OpenBabel02251613503D

 37 38  0  0  0  0  0  0  0  0999 V2000
   -0.1780   -0.3700    2.6530 H   0  0  0  0  0  0  0  0  0  0  0  0
   -0.4190   -0.3580    1.5930 C   0  0  0  0  0  0  0  0  0  0  0  0
   -1.6720    0.0870    1.1700 C   0  0  0  0  0  0  0  0  0  0  0  0
   -2.4000    0.4320    1.9010 H   0  0  0  0  0  0  0  0  0  0  0  0
   -2.0000    0.0720   -0.1860 C   0  0  0  0  0  0  0  0  0  0  0  0
   -2.9830    0.4060   -0.5110 H   0  0  0  0  0  0  0  0  0  0  0  0
   -1.0720   -0.3820   -1.1240 C   0  0  0  0  0  0  0  0  0  0  0  0
   -1.3360   -0.4090   -2.1790 H   0  0  0  0  0  0  0  0  0  0  0  0
    0.1950   -0.7980   -0.7040 C   0  0  0  0  0  0  0  0  0  0  0  0
    1.1490   -1.2910   -1.7200 C   0  0  0  0  0  0  0  0  0  0  0  0
    0.5160   -0.8050    0.6570 C   0  0  0  0  0  0  0  0  0  0  0  0
    1.4660   -1.1880    1.0120 H   0  0  0  0  0  0  0  0  0  0  0  0
    0.8890   -2.2770   -2.3970 O   0  0  0  0  0  0  0  0  0  0  0  0
    2.4160   -0.5290   -1.9080 C   0  0  0  0  0  0  0  0  0  0  0  0
    3.5680   -0.9990   -1.0660 C   0  0  0  0  0  0  0  0  0  0  0  0
    2.4820    0.4160   -2.8660 C   0  0  0  0  0  0  0  0  0  0  0  0
    3.3950   -0.8200   -0.0030 H   0  0  0  0  0  0  0  0  0  0  0  0
    4.8250   -0.4210   -1.4780 O   0  0  0  0  0  0  0  0  0  0  0  0
    3.6830   -2.0820   -1.1850 H   0  0  0  0  0  0  0  0  0  0  0  0
    5.3770    0.6690   -0.8960 C   0  0  0  0  0  0  0  0  0  0  0  0
    6.4930    1.0570   -1.2260 O   0  0  0  0  0  0  0  0  0  0  0  0
    4.5780    1.3850    0.1520 C   0  0  0  0  0  0  0  0  0  0  0  0
    4.5160    0.7830    1.0610 H   0  0  0  0  0  0  0  0  0  0  0  0
    3.5860    1.6470   -0.2230 H   0  0  0  0  0  0  0  0  0  0  0  0
    5.0850    2.3230    0.4020 H   0  0  0  0  0  0  0  0  0  0  0  0
    1.3930    0.8090   -3.7640 C   0  0  0  0  0  0  0  0  0  0  0  0
    3.4120    0.9470   -3.0600 H   0  0  0  0  0  0  0  0  0  0  0  0
    0.5710    1.9000   -3.4690 C   0  0  0  0  0  0  0  0  0  0  0  0
    1.1760    0.0980   -4.9500 C   0  0  0  0  0  0  0  0  0  0  0  0
    0.1540    0.4810   -5.8230 C   0  0  0  0  0  0  0  0  0  0  0  0
   -0.4530    2.2820   -4.3320 C   0  0  0  0  0  0  0  0  0  0  0  0
   -0.6600    1.5720   -5.5150 C   0  0  0  0  0  0  0  0  0  0  0  0
   -1.0800    3.1310   -4.0800 H   0  0  0  0  0  0  0  0  0  0  0  0
   -1.4530    1.8670   -6.1970 H   0  0  0  0  0  0  0  0  0  0  0  0
    0.7550    2.5960   -2.3370 F   0  0  0  0  0  0  0  0  0  0  0  0
    1.7990   -0.7590   -5.2000 H   0  0  0  0  0  0  0  0  0  0  0  0
   -0.0040   -0.0750   -6.7440 H   0  0  0  0  0  0  0  0  0  0  0  0
  1  2  1  0  0  0  0
  2  3  2  0  0  0  0
  2 11  1  0  0  0  0
  3  4  1  0  0  0  0
  3  5  1  0  0  0  0
  5  6  1  0  0  0  0
  5  7  2  0  0  0  0
  7  8  1  0  0  0  0
  7  9  1  0  0  0  0
  9 10  1  0  0  0  0
  9 11  2  0  0  0  0
 10 13  2  0  0  0  0
 10 14  1  0  0  0  0
 11 12  1  0  0  0  0
 14 15  1  0  0  0  0
 14 16  2  0  0  0  0
 15 17  1  0  0  0  0
 15 18  1  0  0  0  0
 15 19  1  0  0  0  0
 16 26  1  0  0  0  0
 16 27  1  0  0  0  0
 18 20  1  0  0  0  0
 20 21  2  0  0  0  0
 20 22  1  0  0  0  0
 22 23  1  0  0  0  0
 22 24  1  0  0  0  0
 22 25  1  0  0  0  0
 26 28  2  0  0  0  0
 26 29  1  0  0  0  0
 28 31  1  0  0  0  0
 28 35  1  0  0  0  0
 29 30  2  0  0  0  0
 29 36  1  0  0  0  0
 30 32  1  0  0  0  0
 30 37  1  0  0  0  0
 31 32  2  0  0  0  0
 31 33  1  0  0  0  0
 32 34  1  0  0  0  0
M  END
>  <COMPND>
    UNNAMED

>  <AUTHOR>
    GENERATED BY OPEN BABEL 2.3.1

>  <MASTER>
        0    0    0    0    0    0    0    0   37    0   37    0

$$$$
