4ab.pdb
 OpenBabel02251613503D

 37 38  0  0  0  0  0  0  0  0999 V2000
   -0.2890    1.1800    1.7960 H   0  0  0  0  0  0  0  0  0  0  0  0
   -0.5000    0.5520    0.9340 C   0  0  0  0  0  0  0  0  0  0  0  0
   -1.8210    0.2940    0.5690 C   0  0  0  0  0  0  0  0  0  0  0  0
   -2.6370    0.7270    1.1430 H   0  0  0  0  0  0  0  0  0  0  0  0
   -2.0980   -0.5240   -0.5270 C   0  0  0  0  0  0  0  0  0  0  0  0
   -3.1280   -0.7260   -0.8080 H   0  0  0  0  0  0  0  0  0  0  0  0
   -1.0520   -1.0870   -1.2600 C   0  0  0  0  0  0  0  0  0  0  0  0
   -1.2720   -1.7280   -2.1100 H   0  0  0  0  0  0  0  0  0  0  0  0
    0.2740   -0.8160   -0.9060 C   0  0  0  0  0  0  0  0  0  0  0  0
    1.3600   -1.4310   -1.7100 C   0  0  0  0  0  0  0  0  0  0  0  0
    0.5490   -0.0010    0.1980 C   0  0  0  0  0  0  0  0  0  0  0  0
    1.5670    0.2030    0.5110 H   0  0  0  0  0  0  0  0  0  0  0  0
    1.2490   -2.5620   -2.1670 O   0  0  0  0  0  0  0  0  0  0  0  0
    2.5990   -0.6380   -1.9550 C   0  0  0  0  0  0  0  0  0  0  0  0
    3.8090   -1.1860   -1.2560 C   0  0  0  0  0  0  0  0  0  0  0  0
    2.5740    0.4160   -2.7950 C   0  0  0  0  0  0  0  0  0  0  0  0
    3.6460   -1.2660   -0.1770 H   0  0  0  0  0  0  0  0  0  0  0  0
    5.0010   -0.4260   -1.5450 O   0  0  0  0  0  0  0  0  0  0  0  0
    4.0050   -2.2020   -1.6170 H   0  0  0  0  0  0  0  0  0  0  0  0
    5.4610    0.5840   -0.7710 C   0  0  0  0  0  0  0  0  0  0  0  0
    6.5270    1.1340   -1.0280 O   0  0  0  0  0  0  0  0  0  0  0  0
    4.6140    1.0210    0.3850 C   0  0  0  0  0  0  0  0  0  0  0  0
    4.5540    0.2350    1.1400 H   0  0  0  0  0  0  0  0  0  0  0  0
    3.6240    1.3270    0.0410 H   0  0  0  0  0  0  0  0  0  0  0  0
    5.0780    1.8960    0.8530 H   0  0  0  0  0  0  0  0  0  0  0  0
    1.3980    0.8760   -3.5490 C   0  0  0  0  0  0  0  0  0  0  0  0
    3.4790    0.9850   -2.9990 H   0  0  0  0  0  0  0  0  0  0  0  0
    0.7160    2.0640   -3.2340 C   0  0  0  0  0  0  0  0  0  0  0  0
    0.9470    0.0990   -4.6270 C   0  0  0  0  0  0  0  0  0  0  0  0
   -0.1670    0.4960   -5.3700 C   0  0  0  0  0  0  0  0  0  0  0  0
   -0.4000    2.4590   -3.9750 C   0  0  0  0  0  0  0  0  0  0  0  0
   -0.8350    1.6720   -5.0390 C   0  0  0  0  0  0  0  0  0  0  0  0
   -0.9280    3.3750   -3.7240 H   0  0  0  0  0  0  0  0  0  0  0  0
   -2.2090    2.1570   -5.9530 Cl  0  0  0  0  0  0  0  0  0  0  0  0
    1.2150    3.0710   -1.9190 Cl  0  0  0  0  0  0  0  0  0  0  0  0
    1.4580   -0.8260   -4.8940 H   0  0  0  0  0  0  0  0  0  0  0  0
   -0.5050   -0.1170   -6.2020 H   0  0  0  0  0  0  0  0  0  0  0  0
  1  2  1  0  0  0  0
  2  3  2  0  0  0  0
  2 11  1  0  0  0  0
  3  4  1  0  0  0  0
  3  5  1  0  0  0  0
  5  6  1  0  0  0  0
  5  7  2  0  0  0  0
  7  8  1  0  0  0  0
  7  9  1  0  0  0  0
  9 10  1  0  0  0  0
  9 11  2  0  0  0  0
 10 13  2  0  0  0  0
 10 14  1  0  0  0  0
 11 12  1  0  0  0  0
 14 15  1  0  0  0  0
 14 16  2  0  0  0  0
 15 17  1  0  0  0  0
 15 18  1  0  0  0  0
 15 19  1  0  0  0  0
 16 26  1  0  0  0  0
 16 27  1  0  0  0  0
 18 20  1  0  0  0  0
 20 21  2  0  0  0  0
 20 22  1  0  0  0  0
 22 23  1  0  0  0  0
 22 24  1  0  0  0  0
 22 25  1  0  0  0  0
 26 28  2  0  0  0  0
 26 29  1  0  0  0  0
 28 31  1  0  0  0  0
 28 35  1  0  0  0  0
 29 30  2  0  0  0  0
 29 36  1  0  0  0  0
 30 32  1  0  0  0  0
 30 37  1  0  0  0  0
 31 32  2  0  0  0  0
 31 33  1  0  0  0  0
 32 34  1  0  0  0  0
M  END
>  <COMPND>
    UNNAMED

>  <AUTHOR>
    GENERATED BY OPEN BABEL 2.3.1

>  <MASTER>
        0    0    0    0    0    0    0    0   37    0   37    0

$$$$
