4dl.pdb
 OpenBabel02251613503D

 48 50  0  0  0  0  0  0  0  0999 V2000
   -1.5230   -1.8750    1.9780 H   0  0  0  0  0  0  0  0  0  0  0  0
   -1.0920   -1.0860    1.3720 C   0  0  0  0  0  0  0  0  0  0  0  0
   -1.1820    0.2580    1.7360 C   0  0  0  0  0  0  0  0  0  0  0  0
   -1.7840    0.7460    2.8620 O   0  0  0  0  0  0  0  0  0  0  0  0
   -0.6310    1.2340    0.9010 C   0  0  0  0  0  0  0  0  0  0  0  0
   -0.7190    2.2840    1.1740 H   0  0  0  0  0  0  0  0  0  0  0  0
    0.0330    0.8780   -0.2750 C   0  0  0  0  0  0  0  0  0  0  0  0
    0.4410    1.6620   -0.9070 H   0  0  0  0  0  0  0  0  0  0  0  0
    0.1480   -0.4720   -0.6230 C   0  0  0  0  0  0  0  0  0  0  0  0
    0.8800   -0.9060   -1.8420 C   0  0  0  0  0  0  0  0  0  0  0  0
   -0.4340   -1.4490    0.1910 C   0  0  0  0  0  0  0  0  0  0  0  0
   -0.3690   -2.5010   -0.0860 H   0  0  0  0  0  0  0  0  0  0  0  0
    0.5390   -1.9190   -2.4420 O   0  0  0  0  0  0  0  0  0  0  0  0
    2.1050   -0.1390   -2.2210 C   0  0  0  0  0  0  0  0  0  0  0  0
    3.1470   -0.0720   -1.1290 C   0  0  0  0  0  0  0  0  0  0  0  0
    2.2830    0.3410   -3.4670 C   0  0  0  0  0  0  0  0  0  0  0  0
    2.9360    0.7930   -0.4920 H   0  0  0  0  0  0  0  0  0  0  0  0
    4.4720    0.0270   -1.6900 O   0  0  0  0  0  0  0  0  0  0  0  0
    3.1130   -0.9920   -0.5350 H   0  0  0  0  0  0  0  0  0  0  0  0
    1.3590    0.2910   -4.6180 C   0  0  0  0  0  0  0  0  0  0  0  0
    5.5170    0.5480   -1.0010 C   0  0  0  0  0  0  0  0  0  0  0  0
    6.5600    0.8830   -1.5450 O   0  0  0  0  0  0  0  0  0  0  0  0
    5.3510    0.7440    0.4530 C   0  0  0  0  0  0  0  0  0  0  0  0
    5.1510   -0.3460    1.3070 C   0  0  0  0  0  0  0  0  0  0  0  0
    5.4320    2.0430    0.9630 C   0  0  0  0  0  0  0  0  0  0  0  0
   -2.2380   -0.2080    3.8150 C   0  0  0  0  0  0  0  0  0  0  0  0
   -2.6310    0.3400    4.6760 H   0  0  0  0  0  0  0  0  0  0  0  0
   -1.4130   -0.8360    4.1690 H   0  0  0  0  0  0  0  0  0  0  0  0
   -3.0510   -0.8160    3.4060 H   0  0  0  0  0  0  0  0  0  0  0  0
    4.9870   -0.1250    2.6740 C   0  0  0  0  0  0  0  0  0  0  0  0
    5.2700    2.2570    2.3310 C   0  0  0  0  0  0  0  0  0  0  0  0
    5.0410    1.1750    3.1830 C   0  0  0  0  0  0  0  0  0  0  0  0
    5.3320    3.2640    2.7350 H   0  0  0  0  0  0  0  0  0  0  0  0
    5.6260    2.8830    0.2990 H   0  0  0  0  0  0  0  0  0  0  0  0
    5.1320   -1.3610    0.9160 H   0  0  0  0  0  0  0  0  0  0  0  0
    4.8270   -0.9640    3.3480 H   0  0  0  0  0  0  0  0  0  0  0  0
    4.9190    1.3440    4.2510 H   0  0  0  0  0  0  0  0  0  0  0  0
    0.0250    0.7070   -4.4760 C   0  0  0  0  0  0  0  0  0  0  0  0
    1.8030   -0.0850   -5.9010 C   0  0  0  0  0  0  0  0  0  0  0  0
    0.9290   -0.0670   -6.9950 C   0  0  0  0  0  0  0  0  0  0  0  0
   -0.8470    0.7170   -5.5700 C   0  0  0  0  0  0  0  0  0  0  0  0
   -0.3950    0.3300   -6.8280 C   0  0  0  0  0  0  0  0  0  0  0  0
    3.2290    0.8310   -3.7000 H   0  0  0  0  0  0  0  0  0  0  0  0
   -0.3580    1.0340   -3.5140 H   0  0  0  0  0  0  0  0  0  0  0  0
    3.4330   -0.5870   -6.2020 Cl  0  0  0  0  0  0  0  0  0  0  0  0
    1.2800   -0.3620   -7.9810 H   0  0  0  0  0  0  0  0  0  0  0  0
   -1.8800    1.0280   -5.4360 H   0  0  0  0  0  0  0  0  0  0  0  0
   -1.0720    0.3390   -7.6790 H   0  0  0  0  0  0  0  0  0  0  0  0
  1  2  1  0  0  0  0
  2  3  2  0  0  0  0
  2 11  1  0  0  0  0
  3  4  1  0  0  0  0
  3  5  1  0  0  0  0
  4 26  1  0  0  0  0
  5  6  1  0  0  0  0
  5  7  2  0  0  0  0
  7  8  1  0  0  0  0
  7  9  1  0  0  0  0
  9 10  1  0  0  0  0
  9 11  2  0  0  0  0
 10 13  2  0  0  0  0
 10 14  1  0  0  0  0
 11 12  1  0  0  0  0
 14 15  1  0  0  0  0
 14 16  2  0  0  0  0
 15 17  1  0  0  0  0
 15 18  1  0  0  0  0
 15 19  1  0  0  0  0
 16 20  1  0  0  0  0
 16 43  1  0  0  0  0
 18 21  1  0  0  0  0
 20 38  2  0  0  0  0
 20 39  1  0  0  0  0
 21 22  2  0  0  0  0
 21 23  1  0  0  0  0
 23 24  2  0  0  0  0
 23 25  1  0  0  0  0
 24 30  1  0  0  0  0
 24 35  1  0  0  0  0
 25 31  2  0  0  0  0
 25 34  1  0  0  0  0
 26 27  1  0  0  0  0
 26 28  1  0  0  0  0
 26 29  1  0  0  0  0
 30 32  2  0  0  0  0
 30 36  1  0  0  0  0
 31 32  1  0  0  0  0
 31 33  1  0  0  0  0
 32 37  1  0  0  0  0
 38 41  1  0  0  0  0
 38 44  1  0  0  0  0
 39 40  2  0  0  0  0
 39 45  1  0  0  0  0
 40 42  1  0  0  0  0
 40 46  1  0  0  0  0
 41 42  2  0  0  0  0
 41 47  1  0  0  0  0
 42 48  1  0  0  0  0
M  END
>  <COMPND>
    UNNAMED

>  <AUTHOR>
    GENERATED BY OPEN BABEL 2.3.1

>  <MASTER>
        0    0    0    0    0    0    0    0   48    0   48    0

$$$$
