5_da.pdb
 OpenBabel02251613503D

 36 37  0  0  1  0  0  0  0  0999 V2000
   -2.2150   -1.3080    1.4060 H   0  0  0  0  0  0  0  0  0  0  0  0
   -1.4420   -0.6560    1.0130 C   0  0  0  0  0  0  0  0  0  0  0  0
   -0.8280    0.3190    1.8020 C   0  0  0  0  0  0  0  0  0  0  0  0
   -1.0910    0.5710    3.1190 O   0  0  0  0  0  0  0  0  0  0  0  0
    0.1500    1.1440    1.2360 C   0  0  0  0  0  0  0  0  0  0  0  0
    0.6160    1.9170    1.8430 H   0  0  0  0  0  0  0  0  0  0  0  0
    0.5260    0.9930   -0.1000 C   0  0  0  0  0  0  0  0  0  0  0  0
    1.2730    1.6620   -0.5220 H   0  0  0  0  0  0  0  0  0  0  0  0
   -0.0740   -0.0000   -0.8790 C   0  0  0  0  0  0  0  0  0  0  0  0
    0.3020   -0.2010   -2.2980 C   0  0  0  0  0  0  0  0  0  0  0  0
   -1.0710   -0.8100   -0.3270 C   0  0  0  0  0  0  0  0  0  0  0  0
   -1.5610   -1.5660   -0.9390 H   0  0  0  0  0  0  0  0  0  0  0  0
   -0.5600   -0.4570   -3.1310 O   0  0  0  0  0  0  0  0  0  0  0  0
    1.7490   -0.1340   -2.6560 C   0  0  0  0  0  0  0  0  0  0  0  0
    2.6930   -1.0090   -1.8680 C   0  0  2  0  0  0  0  0  0  0  0  0
    2.0510    0.6170   -3.7310 C   0  0  0  0  0  0  0  0  0  0  0  0
    2.1360   -1.7840   -1.3240 H   0  0  0  0  0  0  0  0  0  0  0  0
    3.3430   -0.1950   -0.8880 O   0  0  0  0  0  0  0  0  0  0  0  0
    3.7320   -1.7240   -2.7080 C   0  0  0  0  0  0  0  0  0  0  0  0
   -2.0770   -0.2400    3.7460 C   0  0  0  0  0  0  0  0  0  0  0  0
   -2.1660    0.0870    4.7870 H   0  0  0  0  0  0  0  0  0  0  0  0
   -1.7760   -1.2930    3.7520 H   0  0  0  0  0  0  0  0  0  0  0  0
   -3.0550   -0.1090    3.2720 H   0  0  0  0  0  0  0  0  0  0  0  0
    1.2870    1.1670   -4.2730 H   0  0  0  0  0  0  0  0  0  0  0  0
    3.0680    0.6950   -4.1000 H   0  0  0  0  0  0  0  0  0  0  0  0
    3.3580   -2.8640   -3.4290 C   0  0  0  0  0  0  0  0  0  0  0  0
    5.0600   -1.2830   -2.8140 C   0  0  0  0  0  0  0  0  0  0  0  0
    4.2650   -3.5510   -4.2310 C   0  0  0  0  0  0  0  0  0  0  0  0
    5.9780   -1.9700   -3.6140 C   0  0  0  0  0  0  0  0  0  0  0  0
    5.5800   -3.1030   -4.3230 C   0  0  0  0  0  0  0  0  0  0  0  0
    2.1000   -3.3210   -3.3440 F   0  0  0  0  0  0  0  0  0  0  0  0
    5.3880   -0.3970   -2.2720 H   0  0  0  0  0  0  0  0  0  0  0  0
    7.0040   -1.6180   -3.6840 H   0  0  0  0  0  0  0  0  0  0  0  0
    3.9380   -4.4300   -4.7770 H   0  0  0  0  0  0  0  0  0  0  0  0
    6.2950   -3.6340   -4.9470 H   0  0  0  0  0  0  0  0  0  0  0  0
    2.9490   -0.4250   -0.0290 H   0  0  0  0  0  0  0  0  0  0  0  0
  1  2  1  0  0  0  0
  2  3  2  0  0  0  0
  2 11  1  0  0  0  0
  3  4  1  0  0  0  0
  3  5  1  0  0  0  0
  4 20  1  0  0  0  0
  5  6  1  0  0  0  0
  5  7  2  0  0  0  0
  7  8  1  0  0  0  0
  7  9  1  0  0  0  0
  9 10  1  0  0  0  0
  9 11  2  0  0  0  0
 10 13  2  0  0  0  0
 10 14  1  0  0  0  0
 11 12  1  0  0  0  0
 14 15  1  0  0  0  0
 14 16  2  0  0  0  0
 15 17  1  1  0  0  0
 15 18  1  0  0  0  0
 15 19  1  0  0  0  0
 16 24  1  0  0  0  0
 16 25  1  0  0  0  0
 18 36  1  0  0  0  0
 19 26  2  0  0  0  0
 19 27  1  0  0  0  0
 20 21  1  0  0  0  0
 20 22  1  0  0  0  0
 20 23  1  0  0  0  0
 26 28  1  0  0  0  0
 26 31  1  0  0  0  0
 27 29  2  0  0  0  0
 27 32  1  0  0  0  0
 28 30  2  0  0  0  0
 28 34  1  0  0  0  0
 29 30  1  0  0  0  0
 29 33  1  0  0  0  0
 30 35  1  0  0  0  0
M  END
>  <COMPND>
    UNNAMED

>  <AUTHOR>
    GENERATED BY OPEN BABEL 2.3.1

>  <MASTER>
        0    0    0    0    0    0    0    0   36    0   36    0

$$$$
