5_dl.pdb
 OpenBabel09221412193D

 36 37  0  0  0  0  0  0  0  0999 V2000
   -2.1450   -1.3430    1.4160 H   0  0  0  0  0  0  0  0  0  0  0  0
   -1.3930   -0.6710    1.0180 C   0  0  0  0  0  0  0  0  0  0  0  0
   -0.7930    0.3150    1.8040 C   0  0  0  0  0  0  0  0  0  0  0  0
   -1.0480    0.5550    3.1250 O   0  0  0  0  0  0  0  0  0  0  0  0
    0.1600    1.1650    1.2320 C   0  0  0  0  0  0  0  0  0  0  0  0
    0.6140    1.9470    1.8380 H   0  0  0  0  0  0  0  0  0  0  0  0
    0.5240    1.0290   -0.1090 C   0  0  0  0  0  0  0  0  0  0  0  0
    1.2500    1.7170   -0.5370 H   0  0  0  0  0  0  0  0  0  0  0  0
   -0.0630    0.0260   -0.8850 C   0  0  0  0  0  0  0  0  0  0  0  0
    0.3030   -0.1570   -2.3080 C   0  0  0  0  0  0  0  0  0  0  0  0
   -1.0340   -0.8100   -0.3270 C   0  0  0  0  0  0  0  0  0  0  0  0
   -1.5120   -1.5740   -0.9390 H   0  0  0  0  0  0  0  0  0  0  0  0
   -0.5700   -0.3740   -3.1410 O   0  0  0  0  0  0  0  0  0  0  0  0
    1.7500   -0.1200   -2.6700 C   0  0  0  0  0  0  0  0  0  0  0  0
    2.6860   -0.9960   -1.8710 C   0  0  0  0  0  0  0  0  0  0  0  0
    2.0620    0.6050   -3.7590 C   0  0  0  0  0  0  0  0  0  0  0  0
    2.1290   -1.7420   -1.2920 H   0  0  0  0  0  0  0  0  0  0  0  0
    3.3560   -0.1650   -0.9150 O   0  0  0  0  0  0  0  0  0  0  0  0
    3.7090   -1.7500   -2.7110 C   0  0  0  0  0  0  0  0  0  0  0  0
   -2.0270   -0.2640    3.7520 C   0  0  0  0  0  0  0  0  0  0  0  0
   -2.1160    0.0600    4.7940 H   0  0  0  0  0  0  0  0  0  0  0  0
   -1.7190   -1.3140    3.7550 H   0  0  0  0  0  0  0  0  0  0  0  0
   -3.0070   -0.1400    3.2800 H   0  0  0  0  0  0  0  0  0  0  0  0
    1.3060    1.1580   -4.3100 H   0  0  0  0  0  0  0  0  0  0  0  0
    3.0800    0.6600   -4.1320 H   0  0  0  0  0  0  0  0  0  0  0  0
    3.3520   -2.8940   -3.4490 C   0  0  0  0  0  0  0  0  0  0  0  0
    5.0440   -1.3070   -2.7910 C   0  0  0  0  0  0  0  0  0  0  0  0
    4.2960   -3.5650   -4.2340 C   0  0  0  0  0  0  0  0  0  0  0  0
    5.9860   -1.9820   -3.5720 C   0  0  0  0  0  0  0  0  0  0  0  0
    5.6110   -3.1090   -4.2950 C   0  0  0  0  0  0  0  0  0  0  0  0
    1.7470   -3.5390   -3.4200 Cl  0  0  0  0  0  0  0  0  0  0  0  0
    5.3610   -0.4220   -2.2410 H   0  0  0  0  0  0  0  0  0  0  0  0
    7.0110   -1.6220   -3.6150 H   0  0  0  0  0  0  0  0  0  0  0  0
    4.0100   -4.4460   -4.8040 H   0  0  0  0  0  0  0  0  0  0  0  0
    6.3420   -3.6330   -4.9060 H   0  0  0  0  0  0  0  0  0  0  0  0
    2.9280   -0.3250   -0.0570 H   0  0  0  0  0  0  0  0  0  0  0  0
  1  2  1  0  0  0  0
  2  3  2  0  0  0  0
  2 11  1  0  0  0  0
  3  4  1  0  0  0  0
  3  5  1  0  0  0  0
  4 20  1  0  0  0  0
  5  6  1  0  0  0  0
  5  7  2  0  0  0  0
  7  8  1  0  0  0  0
  7  9  1  0  0  0  0
  9 10  1  0  0  0  0
  9 11  2  0  0  0  0
 10 13  2  0  0  0  0
 10 14  1  0  0  0  0
 11 12  1  0  0  0  0
 14 15  1  0  0  0  0
 14 16  2  0  0  0  0
 15 17  1  0  0  0  0
 15 18  1  0  0  0  0
 15 19  1  0  0  0  0
 16 24  1  0  0  0  0
 16 25  1  0  0  0  0
 18 36  1  0  0  0  0
 19 26  2  0  0  0  0
 19 27  1  0  0  0  0
 20 21  1  0  0  0  0
 20 22  1  0  0  0  0
 20 23  1  0  0  0  0
 26 28  1  0  0  0  0
 26 31  1  0  0  0  0
 27 29  2  0  0  0  0
 27 32  1  0  0  0  0
 28 30  2  0  0  0  0
 28 34  1  0  0  0  0
 29 30  1  0  0  0  0
 29 33  1  0  0  0  0
 30 35  1  0  0  0  0
M  END