5ba.pdb
 OpenBabel02251613503D

 41 42  0  0  1  0  0  0  0  0999 V2000
   -2.1480   -1.3590    1.4490 H   0  0  0  0  0  0  0  0  0  0  0  0
   -1.4000   -0.6850    1.0430 C   0  0  0  0  0  0  0  0  0  0  0  0
   -0.8160    0.3220    1.8150 C   0  0  0  0  0  0  0  0  0  0  0  0
   -1.0860    0.5860    3.1290 O   0  0  0  0  0  0  0  0  0  0  0  0
    0.1320    1.1700    1.2350 C   0  0  0  0  0  0  0  0  0  0  0  0
    0.5740    1.9650    1.8300 H   0  0  0  0  0  0  0  0  0  0  0  0
    0.5080    1.0120   -0.1010 C   0  0  0  0  0  0  0  0  0  0  0  0
    1.2310    1.6980   -0.5360 H   0  0  0  0  0  0  0  0  0  0  0  0
   -0.0630   -0.0110   -0.8620 C   0  0  0  0  0  0  0  0  0  0  0  0
    0.3070   -0.2070   -2.2820 C   0  0  0  0  0  0  0  0  0  0  0  0
   -1.0310   -0.8460   -0.2970 C   0  0  0  0  0  0  0  0  0  0  0  0
   -1.4950   -1.6270   -0.8960 H   0  0  0  0  0  0  0  0  0  0  0  0
   -0.5630   -0.4190   -3.1190 O   0  0  0  0  0  0  0  0  0  0  0  0
    1.7560   -0.1720   -2.6430 C   0  0  0  0  0  0  0  0  0  0  0  0
    2.6800   -1.0740   -1.8480 C   0  0  2  0  0  0  0  0  0  0  0  0
    2.0730    0.5680   -3.7200 C   0  0  0  0  0  0  0  0  0  0  0  0
    2.0770   -1.8620   -1.3750 H   0  0  0  0  0  0  0  0  0  0  0  0
    3.2910   -0.2470   -0.8350 O   0  0  0  0  0  0  0  0  0  0  0  0
    3.7360   -1.7660   -2.6970 C   0  0  0  0  0  0  0  0  0  0  0  0
    3.5030   -0.8380    0.3700 C   0  0  0  0  0  0  0  0  0  0  0  0
    3.2400   -1.9970    0.6530 O   0  0  0  0  0  0  0  0  0  0  0  0
    4.0950    0.1430    1.3370 C   0  0  0  0  0  0  0  0  0  0  0  0
   -2.0480   -0.2450    3.7680 C   0  0  0  0  0  0  0  0  0  0  0  0
   -2.1460    0.0950    4.8040 H   0  0  0  0  0  0  0  0  0  0  0  0
   -1.7160   -1.2880    3.7890 H   0  0  0  0  0  0  0  0  0  0  0  0
   -3.0290   -0.1500    3.2920 H   0  0  0  0  0  0  0  0  0  0  0  0
    1.3180    1.1320   -4.2630 H   0  0  0  0  0  0  0  0  0  0  0  0
    3.0890    0.6210   -4.0990 H   0  0  0  0  0  0  0  0  0  0  0  0
    3.3490   -2.8320   -3.5180 C   0  0  0  0  0  0  0  0  0  0  0  0
    5.0860   -1.3760   -2.7140 C   0  0  0  0  0  0  0  0  0  0  0  0
    4.2610   -3.4960   -4.3340 C   0  0  0  0  0  0  0  0  0  0  0  0
    6.0090   -2.0460   -3.5240 C   0  0  0  0  0  0  0  0  0  0  0  0
    5.5970   -3.1030   -4.3350 C   0  0  0  0  0  0  0  0  0  0  0  0
    2.0690   -3.2310   -3.5300 F   0  0  0  0  0  0  0  0  0  0  0  0
    5.4340   -0.5500   -2.1000 H   0  0  0  0  0  0  0  0  0  0  0  0
    7.0530   -1.7410   -3.5220 H   0  0  0  0  0  0  0  0  0  0  0  0
    3.9220   -4.3140   -4.9610 H   0  0  0  0  0  0  0  0  0  0  0  0
    6.3150   -3.6190   -4.9660 H   0  0  0  0  0  0  0  0  0  0  0  0
    4.3550    1.0790    0.8330 H   0  0  0  0  0  0  0  0  0  0  0  0
    5.0080   -0.2780    1.7640 H   0  0  0  0  0  0  0  0  0  0  0  0
    3.3680    0.3600    2.1240 H   0  0  0  0  0  0  0  0  0  0  0  0
  1  2  1  0  0  0  0
  2  3  2  0  0  0  0
  2 11  1  0  0  0  0
  3  4  1  0  0  0  0
  3  5  1  0  0  0  0
  4 23  1  0  0  0  0
  5  6  1  0  0  0  0
  5  7  2  0  0  0  0
  7  8  1  0  0  0  0
  7  9  1  0  0  0  0
  9 10  1  0  0  0  0
  9 11  2  0  0  0  0
 10 13  2  0  0  0  0
 10 14  1  0  0  0  0
 11 12  1  0  0  0  0
 14 15  1  0  0  0  0
 14 16  2  0  0  0  0
 15 17  1  1  0  0  0
 15 18  1  0  0  0  0
 15 19  1  0  0  0  0
 16 27  1  0  0  0  0
 16 28  1  0  0  0  0
 18 20  1  0  0  0  0
 19 29  2  0  0  0  0
 19 30  1  0  0  0  0
 20 21  2  0  0  0  0
 20 22  1  0  0  0  0
 22 39  1  0  0  0  0
 22 40  1  0  0  0  0
 22 41  1  0  0  0  0
 23 24  1  0  0  0  0
 23 25  1  0  0  0  0
 23 26  1  0  0  0  0
 29 31  1  0  0  0  0
 29 34  1  0  0  0  0
 30 32  2  0  0  0  0
 30 35  1  0  0  0  0
 31 33  2  0  0  0  0
 31 37  1  0  0  0  0
 32 33  1  0  0  0  0
 32 36  1  0  0  0  0
 33 38  1  0  0  0  0
M  END
>  <COMPND>
    UNNAMED

>  <AUTHOR>
    GENERATED BY OPEN BABEL 2.3.1

>  <MASTER>
        0    0    0    0    0    0    0    0   41    0   41    0

$$$$
