5bb.pdb
 OpenBabel02251613503D

 41 42  0  0  1  0  0  0  0  0999 V2000
   -2.1780   -1.3040    1.4260 H   0  0  0  0  0  0  0  0  0  0  0  0
   -1.4260   -0.6300    1.0290 C   0  0  0  0  0  0  0  0  0  0  0  0
   -0.8200    0.3480    1.8210 C   0  0  0  0  0  0  0  0  0  0  0  0
   -1.0700    0.5790    3.1460 O   0  0  0  0  0  0  0  0  0  0  0  0
    0.1310    1.2010    1.2520 C   0  0  0  0  0  0  0  0  0  0  0  0
    0.5880    1.9760    1.8630 H   0  0  0  0  0  0  0  0  0  0  0  0
    0.4900    1.0740   -0.0910 C   0  0  0  0  0  0  0  0  0  0  0  0
    1.2160    1.7620   -0.5170 H   0  0  0  0  0  0  0  0  0  0  0  0
   -0.0990    0.0760   -0.8700 C   0  0  0  0  0  0  0  0  0  0  0  0
    0.2630   -0.0970   -2.2940 C   0  0  0  0  0  0  0  0  0  0  0  0
   -1.0720   -0.7610   -0.3180 C   0  0  0  0  0  0  0  0  0  0  0  0
   -1.5520   -1.5210   -0.9320 H   0  0  0  0  0  0  0  0  0  0  0  0
   -0.6160   -0.2570   -3.1340 O   0  0  0  0  0  0  0  0  0  0  0  0
    1.7130   -0.1160   -2.6570 C   0  0  0  0  0  0  0  0  0  0  0  0
    2.6160   -1.0150   -1.8340 C   0  0  2  0  0  0  0  0  0  0  0  0
    2.0440    0.5760   -3.7630 C   0  0  0  0  0  0  0  0  0  0  0  0
    1.9970   -1.7610   -1.3220 H   0  0  0  0  0  0  0  0  0  0  0  0
    3.2450   -0.1750   -0.8390 O   0  0  0  0  0  0  0  0  0  0  0  0
    3.6640   -1.7550   -2.6660 C   0  0  0  0  0  0  0  0  0  0  0  0
    3.5270   -0.7800    0.3460 C   0  0  0  0  0  0  0  0  0  0  0  0
    3.3280   -1.9570    0.6090 O   0  0  0  0  0  0  0  0  0  0  0  0
    4.1100    0.2050    1.3140 C   0  0  0  0  0  0  0  0  0  0  0  0
   -2.0190   -0.2710    3.7790 C   0  0  0  0  0  0  0  0  0  0  0  0
   -2.0930    0.0340    4.8270 H   0  0  0  0  0  0  0  0  0  0  0  0
   -1.6890   -1.3150    3.7580 H   0  0  0  0  0  0  0  0  0  0  0  0
   -3.0100   -0.1590    3.3280 H   0  0  0  0  0  0  0  0  0  0  0  0
    1.3000    1.1400   -4.3200 H   0  0  0  0  0  0  0  0  0  0  0  0
    3.0560    0.5930   -4.1520 H   0  0  0  0  0  0  0  0  0  0  0  0
    3.3430   -2.9360   -3.3650 C   0  0  0  0  0  0  0  0  0  0  0  0
    4.9780   -1.2560   -2.7820 C   0  0  0  0  0  0  0  0  0  0  0  0
    4.3020   -3.6000   -4.1360 C   0  0  0  0  0  0  0  0  0  0  0  0
    5.9360   -1.9210   -3.5510 C   0  0  0  0  0  0  0  0  0  0  0  0
    5.5930   -3.0900   -4.2220 C   0  0  0  0  0  0  0  0  0  0  0  0
    1.7570   -3.6240   -3.3200 Cl  0  0  0  0  0  0  0  0  0  0  0  0
    5.2680   -0.3360   -2.2760 H   0  0  0  0  0  0  0  0  0  0  0  0
    6.9440   -1.5210   -3.6220 H   0  0  0  0  0  0  0  0  0  0  0  0
    4.0410   -4.5100   -4.6690 H   0  0  0  0  0  0  0  0  0  0  0  0
    6.7740   -3.9060   -5.1720 Cl  0  0  0  0  0  0  0  0  0  0  0  0
    4.3010    1.1650    0.8260 H   0  0  0  0  0  0  0  0  0  0  0  0
    5.0600   -0.1800    1.6910 H   0  0  0  0  0  0  0  0  0  0  0  0
    3.4070    0.3630    2.1350 H   0  0  0  0  0  0  0  0  0  0  0  0
  1  2  1  0  0  0  0
  2  3  2  0  0  0  0
  2 11  1  0  0  0  0
  3  4  1  0  0  0  0
  3  5  1  0  0  0  0
  4 23  1  0  0  0  0
  5  6  1  0  0  0  0
  5  7  2  0  0  0  0
  7  8  1  0  0  0  0
  7  9  1  0  0  0  0
  9 10  1  0  0  0  0
  9 11  2  0  0  0  0
 10 13  2  0  0  0  0
 10 14  1  0  0  0  0
 11 12  1  0  0  0  0
 14 15  1  0  0  0  0
 14 16  2  0  0  0  0
 15 17  1  1  0  0  0
 15 18  1  0  0  0  0
 15 19  1  0  0  0  0
 16 27  1  0  0  0  0
 16 28  1  0  0  0  0
 18 20  1  0  0  0  0
 19 29  2  0  0  0  0
 19 30  1  0  0  0  0
 20 21  2  0  0  0  0
 20 22  1  0  0  0  0
 22 39  1  0  0  0  0
 22 40  1  0  0  0  0
 22 41  1  0  0  0  0
 23 24  1  0  0  0  0
 23 25  1  0  0  0  0
 23 26  1  0  0  0  0
 29 31  1  0  0  0  0
 29 34  1  0  0  0  0
 30 32  2  0  0  0  0
 30 35  1  0  0  0  0
 31 33  2  0  0  0  0
 31 37  1  0  0  0  0
 32 33  1  0  0  0  0
 32 36  1  0  0  0  0
 33 38  1  0  0  0  0
M  END
>  <COMPND>
    UNNAMED

>  <AUTHOR>
    GENERATED BY OPEN BABEL 2.3.1

>  <MASTER>
        0    0    0    0    0    0    0    0   41    0   41    0

$$$$
