5be.pdb
 OpenBabel02251613503D

 46 46  0  0  1  0  0  0  0  0999 V2000
   -2.0680   -1.4540    1.4910 H   0  0  0  0  0  0  0  0  0  0  0  0
   -1.3580   -0.7700    1.0380 C   0  0  0  0  0  0  0  0  0  0  0  0
   -0.8710    0.3470    1.7190 C   0  0  0  0  0  0  0  0  0  0  0  0
   -1.1970    0.7160    2.9950 O   0  0  0  0  0  0  0  0  0  0  0  0
    0.0260    1.2050    1.0760 C   0  0  0  0  0  0  0  0  0  0  0  0
    0.3910    2.0870    1.5990 H   0  0  0  0  0  0  0  0  0  0  0  0
    0.4570    0.9430   -0.2260 C   0  0  0  0  0  0  0  0  0  0  0  0
    1.1450    1.6340   -0.7060 H   0  0  0  0  0  0  0  0  0  0  0  0
   -0.0100   -0.1930   -0.8940 C   0  0  0  0  0  0  0  0  0  0  0  0
    0.4320   -0.5220   -2.2710 C   0  0  0  0  0  0  0  0  0  0  0  0
   -0.9340   -1.0360   -0.2680 C   0  0  0  0  0  0  0  0  0  0  0  0
   -1.3190   -1.9090   -0.7930 H   0  0  0  0  0  0  0  0  0  0  0  0
   -0.3410   -1.0320   -3.0750 O   0  0  0  0  0  0  0  0  0  0  0  0
    1.8570   -0.2660   -2.6270 C   0  0  0  0  0  0  0  0  0  0  0  0
    2.8970   -1.0620   -1.8650 C   0  0  2  0  0  0  0  0  0  0  0  0
    2.0620    0.5590   -3.6680 C   0  0  0  0  0  0  0  0  0  0  0  0
    2.3930   -1.9100   -1.3820 H   0  0  0  0  0  0  0  0  0  0  0  0
    3.4520   -0.1560   -0.8850 O   0  0  0  0  0  0  0  0  0  0  0  0
    4.0490   -1.6530   -2.7460 C   0  0  0  0  0  0  0  0  0  0  0  0
    3.4600   -0.5810    0.4070 C   0  0  0  0  0  0  0  0  0  0  0  0
    3.0770   -1.6730    0.8010 O   0  0  0  0  0  0  0  0  0  0  0  0
    4.0330    0.4730    1.3050 C   0  0  0  0  0  0  0  0  0  0  0  0
   -2.0200   -0.1820    3.7310 C   0  0  0  0  0  0  0  0  0  0  0  0
   -2.1400    0.2250    4.7390 H   0  0  0  0  0  0  0  0  0  0  0  0
   -1.5500   -1.1660    3.8230 H   0  0  0  0  0  0  0  0  0  0  0  0
   -3.0160   -0.2590    3.2820 H   0  0  0  0  0  0  0  0  0  0  0  0
    1.2310    1.0330   -4.1860 H   0  0  0  0  0  0  0  0  0  0  0  0
    3.0570    0.7800   -4.0360 H   0  0  0  0  0  0  0  0  0  0  0  0
    3.4820   -2.6540   -3.7860 C   0  0  0  0  0  0  0  0  0  0  0  0
    5.1260   -2.3100   -1.8430 C   0  0  0  0  0  0  0  0  0  0  0  0
    4.5450   -0.8220   -3.2640 H   0  0  0  0  0  0  0  0  0  0  0  0
    3.5540   -3.6800   -3.4080 H   0  0  0  0  0  0  0  0  0  0  0  0
    4.1690   -2.5610   -5.1440 C   0  0  0  0  0  0  0  0  0  0  0  0
    2.4150   -2.4780   -3.9590 H   0  0  0  0  0  0  0  0  0  0  0  0
    4.6670   -3.0910   -1.2260 H   0  0  0  0  0  0  0  0  0  0  0  0
    5.5260   -1.5570   -1.1540 H   0  0  0  0  0  0  0  0  0  0  0  0
    6.3150   -2.9040   -2.5820 C   0  0  0  0  0  0  0  0  0  0  0  0
    6.0300   -3.7920   -3.1530 H   0  0  0  0  0  0  0  0  0  0  0  0
    7.0830   -3.2140   -1.8650 H   0  0  0  0  0  0  0  0  0  0  0  0
    6.7650   -2.1730   -3.2590 H   0  0  0  0  0  0  0  0  0  0  0  0
    5.2310   -2.8060   -5.0890 H   0  0  0  0  0  0  0  0  0  0  0  0
    4.0720   -1.5540   -5.5610 H   0  0  0  0  0  0  0  0  0  0  0  0
    3.7030   -3.2610   -5.8460 H   0  0  0  0  0  0  0  0  0  0  0  0
    4.2050    1.4030    0.7550 H   0  0  0  0  0  0  0  0  0  0  0  0
    4.9860    0.1240    1.7100 H   0  0  0  0  0  0  0  0  0  0  0  0
    3.3260    0.6820    2.1120 H   0  0  0  0  0  0  0  0  0  0  0  0
  1  2  1  0  0  0  0
  2  3  2  0  0  0  0
  2 11  1  0  0  0  0
  3  4  1  0  0  0  0
  3  5  1  0  0  0  0
  4 23  1  0  0  0  0
  5  6  1  0  0  0  0
  5  7  2  0  0  0  0
  7  8  1  0  0  0  0
  7  9  1  0  0  0  0
  9 10  1  0  0  0  0
  9 11  2  0  0  0  0
 10 13  2  0  0  0  0
 10 14  1  0  0  0  0
 11 12  1  0  0  0  0
 14 15  1  0  0  0  0
 14 16  2  0  0  0  0
 15 17  1  1  0  0  0
 15 18  1  0  0  0  0
 15 19  1  0  0  0  0
 16 27  1  0  0  0  0
 16 28  1  0  0  0  0
 18 20  1  0  0  0  0
 19 29  1  0  0  0  0
 19 30  1  0  0  0  0
 19 31  1  0  0  0  0
 20 21  2  0  0  0  0
 20 22  1  0  0  0  0
 22 44  1  0  0  0  0
 22 45  1  0  0  0  0
 22 46  1  0  0  0  0
 23 24  1  0  0  0  0
 23 25  1  0  0  0  0
 23 26  1  0  0  0  0
 29 32  1  0  0  0  0
 29 33  1  0  0  0  0
 29 34  1  0  0  0  0
 30 35  1  0  0  0  0
 30 36  1  0  0  0  0
 30 37  1  0  0  0  0
 33 41  1  0  0  0  0
 33 42  1  0  0  0  0
 33 43  1  0  0  0  0
 37 38  1  0  0  0  0
 37 39  1  0  0  0  0
 37 40  1  0  0  0  0
M  END
>  <COMPND>
    UNNAMED

>  <AUTHOR>
    GENERATED BY OPEN BABEL 2.3.1

>  <MASTER>
        0    0    0    0    0    0    0    0   46    0   46    0

$$$$
