5bf.pdb
 OpenBabel02251613503D

 47 48  0  0  1  0  0  0  0  0999 V2000
   -2.1400   -1.4520    1.5890 H   0  0  0  0  0  0  0  0  0  0  0  0
   -1.4150   -0.7780    1.1440 C   0  0  0  0  0  0  0  0  0  0  0  0
   -0.8890    0.3080    1.8450 C   0  0  0  0  0  0  0  0  0  0  0  0
   -1.1940    0.6590    3.1310 O   0  0  0  0  0  0  0  0  0  0  0  0
    0.0310    1.1500    1.2150 C   0  0  0  0  0  0  0  0  0  0  0  0
    0.4300    2.0060    1.7540 H   0  0  0  0  0  0  0  0  0  0  0  0
    0.4400    0.9060   -0.0990 C   0  0  0  0  0  0  0  0  0  0  0  0
    1.1430    1.5890   -0.5660 H   0  0  0  0  0  0  0  0  0  0  0  0
   -0.0690   -0.1970   -0.7910 C   0  0  0  0  0  0  0  0  0  0  0  0
    0.3380   -0.5050   -2.1860 C   0  0  0  0  0  0  0  0  0  0  0  0
   -1.0110   -1.0270   -0.1720 C   0  0  0  0  0  0  0  0  0  0  0  0
   -1.4280   -1.8750   -0.7110 H   0  0  0  0  0  0  0  0  0  0  0  0
   -0.4270   -1.0690   -2.9610 O   0  0  0  0  0  0  0  0  0  0  0  0
    1.7240   -0.1550   -2.6030 C   0  0  0  0  0  0  0  0  0  0  0  0
    2.8360   -0.9620   -1.9690 C   0  0  2  0  0  0  0  0  0  0  0  0
    1.8330    0.7720   -3.5700 C   0  0  0  0  0  0  0  0  0  0  0  0
    2.3910   -1.8580   -1.5160 H   0  0  0  0  0  0  0  0  0  0  0  0
    3.4300   -0.1080   -0.9660 O   0  0  0  0  0  0  0  0  0  0  0  0
    3.9420   -1.4400   -2.9560 C   0  0  0  0  0  0  0  0  0  0  0  0
    3.5510   -0.6250    0.2860 C   0  0  0  0  0  0  0  0  0  0  0  0
    3.2370   -1.7580    0.6230 O   0  0  0  0  0  0  0  0  0  0  0  0
    4.1330    0.3900    1.2220 C   0  0  0  0  0  0  0  0  0  0  0  0
   -2.0860   -0.1950    3.8370 C   0  0  0  0  0  0  0  0  0  0  0  0
   -2.2010    0.2040    4.8490 H   0  0  0  0  0  0  0  0  0  0  0  0
   -1.6780   -1.2080    3.9230 H   0  0  0  0  0  0  0  0  0  0  0  0
   -3.0750   -0.2050    3.3670 H   0  0  0  0  0  0  0  0  0  0  0  0
    0.9550    1.2520   -3.9950 H   0  0  0  0  0  0  0  0  0  0  0  0
    2.7960    1.0710   -3.9680 H   0  0  0  0  0  0  0  0  0  0  0  0
    3.3610   -2.3400   -4.0650 C   0  0  0  0  0  0  0  0  0  0  0  0
    5.0720   -2.1850   -2.2150 C   0  0  0  0  0  0  0  0  0  0  0  0
    4.4040   -0.5590   -3.4220 H   0  0  0  0  0  0  0  0  0  0  0  0
    2.8420   -3.1940   -3.6110 H   0  0  0  0  0  0  0  0  0  0  0  0
    4.4410   -2.8570   -5.0120 C   0  0  0  0  0  0  0  0  0  0  0  0
    2.6170   -1.7970   -4.6570 H   0  0  0  0  0  0  0  0  0  0  0  0
    4.6520   -3.0260   -1.6490 H   0  0  0  0  0  0  0  0  0  0  0  0
    5.5550   -1.5200   -1.4900 H   0  0  0  0  0  0  0  0  0  0  0  0
    6.1440   -2.7080   -3.1690 C   0  0  0  0  0  0  0  0  0  0  0  0
    5.5470   -3.5860   -4.2610 C   0  0  0  0  0  0  0  0  0  0  0  0
    4.8700   -2.0160   -5.5700 H   0  0  0  0  0  0  0  0  0  0  0  0
    3.9910   -3.5320   -5.7490 H   0  0  0  0  0  0  0  0  0  0  0  0
    6.8900   -3.2790   -2.6050 H   0  0  0  0  0  0  0  0  0  0  0  0
    6.6690   -1.8610   -3.6260 H   0  0  0  0  0  0  0  0  0  0  0  0
    6.3330   -3.8900   -4.9620 H   0  0  0  0  0  0  0  0  0  0  0  0
    5.1440   -4.5040   -3.8140 H   0  0  0  0  0  0  0  0  0  0  0  0
    4.3240    1.3350    0.7040 H   0  0  0  0  0  0  0  0  0  0  0  0
    5.0800    0.0150    1.6170 H   0  0  0  0  0  0  0  0  0  0  0  0
    3.4260    0.5800    2.0330 H   0  0  0  0  0  0  0  0  0  0  0  0
  1  2  1  0  0  0  0
  2  3  2  0  0  0  0
  2 11  1  0  0  0  0
  3  4  1  0  0  0  0
  3  5  1  0  0  0  0
  4 23  1  0  0  0  0
  5  6  1  0  0  0  0
  5  7  2  0  0  0  0
  7  8  1  0  0  0  0
  7  9  1  0  0  0  0
  9 10  1  0  0  0  0
  9 11  2  0  0  0  0
 10 13  2  0  0  0  0
 10 14  1  0  0  0  0
 11 12  1  0  0  0  0
 14 15  1  0  0  0  0
 14 16  2  0  0  0  0
 15 17  1  1  0  0  0
 15 18  1  0  0  0  0
 15 19  1  0  0  0  0
 16 27  1  0  0  0  0
 16 28  1  0  0  0  0
 18 20  1  0  0  0  0
 19 29  1  0  0  0  0
 19 30  1  0  0  0  0
 19 31  1  0  0  0  0
 20 21  2  0  0  0  0
 20 22  1  0  0  0  0
 22 45  1  0  0  0  0
 22 46  1  0  0  0  0
 22 47  1  0  0  0  0
 23 24  1  0  0  0  0
 23 25  1  0  0  0  0
 23 26  1  0  0  0  0
 29 32  1  0  0  0  0
 29 33  1  0  0  0  0
 29 34  1  0  0  0  0
 30 35  1  0  0  0  0
 30 36  1  0  0  0  0
 30 37  1  0  0  0  0
 33 38  1  0  0  0  0
 33 39  1  0  0  0  0
 33 40  1  0  0  0  0
 37 38  1  0  0  0  0
 37 41  1  0  0  0  0
 37 42  1  0  0  0  0
 38 43  1  0  0  0  0
 38 44  1  0  0  0  0
M  END
>  <COMPND>
    UNNAMED

>  <AUTHOR>
    GENERATED BY OPEN BABEL 2.3.1

>  <MASTER>
        0    0    0    0    0    0    0    0   47    0   47    0

$$$$
