5bh.pdb
 OpenBabel02251613503D

 43 44  0  0  1  0  0  0  0  0999 V2000
   -2.2300   -1.2380    1.4990 H   0  0  0  0  0  0  0  0  0  0  0  0
   -1.4670   -0.5940    1.0730 C   0  0  0  0  0  0  0  0  0  0  0  0
   -0.8610    0.4220    1.8150 C   0  0  0  0  0  0  0  0  0  0  0  0
   -1.1200    0.7270    3.1220 O   0  0  0  0  0  0  0  0  0  0  0  0
    0.1000    1.2350    1.2060 C   0  0  0  0  0  0  0  0  0  0  0  0
    0.5590    2.0400    1.7770 H   0  0  0  0  0  0  0  0  0  0  0  0
    0.4730    1.0280   -0.1240 C   0  0  0  0  0  0  0  0  0  0  0  0
    1.2100    1.6860   -0.5760 H   0  0  0  0  0  0  0  0  0  0  0  0
   -0.1140   -0.0090   -0.8520 C   0  0  0  0  0  0  0  0  0  0  0  0
    0.2680   -0.2840   -2.2590 C   0  0  0  0  0  0  0  0  0  0  0  0
   -1.1000   -0.8050   -0.2600 C   0  0  0  0  0  0  0  0  0  0  0  0
   -1.5800   -1.5970   -0.8320 H   0  0  0  0  0  0  0  0  0  0  0  0
   -0.5730   -0.6490   -3.0730 O   0  0  0  0  0  0  0  0  0  0  0  0
    1.7090   -0.1810   -2.6290 C   0  0  0  0  0  0  0  0  0  0  0  0
    2.6640   -1.0490   -1.8380 C   0  0  2  0  0  0  0  0  0  0  0  0
    1.9850    0.5700   -3.7100 C   0  0  0  0  0  0  0  0  0  0  0  0
    2.0830   -1.8480   -1.3580 H   0  0  0  0  0  0  0  0  0  0  0  0
    3.2730   -0.2130   -0.8350 O   0  0  0  0  0  0  0  0  0  0  0  0
    3.7260   -1.7300   -2.7020 C   0  0  0  0  0  0  0  0  0  0  0  0
    3.5190   -0.8120    0.3600 C   0  0  0  0  0  0  0  0  0  0  0  0
    3.2830   -1.9800    0.6340 O   0  0  0  0  0  0  0  0  0  0  0  0
    4.1060    0.1690    1.3290 C   0  0  0  0  0  0  0  0  0  0  0  0
   -2.0470   -0.1080    3.8060 C   0  0  0  0  0  0  0  0  0  0  0  0
   -2.1150    0.2450    4.8390 H   0  0  0  0  0  0  0  0  0  0  0  0
   -1.7000   -1.1460    3.8310 H   0  0  0  0  0  0  0  0  0  0  0  0
   -3.0450   -0.0340    3.3610 H   0  0  0  0  0  0  0  0  0  0  0  0
    1.2020    1.1010   -4.2460 H   0  0  0  0  0  0  0  0  0  0  0  0
    2.9940    0.6660   -4.0970 H   0  0  0  0  0  0  0  0  0  0  0  0
    3.3800   -2.8910   -3.4210 C   0  0  0  0  0  0  0  0  0  0  0  0
    5.0310   -1.2240   -2.8230 C   0  0  0  0  0  0  0  0  0  0  0  0
    4.3160   -3.5400   -4.2290 C   0  0  0  0  0  0  0  0  0  0  0  0
    5.9760   -1.8690   -3.6280 C   0  0  0  0  0  0  0  0  0  0  0  0
    5.6150   -3.0270   -4.3270 C   0  0  0  0  0  0  0  0  0  0  0  0
    5.3260   -0.3200   -2.2930 H   0  0  0  0  0  0  0  0  0  0  0  0
    6.9810   -1.4570   -3.6990 H   0  0  0  0  0  0  0  0  0  0  0  0
    4.0180   -4.4360   -4.7700 H   0  0  0  0  0  0  0  0  0  0  0  0
    6.6040   -3.7060   -5.1730 N   0  0  0  0  0  0  0  0  0  0  0  0
    2.3700   -3.2960   -3.3550 H   0  0  0  0  0  0  0  0  0  0  0  0
    6.2450   -4.7280   -5.7750 O   0  0  0  0  0  0  0  0  0  0  0  0
    7.7410   -3.2160   -5.2360 O   0  0  0  0  0  0  0  0  0  0  0  0
    4.3400    1.1160    0.8330 H   0  0  0  0  0  0  0  0  0  0  0  0
    5.0350   -0.2380    1.7370 H   0  0  0  0  0  0  0  0  0  0  0  0
    3.3870    0.3620    2.1290 H   0  0  0  0  0  0  0  0  0  0  0  0
  1  2  1  0  0  0  0
  2  3  2  0  0  0  0
  2 11  1  0  0  0  0
  3  4  1  0  0  0  0
  3  5  1  0  0  0  0
  4 23  1  0  0  0  0
  5  6  1  0  0  0  0
  5  7  2  0  0  0  0
  7  8  1  0  0  0  0
  7  9  1  0  0  0  0
  9 10  1  0  0  0  0
  9 11  2  0  0  0  0
 10 13  2  0  0  0  0
 10 14  1  0  0  0  0
 11 12  1  0  0  0  0
 14 15  1  0  0  0  0
 14 16  2  0  0  0  0
 15 17  1  1  0  0  0
 15 18  1  0  0  0  0
 15 19  1  0  0  0  0
 16 27  1  0  0  0  0
 16 28  1  0  0  0  0
 18 20  1  0  0  0  0
 19 29  2  0  0  0  0
 19 30  1  0  0  0  0
 20 21  2  0  0  0  0
 20 22  1  0  0  0  0
 22 41  1  0  0  0  0
 22 42  1  0  0  0  0
 22 43  1  0  0  0  0
 23 24  1  0  0  0  0
 23 25  1  0  0  0  0
 23 26  1  0  0  0  0
 29 31  1  0  0  0  0
 29 38  1  0  0  0  0
 30 32  2  0  0  0  0
 30 34  1  0  0  0  0
 31 33  2  0  0  0  0
 31 36  1  0  0  0  0
 32 33  1  0  0  0  0
 32 35  1  0  0  0  0
 33 37  1  0  0  0  0
 37 39  2  0  0  0  0
 37 40  2  0  0  0  0
M  END
>  <COMPND>
    UNNAMED

>  <AUTHOR>
    GENERATED BY OPEN BABEL 2.3.1

>  <MASTER>
        0    0    0    0    0    0    0    0   43    0   43    0

$$$$
