5bi.pdb
 OpenBabel02251613503D

 41 42  0  0  1  0  0  0  0  0999 V2000
   -2.2170   -1.3120    1.4030 H   0  0  0  0  0  0  0  0  0  0  0  0
   -1.4550   -0.6490    1.0080 C   0  0  0  0  0  0  0  0  0  0  0  0
   -0.8500    0.3330    1.7960 C   0  0  0  0  0  0  0  0  0  0  0  0
   -1.1110    0.5800    3.1150 O   0  0  0  0  0  0  0  0  0  0  0  0
    0.1140    1.1720    1.2280 C   0  0  0  0  0  0  0  0  0  0  0  0
    0.5720    1.9500    1.8350 H   0  0  0  0  0  0  0  0  0  0  0  0
    0.4880    1.0260   -0.1100 C   0  0  0  0  0  0  0  0  0  0  0  0
    1.2250    1.7040   -0.5310 H   0  0  0  0  0  0  0  0  0  0  0  0
   -0.1000    0.0240   -0.8860 C   0  0  0  0  0  0  0  0  0  0  0  0
    0.2860   -0.1800   -2.3020 C   0  0  0  0  0  0  0  0  0  0  0  0
   -1.0860   -0.7990   -0.3340 C   0  0  0  0  0  0  0  0  0  0  0  0
   -1.5650   -1.5630   -0.9430 H   0  0  0  0  0  0  0  0  0  0  0  0
   -0.5650   -0.4320   -3.1470 O   0  0  0  0  0  0  0  0  0  0  0  0
    1.7380   -0.1270   -2.6490 C   0  0  0  0  0  0  0  0  0  0  0  0
    2.6630   -1.0110   -1.8380 C   0  0  2  0  0  0  0  0  0  0  0  0
    2.0570    0.6220   -3.7200 C   0  0  0  0  0  0  0  0  0  0  0  0
    2.0530   -1.7780   -1.3380 H   0  0  0  0  0  0  0  0  0  0  0  0
    3.2550   -0.1770   -0.8250 O   0  0  0  0  0  0  0  0  0  0  0  0
    3.6970   -1.7360   -2.6790 C   0  0  0  0  0  0  0  0  0  0  0  0
    3.6980   -0.8240    0.2850 C   0  0  0  0  0  0  0  0  0  0  0  0
    3.6680   -2.0350    0.4500 O   0  0  0  0  0  0  0  0  0  0  0  0
    4.2040    0.1530    1.3010 C   0  0  0  0  0  0  0  0  0  0  0  0
   -2.0720   -0.2560    3.7490 C   0  0  0  0  0  0  0  0  0  0  0  0
   -2.1540    0.0610    4.7930 H   0  0  0  0  0  0  0  0  0  0  0  0
   -1.7490   -1.3030    3.7430 H   0  0  0  0  0  0  0  0  0  0  0  0
   -3.0580   -0.1430    3.2880 H   0  0  0  0  0  0  0  0  0  0  0  0
    1.2970    1.1770   -4.2660 H   0  0  0  0  0  0  0  0  0  0  0  0
    3.0750    0.7130   -4.0810 H   0  0  0  0  0  0  0  0  0  0  0  0
    3.3350   -2.9240   -3.3290 C   0  0  0  0  0  0  0  0  0  0  0  0
    5.0040   -1.2710   -2.8630 C   0  0  0  0  0  0  0  0  0  0  0  0
    4.2420   -3.6260   -4.1180 C   0  0  0  0  0  0  0  0  0  0  0  0
    5.9160   -1.9750   -3.6480 C   0  0  0  0  0  0  0  0  0  0  0  0
    5.5340   -3.1520   -4.2750 C   0  0  0  0  0  0  0  0  0  0  0  0
    2.0880   -3.3960   -3.1900 F   0  0  0  0  0  0  0  0  0  0  0  0
    5.4000   -0.1250   -2.2910 F   0  0  0  0  0  0  0  0  0  0  0  0
    7.1620   -1.5060   -3.8030 F   0  0  0  0  0  0  0  0  0  0  0  0
    3.8620   -4.7570   -4.7300 F   0  0  0  0  0  0  0  0  0  0  0  0
    6.4110   -3.8230   -5.0350 F   0  0  0  0  0  0  0  0  0  0  0  0
    4.3630    1.1370    0.8480 H   0  0  0  0  0  0  0  0  0  0  0  0
    5.1640   -0.1960    1.6900 H   0  0  0  0  0  0  0  0  0  0  0  0
    3.4750    0.2460    2.1090 H   0  0  0  0  0  0  0  0  0  0  0  0
  1  2  1  0  0  0  0
  2  3  2  0  0  0  0
  2 11  1  0  0  0  0
  3  4  1  0  0  0  0
  3  5  1  0  0  0  0
  4 23  1  0  0  0  0
  5  6  1  0  0  0  0
  5  7  2  0  0  0  0
  7  8  1  0  0  0  0
  7  9  1  0  0  0  0
  9 10  1  0  0  0  0
  9 11  2  0  0  0  0
 10 13  2  0  0  0  0
 10 14  1  0  0  0  0
 11 12  1  0  0  0  0
 14 15  1  0  0  0  0
 14 16  2  0  0  0  0
 15 17  1  1  0  0  0
 15 18  1  0  0  0  0
 15 19  1  0  0  0  0
 16 27  1  0  0  0  0
 16 28  1  0  0  0  0
 18 20  1  0  0  0  0
 19 29  2  0  0  0  0
 19 30  1  0  0  0  0
 20 21  2  0  0  0  0
 20 22  1  0  0  0  0
 22 39  1  0  0  0  0
 22 40  1  0  0  0  0
 22 41  1  0  0  0  0
 23 24  1  0  0  0  0
 23 25  1  0  0  0  0
 23 26  1  0  0  0  0
 29 31  1  0  0  0  0
 29 34  1  0  0  0  0
 30 32  2  0  0  0  0
 30 35  1  0  0  0  0
 31 33  2  0  0  0  0
 31 37  1  0  0  0  0
 32 33  1  0  0  0  0
 32 36  1  0  0  0  0
 33 38  1  0  0  0  0
M  END
>  <COMPND>
    UNNAMED

>  <AUTHOR>
    GENERATED BY OPEN BABEL 2.3.1

>  <MASTER>
        0    0    0    0    0    0    0    0   41    0   41    0

$$$$
