5ch.pdb
 OpenBabel02251613503D

 47 48  0  0  1  0  0  0  0  0999 V2000
   -1.6710   -1.4040    1.6970 H   0  0  0  0  0  0  0  0  0  0  0  0
   -1.1100   -0.6350    1.1810 C   0  0  0  0  0  0  0  0  0  0  0  0
   -0.6650    0.4940    1.8770 C   0  0  0  0  0  0  0  0  0  0  0  0
   -0.9000    0.7660    3.1970 O   0  0  0  0  0  0  0  0  0  0  0  0
    0.1060    1.4550    1.2180 C   0  0  0  0  0  0  0  0  0  0  0  0
    0.4510    2.3330    1.7600 H   0  0  0  0  0  0  0  0  0  0  0  0
    0.4200    1.3060   -0.1310 C   0  0  0  0  0  0  0  0  0  0  0  0
    0.9990    2.0740   -0.6380 H   0  0  0  0  0  0  0  0  0  0  0  0
   -0.0320    0.1770   -0.8220 C   0  0  0  0  0  0  0  0  0  0  0  0
    0.2640    0.0750   -2.2650 C   0  0  0  0  0  0  0  0  0  0  0  0
   -0.8090   -0.7950   -0.1790 C   0  0  0  0  0  0  0  0  0  0  0  0
   -1.1670   -1.8960   -0.9120 O   0  0  0  0  0  0  0  0  0  0  0  0
   -0.6470    0.1770   -3.0810 O   0  0  0  0  0  0  0  0  0  0  0  0
    1.6950   -0.0840   -2.6780 C   0  0  0  0  0  0  0  0  0  0  0  0
    2.5660   -1.0110   -1.8530 C   0  0  2  0  0  0  0  0  0  0  0  0
    2.0370    0.5500   -3.8140 C   0  0  0  0  0  0  0  0  0  0  0  0
    1.9250   -1.7890   -1.4140 H   0  0  0  0  0  0  0  0  0  0  0  0
    3.1630   -0.2180   -0.8080 O   0  0  0  0  0  0  0  0  0  0  0  0
    3.6480   -1.7230   -2.6700 C   0  0  0  0  0  0  0  0  0  0  0  0
    3.4110   -0.8700    0.3590 C   0  0  0  0  0  0  0  0  0  0  0  0
    3.1520   -2.0420    0.5900 O   0  0  0  0  0  0  0  0  0  0  0  0
    4.0250    0.0640    1.3580 C   0  0  0  0  0  0  0  0  0  0  0  0
   -1.8630   -0.0440    3.8600 C   0  0  0  0  0  0  0  0  0  0  0  0
   -2.0150    0.3700    4.8620 H   0  0  0  0  0  0  0  0  0  0  0  0
   -1.4990   -1.0700    3.9750 H   0  0  0  0  0  0  0  0  0  0  0  0
   -2.8270   -0.0220    3.3410 H   0  0  0  0  0  0  0  0  0  0  0  0
    1.3210    1.1580   -4.3630 H   0  0  0  0  0  0  0  0  0  0  0  0
    3.0330    0.4830   -4.2390 H   0  0  0  0  0  0  0  0  0  0  0  0
    3.3210   -2.9030   -3.3620 C   0  0  0  0  0  0  0  0  0  0  0  0
    4.9530   -1.2100   -2.7860 C   0  0  0  0  0  0  0  0  0  0  0  0
    4.2730   -3.5620   -4.1450 C   0  0  0  0  0  0  0  0  0  0  0  0
    5.9120   -1.8620   -3.5660 C   0  0  0  0  0  0  0  0  0  0  0  0
    5.5670   -3.0380   -4.2450 C   0  0  0  0  0  0  0  0  0  0  0  0
    5.2310   -0.2880   -2.2770 H   0  0  0  0  0  0  0  0  0  0  0  0
    6.9130   -1.4410   -3.6390 H   0  0  0  0  0  0  0  0  0  0  0  0
    3.9890   -4.4720   -4.6700 H   0  0  0  0  0  0  0  0  0  0  0  0
    6.5680   -3.7200   -5.0740 N   0  0  0  0  0  0  0  0  0  0  0  0
    2.3140   -3.3150   -3.2970 H   0  0  0  0  0  0  0  0  0  0  0  0
    6.2230   -4.7540   -5.6630 O   0  0  0  0  0  0  0  0  0  0  0  0
    7.7000   -3.2190   -5.1400 O   0  0  0  0  0  0  0  0  0  0  0  0
    4.4530    0.9380    0.8590 H   0  0  0  0  0  0  0  0  0  0  0  0
    4.8360   -0.4510    1.8800 H   0  0  0  0  0  0  0  0  0  0  0  0
    3.2620    0.3900    2.0680 H   0  0  0  0  0  0  0  0  0  0  0  0
   -2.3810   -2.5330   -0.5260 C   0  0  0  0  0  0  0  0  0  0  0  0
   -2.6910   -3.1890   -1.3460 H   0  0  0  0  0  0  0  0  0  0  0  0
   -3.1850   -1.8080   -0.3560 H   0  0  0  0  0  0  0  0  0  0  0  0
   -2.2240   -3.1580    0.3590 H   0  0  0  0  0  0  0  0  0  0  0  0
  1  2  1  0  0  0  0
  2  3  2  0  0  0  0
  2 11  1  0  0  0  0
  3  4  1  0  0  0  0
  3  5  1  0  0  0  0
  4 23  1  0  0  0  0
  5  6  1  0  0  0  0
  5  7  2  0  0  0  0
  7  8  1  0  0  0  0
  7  9  1  0  0  0  0
  9 10  1  0  0  0  0
  9 11  2  0  0  0  0
 10 13  2  0  0  0  0
 10 14  1  0  0  0  0
 11 12  1  0  0  0  0
 12 44  1  0  0  0  0
 14 15  1  0  0  0  0
 14 16  2  0  0  0  0
 15 17  1  1  0  0  0
 15 18  1  0  0  0  0
 15 19  1  0  0  0  0
 16 27  1  0  0  0  0
 16 28  1  0  0  0  0
 18 20  1  0  0  0  0
 19 29  2  0  0  0  0
 19 30  1  0  0  0  0
 20 21  2  0  0  0  0
 20 22  1  0  0  0  0
 22 41  1  0  0  0  0
 22 42  1  0  0  0  0
 22 43  1  0  0  0  0
 23 24  1  0  0  0  0
 23 25  1  0  0  0  0
 23 26  1  0  0  0  0
 29 31  1  0  0  0  0
 29 38  1  0  0  0  0
 30 32  2  0  0  0  0
 30 34  1  0  0  0  0
 31 33  2  0  0  0  0
 31 36  1  0  0  0  0
 32 33  1  0  0  0  0
 32 35  1  0  0  0  0
 33 37  1  0  0  0  0
 37 39  2  0  0  0  0
 37 40  2  0  0  0  0
 44 45  1  0  0  0  0
 44 46  1  0  0  0  0
 44 47  1  0  0  0  0
M  END
>  <COMPND>
    UNNAMED

>  <AUTHOR>
    GENERATED BY OPEN BABEL 2.3.1

>  <MASTER>
        0    0    0    0    0    0    0    0   47    0   47    0

$$$$
