5cj.pdb
 OpenBabel02251613503D

 47 48  0  0  1  0  0  0  0  0999 V2000
   -1.5940   -1.4590    1.4970 H   0  0  0  0  0  0  0  0  0  0  0  0
   -1.0320   -0.6420    1.0620 C   0  0  0  0  0  0  0  0  0  0  0  0
   -0.6030    0.4170    1.8730 C   0  0  0  0  0  0  0  0  0  0  0  0
   -0.8450    0.5500    3.2130 O   0  0  0  0  0  0  0  0  0  0  0  0
    0.1520    1.4550    1.3200 C   0  0  0  0  0  0  0  0  0  0  0  0
    0.4780    2.2790    1.9510 H   0  0  0  0  0  0  0  0  0  0  0  0
    0.4690    1.4510   -0.0350 C   0  0  0  0  0  0  0  0  0  0  0  0
    1.0340    2.2740   -0.4650 H   0  0  0  0  0  0  0  0  0  0  0  0
    0.0430    0.3880   -0.8350 C   0  0  0  0  0  0  0  0  0  0  0  0
    0.3610    0.4420   -2.2720 C   0  0  0  0  0  0  0  0  0  0  0  0
   -0.7230   -0.6590   -0.3050 C   0  0  0  0  0  0  0  0  0  0  0  0
   -1.0830   -1.6510   -1.1750 O   0  0  0  0  0  0  0  0  0  0  0  0
   -0.4470    0.9820   -3.0220 O   0  0  0  0  0  0  0  0  0  0  0  0
    1.6970   -0.0670   -2.7390 C   0  0  0  0  0  0  0  0  0  0  0  0
    2.4820   -1.0180   -1.8520 C   0  0  2  0  0  0  0  0  0  0  0  0
    2.0660    0.3600   -3.9660 C   0  0  0  0  0  0  0  0  0  0  0  0
    1.7870   -1.7060   -1.3630 H   0  0  0  0  0  0  0  0  0  0  0  0
    3.1100   -0.2000   -0.8360 O   0  0  0  0  0  0  0  0  0  0  0  0
    3.5380   -1.8360   -2.6050 C   0  0  0  0  0  0  0  0  0  0  0  0
    3.3420   -0.8070    0.3580 C   0  0  0  0  0  0  0  0  0  0  0  0
    3.0970   -1.9750    0.6200 O   0  0  0  0  0  0  0  0  0  0  0  0
    3.9670    0.1530    1.3250 C   0  0  0  0  0  0  0  0  0  0  0  0
   -1.7950   -0.3380    3.7890 C   0  0  0  0  0  0  0  0  0  0  0  0
   -1.9540   -0.0300    4.8270 H   0  0  0  0  0  0  0  0  0  0  0  0
   -1.4150   -1.3640    3.8000 H   0  0  0  0  0  0  0  0  0  0  0  0
   -2.7600   -0.2780    3.2730 H   0  0  0  0  0  0  0  0  0  0  0  0
    1.4360    1.0280   -4.5490 H   0  0  0  0  0  0  0  0  0  0  0  0
    3.0020    0.0740   -4.4310 H   0  0  0  0  0  0  0  0  0  0  0  0
    3.2120   -2.9740   -3.3730 C   0  0  0  0  0  0  0  0  0  0  0  0
    4.8870   -1.4240   -2.6230 C   0  0  0  0  0  0  0  0  0  0  0  0
    4.1760   -3.6740   -4.1170 C   0  0  0  0  0  0  0  0  0  0  0  0
    5.8540   -2.1240   -3.3540 C   0  0  0  0  0  0  0  0  0  0  0  0
    5.5000   -3.2460   -4.1000 C   0  0  0  0  0  0  0  0  0  0  0  0
    1.8440   -3.4630   -3.4620 N   0  0  0  0  0  0  0  0  0  0  0  0
    5.2040   -0.5370   -2.0780 H   0  0  0  0  0  0  0  0  0  0  0  0
    6.8880   -1.7830   -3.3480 H   0  0  0  0  0  0  0  0  0  0  0  0
    3.9000   -4.5430   -4.7110 H   0  0  0  0  0  0  0  0  0  0  0  0
    6.2550   -3.7800   -4.6720 H   0  0  0  0  0  0  0  0  0  0  0  0
    1.2980   -3.8200   -2.4120 O   0  0  0  0  0  0  0  0  0  0  0  0
    1.3420   -3.5210   -4.5920 O   0  0  0  0  0  0  0  0  0  0  0  0
    4.0830    1.1430    0.8730 H   0  0  0  0  0  0  0  0  0  0  0  0
    4.9560   -0.2140    1.6080 H   0  0  0  0  0  0  0  0  0  0  0  0
    3.3260    0.2490    2.2040 H   0  0  0  0  0  0  0  0  0  0  0  0
   -2.1030   -2.5500   -0.7560 C   0  0  0  0  0  0  0  0  0  0  0  0
   -2.3790   -3.1690   -1.6140 H   0  0  0  0  0  0  0  0  0  0  0  0
   -3.0010   -2.0110   -0.4320 H   0  0  0  0  0  0  0  0  0  0  0  0
   -1.7380   -3.2160    0.0320 H   0  0  0  0  0  0  0  0  0  0  0  0
  1  2  1  0  0  0  0
  2  3  2  0  0  0  0
  2 11  1  0  0  0  0
  3  4  1  0  0  0  0
  3  5  1  0  0  0  0
  4 23  1  0  0  0  0
  5  6  1  0  0  0  0
  5  7  2  0  0  0  0
  7  8  1  0  0  0  0
  7  9  1  0  0  0  0
  9 10  1  0  0  0  0
  9 11  2  0  0  0  0
 10 13  2  0  0  0  0
 10 14  1  0  0  0  0
 11 12  1  0  0  0  0
 12 44  1  0  0  0  0
 14 15  1  0  0  0  0
 14 16  2  0  0  0  0
 15 17  1  1  0  0  0
 15 18  1  0  0  0  0
 15 19  1  0  0  0  0
 16 27  1  0  0  0  0
 16 28  1  0  0  0  0
 18 20  1  0  0  0  0
 19 29  2  0  0  0  0
 19 30  1  0  0  0  0
 20 21  2  0  0  0  0
 20 22  1  0  0  0  0
 22 41  1  0  0  0  0
 22 42  1  0  0  0  0
 22 43  1  0  0  0  0
 23 24  1  0  0  0  0
 23 25  1  0  0  0  0
 23 26  1  0  0  0  0
 29 31  1  0  0  0  0
 29 34  1  0  0  0  0
 30 32  2  0  0  0  0
 30 35  1  0  0  0  0
 31 33  2  0  0  0  0
 31 37  1  0  0  0  0
 32 33  1  0  0  0  0
 32 36  1  0  0  0  0
 33 38  1  0  0  0  0
 34 39  2  0  0  0  0
 34 40  2  0  0  0  0
 44 45  1  0  0  0  0
 44 46  1  0  0  0  0
 44 47  1  0  0  0  0
M  END
>  <COMPND>
    UNNAMED

>  <AUTHOR>
    GENERATED BY OPEN BABEL 2.3.1

>  <MASTER>
        0    0    0    0    0    0    0    0   47    0   47    0

$$$$
