5da.pdb
 OpenBabel02251613503D

 48 50  0  0  1  0  0  0  0  0999 V2000
   -2.1540   -1.3720    1.4780 H   0  0  0  0  0  0  0  0  0  0  0  0
   -1.4010   -0.7070    1.0690 C   0  0  0  0  0  0  0  0  0  0  0  0
   -0.8130    0.3030    1.8350 C   0  0  0  0  0  0  0  0  0  0  0  0
   -1.0880    0.5810    3.1450 O   0  0  0  0  0  0  0  0  0  0  0  0
    0.1440    1.1380    1.2510 C   0  0  0  0  0  0  0  0  0  0  0  0
    0.5940    1.9330    1.8420 H   0  0  0  0  0  0  0  0  0  0  0  0
    0.5200    0.9690   -0.0830 C   0  0  0  0  0  0  0  0  0  0  0  0
    1.2480    1.6480   -0.5200 H   0  0  0  0  0  0  0  0  0  0  0  0
   -0.0520   -0.0580   -0.8380 C   0  0  0  0  0  0  0  0  0  0  0  0
    0.3190   -0.2690   -2.2570 C   0  0  0  0  0  0  0  0  0  0  0  0
   -1.0260   -0.8820   -0.2680 C   0  0  0  0  0  0  0  0  0  0  0  0
   -1.4930   -1.6660   -0.8610 H   0  0  0  0  0  0  0  0  0  0  0  0
   -0.5490   -0.5120   -3.0890 O   0  0  0  0  0  0  0  0  0  0  0  0
    1.7640   -0.2010   -2.6260 C   0  0  0  0  0  0  0  0  0  0  0  0
    2.7110   -1.0950   -1.8490 C   0  0  2  0  0  0  0  0  0  0  0  0
    2.0650    0.5690   -3.6860 C   0  0  0  0  0  0  0  0  0  0  0  0
    2.1310   -1.8890   -1.3590 H   0  0  0  0  0  0  0  0  0  0  0  0
    3.3380   -0.2430   -0.8690 O   0  0  0  0  0  0  0  0  0  0  0  0
    3.7560   -1.7850   -2.7160 C   0  0  0  0  0  0  0  0  0  0  0  0
    3.4820   -0.7550    0.3760 C   0  0  0  0  0  0  0  0  0  0  0  0
    3.1720   -1.8790    0.7330 O   0  0  0  0  0  0  0  0  0  0  0  0
    4.0580    0.2760    1.2820 C   0  0  0  0  0  0  0  0  0  0  0  0
    4.1520   -0.0220    2.6480 C   0  0  0  0  0  0  0  0  0  0  0  0
    4.4950    1.5250    0.8180 C   0  0  0  0  0  0  0  0  0  0  0  0
   -2.0600   -0.2360    3.7860 C   0  0  0  0  0  0  0  0  0  0  0  0
   -2.1630    0.1160    4.8180 H   0  0  0  0  0  0  0  0  0  0  0  0
   -1.7360   -1.2810    3.8210 H   0  0  0  0  0  0  0  0  0  0  0  0
   -3.0380   -0.1400    3.3030 H   0  0  0  0  0  0  0  0  0  0  0  0
    4.6750    0.9190    3.5380 C   0  0  0  0  0  0  0  0  0  0  0  0
    5.0180    2.4630    1.7110 C   0  0  0  0  0  0  0  0  0  0  0  0
    5.1070    2.1590    3.0690 C   0  0  0  0  0  0  0  0  0  0  0  0
    5.3550    3.4310    1.3490 H   0  0  0  0  0  0  0  0  0  0  0  0
    4.4360    1.7850   -0.2360 H   0  0  0  0  0  0  0  0  0  0  0  0
    3.8130   -0.9850    3.0250 H   0  0  0  0  0  0  0  0  0  0  0  0
    4.7430    0.6840    4.5970 H   0  0  0  0  0  0  0  0  0  0  0  0
    5.5130    2.8910    3.7640 H   0  0  0  0  0  0  0  0  0  0  0  0
    1.2980    1.1300   -4.2150 H   0  0  0  0  0  0  0  0  0  0  0  0
    3.0800    0.6490   -4.0620 H   0  0  0  0  0  0  0  0  0  0  0  0
    3.3390   -2.7470   -3.6460 C   0  0  0  0  0  0  0  0  0  0  0  0
    5.1320   -1.5130   -2.6260 C   0  0  0  0  0  0  0  0  0  0  0  0
    4.2430   -3.4050   -4.4750 C   0  0  0  0  0  0  0  0  0  0  0  0
    6.0460   -2.1810   -3.4470 C   0  0  0  0  0  0  0  0  0  0  0  0
    5.6030   -3.1220   -4.3740 C   0  0  0  0  0  0  0  0  0  0  0  0
    2.0380   -3.0500   -3.7520 F   0  0  0  0  0  0  0  0  0  0  0  0
    5.5110   -0.7830   -1.9150 H   0  0  0  0  0  0  0  0  0  0  0  0
    7.1090   -1.9660   -3.3590 H   0  0  0  0  0  0  0  0  0  0  0  0
    3.8800   -4.1360   -5.1900 H   0  0  0  0  0  0  0  0  0  0  0  0
    6.3160   -3.6370   -5.0130 H   0  0  0  0  0  0  0  0  0  0  0  0
  1  2  1  0  0  0  0
  2  3  2  0  0  0  0
  2 11  1  0  0  0  0
  3  4  1  0  0  0  0
  3  5  1  0  0  0  0
  4 25  1  0  0  0  0
  5  6  1  0  0  0  0
  5  7  2  0  0  0  0
  7  8  1  0  0  0  0
  7  9  1  0  0  0  0
  9 10  1  0  0  0  0
  9 11  2  0  0  0  0
 10 13  2  0  0  0  0
 10 14  1  0  0  0  0
 11 12  1  0  0  0  0
 14 15  1  0  0  0  0
 14 16  2  0  0  0  0
 15 17  1  1  0  0  0
 15 18  1  0  0  0  0
 15 19  1  0  0  0  0
 16 37  1  0  0  0  0
 16 38  1  0  0  0  0
 18 20  1  0  0  0  0
 19 39  2  0  0  0  0
 19 40  1  0  0  0  0
 20 21  2  0  0  0  0
 20 22  1  0  0  0  0
 22 23  2  0  0  0  0
 22 24  1  0  0  0  0
 23 29  1  0  0  0  0
 23 34  1  0  0  0  0
 24 30  2  0  0  0  0
 24 33  1  0  0  0  0
 25 26  1  0  0  0  0
 25 27  1  0  0  0  0
 25 28  1  0  0  0  0
 29 31  2  0  0  0  0
 29 35  1  0  0  0  0
 30 31  1  0  0  0  0
 30 32  1  0  0  0  0
 31 36  1  0  0  0  0
 39 41  1  0  0  0  0
 39 44  1  0  0  0  0
 40 42  2  0  0  0  0
 40 45  1  0  0  0  0
 41 43  2  0  0  0  0
 41 47  1  0  0  0  0
 42 43  1  0  0  0  0
 42 46  1  0  0  0  0
 43 48  1  0  0  0  0
M  END
>  <COMPND>
    UNNAMED

>  <AUTHOR>
    GENERATED BY OPEN BABEL 2.3.1

>  <MASTER>
        0    0    0    0    0    0    0    0   48    0   48    0

$$$$
