5df.pdb
 OpenBabel09221412193D

 54 56  0  0  0  0  0  0  0  0999 V2000
   -2.1520   -1.4380    1.5850 H   0  0  0  0  0  0  0  0  0  0  0  0
   -1.4180   -0.7720    1.1440 C   0  0  0  0  0  0  0  0  0  0  0  0
   -0.8800    0.3050    1.8520 C   0  0  0  0  0  0  0  0  0  0  0  0
   -1.1830    0.6540    3.1380 O   0  0  0  0  0  0  0  0  0  0  0  0
    0.0500    1.1390    1.2270 C   0  0  0  0  0  0  0  0  0  0  0  0
    0.4630    1.9860    1.7700 H   0  0  0  0  0  0  0  0  0  0  0  0
    0.4550    0.8980   -0.0900 C   0  0  0  0  0  0  0  0  0  0  0  0
    1.1660    1.5760   -0.5510 H   0  0  0  0  0  0  0  0  0  0  0  0
   -0.0650   -0.1950   -0.7880 C   0  0  0  0  0  0  0  0  0  0  0  0
    0.3390   -0.5010   -2.1840 C   0  0  0  0  0  0  0  0  0  0  0  0
   -1.0160   -1.0180   -0.1730 C   0  0  0  0  0  0  0  0  0  0  0  0
   -1.4410   -1.8600   -0.7160 H   0  0  0  0  0  0  0  0  0  0  0  0
   -0.4310   -1.0570   -2.9600 O   0  0  0  0  0  0  0  0  0  0  0  0
    1.7260   -0.1570   -2.6040 C   0  0  0  0  0  0  0  0  0  0  0  0
    2.8360   -0.9650   -1.9700 C   0  0  0  0  0  0  0  0  0  0  0  0
    1.8370    0.7700   -3.5710 C   0  0  0  0  0  0  0  0  0  0  0  0
    2.3920   -1.8590   -1.5130 H   0  0  0  0  0  0  0  0  0  0  0  0
    3.4290   -0.1060   -0.9710 O   0  0  0  0  0  0  0  0  0  0  0  0
    3.9440   -1.4440   -2.9540 C   0  0  0  0  0  0  0  0  0  0  0  0
    3.5540   -0.6160    0.2790 C   0  0  0  0  0  0  0  0  0  0  0  0
    3.2620   -1.7490    0.6250 O   0  0  0  0  0  0  0  0  0  0  0  0
    4.1000    0.4120    1.2050 C   0  0  0  0  0  0  0  0  0  0  0  0
    4.2940    0.0570    2.5470 C   0  0  0  0  0  0  0  0  0  0  0  0
    4.4130    1.7130    0.7860 C   0  0  0  0  0  0  0  0  0  0  0  0
   -2.0750   -0.2020    3.8430 C   0  0  0  0  0  0  0  0  0  0  0  0
   -2.1850    0.1930    4.8570 H   0  0  0  0  0  0  0  0  0  0  0  0
   -1.6690   -1.2160    3.9230 H   0  0  0  0  0  0  0  0  0  0  0  0
   -3.0660   -0.2070    3.3780 H   0  0  0  0  0  0  0  0  0  0  0  0
    4.7960    0.9890    3.4570 C   0  0  0  0  0  0  0  0  0  0  0  0
    4.9140    2.6430    1.7000 C   0  0  0  0  0  0  0  0  0  0  0  0
    5.1050    2.2810    3.0330 C   0  0  0  0  0  0  0  0  0  0  0  0
    5.1550    3.6520    1.3720 H   0  0  0  0  0  0  0  0  0  0  0  0
    4.2740    2.0180   -0.2480 H   0  0  0  0  0  0  0  0  0  0  0  0
    4.0520   -0.9470    2.8900 H   0  0  0  0  0  0  0  0  0  0  0  0
    4.9440    0.7070    4.4960 H   0  0  0  0  0  0  0  0  0  0  0  0
    5.4950    3.0070    3.7430 H   0  0  0  0  0  0  0  0  0  0  0  0
    0.9590    1.2520   -3.9960 H   0  0  0  0  0  0  0  0  0  0  0  0
    2.8010    1.0640   -3.9700 H   0  0  0  0  0  0  0  0  0  0  0  0
    3.3650   -2.3350   -4.0710 C   0  0  0  0  0  0  0  0  0  0  0  0
    5.0660   -2.1990   -2.2110 C   0  0  0  0  0  0  0  0  0  0  0  0
    4.4140   -0.5630   -3.4130 H   0  0  0  0  0  0  0  0  0  0  0  0
    2.8410   -3.1900   -3.6250 H   0  0  0  0  0  0  0  0  0  0  0  0
    4.4490   -2.8480   -5.0170 C   0  0  0  0  0  0  0  0  0  0  0  0
    2.6260   -1.7860   -4.6630 H   0  0  0  0  0  0  0  0  0  0  0  0
    4.6390   -3.0420   -1.6540 H   0  0  0  0  0  0  0  0  0  0  0  0
    5.5480   -1.5420   -1.4790 H   0  0  0  0  0  0  0  0  0  0  0  0
    6.1410   -2.7210   -3.1610 C   0  0  0  0  0  0  0  0  0  0  0  0
    5.5480   -3.5880   -4.2650 C   0  0  0  0  0  0  0  0  0  0  0  0
    4.8840   -2.0030   -5.5650 H   0  0  0  0  0  0  0  0  0  0  0  0
    4.0010   -3.5150   -5.7620 H   0  0  0  0  0  0  0  0  0  0  0  0
    6.8810   -3.3000   -2.5970 H   0  0  0  0  0  0  0  0  0  0  0  0
    6.6740   -1.8730   -3.6090 H   0  0  0  0  0  0  0  0  0  0  0  0
    6.3370   -3.8880   -4.9630 H   0  0  0  0  0  0  0  0  0  0  0  0
    5.1390   -4.5070   -3.8290 H   0  0  0  0  0  0  0  0  0  0  0  0
  1  2  1  0  0  0  0
  2  3  2  0  0  0  0
  2 11  1  0  0  0  0
  3  4  1  0  0  0  0
  3  5  1  0  0  0  0
  4 25  1  0  0  0  0
  5  6  1  0  0  0  0
  5  7  2  0  0  0  0
  7  8  1  0  0  0  0
  7  9  1  0  0  0  0
  9 10  1  0  0  0  0
  9 11  2  0  0  0  0
 10 13  2  0  0  0  0
 10 14  1  0  0  0  0
 11 12  1  0  0  0  0
 14 15  1  0  0  0  0
 14 16  2  0  0  0  0
 15 17  1  0  0  0  0
 15 18  1  0  0  0  0
 15 19  1  0  0  0  0
 16 37  1  0  0  0  0
 16 38  1  0  0  0  0
 18 20  1  0  0  0  0
 19 39  1  0  0  0  0
 19 40  1  0  0  0  0
 19 41  1  0  0  0  0
 20 21  2  0  0  0  0
 20 22  1  0  0  0  0
 22 23  2  0  0  0  0
 22 24  1  0  0  0  0
 23 29  1  0  0  0  0
 23 34  1  0  0  0  0
 24 30  2  0  0  0  0
 24 33  1  0  0  0  0
 25 26  1  0  0  0  0
 25 27  1  0  0  0  0
 25 28  1  0  0  0  0
 29 31  2  0  0  0  0
 29 35  1  0  0  0  0
 30 31  1  0  0  0  0
 30 32  1  0  0  0  0
 31 36  1  0  0  0  0
 39 42  1  0  0  0  0
 39 43  1  0  0  0  0
 39 44  1  0  0  0  0
 40 45  1  0  0  0  0
 40 46  1  0  0  0  0
 40 47  1  0  0  0  0
 43 48  1  0  0  0  0
 43 49  1  0  0  0  0
 43 50  1  0  0  0  0
 47 48  1  0  0  0  0
 47 51  1  0  0  0  0
 47 52  1  0  0  0  0
 48 53  1  0  0  0  0
 48 54  1  0  0  0  0
M  END