5dh.pdb
 OpenBabel09221412193D

 50 52  0  0  0  0  0  0  0  0999 V2000
   -2.2300   -1.2380    1.4870 H   0  0  0  0  0  0  0  0  0  0  0  0
   -1.4600   -0.5980    1.0700 C   0  0  0  0  0  0  0  0  0  0  0  0
   -0.8430    0.4010    1.8240 C   0  0  0  0  0  0  0  0  0  0  0  0
   -1.1000    0.6930    3.1350 O   0  0  0  0  0  0  0  0  0  0  0  0
    0.1290    1.2100    1.2270 C   0  0  0  0  0  0  0  0  0  0  0  0
    0.6020    1.9980    1.8090 H   0  0  0  0  0  0  0  0  0  0  0  0
    0.4980    1.0170   -0.1060 C   0  0  0  0  0  0  0  0  0  0  0  0
    1.2430    1.6720   -0.5480 H   0  0  0  0  0  0  0  0  0  0  0  0
   -0.0990   -0.0060   -0.8480 C   0  0  0  0  0  0  0  0  0  0  0  0
    0.2810   -0.2690   -2.2570 C   0  0  0  0  0  0  0  0  0  0  0  0
   -1.0940   -0.7970   -0.2660 C   0  0  0  0  0  0  0  0  0  0  0  0
   -1.5820   -1.5780   -0.8470 H   0  0  0  0  0  0  0  0  0  0  0  0
   -0.5640   -0.6160   -3.0750 O   0  0  0  0  0  0  0  0  0  0  0  0
    1.7230   -0.1740   -2.6300 C   0  0  0  0  0  0  0  0  0  0  0  0
    2.6770   -1.0440   -1.8400 C   0  0  0  0  0  0  0  0  0  0  0  0
    2.0030    0.5770   -3.7100 C   0  0  0  0  0  0  0  0  0  0  0  0
    2.0970   -1.8400   -1.3550 H   0  0  0  0  0  0  0  0  0  0  0  0
    3.2980   -0.2030   -0.8500 O   0  0  0  0  0  0  0  0  0  0  0  0
    3.7330   -1.7330   -2.7060 C   0  0  0  0  0  0  0  0  0  0  0  0
    3.4870   -0.7670    0.3670 C   0  0  0  0  0  0  0  0  0  0  0  0
    3.2100   -1.9130    0.6790 O   0  0  0  0  0  0  0  0  0  0  0  0
    4.0540    0.2310    1.3130 C   0  0  0  0  0  0  0  0  0  0  0  0
    4.1420   -0.1180    2.6670 C   0  0  0  0  0  0  0  0  0  0  0  0
    4.4910    1.4970    0.8980 C   0  0  0  0  0  0  0  0  0  0  0  0
   -2.0360   -0.1410    3.8070 C   0  0  0  0  0  0  0  0  0  0  0  0
   -2.1030    0.2000    4.8450 H   0  0  0  0  0  0  0  0  0  0  0  0
   -1.6980   -1.1830    3.8210 H   0  0  0  0  0  0  0  0  0  0  0  0
   -3.0320   -0.0530    3.3630 H   0  0  0  0  0  0  0  0  0  0  0  0
    4.6580    0.7890    3.5950 C   0  0  0  0  0  0  0  0  0  0  0  0
    5.0070    2.4010    1.8300 C   0  0  0  0  0  0  0  0  0  0  0  0
    5.0900    2.0460    3.1760 C   0  0  0  0  0  0  0  0  0  0  0  0
    5.3460    3.3820    1.5070 H   0  0  0  0  0  0  0  0  0  0  0  0
    4.4390    1.7960   -0.1450 H   0  0  0  0  0  0  0  0  0  0  0  0
    3.8050   -1.0960    3.0060 H   0  0  0  0  0  0  0  0  0  0  0  0
    4.7220    0.5130    4.6460 H   0  0  0  0  0  0  0  0  0  0  0  0
    5.4910    2.7510    3.9010 H   0  0  0  0  0  0  0  0  0  0  0  0
    1.2220    1.1120   -4.2450 H   0  0  0  0  0  0  0  0  0  0  0  0
    3.0110    0.6680   -4.0980 H   0  0  0  0  0  0  0  0  0  0  0  0
    3.3740   -2.8820   -3.4370 C   0  0  0  0  0  0  0  0  0  0  0  0
    5.0480   -1.2470   -2.8150 C   0  0  0  0  0  0  0  0  0  0  0  0
    4.3050   -3.5390   -4.2450 C   0  0  0  0  0  0  0  0  0  0  0  0
    5.9860   -1.8990   -3.6200 C   0  0  0  0  0  0  0  0  0  0  0  0
    5.6110   -3.0450   -4.3320 C   0  0  0  0  0  0  0  0  0  0  0  0
    5.3550   -0.3550   -2.2720 H   0  0  0  0  0  0  0  0  0  0  0  0
    6.9980   -1.5030   -3.6800 H   0  0  0  0  0  0  0  0  0  0  0  0
    3.9960   -4.4260   -4.7950 H   0  0  0  0  0  0  0  0  0  0  0  0
    6.5950   -3.7310   -5.1780 N   0  0  0  0  0  0  0  0  0  0  0  0
    2.3580   -3.2730   -3.3790 H   0  0  0  0  0  0  0  0  0  0  0  0
    6.2270   -4.7490   -5.7820 O   0  0  0  0  0  0  0  0  0  0  0  0
    7.7360   -3.2500   -5.2410 O   0  0  0  0  0  0  0  0  0  0  0  0
  1  2  1  0  0  0  0
  2  3  2  0  0  0  0
  2 11  1  0  0  0  0
  3  4  1  0  0  0  0
  3  5  1  0  0  0  0
  4 25  1  0  0  0  0
  5  6  1  0  0  0  0
  5  7  2  0  0  0  0
  7  8  1  0  0  0  0
  7  9  1  0  0  0  0
  9 10  1  0  0  0  0
  9 11  2  0  0  0  0
 10 13  2  0  0  0  0
 10 14  1  0  0  0  0
 11 12  1  0  0  0  0
 14 15  1  0  0  0  0
 14 16  2  0  0  0  0
 15 17  1  0  0  0  0
 15 18  1  0  0  0  0
 15 19  1  0  0  0  0
 16 37  1  0  0  0  0
 16 38  1  0  0  0  0
 18 20  1  0  0  0  0
 19 39  2  0  0  0  0
 19 40  1  0  0  0  0
 20 21  2  0  0  0  0
 20 22  1  0  0  0  0
 22 23  2  0  0  0  0
 22 24  1  0  0  0  0
 23 29  1  0  0  0  0
 23 34  1  0  0  0  0
 24 30  2  0  0  0  0
 24 33  1  0  0  0  0
 25 26  1  0  0  0  0
 25 27  1  0  0  0  0
 25 28  1  0  0  0  0
 29 31  2  0  0  0  0
 29 35  1  0  0  0  0
 30 31  1  0  0  0  0
 30 32  1  0  0  0  0
 31 36  1  0  0  0  0
 39 41  1  0  0  0  0
 39 48  1  0  0  0  0
 40 42  2  0  0  0  0
 40 44  1  0  0  0  0
 41 43  2  0  0  0  0
 41 46  1  0  0  0  0
 42 43  1  0  0  0  0
 42 45  1  0  0  0  0
 43 47  1  0  0  0  0
 47 49  2  0  0  0  0
 47 50  2  0  0  0  0
M  END