5dm.pdb
 OpenBabel09221412193D

 52 54  0  0  0  0  0  0  0  0999 V2000
   -2.1820   -1.2720    1.4600 H   0  0  0  0  0  0  0  0  0  0  0  0
   -1.4200   -0.6110    1.0600 C   0  0  0  0  0  0  0  0  0  0  0  0
   -0.8060    0.3680    1.8420 C   0  0  0  0  0  0  0  0  0  0  0  0
   -1.0610    0.6210    3.1620 O   0  0  0  0  0  0  0  0  0  0  0  0
    0.1620    1.1990    1.2680 C   0  0  0  0  0  0  0  0  0  0  0  0
    0.6320    1.9720    1.8730 H   0  0  0  0  0  0  0  0  0  0  0  0
    0.5230    1.0520   -0.0720 C   0  0  0  0  0  0  0  0  0  0  0  0
    1.2600    1.7270   -0.5010 H   0  0  0  0  0  0  0  0  0  0  0  0
   -0.0750    0.0520   -0.8430 C   0  0  0  0  0  0  0  0  0  0  0  0
    0.2900   -0.1440   -2.2650 C   0  0  0  0  0  0  0  0  0  0  0  0
   -1.0600   -0.7660   -0.2840 C   0  0  0  0  0  0  0  0  0  0  0  0
   -1.5450   -1.5300   -0.8890 H   0  0  0  0  0  0  0  0  0  0  0  0
   -0.5810   -0.3380   -3.1050 O   0  0  0  0  0  0  0  0  0  0  0  0
    1.7380   -0.1410   -2.6330 C   0  0  0  0  0  0  0  0  0  0  0  0
    2.6600   -1.0180   -1.8120 C   0  0  0  0  0  0  0  0  0  0  0  0
    2.0570    0.5580   -3.7370 C   0  0  0  0  0  0  0  0  0  0  0  0
    2.0620   -1.7500   -1.2610 H   0  0  0  0  0  0  0  0  0  0  0  0
    3.2990   -0.1490   -0.8500 O   0  0  0  0  0  0  0  0  0  0  0  0
    3.6960   -1.7650   -2.6630 C   0  0  0  0  0  0  0  0  0  0  0  0
    3.6130   -0.7280    0.3370 C   0  0  0  0  0  0  0  0  0  0  0  0
    3.4870   -1.9090    0.6090 O   0  0  0  0  0  0  0  0  0  0  0  0
    4.1210    0.2900    1.2930 C   0  0  0  0  0  0  0  0  0  0  0  0
    4.2450   -0.0750    2.6390 C   0  0  0  0  0  0  0  0  0  0  0  0
    4.4730    1.5870    0.8930 C   0  0  0  0  0  0  0  0  0  0  0  0
   -2.0420   -0.1920    3.7940 C   0  0  0  0  0  0  0  0  0  0  0  0
   -2.1250    0.1340    4.8350 H   0  0  0  0  0  0  0  0  0  0  0  0
   -1.7400   -1.2440    3.7970 H   0  0  0  0  0  0  0  0  0  0  0  0
   -3.0230   -0.0620    3.3250 H   0  0  0  0  0  0  0  0  0  0  0  0
    4.7120    0.8470    3.5770 C   0  0  0  0  0  0  0  0  0  0  0  0
    4.9420    2.5050    1.8350 C   0  0  0  0  0  0  0  0  0  0  0  0
    5.0600    2.1350    3.1740 C   0  0  0  0  0  0  0  0  0  0  0  0
    5.2170    3.5110    1.5250 H   0  0  0  0  0  0  0  0  0  0  0  0
    4.3920    1.8970   -0.1450 H   0  0  0  0  0  0  0  0  0  0  0  0
    3.9730   -1.0780    2.9650 H   0  0  0  0  0  0  0  0  0  0  0  0
    4.8030    0.5600    4.6220 H   0  0  0  0  0  0  0  0  0  0  0  0
    5.4240    2.8530    3.9060 H   0  0  0  0  0  0  0  0  0  0  0  0
    1.3000    1.1110   -4.2920 H   0  0  0  0  0  0  0  0  0  0  0  0
    3.0680    0.6020   -4.1250 H   0  0  0  0  0  0  0  0  0  0  0  0
    3.3660   -2.8840   -3.4630 C   0  0  0  0  0  0  0  0  0  0  0  0
    5.0320   -1.3100   -2.7140 C   0  0  0  0  0  0  0  0  0  0  0  0
    4.3210   -3.5350   -4.2650 C   0  0  0  0  0  0  0  0  0  0  0  0
    5.9940   -1.9490   -3.5050 C   0  0  0  0  0  0  0  0  0  0  0  0
    5.6350   -3.0600   -4.2750 C   0  0  0  0  0  0  0  0  0  0  0  0
    5.3450   -0.4380   -2.1390 H   0  0  0  0  0  0  0  0  0  0  0  0
    7.0130   -1.5650   -3.5090 H   0  0  0  0  0  0  0  0  0  0  0  0
    4.0330   -4.3930   -4.8720 H   0  0  0  0  0  0  0  0  0  0  0  0
    6.6460   -3.7260   -5.1060 N   0  0  0  0  0  0  0  0  0  0  0  0
    2.0030   -3.4110   -3.5240 N   0  0  0  0  0  0  0  0  0  0  0  0
    6.3170   -4.7730   -5.6790 O   0  0  0  0  0  0  0  0  0  0  0  0
    7.7640   -3.2000   -5.1820 O   0  0  0  0  0  0  0  0  0  0  0  0
    1.4330   -3.6480   -2.4540 O   0  0  0  0  0  0  0  0  0  0  0  0
    1.5360   -3.6180   -4.6510 O   0  0  0  0  0  0  0  0  0  0  0  0
  1  2  1  0  0  0  0
  2  3  2  0  0  0  0
  2 11  1  0  0  0  0
  3  4  1  0  0  0  0
  3  5  1  0  0  0  0
  4 25  1  0  0  0  0
  5  6  1  0  0  0  0
  5  7  2  0  0  0  0
  7  8  1  0  0  0  0
  7  9  1  0  0  0  0
  9 10  1  0  0  0  0
  9 11  2  0  0  0  0
 10 13  2  0  0  0  0
 10 14  1  0  0  0  0
 11 12  1  0  0  0  0
 14 15  1  0  0  0  0
 14 16  2  0  0  0  0
 15 17  1  0  0  0  0
 15 18  1  0  0  0  0
 15 19  1  0  0  0  0
 16 37  1  0  0  0  0
 16 38  1  0  0  0  0
 18 20  1  0  0  0  0
 19 39  2  0  0  0  0
 19 40  1  0  0  0  0
 20 21  2  0  0  0  0
 20 22  1  0  0  0  0
 22 23  2  0  0  0  0
 22 24  1  0  0  0  0
 23 29  1  0  0  0  0
 23 34  1  0  0  0  0
 24 30  2  0  0  0  0
 24 33  1  0  0  0  0
 25 26  1  0  0  0  0
 25 27  1  0  0  0  0
 25 28  1  0  0  0  0
 29 31  2  0  0  0  0
 29 35  1  0  0  0  0
 30 31  1  0  0  0  0
 30 32  1  0  0  0  0
 31 36  1  0  0  0  0
 39 41  1  0  0  0  0
 39 48  1  0  0  0  0
 40 42  2  0  0  0  0
 40 44  1  0  0  0  0
 41 43  2  0  0  0  0
 41 46  1  0  0  0  0
 42 43  1  0  0  0  0
 42 45  1  0  0  0  0
 43 47  1  0  0  0  0
 47 49  2  0  0  0  0
 47 50  2  0  0  0  0
 48 51  2  0  0  0  0
 48 52  2  0  0  0  0
M  END