6ad.pdb
 OpenBabel09221412193D

 60 63  0  0  0  0  0  0  0  0999 V2000
   -1.4140   -1.9650    1.4650 H   0  0  0  0  0  0  0  0  0  0  0  0
   -1.0240   -1.0990    0.9360 C   0  0  0  0  0  0  0  0  0  0  0  0
   -0.9140    0.1290    1.5910 C   0  0  0  0  0  0  0  0  0  0  0  0
   -0.4140    1.2430    0.9140 C   0  0  0  0  0  0  0  0  0  0  0  0
   -0.3430    2.2000    1.4250 H   0  0  0  0  0  0  0  0  0  0  0  0
   -0.0140    1.1290   -0.4160 C   0  0  0  0  0  0  0  0  0  0  0  0
    0.3580    2.0060   -0.9400 H   0  0  0  0  0  0  0  0  0  0  0  0
   -0.1100   -0.1080   -1.0660 C   0  0  0  0  0  0  0  0  0  0  0  0
    0.3200   -0.2590   -2.4740 C   0  0  0  0  0  0  0  0  0  0  0  0
   -0.6300   -1.2180   -0.3960 C   0  0  0  0  0  0  0  0  0  0  0  0
   -0.7130   -2.1770   -0.9040 H   0  0  0  0  0  0  0  0  0  0  0  0
   -0.3950   -0.8390   -3.2830 O   0  0  0  0  0  0  0  0  0  0  0  0
    1.6640    0.2790   -2.8510 C   0  0  0  0  0  0  0  0  0  0  0  0
    1.7100    0.9370   -4.0270 C   0  0  0  0  0  0  0  0  0  0  0  0
    3.5780   -1.7920   -0.2480 C   0  0  0  0  0  0  0  0  0  0  0  0
    0.8220    1.0500   -4.6480 H   0  0  0  0  0  0  0  0  0  0  0  0
    2.9370    1.5220   -4.5680 C   0  0  0  0  0  0  0  0  0  0  0  0
    4.7210   -1.0150    0.2940 C   0  0  0  0  0  0  0  0  0  0  0  0
    4.7440   -0.7310    1.6640 C   0  0  0  0  0  0  0  0  0  0  0  0
    3.4690    2.6950   -4.0150 C   0  0  0  0  0  0  0  0  0  0  0  0
    3.6290    0.8540   -5.5840 C   0  0  0  0  0  0  0  0  0  0  0  0
    4.8690    1.3280   -6.0140 C   0  0  0  0  0  0  0  0  0  0  0  0
    4.7100    3.1690   -4.4400 C   0  0  0  0  0  0  0  0  0  0  0  0
    5.4010    2.4790   -5.4330 C   0  0  0  0  0  0  0  0  0  0  0  0
    2.8320    0.0010   -1.9290 C   0  0  0  0  0  0  0  0  0  0  0  0
    3.0770   -1.4570   -1.6180 C   0  0  0  0  0  0  0  0  0  0  0  0
    2.6710    0.5580   -0.9980 H   0  0  0  0  0  0  0  0  0  0  0  0
    3.7620    0.4010   -2.3460 H   0  0  0  0  0  0  0  0  0  0  0  0
    2.8110   -2.5030   -2.4190 C   0  0  0  0  0  0  0  0  0  0  0  0
    5.8040   -0.0060    2.2100 C   0  0  0  0  0  0  0  0  0  0  0  0
    5.1430    4.0530   -3.9810 H   0  0  0  0  0  0  0  0  0  0  0  0
    6.7200    2.8910   -5.6870 O   0  0  0  0  0  0  0  0  0  0  0  0
    3.2240   -0.0560   -6.0210 H   0  0  0  0  0  0  0  0  0  0  0  0
    5.4160    0.7800   -6.7760 H   0  0  0  0  0  0  0  0  0  0  0  0
    2.9380    3.2230   -3.2260 H   0  0  0  0  0  0  0  0  0  0  0  0
    2.9750   -3.5260   -2.0880 H   0  0  0  0  0  0  0  0  0  0  0  0
    2.4090   -2.3750   -3.4190 H   0  0  0  0  0  0  0  0  0  0  0  0
    3.0380   -2.6560    0.4350 O   0  0  0  0  0  0  0  0  0  0  0  0
    5.7800   -0.5980   -0.5220 C   0  0  0  0  0  0  0  0  0  0  0  0
    6.8390    0.1260    0.0280 C   0  0  0  0  0  0  0  0  0  0  0  0
    6.8480    0.4250    1.3910 C   0  0  0  0  0  0  0  0  0  0  0  0
    7.6640    0.4480   -0.6030 H   0  0  0  0  0  0  0  0  0  0  0  0
    3.9350   -1.0740    2.3070 H   0  0  0  0  0  0  0  0  0  0  0  0
    5.8190    0.2160    3.2740 H   0  0  0  0  0  0  0  0  0  0  0  0
    5.8050   -0.8460   -1.5800 H   0  0  0  0  0  0  0  0  0  0  0  0
    7.1610    2.9510   -6.9960 C   0  0  0  0  0  0  0  0  0  0  0  0
    6.4760    2.9260   -8.0060 O   0  0  0  0  0  0  0  0  0  0  0  0
    8.6480    3.0390   -7.0060 C   0  0  0  0  0  0  0  0  0  0  0  0
    9.4200    2.8320   -5.8520 C   0  0  0  0  0  0  0  0  0  0  0  0
    9.2900    3.2890   -8.2260 C   0  0  0  0  0  0  0  0  0  0  0  0
   10.8140    2.8740   -5.9230 C   0  0  0  0  0  0  0  0  0  0  0  0
   10.6840    3.3330   -8.2910 C   0  0  0  0  0  0  0  0  0  0  0  0
   11.4440    3.1240   -7.1410 C   0  0  0  0  0  0  0  0  0  0  0  0
    8.9550    2.6200   -4.8930 H   0  0  0  0  0  0  0  0  0  0  0  0
    8.7060    3.4430   -9.1320 H   0  0  0  0  0  0  0  0  0  0  0  0
   11.4090    2.7050   -5.0280 H   0  0  0  0  0  0  0  0  0  0  0  0
   11.1770    3.5240   -9.2410 H   0  0  0  0  0  0  0  0  0  0  0  0
   12.5300    3.1510   -7.1950 H   0  0  0  0  0  0  0  0  0  0  0  0
   -1.2240    0.2180    2.6290 H   0  0  0  0  0  0  0  0  0  0  0  0
    7.6770    0.9840    1.8190 H   0  0  0  0  0  0  0  0  0  0  0  0
  1  2  1  0  0  0  0
  2  3  2  0  0  0  0
  2 10  1  0  0  0  0
  3  4  1  0  0  0  0
  3 59  1  0  0  0  0
  4  5  1  0  0  0  0
  4  6  2  0  0  0  0
  6  7  1  0  0  0  0
  6  8  1  0  0  0  0
  8  9  1  0  0  0  0
  8 10  2  0  0  0  0
  9 12  2  0  0  0  0
  9 13  1  0  0  0  0
 10 11  1  0  0  0  0
 13 14  2  0  0  0  0
 13 25  1  0  0  0  0
 14 16  1  0  0  0  0
 14 17  1  0  0  0  0
 15 18  1  0  0  0  0
 15 26  1  0  0  0  0
 15 38  2  0  0  0  0
 17 20  2  0  0  0  0
 17 21  1  0  0  0  0
 18 19  2  0  0  0  0
 18 39  1  0  0  0  0
 19 30  1  0  0  0  0
 19 43  1  0  0  0  0
 20 23  1  0  0  0  0
 20 35  1  0  0  0  0
 21 22  2  0  0  0  0
 21 33  1  0  0  0  0
 22 24  1  0  0  0  0
 22 34  1  0  0  0  0
 23 24  2  0  0  0  0
 23 31  1  0  0  0  0
 24 32  1  0  0  0  0
 25 26  1  0  0  0  0
 25 27  1  0  0  0  0
 25 28  1  0  0  0  0
 26 29  2  0  0  0  0
 29 36  1  0  0  0  0
 29 37  1  0  0  0  0
 30 41  2  0  0  0  0
 30 44  1  0  0  0  0
 32 46  1  0  0  0  0
 39 40  2  0  0  0  0
 39 45  1  0  0  0  0
 40 41  1  0  0  0  0
 40 42  1  0  0  0  0
 41 60  1  0  0  0  0
 46 47  2  0  0  0  0
 46 48  1  0  0  0  0
 48 49  2  0  0  0  0
 48 50  1  0  0  0  0
 49 51  1  0  0  0  0
 49 54  1  0  0  0  0
 50 52  2  0  0  0  0
 50 55  1  0  0  0  0
 51 53  2  0  0  0  0
 51 56  1  0  0  0  0
 52 53  1  0  0  0  0
 52 57  1  0  0  0  0
 53 58  1  0  0  0  0
M  END