6bd.pdb
 OpenBabel09221412193D

 68 71  0  0  0  0  0  0  0  0999 V2000
   -1.3860   -1.9640    1.4610 H   0  0  0  0  0  0  0  0  0  0  0  0
   -1.0030   -1.0860    0.9520 C   0  0  0  0  0  0  0  0  0  0  0  0
   -0.8980    0.1520    1.5910 C   0  0  0  0  0  0  0  0  0  0  0  0
   -0.3970    1.2500    0.8840 C   0  0  0  0  0  0  0  0  0  0  0  0
   -0.3270    2.2180    1.3760 H   0  0  0  0  0  0  0  0  0  0  0  0
    0.0080    1.1180   -0.4450 C   0  0  0  0  0  0  0  0  0  0  0  0
    0.3780    1.9890   -0.9780 H   0  0  0  0  0  0  0  0  0  0  0  0
   -0.0850   -0.1270   -1.0720 C   0  0  0  0  0  0  0  0  0  0  0  0
    0.3480   -0.3030   -2.4770 C   0  0  0  0  0  0  0  0  0  0  0  0
   -0.6040   -1.2240   -0.3820 C   0  0  0  0  0  0  0  0  0  0  0  0
   -0.6840   -2.1920   -0.8730 H   0  0  0  0  0  0  0  0  0  0  0  0
   -0.3530   -0.9190   -3.2720 O   0  0  0  0  0  0  0  0  0  0  0  0
    1.6790    0.2570   -2.8660 C   0  0  0  0  0  0  0  0  0  0  0  0
    1.7000    0.9260   -4.0350 C   0  0  0  0  0  0  0  0  0  0  0  0
    3.5850   -1.7770   -0.2430 C   0  0  0  0  0  0  0  0  0  0  0  0
    0.8050    1.0290   -4.6470 H   0  0  0  0  0  0  0  0  0  0  0  0
    2.9110    1.5400   -4.5790 C   0  0  0  0  0  0  0  0  0  0  0  0
    4.7360   -1.0080    0.2960 C   0  0  0  0  0  0  0  0  0  0  0  0
    4.7610   -0.7120    1.6630 C   0  0  0  0  0  0  0  0  0  0  0  0
    3.4380    2.7050   -4.0050 C   0  0  0  0  0  0  0  0  0  0  0  0
    3.5970    0.9050   -5.6210 C   0  0  0  0  0  0  0  0  0  0  0  0
    4.8280    1.4000   -6.0530 C   0  0  0  0  0  0  0  0  0  0  0  0
    4.6710    3.2000   -4.4310 C   0  0  0  0  0  0  0  0  0  0  0  0
    5.3580    2.5390   -5.4470 C   0  0  0  0  0  0  0  0  0  0  0  0
    2.8600   -0.0090   -1.9560 C   0  0  0  0  0  0  0  0  0  0  0  0
    3.1040   -1.4620   -1.6240 C   0  0  0  0  0  0  0  0  0  0  0  0
    2.7120    0.5650   -1.0330 H   0  0  0  0  0  0  0  0  0  0  0  0
    3.7860    0.3800   -2.3930 H   0  0  0  0  0  0  0  0  0  0  0  0
    2.8540   -2.5180   -2.4160 C   0  0  0  0  0  0  0  0  0  0  0  0
    5.8260    0.0130    2.2100 C   0  0  0  0  0  0  0  0  0  0  0  0
    5.1030    4.0740   -3.9540 H   0  0  0  0  0  0  0  0  0  0  0  0
    6.6750    2.9630   -5.6950 O   0  0  0  0  0  0  0  0  0  0  0  0
    3.1960    0.0010   -6.0750 H   0  0  0  0  0  0  0  0  0  0  0  0
    5.3710    0.8740   -6.8320 H   0  0  0  0  0  0  0  0  0  0  0  0
    2.9130    3.2080   -3.1970 H   0  0  0  0  0  0  0  0  0  0  0  0
   -1.2500    0.4230    2.8840 O   0  0  0  0  0  0  0  0  0  0  0  0
    3.0170   -3.5370   -2.0720 H   0  0  0  0  0  0  0  0  0  0  0  0
    2.4670   -2.4020   -3.4240 H   0  0  0  0  0  0  0  0  0  0  0  0
    3.0220   -2.6160    0.4530 O   0  0  0  0  0  0  0  0  0  0  0  0
    5.7980   -0.6040   -0.5190 C   0  0  0  0  0  0  0  0  0  0  0  0
    6.8590    0.1180    0.0330 C   0  0  0  0  0  0  0  0  0  0  0  0
    6.8780    0.4340    1.3950 C   0  0  0  0  0  0  0  0  0  0  0  0
    7.9730    1.1470    1.7980 O   0  0  0  0  0  0  0  0  0  0  0  0
    7.6860    0.4310   -0.6010 H   0  0  0  0  0  0  0  0  0  0  0  0
    3.9480   -1.0430    2.3070 H   0  0  0  0  0  0  0  0  0  0  0  0
    5.8030    0.2250    3.2740 H   0  0  0  0  0  0  0  0  0  0  0  0
    5.8270   -0.8570   -1.5760 H   0  0  0  0  0  0  0  0  0  0  0  0
   -1.7690   -0.6580    3.6480 C   0  0  0  0  0  0  0  0  0  0  0  0
    8.0460    1.4900    3.1770 C   0  0  0  0  0  0  0  0  0  0  0  0
   -2.0020   -0.2790    4.6470 H   0  0  0  0  0  0  0  0  0  0  0  0
   -1.0250   -1.4550    3.7590 H   0  0  0  0  0  0  0  0  0  0  0  0
   -2.6980   -1.0400    3.2110 H   0  0  0  0  0  0  0  0  0  0  0  0
    8.9720    2.0510    3.3330 H   0  0  0  0  0  0  0  0  0  0  0  0
    8.0890    0.5950    3.8050 H   0  0  0  0  0  0  0  0  0  0  0  0
    7.2120    2.1380    3.4660 H   0  0  0  0  0  0  0  0  0  0  0  0
    7.1330    3.0120   -6.9990 C   0  0  0  0  0  0  0  0  0  0  0  0
    6.4590    3.0060   -8.0160 O   0  0  0  0  0  0  0  0  0  0  0  0
    8.6220    3.0550   -6.9890 C   0  0  0  0  0  0  0  0  0  0  0  0
    9.3720    2.8050   -5.8290 C   0  0  0  0  0  0  0  0  0  0  0  0
    9.2860    3.2970   -8.1980 C   0  0  0  0  0  0  0  0  0  0  0  0
   10.7670    2.7970   -5.8820 C   0  0  0  0  0  0  0  0  0  0  0  0
   10.6820    3.2910   -8.2460 C   0  0  0  0  0  0  0  0  0  0  0  0
   11.4200    3.0390   -7.0900 C   0  0  0  0  0  0  0  0  0  0  0  0
    8.8880    2.5970   -4.8780 H   0  0  0  0  0  0  0  0  0  0  0  0
    8.7200    3.4820   -9.1090 H   0  0  0  0  0  0  0  0  0  0  0  0
   11.3440    2.5940   -4.9830 H   0  0  0  0  0  0  0  0  0  0  0  0
   11.1940    3.4750   -9.1880 H   0  0  0  0  0  0  0  0  0  0  0  0
   12.5070    3.0260   -7.1310 H   0  0  0  0  0  0  0  0  0  0  0  0
  1  2  1  0  0  0  0
  2  3  2  0  0  0  0
  2 10  1  0  0  0  0
  3  4  1  0  0  0  0
  3 36  1  0  0  0  0
  4  5  1  0  0  0  0
  4  6  2  0  0  0  0
  6  7  1  0  0  0  0
  6  8  1  0  0  0  0
  8  9  1  0  0  0  0
  8 10  2  0  0  0  0
  9 12  2  0  0  0  0
  9 13  1  0  0  0  0
 10 11  1  0  0  0  0
 13 14  2  0  0  0  0
 13 25  1  0  0  0  0
 14 16  1  0  0  0  0
 14 17  1  0  0  0  0
 15 18  1  0  0  0  0
 15 26  1  0  0  0  0
 15 39  2  0  0  0  0
 17 20  2  0  0  0  0
 17 21  1  0  0  0  0
 18 19  2  0  0  0  0
 18 40  1  0  0  0  0
 19 30  1  0  0  0  0
 19 45  1  0  0  0  0
 20 23  1  0  0  0  0
 20 35  1  0  0  0  0
 21 22  2  0  0  0  0
 21 33  1  0  0  0  0
 22 24  1  0  0  0  0
 22 34  1  0  0  0  0
 23 24  2  0  0  0  0
 23 31  1  0  0  0  0
 24 32  1  0  0  0  0
 25 26  1  0  0  0  0
 25 27  1  0  0  0  0
 25 28  1  0  0  0  0
 26 29  2  0  0  0  0
 29 37  1  0  0  0  0
 29 38  1  0  0  0  0
 30 42  2  0  0  0  0
 30 46  1  0  0  0  0
 32 56  1  0  0  0  0
 36 48  1  0  0  0  0
 40 41  2  0  0  0  0
 40 47  1  0  0  0  0
 41 42  1  0  0  0  0
 41 44  1  0  0  0  0
 42 43  1  0  0  0  0
 43 49  1  0  0  0  0
 48 50  1  0  0  0  0
 48 51  1  0  0  0  0
 48 52  1  0  0  0  0
 49 53  1  0  0  0  0
 49 54  1  0  0  0  0
 49 55  1  0  0  0  0
 56 57  2  0  0  0  0
 56 58  1  0  0  0  0
 58 59  2  0  0  0  0
 58 60  1  0  0  0  0
 59 61  1  0  0  0  0
 59 64  1  0  0  0  0
 60 62  2  0  0  0  0
 60 65  1  0  0  0  0
 61 63  2  0  0  0  0
 61 66  1  0  0  0  0
 62 63  1  0  0  0  0
 62 67  1  0  0  0  0
 63 68  1  0  0  0  0
M  END