6bg.pdb
 OpenBabel09221412193D

 55 57  0  0  0  0  0  0  0  0999 V2000
   -1.2310   -1.8940    1.3120 H   0  0  0  0  0  0  0  0  0  0  0  0
   -0.8560   -1.0190    0.7910 C   0  0  0  0  0  0  0  0  0  0  0  0
   -0.8040    0.2380    1.3990 C   0  0  0  0  0  0  0  0  0  0  0  0
   -0.3100    1.3300    0.6780 C   0  0  0  0  0  0  0  0  0  0  0  0
   -0.2820    2.3120    1.1450 H   0  0  0  0  0  0  0  0  0  0  0  0
    0.1420    1.1730   -0.6330 C   0  0  0  0  0  0  0  0  0  0  0  0
    0.5080    2.0380   -1.1800 H   0  0  0  0  0  0  0  0  0  0  0  0
    0.0990   -0.0910   -1.2280 C   0  0  0  0  0  0  0  0  0  0  0  0
    0.5860   -0.2910   -2.6110 C   0  0  0  0  0  0  0  0  0  0  0  0
   -0.4140   -1.1830   -0.5260 C   0  0  0  0  0  0  0  0  0  0  0  0
   -0.4530   -2.1650   -0.9930 H   0  0  0  0  0  0  0  0  0  0  0  0
   -0.0950   -0.8950   -3.4310 O   0  0  0  0  0  0  0  0  0  0  0  0
    1.9470    0.2360   -2.9420 C   0  0  0  0  0  0  0  0  0  0  0  0
    2.0320    0.9030   -4.1080 C   0  0  0  0  0  0  0  0  0  0  0  0
    3.7000   -1.8160   -0.2200 C   0  0  0  0  0  0  0  0  0  0  0  0
    1.1610    1.0110   -4.7530 H   0  0  0  0  0  0  0  0  0  0  0  0
    3.2510    1.5400   -4.6110 C   0  0  0  0  0  0  0  0  0  0  0  0
    4.8520   -1.0590    0.3300 C   0  0  0  0  0  0  0  0  0  0  0  0
    4.8390   -0.7110    1.6850 C   0  0  0  0  0  0  0  0  0  0  0  0
    3.7930    2.6580   -3.9650 C   0  0  0  0  0  0  0  0  0  0  0  0
    3.8760    1.0380   -5.7560 C   0  0  0  0  0  0  0  0  0  0  0  0
    5.0400    1.6380   -6.2400 C   0  0  0  0  0  0  0  0  0  0  0  0
    4.9590    3.2550   -4.4480 C   0  0  0  0  0  0  0  0  0  0  0  0
    5.5820    2.7440   -5.5850 C   0  0  0  0  0  0  0  0  0  0  0  0
    3.0780   -0.0530   -1.9810 C   0  0  0  0  0  0  0  0  0  0  0  0
    3.2570   -1.5100   -1.6150 C   0  0  0  0  0  0  0  0  0  0  0  0
    2.9090    0.5390   -1.0740 H   0  0  0  0  0  0  0  0  0  0  0  0
    4.0320    0.2960   -2.3890 H   0  0  0  0  0  0  0  0  0  0  0  0
    2.9740   -2.5730   -2.3880 C   0  0  0  0  0  0  0  0  0  0  0  0
    5.8990    0.0180    2.2360 C   0  0  0  0  0  0  0  0  0  0  0  0
    5.3770    4.1200   -3.9410 H   0  0  0  0  0  0  0  0  0  0  0  0
    3.4640    0.1760   -6.2760 H   0  0  0  0  0  0  0  0  0  0  0  0
    5.5240    1.2440   -7.1310 H   0  0  0  0  0  0  0  0  0  0  0  0
    3.3120    3.0730   -3.0820 H   0  0  0  0  0  0  0  0  0  0  0  0
   -1.2020    0.5330    2.6730 O   0  0  0  0  0  0  0  0  0  0  0  0
    3.0880   -3.5890   -2.0200 H   0  0  0  0  0  0  0  0  0  0  0  0
    2.6090   -2.4640   -3.4050 H   0  0  0  0  0  0  0  0  0  0  0  0
    3.1060   -2.6320    0.4770 O   0  0  0  0  0  0  0  0  0  0  0  0
    5.9470   -0.7090   -0.4650 C   0  0  0  0  0  0  0  0  0  0  0  0
    7.0020    0.0180    0.0910 C   0  0  0  0  0  0  0  0  0  0  0  0
    6.9810    0.3920    1.4380 C   0  0  0  0  0  0  0  0  0  0  0  0
    8.0720    1.1080    1.8460 O   0  0  0  0  0  0  0  0  0  0  0  0
    7.8530    0.2920   -0.5290 H   0  0  0  0  0  0  0  0  0  0  0  0
    4.0000   -1.0020    2.3150 H   0  0  0  0  0  0  0  0  0  0  0  0
    5.8470    0.2730    3.2890 H   0  0  0  0  0  0  0  0  0  0  0  0
    6.0040   -1.0040   -1.5090 H   0  0  0  0  0  0  0  0  0  0  0  0
   -1.6960   -0.5470    3.4570 C   0  0  0  0  0  0  0  0  0  0  0  0
    8.0820    1.5540    3.1960 C   0  0  0  0  0  0  0  0  0  0  0  0
   -1.9650   -0.1490    4.4400 H   0  0  0  0  0  0  0  0  0  0  0  0
   -0.9270   -1.3110    3.6060 H   0  0  0  0  0  0  0  0  0  0  0  0
   -2.6010   -0.9750    3.0130 H   0  0  0  0  0  0  0  0  0  0  0  0
    9.0010    2.1260    3.3520 H   0  0  0  0  0  0  0  0  0  0  0  0
    8.0940    0.7070    3.8910 H   0  0  0  0  0  0  0  0  0  0  0  0
    7.2370    2.2200    3.3980 H   0  0  0  0  0  0  0  0  0  0  0  0
    6.4880    3.2100   -5.9640 H   0  0  0  0  0  0  0  0  0  0  0  0
  1  2  1  0  0  0  0
  2  3  2  0  0  0  0
  2 10  1  0  0  0  0
  3  4  1  0  0  0  0
  3 35  1  0  0  0  0
  4  5  1  0  0  0  0
  4  6  2  0  0  0  0
  6  7  1  0  0  0  0
  6  8  1  0  0  0  0
  8  9  1  0  0  0  0
  8 10  2  0  0  0  0
  9 12  2  0  0  0  0
  9 13  1  0  0  0  0
 10 11  1  0  0  0  0
 13 14  2  0  0  0  0
 13 25  1  0  0  0  0
 14 16  1  0  0  0  0
 14 17  1  0  0  0  0
 15 18  1  0  0  0  0
 15 26  1  0  0  0  0
 15 38  2  0  0  0  0
 17 20  2  0  0  0  0
 17 21  1  0  0  0  0
 18 19  2  0  0  0  0
 18 39  1  0  0  0  0
 19 30  1  0  0  0  0
 19 44  1  0  0  0  0
 20 23  1  0  0  0  0
 20 34  1  0  0  0  0
 21 22  2  0  0  0  0
 21 32  1  0  0  0  0
 22 24  1  0  0  0  0
 22 33  1  0  0  0  0
 23 24  2  0  0  0  0
 23 31  1  0  0  0  0
 24 55  1  0  0  0  0
 25 26  1  0  0  0  0
 25 27  1  0  0  0  0
 25 28  1  0  0  0  0
 26 29  2  0  0  0  0
 29 36  1  0  0  0  0
 29 37  1  0  0  0  0
 30 41  2  0  0  0  0
 30 45  1  0  0  0  0
 35 47  1  0  0  0  0
 39 40  2  0  0  0  0
 39 46  1  0  0  0  0
 40 41  1  0  0  0  0
 40 43  1  0  0  0  0
 41 42  1  0  0  0  0
 42 48  1  0  0  0  0
 47 49  1  0  0  0  0
 47 50  1  0  0  0  0
 47 51  1  0  0  0  0
 48 52  1  0  0  0  0
 48 53  1  0  0  0  0
 48 54  1  0  0  0  0
M  END