7ac.pdb
 OpenBabel09221412193D

 50 52  0  0  0  0  0  0  0  0999 V2000
   -2.5990   -0.7760    1.0280 H   0  0  0  0  0  0  0  0  0  0  0  0
   -1.7000   -0.2930    0.6610 C   0  0  0  0  0  0  0  0  0  0  0  0
   -1.0190    0.6620    1.4150 C   0  0  0  0  0  0  0  0  0  0  0  0
   -1.3660    1.0950    2.6650 O   0  0  0  0  0  0  0  0  0  0  0  0
    0.1210    1.2680    0.8830 C   0  0  0  0  0  0  0  0  0  0  0  0
    0.6490    2.0200    1.4640 H   0  0  0  0  0  0  0  0  0  0  0  0
    0.6030    0.9030   -0.3780 C   0  0  0  0  0  0  0  0  0  0  0  0
    1.5080    1.3800   -0.7390 H   0  0  0  0  0  0  0  0  0  0  0  0
   -0.0710   -0.0630   -1.1330 C   0  0  0  0  0  0  0  0  0  0  0  0
    0.4100   -0.5300   -2.4690 C   0  0  0  0  0  0  0  0  0  0  0  0
   -1.2300   -0.6490   -0.6090 C   0  0  0  0  0  0  0  0  0  0  0  0
   -1.7690   -1.4020   -1.1830 H   0  0  0  0  0  0  0  0  0  0  0  0
   -0.2880   -1.2380   -3.1880 O   0  0  0  0  0  0  0  0  0  0  0  0
    1.7900   -0.1780   -2.8920 C   0  0  0  0  0  0  0  0  0  0  0  0
    1.9140    1.0040   -3.5260 C   0  0  0  0  0  0  0  0  0  0  0  0
    4.4890   -1.6970   -0.9230 C   0  0  0  0  0  0  0  0  0  0  0  0
    1.0500    1.6470   -3.6850 H   0  0  0  0  0  0  0  0  0  0  0  0
    3.1750    1.5250   -4.0510 C   0  0  0  0  0  0  0  0  0  0  0  0
    4.0750    2.1810   -3.2010 C   0  0  0  0  0  0  0  0  0  0  0  0
    3.4880    1.3660   -5.4060 C   0  0  0  0  0  0  0  0  0  0  0  0
    4.6920    1.8590   -5.9140 C   0  0  0  0  0  0  0  0  0  0  0  0
    5.2800    2.6800   -3.7000 C   0  0  0  0  0  0  0  0  0  0  0  0
   -2.3270    0.3140    3.3640 C   0  0  0  0  0  0  0  0  0  0  0  0
   -2.4080    0.7160    4.3790 H   0  0  0  0  0  0  0  0  0  0  0  0
   -2.0070   -0.7300    3.4440 H   0  0  0  0  0  0  0  0  0  0  0  0
   -3.3130    0.3920    2.8950 H   0  0  0  0  0  0  0  0  0  0  0  0
    5.5850    2.5180   -5.0580 C   0  0  0  0  0  0  0  0  0  0  0  0
    2.8450   -1.2300   -2.6660 C   0  0  0  0  0  0  0  0  0  0  0  0
    3.0550   -1.5170   -1.2360 N   0  0  0  0  0  0  0  0  0  0  0  0
    3.7860   -0.8920   -3.1160 H   0  0  0  0  0  0  0  0  0  0  0  0
    2.5820   -2.1380   -3.2250 H   0  0  0  0  0  0  0  0  0  0  0  0
    2.3410   -2.7520   -0.8250 C   0  0  0  0  0  0  0  0  0  0  0  0
    5.9640    3.1900   -3.0240 H   0  0  0  0  0  0  0  0  0  0  0  0
    6.8510    3.0410   -5.5870 N   0  0  0  0  0  0  0  0  0  0  0  0
    2.7950    0.8540   -6.0740 H   0  0  0  0  0  0  0  0  0  0  0  0
    4.9160    1.7240   -6.9710 H   0  0  0  0  0  0  0  0  0  0  0  0
    3.8410    2.3080   -2.1450 H   0  0  0  0  0  0  0  0  0  0  0  0
    7.0930    2.8580   -6.7890 O   0  0  0  0  0  0  0  0  0  0  0  0
    7.6040    3.6320   -4.8000 O   0  0  0  0  0  0  0  0  0  0  0  0
    4.9080   -2.5040   -1.5390 H   0  0  0  0  0  0  0  0  0  0  0  0
    4.6940   -2.0400    0.5630 C   0  0  0  0  0  0  0  0  0  0  0  0
    5.0390   -0.7760   -1.1470 H   0  0  0  0  0  0  0  0  0  0  0  0
    2.6950   -3.6030   -1.4230 H   0  0  0  0  0  0  0  0  0  0  0  0
    1.2650   -2.6570   -0.9900 H   0  0  0  0  0  0  0  0  0  0  0  0
    2.5800   -3.0590    0.6600 C   0  0  0  0  0  0  0  0  0  0  0  0
    3.9780   -3.2260    0.9290 O   0  0  0  0  0  0  0  0  0  0  0  0
    2.0780   -3.9940    0.9310 H   0  0  0  0  0  0  0  0  0  0  0  0
    2.1770   -2.2660    1.3020 H   0  0  0  0  0  0  0  0  0  0  0  0
    4.3750   -1.2130    1.2080 H   0  0  0  0  0  0  0  0  0  0  0  0
    5.7560   -2.2230    0.7570 H   0  0  0  0  0  0  0  0  0  0  0  0
  1  2  1  0  0  0  0
  2  3  2  0  0  0  0
  2 11  1  0  0  0  0
  3  4  1  0  0  0  0
  3  5  1  0  0  0  0
  4 23  1  0  0  0  0
  5  6  1  0  0  0  0
  5  7  2  0  0  0  0
  7  8  1  0  0  0  0
  7  9  1  0  0  0  0
  9 10  1  0  0  0  0
  9 11  2  0  0  0  0
 10 13  2  0  0  0  0
 10 14  1  0  0  0  0
 11 12  1  0  0  0  0
 14 15  2  0  0  0  0
 14 28  1  0  0  0  0
 15 17  1  0  0  0  0
 15 18  1  0  0  0  0
 16 29  1  0  0  0  0
 16 40  1  0  0  0  0
 16 41  1  0  0  0  0
 16 42  1  0  0  0  0
 18 19  2  0  0  0  0
 18 20  1  0  0  0  0
 19 22  1  0  0  0  0
 19 37  1  0  0  0  0
 20 21  2  0  0  0  0
 20 35  1  0  0  0  0
 21 27  1  0  0  0  0
 21 36  1  0  0  0  0
 22 27  2  0  0  0  0
 22 33  1  0  0  0  0
 23 24  1  0  0  0  0
 23 25  1  0  0  0  0
 23 26  1  0  0  0  0
 27 34  1  0  0  0  0
 28 29  1  0  0  0  0
 28 30  1  0  0  0  0
 28 31  1  0  0  0  0
 29 32  1  0  0  0  0
 32 43  1  0  0  0  0
 32 44  1  0  0  0  0
 32 45  1  0  0  0  0
 34 38  2  0  0  0  0
 34 39  2  0  0  0  0
 41 46  1  0  0  0  0
 41 49  1  0  0  0  0
 41 50  1  0  0  0  0
 45 46  1  0  0  0  0
 45 47  1  0  0  0  0
 45 48  1  0  0  0  0
M  END