7bc.pdb
 OpenBabel09221412193D

 48 50  0  0  0  0  0  0  0  0999 V2000
   -2.7460   -0.6210    0.9710 H   0  0  0  0  0  0  0  0  0  0  0  0
   -1.7880   -0.2230    0.6520 C   0  0  0  0  0  0  0  0  0  0  0  0
   -1.0310    0.6180    1.4660 C   0  0  0  0  0  0  0  0  0  0  0  0
   -1.3650    1.0330    2.7250 O   0  0  0  0  0  0  0  0  0  0  0  0
    0.1860    1.1120    0.9930 C   0  0  0  0  0  0  0  0  0  0  0  0
    0.7780    1.7720    1.6220 H   0  0  0  0  0  0  0  0  0  0  0  0
    0.6620    0.7510   -0.2720 C   0  0  0  0  0  0  0  0  0  0  0  0
    1.6280    1.1350   -0.5860 H   0  0  0  0  0  0  0  0  0  0  0  0
   -0.0890   -0.1010   -1.0880 C   0  0  0  0  0  0  0  0  0  0  0  0
    0.3800   -0.5650   -2.4290 C   0  0  0  0  0  0  0  0  0  0  0  0
   -1.3200   -0.5790   -0.6190 C   0  0  0  0  0  0  0  0  0  0  0  0
   -1.9190   -1.2440   -1.2390 H   0  0  0  0  0  0  0  0  0  0  0  0
   -0.3280   -1.2680   -3.1440 O   0  0  0  0  0  0  0  0  0  0  0  0
    1.7550   -0.2090   -2.8690 C   0  0  0  0  0  0  0  0  0  0  0  0
    1.8740    0.9810   -3.4860 C   0  0  0  0  0  0  0  0  0  0  0  0
    4.5280   -1.6660   -0.9930 C   0  0  0  0  0  0  0  0  0  0  0  0
    1.0110    1.6290   -3.6270 H   0  0  0  0  0  0  0  0  0  0  0  0
    3.1320    1.5040   -4.0330 C   0  0  0  0  0  0  0  0  0  0  0  0
    4.0330    2.1240   -3.1550 C   0  0  0  0  0  0  0  0  0  0  0  0
    3.4680    1.4000   -5.3940 C   0  0  0  0  0  0  0  0  0  0  0  0
    4.6820    1.9060   -5.8660 C   0  0  0  0  0  0  0  0  0  0  0  0
    5.2460    2.6320   -3.6280 C   0  0  0  0  0  0  0  0  0  0  0  0
   -2.4710    0.3820    3.3390 C   0  0  0  0  0  0  0  0  0  0  0  0
   -2.5490    0.7540    4.3660 H   0  0  0  0  0  0  0  0  0  0  0  0
   -2.3170   -0.7010    3.3880 H   0  0  0  0  0  0  0  0  0  0  0  0
   -3.4060    0.6270    2.8250 H   0  0  0  0  0  0  0  0  0  0  0  0
    5.5630    2.5200   -4.9800 C   0  0  0  0  0  0  0  0  0  0  0  0
    2.8060   -1.2710   -2.6800 C   0  0  0  0  0  0  0  0  0  0  0  0
    3.0810   -1.5210   -1.2540 N   0  0  0  0  0  0  0  0  0  0  0  0
    3.7260   -0.9580   -3.1880 H   0  0  0  0  0  0  0  0  0  0  0  0
    2.5010   -2.1880   -3.2020 H   0  0  0  0  0  0  0  0  0  0  0  0
    2.4040   -2.7550   -0.7860 C   0  0  0  0  0  0  0  0  0  0  0  0
    5.9350    3.1130   -2.9380 H   0  0  0  0  0  0  0  0  0  0  0  0
    2.4130    0.6420   -6.5340 Cl  0  0  0  0  0  0  0  0  0  0  0  0
    4.9380    1.8220   -6.9190 H   0  0  0  0  0  0  0  0  0  0  0  0
    3.7970    2.2160   -2.0960 H   0  0  0  0  0  0  0  0  0  0  0  0
    4.9400   -2.4810   -1.6020 H   0  0  0  0  0  0  0  0  0  0  0  0
    4.7930   -1.9630    0.4930 C   0  0  0  0  0  0  0  0  0  0  0  0
    5.0510   -0.7410   -1.2610 H   0  0  0  0  0  0  0  0  0  0  0  0
    2.7470   -3.6150   -1.3770 H   0  0  0  0  0  0  0  0  0  0  0  0
    1.3200   -2.6780   -0.9110 H   0  0  0  0  0  0  0  0  0  0  0  0
    2.7060   -3.0240    0.6960 C   0  0  0  0  0  0  0  0  0  0  0  0
    4.1170   -3.1540    0.9150 O   0  0  0  0  0  0  0  0  0  0  0  0
    2.2350   -3.9620    1.0050 H   0  0  0  0  0  0  0  0  0  0  0  0
    2.3100   -2.2250    1.3350 H   0  0  0  0  0  0  0  0  0  0  0  0
    4.4790   -1.1260    1.1280 H   0  0  0  0  0  0  0  0  0  0  0  0
    5.8650   -2.1180    0.6540 H   0  0  0  0  0  0  0  0  0  0  0  0
    7.0590    3.1440   -5.5570 Cl  0  0  0  0  0  0  0  0  0  0  0  0
  1  2  1  0  0  0  0
  2  3  2  0  0  0  0
  2 11  1  0  0  0  0
  3  4  1  0  0  0  0
  3  5  1  0  0  0  0
  4 23  1  0  0  0  0
  5  6  1  0  0  0  0
  5  7  2  0  0  0  0
  7  8  1  0  0  0  0
  7  9  1  0  0  0  0
  9 10  1  0  0  0  0
  9 11  2  0  0  0  0
 10 13  2  0  0  0  0
 10 14  1  0  0  0  0
 11 12  1  0  0  0  0
 14 15  2  0  0  0  0
 14 28  1  0  0  0  0
 15 17  1  0  0  0  0
 15 18  1  0  0  0  0
 16 29  1  0  0  0  0
 16 37  1  0  0  0  0
 16 38  1  0  0  0  0
 16 39  1  0  0  0  0
 18 19  2  0  0  0  0
 18 20  1  0  0  0  0
 19 22  1  0  0  0  0
 19 36  1  0  0  0  0
 20 21  2  0  0  0  0
 20 34  1  0  0  0  0
 21 27  1  0  0  0  0
 21 35  1  0  0  0  0
 22 27  2  0  0  0  0
 22 33  1  0  0  0  0
 23 24  1  0  0  0  0
 23 25  1  0  0  0  0
 23 26  1  0  0  0  0
 27 48  1  0  0  0  0
 28 29  1  0  0  0  0
 28 30  1  0  0  0  0
 28 31  1  0  0  0  0
 29 32  1  0  0  0  0
 32 40  1  0  0  0  0
 32 41  1  0  0  0  0
 32 42  1  0  0  0  0
 38 43  1  0  0  0  0
 38 46  1  0  0  0  0
 38 47  1  0  0  0  0
 42 43  1  0  0  0  0
 42 44  1  0  0  0  0
 42 45  1  0  0  0  0
M  END