103
  Mrv0541 04071411322D          

 17 17  0  0  0  0            999 V2000
    3.7126    3.5724    0.0000 O   0  0  0  0  0  0  0  0  0  0  0  0
    2.8876    3.5724    0.0000 N   0  3  0  0  0  0  0  0  0  0  0  0
    2.4751    4.2869    0.0000 O   0  5  0  0  0  0  0  0  0  0  0  0
    2.4751    2.8579    0.0000 C   0  0  0  0  0  0  0  0  0  0  0  0
    2.8876    2.1435    0.0000 C   0  0  0  0  0  0  0  0  0  0  0  0
    2.4751    1.4290    0.0000 C   0  0  0  0  0  0  0  0  0  0  0  0
    1.6500    1.4290    0.0000 C   0  0  0  0  0  0  0  0  0  0  0  0
    1.2375    0.7145    0.0000 O   0  0  0  0  0  0  0  0  0  0  0  0
    1.2375    2.1435    0.0000 C   0  0  0  0  0  0  0  0  0  0  0  0
    1.6500    2.8579    0.0000 C   0  0  0  0  0  0  0  0  0  0  0  0
    0.4125    2.1435    0.0000 C   0  0  0  0  0  0  0  0  0  0  0  0
    0.0000    2.8579    0.0000 C   0  0  0  0  0  0  0  0  0  0  0  0
    0.0000    1.4290    0.0000 C   0  0  0  0  0  0  0  0  0  0  0  0
    0.4125    0.7145    0.0000 C   0  0  0  0  0  0  0  0  0  0  0  0
    2.8876    0.7145    0.0000 N   0  3  0  0  0  0  0  0  0  0  0  0
    3.7126    0.7145    0.0000 O   0  0  0  0  0  0  0  0  0  0  0  0
    2.4751    0.0000    0.0000 O   0  5  0  0  0  0  0  0  0  0  0  0
  1  2  2  0  0  0  0
  2  3  1  0  0  0  0
  2  4  1  0  0  0  0
  4  5  1  0  0  0  0
  5  6  2  0  0  0  0
  6  7  1  0  0  0  0
  7  8  1  0  0  0  0
  7  9  2  0  0  0  0
  9 10  1  0  0  0  0
  4 10  2  0  0  0  0
  9 11  1  0  0  0  0
 11 12  1  0  0  0  0
 11 13  1  0  0  0  0
 13 14  1  0  0  0  0
  6 15  1  0  0  0  0
 15 16  2  0  0  0  0
 15 17  1  0  0  0  0
M  CHG  4   2   1   3  -1  15   1  17  -1
M  END