104
  Mrv0541 04071411322D          

 16 16  0  0  0  0            999 V2000
    1.2375    4.2869    0.0000 O   0  0  0  0  0  0  0  0  0  0  0  0
    0.8250    3.5724    0.0000 N   0  3  0  0  0  0  0  0  0  0  0  0
    0.0000    3.5724    0.0000 O   0  5  0  0  0  0  0  0  0  0  0  0
    1.2375    2.8579    0.0000 C   0  0  0  0  0  0  0  0  0  0  0  0
    2.0625    2.8579    0.0000 C   0  0  0  0  0  0  0  0  0  0  0  0
    2.4751    2.1435    0.0000 C   0  0  0  0  0  0  0  0  0  0  0  0
    2.0625    1.4290    0.0000 C   0  0  0  0  0  0  0  0  0  0  0  0
    2.4751    0.7145    0.0000 O   0  0  0  0  0  0  0  0  0  0  0  0
    1.2375    1.4290    0.0000 C   0  0  0  0  0  0  0  0  0  0  0  0
    0.8250    2.1435    0.0000 C   0  0  0  0  0  0  0  0  0  0  0  0
    0.8250    0.7145    0.0000 N   0  3  0  0  0  0  0  0  0  0  0  0
    0.0000    0.7145    0.0000 O   0  0  0  0  0  0  0  0  0  0  0  0
    1.2375    0.0000    0.0000 O   0  5  0  0  0  0  0  0  0  0  0  0
    3.3001    2.1435    0.0000 N   0  3  0  0  0  0  0  0  0  0  0  0
    3.7126    2.8579    0.0000 O   0  0  0  0  0  0  0  0  0  0  0  0
    3.7126    1.4290    0.0000 O   0  5  0  0  0  0  0  0  0  0  0  0
  1  2  2  0  0  0  0
  2  3  1  0  0  0  0
  2  4  1  0  0  0  0
  4  5  1  0  0  0  0
  5  6  2  0  0  0  0
  6  7  1  0  0  0  0
  7  8  1  0  0  0  0
  7  9  2  0  0  0  0
  9 10  1  0  0  0  0
  4 10  2  0  0  0  0
  9 11  1  0  0  0  0
 11 12  2  0  0  0  0
 11 13  1  0  0  0  0
  6 14  1  0  0  0  0
 14 15  2  0  0  0  0
 14 16  1  0  0  0  0
M  CHG  6   2   1   3  -1  11   1  13  -1  14   1  16  -1
M  END