11
  Mrv0541 04071411322D          

 18 18  0  0  0  0            999 V2000
    0.0000    2.1434    0.0000 O   0  0  0  0  0  0  0  0  0  0  0  0
    0.4125    1.4290    0.0000 N   0  3  0  0  0  0  0  0  0  0  0  0
    0.0000    0.7144    0.0000 O   0  5  0  0  0  0  0  0  0  0  0  0
    1.2375    1.4290    0.0000 C   0  0  0  0  0  0  0  0  0  0  0  0
    1.6500    2.1434    0.0000 C   0  0  0  0  0  0  0  0  0  0  0  0
    2.4750    2.1434    0.0000 C   0  0  0  0  0  0  0  0  0  0  0  0
    2.8875    1.4290    0.0000 C   0  0  0  0  0  0  0  0  0  0  0  0
    3.7125    1.4290    0.0000 O   0  0  0  0  0  0  0  0  0  0  0  0
    4.1250    0.7144    0.0000 P   0  0  0  0  0  0  0  0  0  0  0  0
    3.4105    0.3019    0.0000 S   0  0  0  0  0  0  0  0  0  0  0  0
    4.8394    1.1269    0.0000 O   0  0  0  0  0  0  0  0  0  0  0  0
    4.8394    1.9519    0.0000 C   0  0  0  0  0  0  0  0  0  0  0  0
    5.5540    2.3644    0.0000 C   0  0  0  0  0  0  0  0  0  0  0  0
    4.5375    0.0000    0.0000 O   0  0  0  0  0  0  0  0  0  0  0  0
    5.3625    0.0000    0.0000 C   0  0  0  0  0  0  0  0  0  0  0  0
    5.7750    0.7144    0.0000 C   0  0  0  0  0  0  0  0  0  0  0  0
    2.4750    0.7144    0.0000 C   0  0  0  0  0  0  0  0  0  0  0  0
    1.6500    0.7144    0.0000 C   0  0  0  0  0  0  0  0  0  0  0  0
  1  2  2  0  0  0  0
  2  3  1  0  0  0  0
  2  4  1  0  0  0  0
  4  5  2  0  0  0  0
  5  6  1  0  0  0  0
  6  7  2  0  0  0  0
  7  8  1  0  0  0  0
  8  9  1  0  0  0  0
  9 10  2  0  0  0  0
  9 11  1  0  0  0  0
 11 12  1  0  0  0  0
 12 13  1  0  0  0  0
  9 14  1  0  0  0  0
 14 15  1  0  0  0  0
 15 16  1  0  0  0  0
  7 17  1  0  0  0  0
 17 18  2  0  0  0  0
  4 18  1  0  0  0  0
M  CHG  2   2   1   3  -1
M  END