147
  Mrv0541 04071411322D          

  6  6  0  0  0  0            999 V2000
    2.0946    0.6674    0.0000 S   0  0  0  0  0  0  0  0  0  0  0  0
    1.2696    0.6674    0.0000 C   0  0  0  0  0  0  0  0  0  0  0  0
    0.7846    0.0000    0.0000 N   0  0  0  0  0  0  0  0  0  0  0  0
    0.0000    0.2549    0.0000 C   0  0  0  0  0  0  0  0  0  0  0  0
    0.0000    1.0799    0.0000 C   0  0  0  0  0  0  0  0  0  0  0  0
    0.7846    1.3349    0.0000 N   0  0  0  0  0  0  0  0  0  0  0  0
  1  2  2  0  0  0  0
  2  3  1  0  0  0  0
  3  4  1  0  0  0  0
  4  5  1  0  0  0  0
  5  6  1  0  0  0  0
  2  6  1  0  0  0  0
M  END