190
  Mrv0541 04071411322D          

 16 16  0  0  0  0            999 V2000
    0.0000    0.0000    0.0000 C   0  0  0  0  0  0  0  0  0  0  0  0
    0.7145    0.4125    0.0000 C   0  0  0  0  0  0  0  0  0  0  0  0
    1.4290    0.0000    0.0000 C   0  0  0  0  0  0  0  0  0  0  0  0
    2.1435    0.4125    0.0000 C   0  0  0  0  0  0  0  0  0  0  0  0
    2.8579    0.0000    0.0000 C   0  0  0  0  0  0  0  0  0  0  0  0
    3.5724    0.4125    0.0000 C   0  0  0  0  0  0  0  0  0  0  0  0
    4.2869    0.0000    0.0000 C   0  0  0  0  0  0  0  0  0  0  0  0
    5.0014    0.4125    0.0000 C   0  0  0  0  0  0  0  0  0  0  0  0
    5.7159    0.0000    0.0000 C   0  0  0  0  0  0  0  0  0  0  0  0
    6.4304    0.4125    0.0000 C   0  0  0  0  0  0  0  0  0  0  0  0
    6.4304    1.2375    0.0000 C   0  0  0  0  0  0  0  0  0  0  0  0
    7.1449    1.6500    0.0000 C   0  0  0  0  0  0  0  0  0  0  0  0
    7.8594    1.2375    0.0000 C   0  0  0  0  0  0  0  0  0  0  0  0
    8.5738    1.6500    0.0000 O   0  0  0  0  0  0  0  0  0  0  0  0
    7.8594    0.4125    0.0000 C   0  0  0  0  0  0  0  0  0  0  0  0
    7.1449    0.0000    0.0000 C   0  0  0  0  0  0  0  0  0  0  0  0
  1  2  1  0  0  0  0
  2  3  1  0  0  0  0
  3  4  1  0  0  0  0
  4  5  1  0  0  0  0
  5  6  1  0  0  0  0
  6  7  1  0  0  0  0
  7  8  1  0  0  0  0
  8  9  1  0  0  0  0
  9 10  1  0  0  0  0
 10 11  1  0  0  0  0
 11 12  2  0  0  0  0
 12 13  1  0  0  0  0
 13 14  1  0  0  0  0
 13 15  2  0  0  0  0
 15 16  1  0  0  0  0
 10 16  2  0  0  0  0
M  END