191
  Mrv0541 04071411322D          

  9  9  0  0  0  0            999 V2000
    3.7125    0.0000    0.0000 O   0  0  0  0  0  0  0  0  0  0  0  0
    3.3000    0.7144    0.0000 C   0  0  0  0  0  0  0  0  0  0  0  0
    2.4750    0.7144    0.0000 C   0  0  0  0  0  0  0  0  0  0  0  0
    2.0625    0.0000    0.0000 C   0  0  0  0  0  0  0  0  0  0  0  0
    1.2375    0.0000    0.0000 C   0  0  0  0  0  0  0  0  0  0  0  0
    0.8250    0.7144    0.0000 C   0  0  0  0  0  0  0  0  0  0  0  0
    0.0000    0.7144    0.0000 Cl  0  0  0  0  0  0  0  0  0  0  0  0
    1.2375    1.4290    0.0000 C   0  0  0  0  0  0  0  0  0  0  0  0
    2.0625    1.4290    0.0000 C   0  0  0  0  0  0  0  0  0  0  0  0
  1  2  2  0  0  0  0
  2  3  1  0  0  0  0
  3  4  1  0  0  0  0
  4  5  2  0  0  0  0
  5  6  1  0  0  0  0
  6  7  1  0  0  0  0
  6  8  2  0  0  0  0
  8  9  1  0  0  0  0
  3  9  2  0  0  0  0
M  END