222
  Mrv0541 04071411322D          

  6  6  0  0  0  0            999 V2000
    1.4290    0.4125    0.0000 O   0  0  0  0  0  0  0  0  0  0  0  0
    0.7144    0.0000    0.0000 C   0  0  0  0  0  0  0  0  0  0  0  0
    0.0000    0.4125    0.0000 C   0  0  0  0  0  0  0  0  0  0  0  0
    0.0000    1.2375    0.0000 N   0  0  0  0  0  0  0  0  0  0  0  0
    0.7144    1.6500    0.0000 C   0  0  0  0  0  0  0  0  0  0  0  0
    1.4290    1.2375    0.0000 C   0  0  0  0  0  0  0  0  0  0  0  0
  1  2  1  0  0  0  0
  2  3  1  0  0  0  0
  3  4  1  0  0  0  0
  4  5  1  0  0  0  0
  5  6  1  0  0  0  0
  1  6  1  0  0  0  0
M  END