23
  Mrv0541 04071411322D          

 11 10  0  0  0  0            999 V2000
    0.0000    1.7605    0.0000 C   0  0  0  0  0  0  0  0  0  0  0  0
    0.4125    2.4750    0.0000 O   0  0  0  0  0  0  0  0  0  0  0  0
    1.2375    2.4750    0.0000 P   0  0  0  0  0  0  0  0  0  0  0  0
    2.0625    2.4750    0.0000 O   0  0  0  0  0  0  0  0  0  0  0  0
    1.2375    3.3000    0.0000 O   0  0  0  0  0  0  0  0  0  0  0  0
    1.9519    3.7125    0.0000 C   0  0  0  0  0  0  0  0  0  0  0  0
    1.2375    1.6500    0.0000 O   0  0  0  0  0  0  0  0  0  0  0  0
    1.9519    1.2375    0.0000 C   0  0  0  0  0  0  0  0  0  0  0  0
    1.9519    0.4125    0.0000 C   0  0  0  0  0  0  0  0  0  0  0  0
    2.6665    0.0000    0.0000 Cl  0  0  0  0  0  0  0  0  0  0  0  0
    1.2375    0.0000    0.0000 Cl  0  0  0  0  0  0  0  0  0  0  0  0
  1  2  1  0  0  0  0
  2  3  1  0  0  0  0
  3  4  2  0  0  0  0
  3  5  1  0  0  0  0
  5  6  1  0  0  0  0
  3  7  1  0  0  0  0
  7  8  1  0  0  0  0
  8  9  2  0  0  0  0
  9 10  1  0  0  0  0
  9 11  1  0  0  0  0
M  END