243
  Mrv0541 04071411322D          

 22 23  0  0  0  0            999 V2000
    0.0000    1.6500    0.0000 C   0  0  0  0  0  0  0  0  0  0  0  0
    0.4125    0.9356    0.0000 C   0  0  0  0  0  0  0  0  0  0  0  0
    1.2375    0.9356    0.0000 O   0  0  0  0  0  0  0  0  0  0  0  0
    1.6500    1.6500    0.0000 P   0  0  0  0  0  0  0  0  0  0  0  0
    2.0625    2.3645    0.0000 S   0  0  0  0  0  0  0  0  0  0  0  0
    0.9356    2.0625    0.0000 O   0  0  0  0  0  0  0  0  0  0  0  0
    0.9356    2.8876    0.0000 C   0  0  0  0  0  0  0  0  0  0  0  0
    1.6500    3.3001    0.0000 C   0  0  0  0  0  0  0  0  0  0  0  0
    2.3645    1.2375    0.0000 O   0  0  0  0  0  0  0  0  0  0  0  0
    3.0790    1.6500    0.0000 C   0  0  0  0  0  0  0  0  0  0  0  0
    3.0790    2.4751    0.0000 C   0  0  0  0  0  0  0  0  0  0  0  0
    3.7935    2.8876    0.0000 C   0  0  0  0  0  0  0  0  0  0  0  0
    4.5080    2.4751    0.0000 C   0  0  0  0  0  0  0  0  0  0  0  0
    5.2225    2.8876    0.0000 O   0  0  0  0  0  0  0  0  0  0  0  0
    4.5080    1.6500    0.0000 N   0  0  0  0  0  0  0  0  0  0  0  0
    3.7935    1.2375    0.0000 N   0  0  0  0  0  0  0  0  0  0  0  0
    5.2225    1.2375    0.0000 C   0  0  0  0  0  0  0  0  0  0  0  0
    5.9369    1.6500    0.0000 C   0  0  0  0  0  0  0  0  0  0  0  0
    6.6514    1.2375    0.0000 C   0  0  0  0  0  0  0  0  0  0  0  0
    6.6514    0.4125    0.0000 C   0  0  0  0  0  0  0  0  0  0  0  0
    5.9369    0.0000    0.0000 C   0  0  0  0  0  0  0  0  0  0  0  0
    5.2225    0.4125    0.0000 C   0  0  0  0  0  0  0  0  0  0  0  0
  1  2  1  0  0  0  0
  2  3  1  0  0  0  0
  3  4  1  0  0  0  0
  4  5  2  0  0  0  0
  4  6  1  0  0  0  0
  6  7  1  0  0  0  0
  7  8  1  0  0  0  0
  4  9  1  0  0  0  0
  9 10  1  0  0  0  0
 10 11  1  0  0  0  0
 11 12  2  0  0  0  0
 12 13  1  0  0  0  0
 13 14  2  0  0  0  0
 13 15  1  0  0  0  0
 15 16  1  0  0  0  0
 10 16  2  0  0  0  0
 15 17  1  0  0  0  0
 17 18  1  0  0  0  0
 18 19  2  0  0  0  0
 19 20  1  0  0  0  0
 20 21  2  0  0  0  0
 21 22  1  0  0  0  0
 17 22  2  0  0  0  0
M  END