246
  Mrv0541 04071411322D          

 15 16  0  0  0  0            999 V2000
    5.0013    0.0000    0.0000 Cl  0  0  0  0  0  0  0  0  0  0  0  0
    4.2868    0.4125    0.0000 C   0  0  0  0  0  0  0  0  0  0  0  0
    3.5724    0.0000    0.0000 C   0  0  0  0  0  0  0  0  0  0  0  0
    2.8579    0.4125    0.0000 C   0  0  0  0  0  0  0  0  0  0  0  0
    2.8579    1.2375    0.0000 C   0  0  0  0  0  0  0  0  0  0  0  0
    3.5724    1.6500    0.0000 C   0  0  0  0  0  0  0  0  0  0  0  0
    4.2868    1.2375    0.0000 C   0  0  0  0  0  0  0  0  0  0  0  0
    2.1434    1.6500    0.0000 C   0  0  0  0  0  0  0  0  0  0  0  0
    2.1434    2.4750    0.0000 O   0  0  0  0  0  0  0  0  0  0  0  0
    1.4290    1.2375    0.0000 C   0  0  0  0  0  0  0  0  0  0  0  0
    1.4290    0.4125    0.0000 C   0  0  0  0  0  0  0  0  0  0  0  0
    0.7144    0.0000    0.0000 C   0  0  0  0  0  0  0  0  0  0  0  0
    0.0000    0.4125    0.0000 C   0  0  0  0  0  0  0  0  0  0  0  0
    0.0000    1.2375    0.0000 C   0  0  0  0  0  0  0  0  0  0  0  0
    0.7144    1.6500    0.0000 C   0  0  0  0  0  0  0  0  0  0  0  0
  1  2  1  0  0  0  0
  2  3  1  0  0  0  0
  3  4  2  0  0  0  0
  4  5  1  0  0  0  0
  5  6  2  0  0  0  0
  6  7  1  0  0  0  0
  2  7  2  0  0  0  0
  5  8  1  0  0  0  0
  8  9  1  0  0  0  0
  8 10  1  0  0  0  0
 10 11  1  0  0  0  0
 11 12  2  0  0  0  0
 12 13  1  0  0  0  0
 13 14  2  0  0  0  0
 14 15  1  0  0  0  0
 10 15  2  0  0  0  0
M  END