251
  Mrv0541 04071411322D          

 26 28  0  0  0  0            999 V2000
    8.6625   -5.1118    0.0000 O   0  0  0  0  0  0  0  0  0  0  0  0
    8.2500   -4.3974    0.0000 C   0  0  0  0  0  0  0  0  0  0  0  0
    7.4250   -4.3974    0.0000 O   0  0  0  0  0  0  0  0  0  0  0  0
    7.0125   -3.6829    0.0000 N   0  0  0  0  0  0  0  0  0  0  0  0
    6.1875   -3.6829    0.0000 C   0  0  0  0  0  0  0  0  0  0  0  0
    5.7750   -4.3974    0.0000 C   0  0  0  0  0  0  0  0  0  0  0  0
    4.9500   -4.3974    0.0000 C   0  0  0  0  0  0  0  0  0  0  0  0
    4.5375   -3.6829    0.0000 C   0  0  0  0  0  0  0  0  0  0  0  0
    4.9500   -2.9684    0.0000 C   0  0  0  0  0  0  0  0  0  0  0  0
    5.7750   -2.9684    0.0000 C   0  0  0  0  0  0  0  0  0  0  0  0
    3.7125   -3.6829    0.0000 N   0  0  0  0  0  0  0  0  0  0  0  0
    3.3000   -2.9684    0.0000 O   0  0  0  0  0  0  0  0  0  0  0  0
    2.4750   -2.9684    0.0000 C   0  0  0  0  0  0  0  0  0  0  0  0
    2.0625   -3.6829    0.0000 O   0  0  0  0  0  0  0  0  0  0  0  0
    2.0625   -2.2539    0.0000 C   0  0  0  0  0  0  0  0  0  0  0  0
    1.2375   -2.2539    0.0000 C   0  0  0  0  0  0  0  0  0  0  0  0
    0.8250   -1.5395    0.0000 C   0  0  0  0  0  0  0  0  0  0  0  0
    1.2375   -0.8250    0.0000 C   0  0  0  0  0  0  0  0  0  0  0  0
    2.0625   -0.8250    0.0000 C   0  0  0  0  0  0  0  0  0  0  0  0
    2.4750   -1.5395    0.0000 C   0  0  0  0  0  0  0  0  0  0  0  0
    8.6625   -3.6829    0.0000 C   0  0  0  0  0  0  0  0  0  0  0  0
    8.2500   -2.9684    0.0000 C   0  0  0  0  0  0  0  0  0  0  0  0
    8.6625   -2.2539    0.0000 C   0  0  0  0  0  0  0  0  0  0  0  0
    9.4875   -2.2539    0.0000 C   0  0  0  0  0  0  0  0  0  0  0  0
    9.9000   -2.9684    0.0000 C   0  0  0  0  0  0  0  0  0  0  0  0
    9.4875   -3.6829    0.0000 C   0  0  0  0  0  0  0  0  0  0  0  0
  1  2  2  0  0  0  0
  2  3  1  0  0  0  0
  3  4  1  0  0  0  0
  4  5  2  0  0  0  0
  5  6  1  0  0  0  0
  6  7  2  0  0  0  0
  7  8  1  0  0  0  0
  8  9  1  0  0  0  0
  9 10  2  0  0  0  0
  5 10  1  0  0  0  0
  8 11  2  0  0  0  0
 11 12  1  0  0  0  0
 12 13  1  0  0  0  0
 13 14  2  0  0  0  0
 13 15  1  0  0  0  0
 15 16  1  0  0  0  0
 16 17  2  0  0  0  0
 17 18  1  0  0  0  0
 18 19  2  0  0  0  0
 19 20  1  0  0  0  0
 15 20  2  0  0  0  0
  2 21  1  0  0  0  0
 21 22  1  0  0  0  0
 22 23  2  0  0  0  0
 23 24  1  0  0  0  0
 24 25  2  0  0  0  0
 25 26  1  0  0  0  0
 21 26  2  0  0  0  0
M  END