254
  Mrv0541 04071411322D          

 20 23  0  0  0  0            999 V2000
    7.4595    1.9520    0.0000 C   0  0  0  0  0  0  0  0  0  0  0  0
    7.4595    1.1270    0.0000 C   0  0  0  0  0  0  0  0  0  0  0  0
    6.7450    0.7145    0.0000 C   0  0  0  0  0  0  0  0  0  0  0  0
    6.0305    1.1270    0.0000 C   0  0  0  0  0  0  0  0  0  0  0  0
    5.2459    0.8720    0.0000 S   0  0  0  0  0  0  0  0  0  0  0  0
    4.7610    1.5395    0.0000 C   0  0  0  0  0  0  0  0  0  0  0  0
    3.9360    1.5395    0.0000 S   0  0  0  0  0  0  0  0  0  0  0  0
    3.5235    0.8250    0.0000 S   0  0  0  0  0  0  0  0  0  0  0  0
    2.6985    0.8250    0.0000 C   0  0  0  0  0  0  0  0  0  0  0  0
    2.2136    0.1576    0.0000 N   0  0  0  0  0  0  0  0  0  0  0  0
    1.4290    0.4125    0.0000 C   0  0  0  0  0  0  0  0  0  0  0  0
    0.7145    0.0000    0.0000 C   0  0  0  0  0  0  0  0  0  0  0  0
    0.0000    0.4125    0.0000 C   0  0  0  0  0  0  0  0  0  0  0  0
    0.0000    1.2375    0.0000 C   0  0  0  0  0  0  0  0  0  0  0  0
    0.7145    1.6500    0.0000 C   0  0  0  0  0  0  0  0  0  0  0  0
    1.4290    1.2375    0.0000 C   0  0  0  0  0  0  0  0  0  0  0  0
    2.2136    1.4924    0.0000 S   0  0  0  0  0  0  0  0  0  0  0  0
    5.2459    2.2069    0.0000 N   0  0  0  0  0  0  0  0  0  0  0  0
    6.0305    1.9520    0.0000 C   0  0  0  0  0  0  0  0  0  0  0  0
    6.7450    2.3645    0.0000 C   0  0  0  0  0  0  0  0  0  0  0  0
  1  2  1  0  0  0  0
  2  3  2  0  0  0  0
  3  4  1  0  0  0  0
  4  5  1  0  0  0  0
  5  6  1  0  0  0  0
  6  7  1  0  0  0  0
  7  8  1  0  0  0  0
  8  9  1  0  0  0  0
  9 10  2  0  0  0  0
 10 11  1  0  0  0  0
 11 12  1  0  0  0  0
 12 13  1  0  0  0  0
 13 14  1  0  0  0  0
 14 15  1  0  0  0  0
 15 16  1  0  0  0  0
 11 16  1  0  0  0  0
 16 17  1  0  0  0  0
  9 17  1  0  0  0  0
  6 18  2  0  0  0  0
 18 19  1  0  0  0  0
  4 19  2  0  0  0  0
 19 20  1  0  0  0  0
  1 20  2  0  0  0  0
M  END