301
  Mrv0541 04071411322D          

 16 15  0  0  0  0            999 V2000
    1.9520    1.9520    0.0000 C   0  0  0  0  0  0  0  0  0  0  0  0
    1.1270    1.9520    0.0000 C   0  0  0  0  0  0  0  0  0  0  0  0
    0.7145    2.6665    0.0000 S   0  0  0  0  0  0  0  0  0  0  0  0
    1.4290    3.0790    0.0000 O   0  0  0  0  0  0  0  0  0  0  0  0
    0.0000    2.2540    0.0000 O   0  0  0  0  0  0  0  0  0  0  0  0
    0.3020    3.3809    0.0000 C   0  0  0  0  0  0  0  0  0  0  0  0
    0.7145    4.0954    0.0000 C   0  0  0  0  0  0  0  0  0  0  0  0
    2.3645    1.2375    0.0000 S   0  0  0  0  0  0  0  0  0  0  0  0
    3.1895    1.2375    0.0000 P   0  0  0  0  0  0  0  0  0  0  0  0
    3.1895    2.0625    0.0000 S   0  0  0  0  0  0  0  0  0  0  0  0
    3.1895    0.4125    0.0000 O   0  0  0  0  0  0  0  0  0  0  0  0
    2.4750    0.0000    0.0000 C   0  0  0  0  0  0  0  0  0  0  0  0
    1.7606    0.4125    0.0000 C   0  0  0  0  0  0  0  0  0  0  0  0
    4.0145    1.2375    0.0000 O   0  0  0  0  0  0  0  0  0  0  0  0
    4.4270    1.9520    0.0000 C   0  0  0  0  0  0  0  0  0  0  0  0
    5.2520    1.9520    0.0000 C   0  0  0  0  0  0  0  0  0  0  0  0
  1  2  1  0  0  0  0
  2  3  1  0  0  0  0
  3  4  2  0  0  0  0
  3  5  2  0  0  0  0
  3  6  1  0  0  0  0
  6  7  1  0  0  0  0
  1  8  1  0  0  0  0
  8  9  1  0  0  0  0
  9 10  2  0  0  0  0
  9 11  1  0  0  0  0
 11 12  1  0  0  0  0
 12 13  1  0  0  0  0
  9 14  1  0  0  0  0
 14 15  1  0  0  0  0
 15 16  1  0  0  0  0
M  END