302
  Mrv0541 04071411322D          

 15 14  0  0  0  0            999 V2000
    2.8579    1.4290    0.0000 C   0  0  0  0  0  0  0  0  0  0  0  0
    3.5724    1.0165    0.0000 C   0  0  0  0  0  0  0  0  0  0  0  0
    4.2868    1.4290    0.0000 S   0  0  0  0  0  0  0  0  0  0  0  0
    4.2868    2.2540    0.0000 O   0  0  0  0  0  0  0  0  0  0  0  0
    5.0013    1.0165    0.0000 C   0  0  0  0  0  0  0  0  0  0  0  0
    5.0013    0.1915    0.0000 C   0  0  0  0  0  0  0  0  0  0  0  0
    2.1434    1.0165    0.0000 S   0  0  0  0  0  0  0  0  0  0  0  0
    1.4290    1.4290    0.0000 P   0  0  0  0  0  0  0  0  0  0  0  0
    1.8415    2.1434    0.0000 S   0  0  0  0  0  0  0  0  0  0  0  0
    1.0165    0.7144    0.0000 O   0  0  0  0  0  0  0  0  0  0  0  0
    1.4290    0.0000    0.0000 C   0  0  0  0  0  0  0  0  0  0  0  0
    2.2540    0.0000    0.0000 C   0  0  0  0  0  0  0  0  0  0  0  0
    0.7144    1.8415    0.0000 O   0  0  0  0  0  0  0  0  0  0  0  0
    0.7144    2.6665    0.0000 C   0  0  0  0  0  0  0  0  0  0  0  0
    0.0000    3.0790    0.0000 C   0  0  0  0  0  0  0  0  0  0  0  0
  1  2  1  0  0  0  0
  2  3  1  0  0  0  0
  3  4  2  0  0  0  0
  3  5  1  0  0  0  0
  5  6  1  0  0  0  0
  1  7  1  0  0  0  0
  7  8  1  0  0  0  0
  8  9  2  0  0  0  0
  8 10  1  0  0  0  0
 10 11  1  0  0  0  0
 11 12  1  0  0  0  0
  8 13  1  0  0  0  0
 13 14  1  0  0  0  0
 14 15  1  0  0  0  0
M  END