303
  Mrv0541 04071411322D          

 14 13  0  0  0  0            999 V2000
    2.8579    1.4290    0.0000 C   0  0  0  0  0  0  0  0  0  0  0  0
    3.5724    1.0165    0.0000 C   0  0  0  0  0  0  0  0  0  0  0  0
    4.2869    1.4290    0.0000 S   0  0  0  0  0  0  0  0  0  0  0  0
    5.0014    1.0165    0.0000 C   0  0  0  0  0  0  0  0  0  0  0  0
    5.7159    1.4290    0.0000 C   0  0  0  0  0  0  0  0  0  0  0  0
    2.1435    1.0165    0.0000 S   0  0  0  0  0  0  0  0  0  0  0  0
    1.4290    1.4290    0.0000 P   0  0  0  0  0  0  0  0  0  0  0  0
    1.8415    2.1435    0.0000 S   0  0  0  0  0  0  0  0  0  0  0  0
    1.0165    0.7145    0.0000 O   0  0  0  0  0  0  0  0  0  0  0  0
    1.4290    0.0000    0.0000 C   0  0  0  0  0  0  0  0  0  0  0  0
    2.2540    0.0000    0.0000 C   0  0  0  0  0  0  0  0  0  0  0  0
    0.7145    1.8415    0.0000 O   0  0  0  0  0  0  0  0  0  0  0  0
    0.7145    2.6665    0.0000 C   0  0  0  0  0  0  0  0  0  0  0  0
    0.0000    3.0790    0.0000 C   0  0  0  0  0  0  0  0  0  0  0  0
  1  2  1  0  0  0  0
  2  3  1  0  0  0  0
  3  4  1  0  0  0  0
  4  5  1  0  0  0  0
  1  6  1  0  0  0  0
  6  7  1  0  0  0  0
  7  8  2  0  0  0  0
  7  9  1  0  0  0  0
  9 10  1  0  0  0  0
 10 11  1  0  0  0  0
  7 12  1  0  0  0  0
 12 13  1  0  0  0  0
 13 14  1  0  0  0  0
M  END