305
  Mrv0541 04071411322D          

 19 19  0  0  0  0            999 V2000
    2.8579    4.1251    0.0000 C   0  0  0  0  0  0  0  0  0  0  0  0
    2.1435    3.7126    0.0000 C   0  0  0  0  0  0  0  0  0  0  0  0
    2.1435    2.8876    0.0000 O   0  0  0  0  0  0  0  0  0  0  0  0
    2.8579    2.4751    0.0000 C   0  0  0  0  0  0  0  0  0  0  0  0
    3.5724    2.8876    0.0000 O   0  0  0  0  0  0  0  0  0  0  0  0
    2.8579    1.6500    0.0000 C   0  0  0  0  0  0  0  0  0  0  0  0
    2.1435    1.2375    0.0000 S   0  0  0  0  0  0  0  0  0  0  0  0
    1.4290    1.6500    0.0000 P   0  0  0  0  0  0  0  0  0  0  0  0
    1.8415    2.3645    0.0000 S   0  0  0  0  0  0  0  0  0  0  0  0
    1.0165    0.9356    0.0000 O   0  0  0  0  0  0  0  0  0  0  0  0
    0.1915    0.9356    0.0000 C   0  0  0  0  0  0  0  0  0  0  0  0
    0.7145    2.0625    0.0000 O   0  0  0  0  0  0  0  0  0  0  0  0
    0.0000    1.6500    0.0000 C   0  0  0  0  0  0  0  0  0  0  0  0
    3.5724    1.2375    0.0000 C   0  0  0  0  0  0  0  0  0  0  0  0
    4.2869    1.6500    0.0000 C   0  0  0  0  0  0  0  0  0  0  0  0
    5.0014    1.2375    0.0000 C   0  0  0  0  0  0  0  0  0  0  0  0
    5.0014    0.4125    0.0000 C   0  0  0  0  0  0  0  0  0  0  0  0
    4.2869    0.0000    0.0000 C   0  0  0  0  0  0  0  0  0  0  0  0
    3.5724    0.4125    0.0000 C   0  0  0  0  0  0  0  0  0  0  0  0
  1  2  1  0  0  0  0
  2  3  1  0  0  0  0
  3  4  1  0  0  0  0
  4  5  2  0  0  0  0
  4  6  1  0  0  0  0
  6  7  1  0  0  0  0
  7  8  1  0  0  0  0
  8  9  2  0  0  0  0
  8 10  1  0  0  0  0
 10 11  1  0  0  0  0
  8 12  1  0  0  0  0
 12 13  1  0  0  0  0
  6 14  1  0  0  0  0
 14 15  1  0  0  0  0
 15 16  2  0  0  0  0
 16 17  1  0  0  0  0
 17 18  2  0  0  0  0
 18 19  1  0  0  0  0
 14 19  2  0  0  0  0
M  END