307
  Mrv0541 04071411322D          

  9  8  0  0  0  0            999 V2000
    1.7309    1.4290    0.0000 S   0  0  0  0  0  0  0  0  0  0  0  0
    2.1435    0.7145    0.0000 P   0  0  0  0  0  0  0  0  0  0  0  0
    2.8579    1.1270    0.0000 S   0  0  0  0  0  0  0  0  0  0  0  0
    2.5560    0.0000    0.0000 O   0  0  0  0  0  0  0  0  0  0  0  0
    3.3810    0.0000    0.0000 C   0  0  0  0  0  0  0  0  0  0  0  0
    3.7935    0.7145    0.0000 C   0  0  0  0  0  0  0  0  0  0  0  0
    1.4290    0.3020    0.0000 O   0  0  0  0  0  0  0  0  0  0  0  0
    0.7145    0.7145    0.0000 C   0  0  0  0  0  0  0  0  0  0  0  0
    0.0000    0.3020    0.0000 C   0  0  0  0  0  0  0  0  0  0  0  0
  1  2  2  0  0  0  0
  2  3  1  0  0  0  0
  2  4  1  0  0  0  0
  4  5  1  0  0  0  0
  5  6  1  0  0  0  0
  2  7  1  0  0  0  0
  7  8  1  0  0  0  0
  8  9  1  0  0  0  0
M  END