309
  Mrv0541 04071411322D          

 10  9  0  0  0  0            999 V2000
    1.1269    0.0000    0.0000 Cl  0  0  0  0  0  0  0  0  0  0  0  0
    0.7144    0.7144    0.0000 C   0  0  0  0  0  0  0  0  0  0  0  0
    0.0000    0.3019    0.0000 Cl  0  0  0  0  0  0  0  0  0  0  0  0
    0.3019    1.4289    0.0000 Cl  0  0  0  0  0  0  0  0  0  0  0  0
    1.4289    1.1269    0.0000 C   0  0  0  0  0  0  0  0  0  0  0  0
    2.1433    0.7144    0.0000 O   0  0  0  0  0  0  0  0  0  0  0  0
    2.8577    1.1269    0.0000 P   0  0  0  0  0  0  0  0  0  0  0  0
    2.4453    1.8414    0.0000 O   0  0  0  0  0  0  0  0  0  0  0  0
    3.5722    1.5394    0.0000 O   0  0  0  0  0  0  0  0  0  0  0  0
    3.2702    0.4125    0.0000 O   0  0  0  0  0  0  0  0  0  0  0  0
  1  2  1  0  0  0  0
  2  3  1  0  0  0  0
  2  4  1  0  0  0  0
  2  5  1  0  0  0  0
  5  6  1  0  0  0  0
  6  7  1  0  0  0  0
  7  8  2  0  0  0  0
  7  9  1  0  0  0  0
  7 10  1  0  0  0  0
M  END