312
  Mrv0541 04071411322D          

 12 12  0  0  0  0            999 V2000
    4.1250    0.8250    0.0000 Cl  0  0  0  0  0  0  0  0  0  0  0  0
    3.3000    0.8250    0.0000 C   0  0  0  0  0  0  0  0  0  0  0  0
    2.8875    0.1106    0.0000 C   0  0  0  0  0  0  0  0  0  0  0  0
    2.0625    0.1106    0.0000 C   0  0  0  0  0  0  0  0  0  0  0  0
    1.6500    0.8250    0.0000 C   0  0  0  0  0  0  0  0  0  0  0  0
    2.0625    1.5395    0.0000 C   0  0  0  0  0  0  0  0  0  0  0  0
    2.8875    1.5395    0.0000 C   0  0  0  0  0  0  0  0  0  0  0  0
    3.3000    2.2540    0.0000 Cl  0  0  0  0  0  0  0  0  0  0  0  0
    0.8250    0.8250    0.0000 C   0  0  0  0  0  0  0  0  0  0  0  0
    0.8250    0.0000    0.0000 F   0  0  0  0  0  0  0  0  0  0  0  0
    0.0000    0.8250    0.0000 F   0  0  0  0  0  0  0  0  0  0  0  0
    0.8250    1.6500    0.0000 F   0  0  0  0  0  0  0  0  0  0  0  0
  1  2  1  0  0  0  0
  2  3  1  0  0  0  0
  3  4  2  0  0  0  0
  4  5  1  0  0  0  0
  5  6  2  0  0  0  0
  6  7  1  0  0  0  0
  2  7  2  0  0  0  0
  7  8  1  0  0  0  0
  5  9  1  0  0  0  0
  9 10  1  0  0  0  0
  9 11  1  0  0  0  0
  9 12  1  0  0  0  0
M  END