315
  Mrv0541 04071411322D          

 19 19  0  0  0  0            999 V2000
    5.0013    0.0000    0.0000 C   0  0  0  0  0  0  0  0  0  0  0  0
    5.0013    0.8250    0.0000 C   0  0  0  0  0  0  0  0  0  0  0  0
    4.2868    1.2375    0.0000 O   0  0  0  0  0  0  0  0  0  0  0  0
    3.5724    0.8250    0.0000 P   0  0  0  0  0  0  0  0  0  0  0  0
    3.9849    0.1106    0.0000 S   0  0  0  0  0  0  0  0  0  0  0  0
    3.1599    1.5395    0.0000 O   0  0  0  0  0  0  0  0  0  0  0  0
    3.5724    2.2540    0.0000 C   0  0  0  0  0  0  0  0  0  0  0  0
    3.1599    2.9684    0.0000 C   0  0  0  0  0  0  0  0  0  0  0  0
    2.8579    0.4125    0.0000 O   0  0  0  0  0  0  0  0  0  0  0  0
    2.1434    0.8250    0.0000 C   0  0  0  0  0  0  0  0  0  0  0  0
    1.4290    0.4125    0.0000 C   0  0  0  0  0  0  0  0  0  0  0  0
    0.7144    0.8250    0.0000 C   0  0  0  0  0  0  0  0  0  0  0  0
    0.0000    0.4125    0.0000 C   0  0  0  0  0  0  0  0  0  0  0  0
    0.7144    1.6500    0.0000 N   0  0  0  0  0  0  0  0  0  0  0  0
    1.4290    2.0625    0.0000 C   0  0  0  0  0  0  0  0  0  0  0  0
    2.1434    1.6500    0.0000 N   0  0  0  0  0  0  0  0  0  0  0  0
    1.4290    2.8875    0.0000 C   0  0  0  0  0  0  0  0  0  0  0  0
    0.7144    3.3000    0.0000 C   0  0  0  0  0  0  0  0  0  0  0  0
    2.1434    3.3000    0.0000 C   0  0  0  0  0  0  0  0  0  0  0  0
  1  2  1  0  0  0  0
  2  3  1  0  0  0  0
  3  4  1  0  0  0  0
  4  5  2  0  0  0  0
  4  6  1  0  0  0  0
  6  7  1  0  0  0  0
  7  8  1  0  0  0  0
  4  9  1  0  0  0  0
  9 10  1  0  0  0  0
 10 11  1  0  0  0  0
 11 12  2  0  0  0  0
 12 13  1  0  0  0  0
 12 14  1  0  0  0  0
 14 15  2  0  0  0  0
 15 16  1  0  0  0  0
 10 16  2  0  0  0  0
 15 17  1  0  0  0  0
 17 18  1  0  0  0  0
 17 19  1  0  0  0  0
M  END