323
  Mrv0541 04071411322D          

 20 23  0  0  0  0            999 V2000
    3.2935   -3.1020    0.0000 O   0  0  0  0  0  0  0  0  0  0  0  0
    3.0386   -2.3174    0.0000 C   0  0  0  0  0  0  0  0  0  0  0  0
    2.2539   -2.0625    0.0000 C   0  0  0  0  0  0  0  0  0  0  0  0
    1.5395   -2.4750    0.0000 C   0  0  0  0  0  0  0  0  0  0  0  0
    0.8250   -2.0625    0.0000 C   0  0  0  0  0  0  0  0  0  0  0  0
    0.8250   -1.2375    0.0000 C   0  0  0  0  0  0  0  0  0  0  0  0
    1.5395   -0.8250    0.0000 C   0  0  0  0  0  0  0  0  0  0  0  0
    2.2539   -1.2375    0.0000 C   0  0  0  0  0  0  0  0  0  0  0  0
    3.0386   -0.9826    0.0000 N   0  0  0  0  0  0  0  0  0  0  0  0
    3.5235   -1.6500    0.0000 C   0  0  0  0  0  0  0  0  0  0  0  0
    4.3485   -1.6500    0.0000 C   0  0  0  0  0  0  0  0  0  0  0  0
    4.8334   -0.9826    0.0000 N   0  0  0  0  0  0  0  0  0  0  0  0
    5.6181   -1.2375    0.0000 C   0  0  0  0  0  0  0  0  0  0  0  0
    6.3325   -0.8250    0.0000 C   0  0  0  0  0  0  0  0  0  0  0  0
    7.0470   -1.2375    0.0000 C   0  0  0  0  0  0  0  0  0  0  0  0
    7.0470   -2.0625    0.0000 C   0  0  0  0  0  0  0  0  0  0  0  0
    6.3325   -2.4750    0.0000 C   0  0  0  0  0  0  0  0  0  0  0  0
    5.6181   -2.0625    0.0000 C   0  0  0  0  0  0  0  0  0  0  0  0
    4.8334   -2.3174    0.0000 C   0  0  0  0  0  0  0  0  0  0  0  0
    4.5785   -3.1020    0.0000 O   0  0  0  0  0  0  0  0  0  0  0  0
  1  2  2  0  0  0  0
  2  3  1  0  0  0  0
  3  4  1  0  0  0  0
  4  5  2  0  0  0  0
  5  6  1  0  0  0  0
  6  7  2  0  0  0  0
  7  8  1  0  0  0  0
  3  8  2  0  0  0  0
  8  9  1  0  0  0  0
  9 10  1  0  0  0  0
  2 10  1  0  0  0  0
 10 11  2  0  0  0  0
 11 12  1  0  0  0  0
 12 13  1  0  0  0  0
 13 14  1  0  0  0  0
 14 15  2  0  0  0  0
 15 16  1  0  0  0  0
 16 17  2  0  0  0  0
 17 18  1  0  0  0  0
 13 18  2  0  0  0  0
 18 19  1  0  0  0  0
 11 19  1  0  0  0  0
 19 20  2  0  0  0  0
M  END