349
  Mrv0541 04071411322D          

 28 27  0  0  0  0            999 V2000
    4.7690   -2.2539    0.0000 C   0  0  0  0  0  0  0  0  0  0  0  0
    5.1815   -2.9684    0.0000 C   0  0  1  0  0  0  0  0  0  0  0  0
    6.0065   -2.9684    0.0000 C   0  0  0  0  0  0  0  0  0  0  0  0
    6.4190   -3.6829    0.0000 C   0  0  0  0  0  0  0  0  0  0  0  0
    7.2440   -3.6829    0.0000 O   0  0  0  0  0  0  0  0  0  0  0  0
    7.6565   -4.3974    0.0000 C   0  0  0  0  0  0  0  0  0  0  0  0
    8.4815   -4.3974    0.0000 C   0  0  1  0  0  0  0  0  0  0  0  0
    8.8940   -3.6829    0.0000 C   0  0  0  0  0  0  0  0  0  0  0  0
    9.7190   -3.6829    0.0000 C   0  0  0  0  0  0  0  0  0  0  0  0
   10.1315   -2.9684    0.0000 C   0  0  0  0  0  0  0  0  0  0  0  0
   10.9565   -2.9684    0.0000 C   0  0  0  0  0  0  0  0  0  0  0  0
    8.8940   -5.1118    0.0000 C   0  0  0  0  0  0  0  0  0  0  0  0
    9.7190   -5.1118    0.0000 C   0  0  0  0  0  0  0  0  0  0  0  0
    6.0065   -4.3974    0.0000 O   0  0  0  0  0  0  0  0  0  0  0  0
    4.7690   -3.6829    0.0000 S   0  0  0  0  0  0  0  0  0  0  0  0
    5.4834   -4.0954    0.0000 O   0  0  0  0  0  0  0  0  0  0  0  0
    4.0545   -3.2704    0.0000 O   0  0  0  0  0  0  0  0  0  0  0  0
    4.3565   -4.3974    0.0000 O   0  0  0  0  0  0  0  0  0  0  0  0
    3.9440   -2.2539    0.0000 O   0  0  0  0  0  0  0  0  0  0  0  0
    3.5315   -1.5395    0.0000 C   0  0  0  0  0  0  0  0  0  0  0  0
    2.7065   -1.5395    0.0000 C   0  0  1  0  0  0  0  0  0  0  0  0
    2.2940   -2.2539    0.0000 C   0  0  0  0  0  0  0  0  0  0  0  0
    1.4690   -2.2539    0.0000 C   0  0  0  0  0  0  0  0  0  0  0  0
    1.0565   -2.9684    0.0000 C   0  0  0  0  0  0  0  0  0  0  0  0
    0.2315   -2.9684    0.0000 C   0  0  0  0  0  0  0  0  0  0  0  0
    2.2940   -0.8250    0.0000 C   0  0  0  0  0  0  0  0  0  0  0  0
    1.4690   -0.8250    0.0000 C   0  0  0  0  0  0  0  0  0  0  0  0
    5.1815   -1.5395    0.0000 O   0  0  0  0  0  0  0  0  0  0  0  0
  1  2  1  0  0  0  0
  2  3  1  1  0  0  0
  3  4  1  0  0  0  0
  4  5  1  0  0  0  0
  5  6  1  0  0  0  0
  7  6  1  1  0  0  0
  7  8  1  0  0  0  0
  8  9  1  0  0  0  0
  9 10  1  0  0  0  0
 10 11  1  0  0  0  0
  7 12  1  0  0  0  0
 12 13  1  0  0  0  0
  4 14  2  0  0  0  0
  2 15  1  0  0  0  0
 15 16  2  0  0  0  0
 15 17  2  0  0  0  0
 15 18  1  0  0  0  0
  1 19  1  0  0  0  0
 19 20  1  0  0  0  0
 21 20  1  1  0  0  0
 21 22  1  0  0  0  0
 22 23  1  0  0  0  0
 23 24  1  0  0  0  0
 24 25  1  0  0  0  0
 21 26  1  0  0  0  0
 26 27  1  0  0  0  0
  1 28  2  0  0  0  0
M  END