386
  Mrv0541 04071411322D          

 19 20  0  0  0  0            999 V2000
    1.6180    0.0000    0.0000 O   0  0  0  0  0  0  0  0  0  0  0  0
    1.7895    0.8070    0.0000 C   0  0  0  0  0  0  0  0  0  0  0  0
    1.2375    1.4201    0.0000 C   0  0  0  0  0  0  0  0  0  0  0  0
    0.4125    1.4201    0.0000 C   0  0  0  0  0  0  0  0  0  0  0  0
    0.0000    2.1345    0.0000 C   0  0  0  0  0  0  0  0  0  0  0  0
    0.4125    2.8490    0.0000 C   0  0  0  0  0  0  0  0  0  0  0  0
    1.2375    2.8490    0.0000 C   0  0  0  0  0  0  0  0  0  0  0  0
    1.6500    2.1345    0.0000 C   0  0  0  0  0  0  0  0  0  0  0  0
    2.4570    1.9630    0.0000 C   0  0  0  0  0  0  0  0  0  0  0  0
    3.0701    2.5151    0.0000 O   0  0  0  0  0  0  0  0  0  0  0  0
    2.5432    1.1425    0.0000 N   0  0  0  0  0  0  0  0  0  0  0  0
    3.2577    0.7300    0.0000 C   0  0  0  0  0  0  0  0  0  0  0  0
    3.9721    1.1425    0.0000 S   0  0  0  0  0  0  0  0  0  0  0  0
    4.6866    0.7300    0.0000 P   0  0  0  0  0  0  0  0  0  0  0  0
    5.0991    1.4445    0.0000 O   0  0  0  0  0  0  0  0  0  0  0  0
    5.9241    1.4445    0.0000 C   0  0  0  0  0  0  0  0  0  0  0  0
    5.4011    0.3175    0.0000 O   0  0  0  0  0  0  0  0  0  0  0  0
    6.1155    0.7300    0.0000 C   0  0  0  0  0  0  0  0  0  0  0  0
    4.2741    0.0156    0.0000 S   0  0  0  0  0  0  0  0  0  0  0  0
  1  2  2  0  0  0  0
  2  3  1  0  0  0  0
  3  4  1  0  0  0  0
  4  5  2  0  0  0  0
  5  6  1  0  0  0  0
  6  7  2  0  0  0  0
  7  8  1  0  0  0  0
  3  8  2  0  0  0  0
  8  9  1  0  0  0  0
  9 10  2  0  0  0  0
  9 11  1  0  0  0  0
  2 11  1  0  0  0  0
 11 12  1  0  0  0  0
 12 13  1  0  0  0  0
 13 14  1  0  0  0  0
 14 15  1  0  0  0  0
 15 16  1  0  0  0  0
 14 17  1  0  0  0  0
 17 18  1  0  0  0  0
 14 19  2  0  0  0  0
M  END