403
  Mrv0541 04071411322D          

 12 12  0  0  0  0            999 V2000
    2.4750    0.0000    0.0000 Cl  0  0  0  0  0  0  0  0  0  0  0  0
    2.0625    0.7144    0.0000 C   0  0  0  0  0  0  0  0  0  0  0  0
    1.2375    0.7144    0.0000 C   0  0  0  0  0  0  0  0  0  0  0  0
    0.8250    0.0000    0.0000 Cl  0  0  0  0  0  0  0  0  0  0  0  0
    0.8250    1.4290    0.0000 C   0  0  0  0  0  0  0  0  0  0  0  0
    0.0000    1.4290    0.0000 Cl  0  0  0  0  0  0  0  0  0  0  0  0
    1.2375    2.1434    0.0000 C   0  0  0  0  0  0  0  0  0  0  0  0
    2.0625    2.1434    0.0000 C   0  0  0  0  0  0  0  0  0  0  0  0
    2.4750    1.4290    0.0000 C   0  0  0  0  0  0  0  0  0  0  0  0
    3.3000    1.4290    0.0000 Cl  0  0  0  0  0  0  0  0  0  0  0  0
    0.8250    2.8579    0.0000 O   0  0  0  0  0  0  0  0  0  0  0  0
    1.2375    3.5724    0.0000 C   0  0  0  0  0  0  0  0  0  0  0  0
  1  2  1  0  0  0  0
  2  3  2  0  0  0  0
  3  4  1  0  0  0  0
  3  5  1  0  0  0  0
  5  6  1  0  0  0  0
  5  7  2  0  0  0  0
  7  8  1  0  0  0  0
  8  9  2  0  0  0  0
  2  9  1  0  0  0  0
  9 10  1  0  0  0  0
  7 11  1  0  0  0  0
 11 12  1  0  0  0  0
M  END