405
  Mrv0541 04071411322D          

 14 14  0  0  0  0            999 V2000
    4.2368    1.7111    0.0000 O   0  0  0  0  0  0  0  0  0  0  0  0
    3.4118    1.7111    0.0000 C   0  0  0  0  0  0  0  0  0  0  0  0
    3.2144    0.9101    0.0000 N   0  0  0  0  0  0  0  0  0  0  0  0
    2.6673    0.2925    0.0000 C   0  0  0  0  0  0  0  0  0  0  0  0
    1.8959    0.0000    0.0000 C   0  0  0  0  0  0  0  0  0  0  0  0
    1.0769    0.0995    0.0000 C   0  0  0  0  0  0  0  0  0  0  0  0
    0.4125    0.5761    0.0000 C   0  0  0  0  0  0  0  0  0  0  0  0
    0.0000    1.2906    0.0000 C   0  0  0  0  0  0  0  0  0  0  0  0
    0.0000    2.1236    0.0000 C   0  0  0  0  0  0  0  0  0  0  0  0
    0.4159    2.8440    0.0000 C   0  0  0  0  0  0  0  0  0  0  0  0
    1.0769    3.3227    0.0000 C   0  0  0  0  0  0  0  0  0  0  0  0
    1.8959    3.4222    0.0000 C   0  0  0  0  0  0  0  0  0  0  0  0
    2.6673    3.1296    0.0000 C   0  0  0  0  0  0  0  0  0  0  0  0
    3.2144    2.5121    0.0000 C   0  0  0  0  0  0  0  0  0  0  0  0
  1  2  2  0  0  0  0
  2  3  1  0  0  0  0
  3  4  1  0  0  0  0
  4  5  1  0  0  0  0
  5  6  1  0  0  0  0
  6  7  1  0  0  0  0
  7  8  1  0  0  0  0
  8  9  1  0  0  0  0
  9 10  1  0  0  0  0
 10 11  1  0  0  0  0
 11 12  1  0  0  0  0
 12 13  1  0  0  0  0
 13 14  1  0  0  0  0
  2 14  1  0  0  0  0
M  END