407
  Mrv0541 04071411322D          

 16 16  0  0  0  0            999 V2000
    3.1380    2.4995    0.0000 O   0  0  0  0  0  0  0  0  0  0  0  0
    2.5249    1.9475    0.0000 C   0  0  0  0  0  0  0  0  0  0  0  0
    2.6112    1.1270    0.0000 N   0  0  0  0  0  0  0  0  0  0  0  0
    1.8575    0.7914    0.0000 N   0  0  0  0  0  0  0  0  0  0  0  0
    1.3054    1.4045    0.0000 C   0  0  0  0  0  0  0  0  0  0  0  0
    0.4849    1.3183    0.0000 O   0  0  0  0  0  0  0  0  0  0  0  0
    0.0000    1.9857    0.0000 C   0  0  0  0  0  0  0  0  0  0  0  0
    1.7179    2.1190    0.0000 S   0  0  0  0  0  0  0  0  0  0  0  0
    3.3256    0.7145    0.0000 C   0  0  0  0  0  0  0  0  0  0  0  0
    4.0401    1.1270    0.0000 S   0  0  0  0  0  0  0  0  0  0  0  0
    4.7546    0.7145    0.0000 P   0  0  0  0  0  0  0  0  0  0  0  0
    5.1671    1.4290    0.0000 O   0  0  0  0  0  0  0  0  0  0  0  0
    5.9921    1.4290    0.0000 C   0  0  0  0  0  0  0  0  0  0  0  0
    5.4691    0.3020    0.0000 O   0  0  0  0  0  0  0  0  0  0  0  0
    6.1836    0.7145    0.0000 C   0  0  0  0  0  0  0  0  0  0  0  0
    4.3421    0.0000    0.0000 S   0  0  0  0  0  0  0  0  0  0  0  0
  1  2  2  0  0  0  0
  2  3  1  0  0  0  0
  3  4  1  0  0  0  0
  4  5  2  0  0  0  0
  5  6  1  0  0  0  0
  6  7  1  0  0  0  0
  5  8  1  0  0  0  0
  2  8  1  0  0  0  0
  3  9  1  0  0  0  0
  9 10  1  0  0  0  0
 10 11  1  0  0  0  0
 11 12  1  0  0  0  0
 12 13  1  0  0  0  0
 11 14  1  0  0  0  0
 14 15  1  0  0  0  0
 11 16  2  0  0  0  0
M  END