413
  Mrv0541 04071411322D          

 23 24  0  0  0  0            999 V2000
    6.4058    1.3854    0.0000 Br  0  0  0  0  0  0  0  0  0  0  0  0
    5.6306    1.6676    0.0000 C   0  0  0  0  0  0  0  0  0  0  0  0
    4.9986    1.1373    0.0000 C   0  0  0  0  0  0  0  0  0  0  0  0
    5.1418    0.3248    0.0000 Br  0  0  0  0  0  0  0  0  0  0  0  0
    4.2233    1.4195    0.0000 C   0  0  0  0  0  0  0  0  0  0  0  0
    3.6930    0.7875    0.0000 Br  0  0  0  0  0  0  0  0  0  0  0  0
    4.0800    2.2319    0.0000 C   0  0  0  0  0  0  0  0  0  0  0  0
    3.0722    2.5988    0.0000 O   0  0  0  0  0  0  0  0  0  0  0  0
    2.1434    2.0625    0.0000 C   0  0  0  0  0  0  0  0  0  0  0  0
    2.1434    1.2375    0.0000 C   0  0  0  0  0  0  0  0  0  0  0  0
    2.7754    0.7072    0.0000 Br  0  0  0  0  0  0  0  0  0  0  0  0
    1.4290    0.8250    0.0000 C   0  0  0  0  0  0  0  0  0  0  0  0
    1.4290    0.0000    0.0000 Br  0  0  0  0  0  0  0  0  0  0  0  0
    0.7144    1.2375    0.0000 C   0  0  0  0  0  0  0  0  0  0  0  0
    0.0000    0.8250    0.0000 Br  0  0  0  0  0  0  0  0  0  0  0  0
    0.7144    2.0625    0.0000 C   0  0  0  0  0  0  0  0  0  0  0  0
    0.0000    2.4750    0.0000 Br  0  0  0  0  0  0  0  0  0  0  0  0
    1.4290    2.4750    0.0000 C   0  0  0  0  0  0  0  0  0  0  0  0
    1.4290    3.3000    0.0000 Br  0  0  0  0  0  0  0  0  0  0  0  0
    4.7120    2.7622    0.0000 C   0  0  0  0  0  0  0  0  0  0  0  0
    4.5688    3.5747    0.0000 Br  0  0  0  0  0  0  0  0  0  0  0  0
    5.4873    2.4801    0.0000 C   0  0  0  0  0  0  0  0  0  0  0  0
    6.1193    3.0104    0.0000 Br  0  0  0  0  0  0  0  0  0  0  0  0
  1  2  1  0  0  0  0
  2  3  1  0  0  0  0
  3  4  1  0  0  0  0
  3  5  2  0  0  0  0
  5  6  1  0  0  0  0
  5  7  1  0  0  0  0
  7  8  1  0  0  0  0
  8  9  1  0  0  0  0
  9 10  1  0  0  0  0
 10 11  1  0  0  0  0
 10 12  2  0  0  0  0
 12 13  1  0  0  0  0
 12 14  1  0  0  0  0
 14 15  1  0  0  0  0
 14 16  2  0  0  0  0
 16 17  1  0  0  0  0
 16 18  1  0  0  0  0
  9 18  2  0  0  0  0
 18 19  1  0  0  0  0
  7 20  2  0  0  0  0
 20 21  1  0  0  0  0
 20 22  1  0  0  0  0
  2 22  2  0  0  0  0
 22 23  1  0  0  0  0
M  END