424
  Mrv0541 04071411322D          

  8  8  0  0  0  0            999 V2000
    0.4125    0.7144    0.0000 N   0  0  0  0  0  0  0  0  0  0  0  0
    0.0000    1.4290    0.0000 C   0  0  0  0  0  0  0  0  0  0  0  0
    0.0000    0.0000    0.0000 C   0  0  0  0  0  0  0  0  0  0  0  0
    1.2375    0.7144    0.0000 C   0  0  0  0  0  0  0  0  0  0  0  0
    1.7224    1.3819    0.0000 C   0  0  0  0  0  0  0  0  0  0  0  0
    2.5070    1.1269    0.0000 S   0  0  0  0  0  0  0  0  0  0  0  0
    2.5070    0.3019    0.0000 S   0  0  0  0  0  0  0  0  0  0  0  0
    1.7224    0.0470    0.0000 C   0  0  0  0  0  0  0  0  0  0  0  0
  1  2  1  0  0  0  0
  1  3  1  0  0  0  0
  1  4  1  0  0  0  0
  4  5  1  0  0  0  0
  5  6  1  0  0  0  0
  6  7  1  0  0  0  0
  7  8  1  0  0  0  0
  4  8  1  0  0  0  0
M  END