429
  Mrv0541 04071411322D          

 10 10  0  0  0  0            999 V2000
    0.0000    0.4125    0.0000 O   0  0  0  0  0  0  0  0  0  0  0  0
    0.7145    0.0000    0.0000 C   0  0  0  0  0  0  0  0  0  0  0  0
    1.4290    0.4125    0.0000 C   0  0  0  0  0  0  0  0  0  0  0  0
    1.4290    1.2375    0.0000 C   0  0  0  0  0  0  0  0  0  0  0  0
    2.1435    1.6500    0.0000 C   0  0  0  0  0  0  0  0  0  0  0  0
    2.8579    1.2375    0.0000 C   0  0  0  0  0  0  0  0  0  0  0  0
    3.5724    1.6500    0.0000 Cl  0  0  0  0  0  0  0  0  0  0  0  0
    2.8579    0.4125    0.0000 C   0  0  0  0  0  0  0  0  0  0  0  0
    3.5724    0.0000    0.0000 Cl  0  0  0  0  0  0  0  0  0  0  0  0
    2.1435    0.0000    0.0000 C   0  0  0  0  0  0  0  0  0  0  0  0
  1  2  1  0  0  0  0
  2  3  1  0  0  0  0
  3  4  1  0  0  0  0
  4  5  2  0  0  0  0
  5  6  1  0  0  0  0
  6  7  1  0  0  0  0
  6  8  2  0  0  0  0
  8  9  1  0  0  0  0
  8 10  1  0  0  0  0
  3 10  2  0  0  0  0
M  END