437
  Mrv0541 04071411322D          

 31 33  0  0  0  0            999 V2000
    4.7855    4.6432    0.0000 O   0  0  0  0  0  0  0  0  0  0  0  0
    5.5925    4.4717    0.0000 C   0  0  0  0  0  0  0  0  0  0  0  0
    6.1445    5.0848    0.0000 O   0  0  0  0  0  0  0  0  0  0  0  0
    5.8474    3.6870    0.0000 C   0  0  0  0  0  0  0  0  0  0  0  0
    6.6321    3.4321    0.0000 N   0  0  0  0  0  0  0  0  0  0  0  0
    6.6321    2.6071    0.0000 N   0  0  0  0  0  0  0  0  0  0  0  0
    5.8474    2.3522    0.0000 C   0  0  0  0  0  0  0  0  0  0  0  0
    5.5925    1.5676    0.0000 O   0  0  0  0  0  0  0  0  0  0  0  0
    5.3625    3.0196    0.0000 C   0  0  0  0  0  0  0  0  0  0  0  0
    4.5375    3.0196    0.0000 N   0  0  0  0  0  0  0  0  0  0  0  0
    4.1250    3.7341    0.0000 N   0  0  0  0  0  0  0  0  0  0  0  0
    3.3000    3.7341    0.0000 C   0  0  0  0  0  0  0  0  0  0  0  0
    2.8875    3.0196    0.0000 C   0  0  0  0  0  0  0  0  0  0  0  0
    2.0625    3.0196    0.0000 C   0  0  0  0  0  0  0  0  0  0  0  0
    1.6500    3.7341    0.0000 C   0  0  0  0  0  0  0  0  0  0  0  0
    2.0625    4.4486    0.0000 C   0  0  0  0  0  0  0  0  0  0  0  0
    2.8875    4.4486    0.0000 C   0  0  0  0  0  0  0  0  0  0  0  0
    0.8250    3.7341    0.0000 S   0  0  0  0  0  0  0  0  0  0  0  0
    0.8250    4.5591    0.0000 O   0  0  0  0  0  0  0  0  0  0  0  0
    0.8250    2.9091    0.0000 O   0  0  0  0  0  0  0  0  0  0  0  0
    0.0000    3.7341    0.0000 O   0  0  0  0  0  0  0  0  0  0  0  0
    7.2995    2.1222    0.0000 C   0  0  0  0  0  0  0  0  0  0  0  0
    8.0532    2.4578    0.0000 C   0  0  0  0  0  0  0  0  0  0  0  0
    8.7206    1.9729    0.0000 C   0  0  0  0  0  0  0  0  0  0  0  0
    8.6344    1.1523    0.0000 C   0  0  0  0  0  0  0  0  0  0  0  0
    7.8807    0.8168    0.0000 C   0  0  0  0  0  0  0  0  0  0  0  0
    7.2133    1.3017    0.0000 C   0  0  0  0  0  0  0  0  0  0  0  0
    9.3018    0.6674    0.0000 S   0  0  0  0  0  0  0  0  0  0  0  0
    9.7867    1.3348    0.0000 O   0  0  0  0  0  0  0  0  0  0  0  0
    8.8169    0.0000    0.0000 O   0  0  0  0  0  0  0  0  0  0  0  0
    9.9692    0.1825    0.0000 O   0  0  0  0  0  0  0  0  0  0  0  0
  1  2  2  0  0  0  0
  2  3  1  0  0  0  0
  2  4  1  0  0  0  0
  4  5  2  0  0  0  0
  5  6  1  0  0  0  0
  6  7  1  0  0  0  0
  7  8  2  0  0  0  0
  7  9  1  0  0  0  0
  4  9  1  0  0  0  0
  9 10  1  0  0  0  0
 10 11  2  3  0  0  0
 11 12  1  0  0  0  0
 12 13  1  0  0  0  0
 13 14  2  0  0  0  0
 14 15  1  0  0  0  0
 15 16  2  0  0  0  0
 16 17  1  0  0  0  0
 12 17  2  0  0  0  0
 15 18  1  0  0  0  0
 18 19  2  0  0  0  0
 18 20  2  0  0  0  0
 18 21  1  0  0  0  0
  6 22  1  0  0  0  0
 22 23  1  0  0  0  0
 23 24  2  0  0  0  0
 24 25  1  0  0  0  0
 25 26  2  0  0  0  0
 26 27  1  0  0  0  0
 22 27  2  0  0  0  0
 25 28  1  0  0  0  0
 28 29  2  0  0  0  0
 28 30  2  0  0  0  0
 28 31  1  0  0  0  0
M  END