441
  Mrv0541 04071411322D          

 14 15  0  0  0  0            999 V2000
    0.0000    0.7144    0.0000 Cl  0  0  0  0  0  0  0  0  0  0  0  0
    0.8250    0.7144    0.0000 C   0  0  0  0  0  0  0  0  0  0  0  0
    1.2375    1.4290    0.0000 C   0  0  0  0  0  0  0  0  0  0  0  0
    2.0625    1.4290    0.0000 C   0  0  0  0  0  0  0  0  0  0  0  0
    2.4750    0.7144    0.0000 C   0  0  0  0  0  0  0  0  0  0  0  0
    2.0625    0.0000    0.0000 C   0  0  0  0  0  0  0  0  0  0  0  0
    1.2375    0.0000    0.0000 C   0  0  0  0  0  0  0  0  0  0  0  0
    3.3000    0.7144    0.0000 C   0  0  0  0  0  0  0  0  0  0  0  0
    3.7125    1.4290    0.0000 C   0  0  0  0  0  0  0  0  0  0  0  0
    4.5375    1.4290    0.0000 C   0  0  0  0  0  0  0  0  0  0  0  0
    4.9500    0.7144    0.0000 C   0  0  0  0  0  0  0  0  0  0  0  0
    5.7750    0.7144    0.0000 Cl  0  0  0  0  0  0  0  0  0  0  0  0
    4.5375    0.0000    0.0000 C   0  0  0  0  0  0  0  0  0  0  0  0
    3.7125    0.0000    0.0000 C   0  0  0  0  0  0  0  0  0  0  0  0
  1  2  1  0  0  0  0
  2  3  1  0  0  0  0
  3  4  2  0  0  0  0
  4  5  1  0  0  0  0
  5  6  2  0  0  0  0
  6  7  1  0  0  0  0
  2  7  2  0  0  0  0
  5  8  1  0  0  0  0
  8  9  1  0  0  0  0
  9 10  2  0  0  0  0
 10 11  1  0  0  0  0
 11 12  1  0  0  0  0
 11 13  2  0  0  0  0
 13 14  1  0  0  0  0
  8 14  2  0  0  0  0
M  END