448
  Mrv0541 04071411322D          

 12 13  0  0  0  0            999 V2000
    1.3202    0.7145    0.0000 C   0  0  0  0  0  0  0  0  0  0  0  0
    0.7044    0.1677    0.0000 C   0  0  0  0  0  0  0  0  0  0  0  0
    1.7327    0.0000    0.0000 O   0  0  0  0  0  0  0  0  0  0  0  0
    0.8250    1.0845    0.0000 C   0  0  0  0  0  0  0  0  0  0  0  0
    0.0000    1.0845    0.0000 C   0  0  0  0  0  0  0  0  0  0  0  0
    1.3099    1.7519    0.0000 C   0  0  0  0  0  0  0  0  0  0  0  0
    0.5955    2.1644    0.0000 C   0  0  0  0  0  0  0  0  0  0  0  0
    1.6455    2.5056    0.0000 C   0  0  0  0  0  0  0  0  0  0  0  0
    2.0946    1.4970    0.0000 C   0  0  0  0  0  0  0  0  0  0  0  0
    2.0946    0.6720    0.0000 C   0  0  0  0  0  0  0  0  0  0  0  0
    1.3099    0.4170    0.0000 C   0  0  0  0  0  0  0  0  0  0  0  0
    1.9100    0.9065    0.0000 C   0  0  0  0  0  0  0  0  0  0  0  0
  1  2  1  0  0  0  0
  1  3  1  0  0  0  0
  1  4  1  0  0  0  0
  4  5  1  0  0  0  0
  4  6  1  0  0  0  0
  6  7  1  0  0  0  0
  6  8  1  0  0  0  0
  6  9  1  0  0  0  0
  9 10  1  0  0  0  0
 10 11  1  0  0  0  0
  4 11  1  0  0  0  0
  9 12  1  0  0  0  0
  1 12  1  0  0  0  0
M  END