451
  Mrv0541 04071411322D          

 14 15  0  0  0  0            999 V2000
    0.6054    2.8995    0.0000 Cl  0  0  0  0  0  0  0  0  0  0  0  0
    1.0865    2.2253    0.0000 C   0  0  0  0  0  0  0  0  0  0  0  0
    1.9126    2.2253    0.0000 C   0  0  0  0  0  0  0  0  0  0  0  0
    2.4025    2.8877    0.0000 Cl  0  0  0  0  0  0  0  0  0  0  0  0
    2.1627    1.4280    0.0000 C   0  0  0  0  0  0  0  0  0  0  0  0
    2.9886    1.4280    0.0000 Cl  0  0  0  0  0  0  0  0  0  0  0  0
    1.8922    0.6794    0.0000 C   0  0  0  0  0  0  0  0  0  0  0  0
    2.3661    0.0000    0.0000 Cl  0  0  0  0  0  0  0  0  0  0  0  0
    1.0868    0.6794    0.0000 C   0  0  0  0  0  0  0  0  0  0  0  0
    0.8261    1.4422    0.0000 C   0  0  0  0  0  0  0  0  0  0  0  0
    0.0000    1.4422    0.0000 Cl  0  0  0  0  0  0  0  0  0  0  0  0
    1.4912    0.9541    0.0000 C   0  0  0  0  0  0  0  0  0  0  0  0
    1.7956    0.1861    0.0000 Cl  0  0  0  0  0  0  0  0  0  0  0  0
    0.8369    0.4498    0.0000 Cl  0  0  0  0  0  0  0  0  0  0  0  0
  1  2  1  0  0  0  0
  2  3  2  0  0  0  0
  3  4  1  0  0  0  0
  3  5  1  0  0  0  0
  5  6  1  0  0  0  0
  5  7  1  0  0  0  0
  7  8  1  0  0  0  0
  7  9  1  0  0  0  0
  9 10  1  0  0  0  0
  2 10  1  0  0  0  0
 10 11  1  0  0  0  0
 10 12  1  0  0  0  0
  5 12  1  0  0  0  0
 12 13  1  0  0  0  0
 12 14  1  0  0  0  0
M  END