460
  Mrv0541 04071411322D          

 18 18  0  0  0  0            999 V2000
    1.3184    0.0000    0.0000 C   0  0  0  0  0  0  0  0  0  0  0  0
    2.1434    0.0000    0.0000 C   0  0  0  0  0  0  0  0  0  0  0  0
    2.5559    0.7145    0.0000 O   0  0  0  0  0  0  0  0  0  0  0  0
    2.1434    1.4290    0.0000 P   0  0  0  0  0  0  0  0  0  0  0  0
    1.7309    2.1434    0.0000 S   0  0  0  0  0  0  0  0  0  0  0  0
    1.4290    1.0165    0.0000 O   0  0  0  0  0  0  0  0  0  0  0  0
    0.7145    1.4290    0.0000 C   0  0  0  0  0  0  0  0  0  0  0  0
    0.0000    1.0165    0.0000 C   0  0  0  0  0  0  0  0  0  0  0  0
    2.8579    1.8415    0.0000 O   0  0  0  0  0  0  0  0  0  0  0  0
    3.5724    1.4290    0.0000 C   0  0  0  0  0  0  0  0  0  0  0  0
    4.2869    1.8415    0.0000 N   0  0  0  0  0  0  0  0  0  0  0  0
    5.0013    1.4290    0.0000 C   0  0  0  0  0  0  0  0  0  0  0  0
    5.7158    1.8415    0.0000 Cl  0  0  0  0  0  0  0  0  0  0  0  0
    5.0013    0.6040    0.0000 C   0  0  0  0  0  0  0  0  0  0  0  0
    5.7158    0.1915    0.0000 Cl  0  0  0  0  0  0  0  0  0  0  0  0
    4.2869    0.1915    0.0000 C   0  0  0  0  0  0  0  0  0  0  0  0
    3.5724    0.6040    0.0000 C   0  0  0  0  0  0  0  0  0  0  0  0
    2.8579    0.1915    0.0000 Cl  0  0  0  0  0  0  0  0  0  0  0  0
  1  2  1  0  0  0  0
  2  3  1  0  0  0  0
  3  4  1  0  0  0  0
  4  5  2  0  0  0  0
  4  6  1  0  0  0  0
  6  7  1  0  0  0  0
  7  8  1  0  0  0  0
  4  9  1  0  0  0  0
  9 10  1  0  0  0  0
 10 11  2  0  0  0  0
 11 12  1  0  0  0  0
 12 13  1  0  0  0  0
 12 14  2  0  0  0  0
 14 15  1  0  0  0  0
 14 16  1  0  0  0  0
 16 17  2  0  0  0  0
 10 17  1  0  0  0  0
 17 18  1  0  0  0  0
M  END