468
  Mrv0541 04071411322D          

 13 14  0  0  0  0            999 V2000
    1.6455    0.0000    0.0000 Cl  0  0  0  0  0  0  0  0  0  0  0  0
    1.3099    0.7537    0.0000 C   0  0  0  0  0  0  0  0  0  0  0  0
    0.5955    0.3412    0.0000 Cl  0  0  0  0  0  0  0  0  0  0  0  0
    0.8250    1.4211    0.0000 C   0  0  2  0  0  0  0  0  0  0  0  0
    0.0000    1.4211    0.0000 Cl  0  0  0  0  0  0  0  0  0  0  0  0
    1.3214    1.7904    0.0000 C   0  0  0  0  0  0  0  0  0  0  0  0
    1.9099    1.5992    0.0000 C   0  0  0  0  0  0  0  0  0  0  0  0
    2.0946    1.0086    0.0000 C   0  0  2  0  0  0  0  0  0  0  0  0
    2.7620    0.5237    0.0000 Cl  0  0  0  0  0  0  0  0  0  0  0  0
    2.0946    1.8336    0.0000 C   0  0  0  0  0  0  0  0  0  0  0  0
    2.7620    2.3186    0.0000 Cl  0  0  0  0  0  0  0  0  0  0  0  0
    1.3099    2.0886    0.0000 C   0  0  0  0  0  0  0  0  0  0  0  0
    1.0550    2.8732    0.0000 Cl  0  0  0  0  0  0  0  0  0  0  0  0
  1  2  1  0  0  0  0
  2  3  1  0  0  0  0
  2  4  1  0  0  0  0
  4  5  1  6  0  0  0
  4  6  1  0  0  0  0
  6  7  2  0  0  0  0
  7  8  1  0  0  0  0
  2  8  1  0  0  0  0
  8  9  1  6  0  0  0
  8 10  1  0  0  0  0
 10 11  1  0  0  0  0
 10 12  2  0  0  0  0
  4 12  1  0  0  0  0
 12 13  1  0  0  0  0
M  END