469
  Mrv0541 04071411322D          

 44 49  0  0  0  0            999 V2000
   10.1975    2.6100    0.0000 Cl  0  0  0  0  0  0  0  0  0  0  0  0
    9.4830    3.0225    0.0000 C   0  0  0  0  0  0  0  0  0  0  0  0
    8.7686    2.6100    0.0000 C   0  0  0  0  0  0  0  0  0  0  0  0
    8.0541    3.0225    0.0000 C   0  0  0  0  0  0  0  0  0  0  0  0
    8.0541    3.8476    0.0000 C   0  0  0  0  0  0  0  0  0  0  0  0
    8.7686    4.2601    0.0000 C   0  0  0  0  0  0  0  0  0  0  0  0
    9.4830    3.8476    0.0000 C   0  0  0  0  0  0  0  0  0  0  0  0
   10.1975    4.2601    0.0000 N   0  0  0  0  0  0  0  0  0  0  0  0
   10.9120    3.8476    0.0000 N   0  0  0  0  0  0  0  0  0  0  0  0
   11.6265    4.2601    0.0000 C   0  0  0  0  0  0  0  0  0  0  0  0
   11.7127    5.0805    0.0000 C   0  0  0  0  0  0  0  0  0  0  0  0
   11.0996    5.6326    0.0000 C   0  0  0  0  0  0  0  0  0  0  0  0
   12.5197    5.2521    0.0000 N   0  0  0  0  0  0  0  0  0  0  0  0
   12.9322    4.5376    0.0000 N   0  0  0  0  0  0  0  0  0  0  0  0
   13.7527    4.4513    0.0000 C   0  0  0  0  0  0  0  0  0  0  0  0
   14.2376    5.1188    0.0000 C   0  0  0  0  0  0  0  0  0  0  0  0
   15.0581    5.0326    0.0000 C   0  0  0  0  0  0  0  0  0  0  0  0
   15.3937    4.2789    0.0000 C   0  0  0  0  0  0  0  0  0  0  0  0
   14.9088    3.6114    0.0000 C   0  0  0  0  0  0  0  0  0  0  0  0
   14.0882    3.6977    0.0000 C   0  0  0  0  0  0  0  0  0  0  0  0
   12.3802    3.9245    0.0000 C   0  0  0  0  0  0  0  0  0  0  0  0
   12.5517    3.1175    0.0000 O   0  0  0  0  0  0  0  0  0  0  0  0
    7.3396    2.6100    0.0000 C   0  0  0  0  0  0  0  0  0  0  0  0
    7.3396    1.7850    0.0000 C   0  0  0  0  0  0  0  0  0  0  0  0
    6.6251    1.3725    0.0000 C   0  0  0  0  0  0  0  0  0  0  0  0
    5.9106    1.7850    0.0000 C   0  0  0  0  0  0  0  0  0  0  0  0
    5.1962    1.3725    0.0000 N   0  0  0  0  0  0  0  0  0  0  0  0
    4.4817    1.7850    0.0000 N   0  0  0  0  0  0  0  0  0  0  0  0
    3.7672    1.3725    0.0000 C   0  0  0  0  0  0  0  0  0  0  0  0
    3.6810    0.5521    0.0000 C   0  0  0  0  0  0  0  0  0  0  0  0
    4.2941    0.0000    0.0000 C   0  0  0  0  0  0  0  0  0  0  0  0
    2.8740    0.3805    0.0000 N   0  0  0  0  0  0  0  0  0  0  0  0
    2.4615    1.0950    0.0000 N   0  0  0  0  0  0  0  0  0  0  0  0
    1.6410    1.1812    0.0000 C   0  0  0  0  0  0  0  0  0  0  0  0
    1.1561    0.5138    0.0000 C   0  0  0  0  0  0  0  0  0  0  0  0
    0.3355    0.6000    0.0000 C   0  0  0  0  0  0  0  0  0  0  0  0
    0.0000    1.3537    0.0000 C   0  0  0  0  0  0  0  0  0  0  0  0
    0.4849    2.0212    0.0000 C   0  0  0  0  0  0  0  0  0  0  0  0
    1.3054    1.9349    0.0000 C   0  0  0  0  0  0  0  0  0  0  0  0
    3.0135    1.7081    0.0000 C   0  0  0  0  0  0  0  0  0  0  0  0
    2.8420    2.5151    0.0000 O   0  0  0  0  0  0  0  0  0  0  0  0
    5.9106    2.6100    0.0000 C   0  0  0  0  0  0  0  0  0  0  0  0
    5.1962    3.0225    0.0000 Cl  0  0  0  0  0  0  0  0  0  0  0  0
    6.6251    3.0225    0.0000 C   0  0  0  0  0  0  0  0  0  0  0  0
  1  2  1  0  0  0  0
  2  3  1  0  0  0  0
  3  4  2  0  0  0  0
  4  5  1  0  0  0  0
  5  6  2  0  0  0  0
  6  7  1  0  0  0  0
  2  7  2  0  0  0  0
  7  8  1  0  0  0  0
  8  9  2  3  0  0  0
  9 10  1  0  0  0  0
 10 11  1  0  0  0  0
 11 12  1  0  0  0  0
 11 13  2  0  0  0  0
 13 14  1  0  0  0  0
 14 15  1  0  0  0  0
 15 16  1  0  0  0  0
 16 17  2  0  0  0  0
 17 18  1  0  0  0  0
 18 19  2  0  0  0  0
 19 20  1  0  0  0  0
 15 20  2  0  0  0  0
 14 21  1  0  0  0  0
 10 21  1  0  0  0  0
 21 22  2  0  0  0  0
  4 23  1  0  0  0  0
 23 24  1  0  0  0  0
 24 25  2  0  0  0  0
 25 26  1  0  0  0  0
 26 27  1  0  0  0  0
 27 28  2  3  0  0  0
 28 29  1  0  0  0  0
 29 30  1  0  0  0  0
 30 31  1  0  0  0  0
 30 32  1  0  0  0  0
 32 33  1  0  0  0  0
 33 34  1  0  0  0  0
 34 35  1  0  0  0  0
 35 36  2  0  0  0  0
 36 37  1  0  0  0  0
 37 38  2  0  0  0  0
 38 39  1  0  0  0  0
 34 39  2  0  0  0  0
 33 40  1  0  0  0  0
 29 40  1  0  0  0  0
 40 41  2  0  0  0  0
 26 42  2  0  0  0  0
 42 43  1  0  0  0  0
 42 44  1  0  0  0  0
 23 44  2  0  0  0  0
M  END