472
  Mrv0541 04071411322D          

 17 17  0  0  0  0            999 V2000
    0.0000    0.7144    0.0000 C   0  0  0  0  0  0  0  0  0  0  0  0
    0.7144    1.1269    0.0000 O   0  0  0  0  0  0  0  0  0  0  0  0
    1.4290    0.7144    0.0000 P   0  0  0  0  0  0  0  0  0  0  0  0
    1.8415    1.4290    0.0000 S   0  0  0  0  0  0  0  0  0  0  0  0
    1.0165    0.0000    0.0000 O   0  0  0  0  0  0  0  0  0  0  0  0
    0.1915    0.0000    0.0000 C   0  0  0  0  0  0  0  0  0  0  0  0
    2.1434    0.3019    0.0000 O   0  0  0  0  0  0  0  0  0  0  0  0
    2.8579    0.7144    0.0000 C   0  0  0  0  0  0  0  0  0  0  0  0
    2.8579    1.5394    0.0000 C   0  0  0  0  0  0  0  0  0  0  0  0
    3.5724    1.9519    0.0000 C   0  0  0  0  0  0  0  0  0  0  0  0
    4.2868    1.5394    0.0000 C   0  0  0  0  0  0  0  0  0  0  0  0
    5.0013    1.9519    0.0000 S   0  0  0  0  0  0  0  0  0  0  0  0
    5.7158    1.5394    0.0000 C   0  0  0  0  0  0  0  0  0  0  0  0
    5.0013    2.7769    0.0000 O   0  0  0  0  0  0  0  0  0  0  0  0
    4.2868    0.7144    0.0000 C   0  0  0  0  0  0  0  0  0  0  0  0
    5.0013    0.3019    0.0000 C   0  0  0  0  0  0  0  0  0  0  0  0
    3.5724    0.3019    0.0000 C   0  0  0  0  0  0  0  0  0  0  0  0
  1  2  1  0  0  0  0
  2  3  1  0  0  0  0
  3  4  2  0  0  0  0
  3  5  1  0  0  0  0
  5  6  1  0  0  0  0
  3  7  1  0  0  0  0
  7  8  1  0  0  0  0
  8  9  1  0  0  0  0
  9 10  2  0  0  0  0
 10 11  1  0  0  0  0
 11 12  1  0  0  0  0
 12 13  1  0  0  0  0
 12 14  2  0  0  0  0
 11 15  2  0  0  0  0
 15 16  1  0  0  0  0
 15 17  1  0  0  0  0
  8 17  2  0  0  0  0
M  END