473
  Mrv0541 04071411322D          

 18 18  0  0  0  0            999 V2000
    4.5375    0.5231    0.0000 C   0  0  0  0  0  0  0  0  0  0  0  0
    4.1250    1.2375    0.0000 O   0  0  0  0  0  0  0  0  0  0  0  0
    3.3000    1.2375    0.0000 P   0  0  0  0  0  0  0  0  0  0  0  0
    3.3000    2.0625    0.0000 S   0  0  0  0  0  0  0  0  0  0  0  0
    3.3000    0.4125    0.0000 O   0  0  0  0  0  0  0  0  0  0  0  0
    4.0145    0.0000    0.0000 C   0  0  0  0  0  0  0  0  0  0  0  0
    2.4750    1.2375    0.0000 O   0  0  0  0  0  0  0  0  0  0  0  0
    2.0625    1.9519    0.0000 C   0  0  0  0  0  0  0  0  0  0  0  0
    2.4750    2.6665    0.0000 C   0  0  0  0  0  0  0  0  0  0  0  0
    2.0625    3.3809    0.0000 C   0  0  0  0  0  0  0  0  0  0  0  0
    1.2375    3.3809    0.0000 C   0  0  0  0  0  0  0  0  0  0  0  0
    0.8250    2.6665    0.0000 C   0  0  0  0  0  0  0  0  0  0  0  0
    0.0000    2.6665    0.0000 C   0  0  0  0  0  0  0  0  0  0  0  0
    1.2375    1.9519    0.0000 C   0  0  0  0  0  0  0  0  0  0  0  0
    0.8250    4.0954    0.0000 S   0  0  0  0  0  0  0  0  0  0  0  0
    0.4125    4.8099    0.0000 C   0  0  0  0  0  0  0  0  0  0  0  0
    1.5395    4.5079    0.0000 O   0  0  0  0  0  0  0  0  0  0  0  0
    0.1106    3.6829    0.0000 O   0  0  0  0  0  0  0  0  0  0  0  0
  1  2  1  0  0  0  0
  2  3  1  0  0  0  0
  3  4  2  0  0  0  0
  3  5  1  0  0  0  0
  5  6  1  0  0  0  0
  3  7  1  0  0  0  0
  7  8  1  0  0  0  0
  8  9  1  0  0  0  0
  9 10  2  0  0  0  0
 10 11  1  0  0  0  0
 11 12  2  0  0  0  0
 12 13  1  0  0  0  0
 12 14  1  0  0  0  0
  8 14  2  0  0  0  0
 11 15  1  0  0  0  0
 15 16  1  0  0  0  0
 15 17  2  0  0  0  0
 15 18  2  0  0  0  0
M  END