475
  Mrv0541 04071411322D          

 13 14  0  0  0  0            999 V2000
    4.2947    0.9626    0.0000 C   0  0  0  0  0  0  0  0  0  0  0  0
    3.5195    1.2447    0.0000 O   0  0  0  0  0  0  0  0  0  0  0  0
    2.8875    0.7144    0.0000 P   0  0  0  0  0  0  0  0  0  0  0  0
    3.5195    0.1842    0.0000 S   0  0  0  0  0  0  0  0  0  0  0  0
    2.4750    0.0000    0.0000 O   0  0  0  0  0  0  0  0  0  0  0  0
    1.6500    0.0000    0.0000 C   0  0  0  0  0  0  0  0  0  0  0  0
    1.2375    0.7144    0.0000 C   0  0  0  0  0  0  0  0  0  0  0  0
    0.4125    0.7144    0.0000 C   0  0  0  0  0  0  0  0  0  0  0  0
    0.0000    1.4290    0.0000 C   0  0  0  0  0  0  0  0  0  0  0  0
    0.4125    2.1434    0.0000 C   0  0  0  0  0  0  0  0  0  0  0  0
    1.2375    2.1434    0.0000 C   0  0  0  0  0  0  0  0  0  0  0  0
    1.6500    1.4290    0.0000 C   0  0  0  0  0  0  0  0  0  0  0  0
    2.4750    1.4290    0.0000 O   0  0  0  0  0  0  0  0  0  0  0  0
  1  2  1  0  0  0  0
  2  3  1  0  0  0  0
  3  4  2  0  0  0  0
  3  5  1  0  0  0  0
  5  6  1  0  0  0  0
  6  7  1  0  0  0  0
  7  8  1  0  0  0  0
  8  9  2  0  0  0  0
  9 10  1  0  0  0  0
 10 11  2  0  0  0  0
 11 12  1  0  0  0  0
  7 12  2  0  0  0  0
 12 13  1  0  0  0  0
  3 13  1  0  0  0  0
M  END