476
  Mrv0541 04071411322D          

 40 39  0  0  0  0            999 V2000
   11.5500    0.7145    0.0000 C   0  0  0  0  0  0  0  0  0  0  0  0
   11.1375    1.4290    0.0000 O   0  0  0  0  0  0  0  0  0  0  0  0
   12.3750    0.7145    0.0000 N   0  0  0  0  0  0  0  0  0  0  0  0
   12.7875    1.4290    0.0000 C   0  0  0  0  0  0  0  0  0  0  0  0
   13.6125    1.4290    0.0000 C   0  0  0  0  0  0  0  0  0  0  0  0
   14.0250    2.1434    0.0000 C   0  0  0  0  0  0  0  0  0  0  0  0
   14.8500    2.1434    0.0000 C   0  0  0  0  0  0  0  0  0  0  0  0
   15.2625    2.8579    0.0000 C   0  0  0  0  0  0  0  0  0  0  0  0
   16.0875    2.8579    0.0000 C   0  0  0  0  0  0  0  0  0  0  0  0
   16.5000    3.5724    0.0000 C   0  0  0  0  0  0  0  0  0  0  0  0
   17.3250    3.5724    0.0000 C   0  0  0  0  0  0  0  0  0  0  0  0
   17.7375    4.2868    0.0000 C   0  0  0  0  0  0  0  0  0  0  0  0
   18.5625    4.2868    0.0000 C   0  0  0  0  0  0  0  0  0  0  0  0
   18.9750    5.0013    0.0000 C   0  0  0  0  0  0  0  0  0  0  0  0
   19.8000    5.0013    0.0000 C   0  0  0  0  0  0  0  0  0  0  0  0
   20.2125    5.7158    0.0000 C   0  0  0  0  0  0  0  0  0  0  0  0
   21.0375    5.7158    0.0000 C   0  0  0  0  0  0  0  0  0  0  0  0
   21.4500    6.4302    0.0000 C   0  0  0  0  0  0  0  0  0  0  0  0
   22.2750    6.4302    0.0000 C   0  0  0  0  0  0  0  0  0  0  0  0
   22.6875    7.1447    0.0000 C   0  0  0  0  0  0  0  0  0  0  0  0
   23.5125    7.1447    0.0000 C   0  0  0  0  0  0  0  0  0  0  0  0
   11.1375    0.0000    0.0000 N   0  0  0  0  0  0  0  0  0  0  0  0
   10.3125    0.0000    0.0000 C   0  0  0  0  0  0  0  0  0  0  0  0
    9.9000    0.7145    0.0000 C   0  0  0  0  0  0  0  0  0  0  0  0
    9.0750    0.7145    0.0000 C   0  0  0  0  0  0  0  0  0  0  0  0
    8.6625    1.4290    0.0000 C   0  0  0  0  0  0  0  0  0  0  0  0
    7.8375    1.4290    0.0000 C   0  0  0  0  0  0  0  0  0  0  0  0
    7.4250    2.1434    0.0000 C   0  0  0  0  0  0  0  0  0  0  0  0
    6.6000    2.1434    0.0000 C   0  0  0  0  0  0  0  0  0  0  0  0
    6.1875    2.8579    0.0000 C   0  0  0  0  0  0  0  0  0  0  0  0
    5.3625    2.8579    0.0000 C   0  0  0  0  0  0  0  0  0  0  0  0
    4.9500    3.5724    0.0000 C   0  0  0  0  0  0  0  0  0  0  0  0
    4.1250    3.5724    0.0000 C   0  0  0  0  0  0  0  0  0  0  0  0
    3.7125    4.2868    0.0000 C   0  0  0  0  0  0  0  0  0  0  0  0
    2.8875    4.2868    0.0000 C   0  0  0  0  0  0  0  0  0  0  0  0
    2.4750    5.0013    0.0000 C   0  0  0  0  0  0  0  0  0  0  0  0
    1.6500    5.0013    0.0000 C   0  0  0  0  0  0  0  0  0  0  0  0
    1.2375    5.7158    0.0000 C   0  0  0  0  0  0  0  0  0  0  0  0
    0.4125    5.7158    0.0000 C   0  0  0  0  0  0  0  0  0  0  0  0
    0.0000    6.4302    0.0000 C   0  0  0  0  0  0  0  0  0  0  0  0
  1  2  2  0  0  0  0
  1  3  1  0  0  0  0
  3  4  1  0  0  0  0
  4  5  1  0  0  0  0
  5  6  1  0  0  0  0
  6  7  1  0  0  0  0
  7  8  1  0  0  0  0
  8  9  1  0  0  0  0
  9 10  1  0  0  0  0
 10 11  1  0  0  0  0
 11 12  1  0  0  0  0
 12 13  1  0  0  0  0
 13 14  1  0  0  0  0
 14 15  1  0  0  0  0
 15 16  1  0  0  0  0
 16 17  1  0  0  0  0
 17 18  1  0  0  0  0
 18 19  1  0  0  0  0
 19 20  1  0  0  0  0
 20 21  1  0  0  0  0
  1 22  1  0  0  0  0
 22 23  1  0  0  0  0
 23 24  1  0  0  0  0
 24 25  1  0  0  0  0
 25 26  1  0  0  0  0
 26 27  1  0  0  0  0
 27 28  1  0  0  0  0
 28 29  1  0  0  0  0
 29 30  1  0  0  0  0
 30 31  1  0  0  0  0
 31 32  1  0  0  0  0
 32 33  1  0  0  0  0
 33 34  1  0  0  0  0
 34 35  1  0  0  0  0
 35 36  1  0  0  0  0
 36 37  1  0  0  0  0
 37 38  1  0  0  0  0
 38 39  1  0  0  0  0
 39 40  1  0  0  0  0
M  END