479
  Mrv0541 04071411322D          

 27 28  0  0  0  0            999 V2000
    8.7138    0.7144    0.0000 O   0  0  0  0  0  0  0  0  0  0  0  0
    7.8888    0.7144    0.0000 C   0  0  0  0  0  0  0  0  0  0  0  0
    7.4763    0.0000    0.0000 C   0  0  0  0  0  0  0  0  0  0  0  0
    6.6513    0.0000    0.0000 O   0  0  0  0  0  0  0  0  0  0  0  0
    6.2388    0.7144    0.0000 C   0  0  0  0  0  0  0  0  0  0  0  0
    5.4138    0.7144    0.0000 C   0  0  0  0  0  0  0  0  0  0  0  0
    5.0013    0.0000    0.0000 Br  0  0  0  0  0  0  0  0  0  0  0  0
    5.0013    1.4290    0.0000 C   0  0  0  0  0  0  0  0  0  0  0  0
    5.4138    2.1434    0.0000 C   0  0  0  0  0  0  0  0  0  0  0  0
    6.2388    2.1434    0.0000 C   0  0  0  0  0  0  0  0  0  0  0  0
    6.6513    1.4290    0.0000 C   0  0  0  0  0  0  0  0  0  0  0  0
    7.4763    1.4290    0.0000 Br  0  0  0  0  0  0  0  0  0  0  0  0
    5.0013    2.8579    0.0000 C   0  0  0  0  0  0  0  0  0  0  0  0
    5.7158    3.2704    0.0000 C   0  0  0  0  0  0  0  0  0  0  0  0
    4.5888    3.5724    0.0000 C   0  0  0  0  0  0  0  0  0  0  0  0
    4.2868    2.4454    0.0000 C   0  0  0  0  0  0  0  0  0  0  0  0
    4.2868    1.6204    0.0000 C   0  0  0  0  0  0  0  0  0  0  0  0
    3.5724    1.2079    0.0000 C   0  0  0  0  0  0  0  0  0  0  0  0
    3.5724    0.3829    0.0000 Br  0  0  0  0  0  0  0  0  0  0  0  0
    2.8579    1.6204    0.0000 C   0  0  0  0  0  0  0  0  0  0  0  0
    2.1434    1.2079    0.0000 O   0  0  0  0  0  0  0  0  0  0  0  0
    1.4290    1.6204    0.0000 C   0  0  0  0  0  0  0  0  0  0  0  0
    0.7144    1.2079    0.0000 C   0  0  0  0  0  0  0  0  0  0  0  0
    0.0000    1.6204    0.0000 O   0  0  0  0  0  0  0  0  0  0  0  0
    2.8579    2.4454    0.0000 C   0  0  0  0  0  0  0  0  0  0  0  0
    2.1434    2.8579    0.0000 Br  0  0  0  0  0  0  0  0  0  0  0  0
    3.5724    2.8579    0.0000 C   0  0  0  0  0  0  0  0  0  0  0  0
  1  2  1  0  0  0  0
  2  3  1  0  0  0  0
  3  4  1  0  0  0  0
  4  5  1  0  0  0  0
  5  6  1  0  0  0  0
  6  7  1  0  0  0  0
  6  8  2  0  0  0  0
  8  9  1  0  0  0  0
  9 10  2  0  0  0  0
 10 11  1  0  0  0  0
  5 11  2  0  0  0  0
 11 12  1  0  0  0  0
  9 13  1  0  0  0  0
 13 14  1  0  0  0  0
 13 15  1  0  0  0  0
 13 16  1  0  0  0  0
 16 17  1  0  0  0  0
 17 18  2  0  0  0  0
 18 19  1  0  0  0  0
 18 20  1  0  0  0  0
 20 21  1  0  0  0  0
 21 22  1  0  0  0  0
 22 23  1  0  0  0  0
 23 24  1  0  0  0  0
 20 25  2  0  0  0  0
 25 26  1  0  0  0  0
 25 27  1  0  0  0  0
 16 27  2  0  0  0  0
M  END