491
  Mrv0541 04071411322D          

 22 25  0  0  0  0            999 V2000
    7.8594    2.4751    0.0000 C   0  0  0  0  0  0  0  0  0  0  0  0
    7.8594    1.6500    0.0000 C   0  0  0  0  0  0  0  0  0  0  0  0
    7.1449    1.2375    0.0000 C   0  0  0  0  0  0  0  0  0  0  0  0
    6.4304    1.6500    0.0000 C   0  0  0  0  0  0  0  0  0  0  0  0
    5.7159    1.2375    0.0000 C   0  0  0  0  0  0  0  0  0  0  0  0
    5.0014    1.6500    0.0000 C   0  0  0  0  0  0  0  0  0  0  0  0
    4.2869    1.2375    0.0000 S   0  0  0  0  0  0  0  0  0  0  0  0
    3.5724    1.6500    0.0000 S   0  0  0  0  0  0  0  0  0  0  0  0
    2.8579    1.2375    0.0000 C   0  0  0  0  0  0  0  0  0  0  0  0
    2.8579    0.4125    0.0000 C   0  0  0  0  0  0  0  0  0  0  0  0
    2.1435    0.0000    0.0000 C   0  0  0  0  0  0  0  0  0  0  0  0
    1.4290    0.4125    0.0000 C   0  0  0  0  0  0  0  0  0  0  0  0
    0.7145    0.0000    0.0000 C   0  0  0  0  0  0  0  0  0  0  0  0
    0.0000    0.4125    0.0000 C   0  0  0  0  0  0  0  0  0  0  0  0
    0.0000    1.2375    0.0000 C   0  0  0  0  0  0  0  0  0  0  0  0
    0.7145    1.6500    0.0000 C   0  0  0  0  0  0  0  0  0  0  0  0
    1.4290    1.2375    0.0000 C   0  0  0  0  0  0  0  0  0  0  0  0
    2.1435    1.6500    0.0000 C   0  0  0  0  0  0  0  0  0  0  0  0
    5.0014    2.4751    0.0000 C   0  0  0  0  0  0  0  0  0  0  0  0
    5.7159    2.8876    0.0000 C   0  0  0  0  0  0  0  0  0  0  0  0
    6.4304    2.4751    0.0000 C   0  0  0  0  0  0  0  0  0  0  0  0
    7.1449    2.8876    0.0000 C   0  0  0  0  0  0  0  0  0  0  0  0
  1  2  1  0  0  0  0
  2  3  2  0  0  0  0
  3  4  1  0  0  0  0
  4  5  2  0  0  0  0
  5  6  1  0  0  0  0
  6  7  1  0  0  0  0
  7  8  1  0  0  0  0
  8  9  1  0  0  0  0
  9 10  1  0  0  0  0
 10 11  2  0  0  0  0
 11 12  1  0  0  0  0
 12 13  2  0  0  0  0
 13 14  1  0  0  0  0
 14 15  2  0  0  0  0
 15 16  1  0  0  0  0
 16 17  2  0  0  0  0
 12 17  1  0  0  0  0
 17 18  1  0  0  0  0
  9 18  2  0  0  0  0
  6 19  2  0  0  0  0
 19 20  1  0  0  0  0
 20 21  2  0  0  0  0
  4 21  1  0  0  0  0
 21 22  1  0  0  0  0
  1 22  2  0  0  0  0
M  END