495
  Mrv0541 04071411322D          

 44 47  0  0  0  0            999 V2000
    4.4572   -0.8848    0.0000 O   0  0  0  0  0  0  0  0  0  0  0  0
    3.7427   -1.2973    0.0000 C   0  0  0  0  0  0  0  0  0  0  0  0
    3.0282   -0.8848    0.0000 C   0  0  0  0  0  0  0  0  0  0  0  0
    3.7427   -2.1223    0.0000 C   0  0  0  0  0  0  0  0  0  0  0  0
    4.4572   -2.5348    0.0000 N   0  0  0  0  0  0  0  0  0  0  0  0
    4.4572   -3.3598    0.0000 N   0  0  0  0  0  0  0  0  0  0  0  0
    5.1716   -3.7723    0.0000 C   0  0  0  0  0  0  0  0  0  0  0  0
    5.8861   -3.3598    0.0000 C   0  0  0  0  0  0  0  0  0  0  0  0
    6.6005   -3.7723    0.0000 C   0  0  0  0  0  0  0  0  0  0  0  0
    6.6005   -4.5973    0.0000 C   0  0  0  0  0  0  0  0  0  0  0  0
    5.8861   -5.0098    0.0000 C   0  0  0  0  0  0  0  0  0  0  0  0
    5.1716   -4.5973    0.0000 C   0  0  0  0  0  0  0  0  0  0  0  0
    4.4572   -5.0098    0.0000 Cl  0  0  0  0  0  0  0  0  0  0  0  0
    7.3150   -5.0098    0.0000 C   0  0  0  0  0  0  0  0  0  0  0  0
    8.0295   -4.5973    0.0000 C   0  0  0  0  0  0  0  0  0  0  0  0
    8.7439   -5.0098    0.0000 C   0  0  0  0  0  0  0  0  0  0  0  0
    8.7439   -5.8348    0.0000 C   0  0  0  0  0  0  0  0  0  0  0  0
    9.4584   -6.2473    0.0000 N   0  0  0  0  0  0  0  0  0  0  0  0
   10.1729   -5.8348    0.0000 N   0  0  0  0  0  0  0  0  0  0  0  0
   10.8874   -6.2473    0.0000 C   0  0  0  0  0  0  0  0  0  0  0  0
   10.8874   -7.0723    0.0000 C   0  0  0  0  0  0  0  0  0  0  0  0
   11.6018   -7.4848    0.0000 O   0  0  0  0  0  0  0  0  0  0  0  0
   10.1729   -7.4848    0.0000 C   0  0  0  0  0  0  0  0  0  0  0  0
   11.6018   -5.8348    0.0000 C   0  0  0  0  0  0  0  0  0  0  0  0
   12.3163   -6.2473    0.0000 O   0  0  0  0  0  0  0  0  0  0  0  0
   11.6018   -5.0098    0.0000 N   0  0  0  0  0  0  0  0  0  0  0  0
   12.3163   -4.5973    0.0000 C   0  0  0  0  0  0  0  0  0  0  0  0
   12.3163   -3.7723    0.0000 C   0  0  0  0  0  0  0  0  0  0  0  0
   13.0307   -3.3598    0.0000 C   0  0  0  0  0  0  0  0  0  0  0  0
   13.7452   -3.7723    0.0000 C   0  0  0  0  0  0  0  0  0  0  0  0
   13.7452   -4.5973    0.0000 C   0  0  0  0  0  0  0  0  0  0  0  0
   13.0307   -5.0098    0.0000 C   0  0  0  0  0  0  0  0  0  0  0  0
    8.0295   -6.2473    0.0000 C   0  0  0  0  0  0  0  0  0  0  0  0
    8.0295   -7.0723    0.0000 Cl  0  0  0  0  0  0  0  0  0  0  0  0
    7.3150   -5.8348    0.0000 C   0  0  0  0  0  0  0  0  0  0  0  0
    3.0282   -2.5348    0.0000 C   0  0  0  0  0  0  0  0  0  0  0  0
    2.3137   -2.1223    0.0000 O   0  0  0  0  0  0  0  0  0  0  0  0
    3.0282   -3.3598    0.0000 N   0  0  0  0  0  0  0  0  0  0  0  0
    2.3137   -3.7723    0.0000 C   0  0  0  0  0  0  0  0  0  0  0  0
    2.3137   -4.5973    0.0000 C   0  0  0  0  0  0  0  0  0  0  0  0
    1.5993   -5.0098    0.0000 C   0  0  0  0  0  0  0  0  0  0  0  0
    0.8848   -4.5973    0.0000 C   0  0  0  0  0  0  0  0  0  0  0  0
    0.8848   -3.7723    0.0000 C   0  0  0  0  0  0  0  0  0  0  0  0
    1.5993   -3.3598    0.0000 C   0  0  0  0  0  0  0  0  0  0  0  0
  1  2  2  0  0  0  0
  2  3  1  0  0  0  0
  2  4  1  0  0  0  0
  4  5  1  0  0  0  0
  5  6  2  0  0  0  0
  6  7  1  0  0  0  0
  7  8  1  0  0  0  0
  8  9  2  0  0  0  0
  9 10  1  0  0  0  0
 10 11  2  0  0  0  0
 11 12  1  0  0  0  0
  7 12  2  0  0  0  0
 12 13  1  0  0  0  0
 10 14  1  0  0  0  0
 14 15  1  0  0  0  0
 15 16  2  0  0  0  0
 16 17  1  0  0  0  0
 17 18  1  0  0  0  0
 18 19  2  0  0  0  0
 19 20  1  0  0  0  0
 20 21  1  0  0  0  0
 21 22  2  0  0  0  0
 21 23  1  0  0  0  0
 20 24  1  0  0  0  0
 24 25  2  0  0  0  0
 24 26  1  0  0  0  0
 26 27  1  0  0  0  0
 27 28  1  0  0  0  0
 28 29  2  0  0  0  0
 29 30  1  0  0  0  0
 30 31  2  0  0  0  0
 31 32  1  0  0  0  0
 27 32  2  0  0  0  0
 17 33  2  0  0  0  0
 33 34  1  0  0  0  0
 33 35  1  0  0  0  0
 14 35  2  0  0  0  0
  4 36  1  0  0  0  0
 36 37  2  0  0  0  0
 36 38  1  0  0  0  0
 38 39  1  0  0  0  0
 39 40  1  0  0  0  0
 40 41  2  0  0  0  0
 41 42  1  0  0  0  0
 42 43  2  0  0  0  0
 43 44  1  0  0  0  0
 39 44  2  0  0  0  0
M  END