50
  Mrv0541 04071411322D          

 11 11  0  0  0  0            999 V2000
    1.2010    0.0000    0.0000 Cl  0  0  0  0  0  0  0  0  0  0  0  0
    1.3725    0.8070    0.0000 C   0  0  0  0  0  0  0  0  0  0  0  0
    0.8205    1.4201    0.0000 C   0  0  0  0  0  0  0  0  0  0  0  0
    0.0000    1.3338    0.0000 Cl  0  0  0  0  0  0  0  0  0  0  0  0
    1.2330    2.1345    0.0000 C   0  0  0  0  0  0  0  0  0  0  0  0
    0.8974    2.8882    0.0000 Cl  0  0  0  0  0  0  0  0  0  0  0  0
    2.0399    1.9630    0.0000 C   0  0  0  0  0  0  0  0  0  0  0  0
    2.8649    1.9630    0.0000 Cl  0  0  0  0  0  0  0  0  0  0  0  0
    2.1262    2.7835    0.0000 Cl  0  0  0  0  0  0  0  0  0  0  0  0
    2.1262    1.1425    0.0000 C   0  0  0  0  0  0  0  0  0  0  0  0
    2.8406    0.7300    0.0000 Cl  0  0  0  0  0  0  0  0  0  0  0  0
  1  2  1  0  0  0  0
  2  3  1  0  0  0  0
  3  4  1  0  0  0  0
  3  5  2  0  0  0  0
  5  6  1  0  0  0  0
  5  7  1  0  0  0  0
  7  8  1  0  0  0  0
  7  9  1  0  0  0  0
  7 10  1  0  0  0  0
  2 10  2  0  0  0  0
 10 11  1  0  0  0  0
M  END