513
  Mrv0541 04071411322D          

 16 16  0  0  0  0            999 V2000
    3.7125    0.0000    0.0000 O   0  0  0  0  0  0  0  0  0  0  0  0
    3.7125    0.8250    0.0000 P   0  0  0  0  0  0  0  0  0  0  0  0
    2.8875    0.8250    0.0000 S   0  0  0  0  0  0  0  0  0  0  0  0
    2.4750    1.5394    0.0000 C   0  0  0  0  0  0  0  0  0  0  0  0
    1.6500    1.5394    0.0000 C   0  0  0  0  0  0  0  0  0  0  0  0
    1.2375    0.8250    0.0000 C   0  0  0  0  0  0  0  0  0  0  0  0
    0.4125    0.8250    0.0000 C   0  0  0  0  0  0  0  0  0  0  0  0
    0.0000    1.5394    0.0000 C   0  0  0  0  0  0  0  0  0  0  0  0
    0.4125    2.2540    0.0000 C   0  0  0  0  0  0  0  0  0  0  0  0
    1.2375    2.2540    0.0000 C   0  0  0  0  0  0  0  0  0  0  0  0
    3.7125    1.6500    0.0000 O   0  0  0  0  0  0  0  0  0  0  0  0
    4.4269    2.0625    0.0000 C   0  0  0  0  0  0  0  0  0  0  0  0
    4.4269    2.8875    0.0000 C   0  0  0  0  0  0  0  0  0  0  0  0
    4.5375    0.8250    0.0000 O   0  0  0  0  0  0  0  0  0  0  0  0
    4.9500    0.1105    0.0000 C   0  0  0  0  0  0  0  0  0  0  0  0
    5.7750    0.1105    0.0000 C   0  0  0  0  0  0  0  0  0  0  0  0
  1  2  2  0  0  0  0
  2  3  1  0  0  0  0
  3  4  1  0  0  0  0
  4  5  1  0  0  0  0
  5  6  1  0  0  0  0
  6  7  2  0  0  0  0
  7  8  1  0  0  0  0
  8  9  2  0  0  0  0
  9 10  1  0  0  0  0
  5 10  2  0  0  0  0
  2 11  1  0  0  0  0
 11 12  1  0  0  0  0
 12 13  1  0  0  0  0
  2 14  1  0  0  0  0
 14 15  1  0  0  0  0
 15 16  1  0  0  0  0
M  END