514
  Mrv0541 04071411322D          

 25 27  0  0  0  0            999 V2000
    0.0000    1.8287    0.0000 C   0  0  0  0  0  0  0  0  0  0  0  0
    0.8250    1.8287    0.0000 C   0  0  0  0  0  0  0  0  0  0  0  0
    1.2375    2.5432    0.0000 C   0  0  0  0  0  0  0  0  0  0  0  0
    2.0625    2.5432    0.0000 C   0  0  0  0  0  0  0  0  0  0  0  0
    2.4750    3.2577    0.0000 C   0  0  0  0  0  0  0  0  0  0  0  0
    2.0625    3.9721    0.0000 C   0  0  0  0  0  0  0  0  0  0  0  0
    1.2375    3.9721    0.0000 C   0  0  0  0  0  0  0  0  0  0  0  0
    3.3000    3.2577    0.0000 C   0  0  0  0  0  0  0  0  0  0  0  0
    3.7125    2.5432    0.0000 N   0  0  0  0  0  0  0  0  0  0  0  0
    3.3770    1.7895    0.0000 C   0  0  0  0  0  0  0  0  0  0  0  0
    2.5700    1.6180    0.0000 O   0  0  0  0  0  0  0  0  0  0  0  0
    3.9901    1.2375    0.0000 C   0  0  0  0  0  0  0  0  0  0  0  0
    4.7045    1.6500    0.0000 C   0  0  0  0  0  0  0  0  0  0  0  0
    4.5330    2.4570    0.0000 C   0  0  0  0  0  0  0  0  0  0  0  0
    5.0850    3.0701    0.0000 O   0  0  0  0  0  0  0  0  0  0  0  0
    5.4190    1.2375    0.0000 C   0  0  0  0  0  0  0  0  0  0  0  0
    5.4190    0.4125    0.0000 C   0  0  0  0  0  0  0  0  0  0  0  0
    4.7045    0.0000    0.0000 C   0  0  0  0  0  0  0  0  0  0  0  0
    3.9901    0.4125    0.0000 C   0  0  0  0  0  0  0  0  0  0  0  0
    3.2755    0.0000    0.0000 C   0  0  0  0  0  0  0  0  0  0  0  0
    4.2655    0.9664    0.0000 C   0  0  0  0  0  0  0  0  0  0  0  0
    4.8014    1.2757    0.0000 C   0  0  0  0  0  0  0  0  0  0  0  0
    6.1335    1.6500    0.0000 C   0  0  0  0  0  0  0  0  0  0  0  0
    6.1335    2.4750    0.0000 C   0  0  0  0  0  0  0  0  0  0  0  0
    6.8479    1.2375    0.0000 C   0  0  0  0  0  0  0  0  0  0  0  0
  1  2  1  0  0  0  0
  2  3  1  0  0  0  0
  3  4  1  0  0  0  0
  4  5  1  0  0  0  0
  5  6  1  0  0  0  0
  6  7  1  0  0  0  0
  5  8  1  0  0  0  0
  8  9  1  0  0  0  0
  9 10  1  0  0  0  0
 10 11  2  0  0  0  0
 10 12  1  0  0  0  0
 12 13  1  0  0  0  0
 13 14  1  0  0  0  0
  9 14  1  0  0  0  0
 14 15  2  0  0  0  0
 13 16  1  0  0  0  0
 16 17  1  0  0  0  0
 17 18  2  0  0  0  0
 18 19  1  0  0  0  0
 12 19  1  0  0  0  0
 19 20  1  0  0  0  0
 19 21  1  0  0  0  0
 21 22  1  0  0  0  0
 16 22  1  0  0  0  0
 16 23  1  0  0  0  0
 23 24  1  0  0  0  0
 23 25  1  0  0  0  0
M  END