525
  Mrv0541 04071411322D          

 18 20  0  0  0  0            999 V2000
    3.7519    0.0000    0.0000 O   0  0  0  0  0  0  0  0  0  0  0  0
    3.5873    0.8182    0.0000 C   0  0  0  0  0  0  0  0  0  0  0  0
    2.8611    1.1425    0.0000 C   0  0  0  0  0  0  0  0  0  0  0  0
    2.1452    0.7292    0.0000 C   0  0  0  0  0  0  0  0  0  0  0  0
    1.4307    1.1417    0.0000 C   0  0  0  0  0  0  0  0  0  0  0  0
    0.7114    0.7264    0.0000 C   0  0  0  0  0  0  0  0  0  0  0  0
    0.0000    1.1371    0.0000 C   0  0  0  0  0  0  0  0  0  0  0  0
    0.0000    1.9579    0.0000 C   0  0  0  0  0  0  0  0  0  0  0  0
    0.7106    2.3682    0.0000 C   0  0  0  0  0  0  0  0  0  0  0  0
    1.4211    1.9580    0.0000 C   0  0  0  0  0  0  0  0  0  0  0  0
    2.9296    1.9455    0.0000 C   0  0  0  0  0  0  0  0  0  0  0  0
    3.4891    2.5575    0.0000 C   0  0  0  0  0  0  0  0  0  0  0  0
    4.2420    2.2163    0.0000 C   0  0  0  0  0  0  0  0  0  0  0  0
    4.1571    1.3880    0.0000 C   0  0  0  0  0  0  0  0  0  0  0  0
    4.8993    1.0454    0.0000 C   0  0  0  0  0  0  0  0  0  0  0  0
    3.3429    1.2296    0.0000 C   0  0  0  0  0  0  0  0  0  0  0  0
    3.5908    0.4404    0.0000 C   0  0  0  0  0  0  0  0  0  0  0  0
    2.5831    0.8970    0.0000 C   0  0  0  0  0  0  0  0  0  0  0  0
  1  2  2  0  0  0  0
  2  3  1  0  0  0  0
  3  4  2  3  0  0  0
  4  5  1  0  0  0  0
  5  6  1  0  0  0  0
  6  7  2  0  0  0  0
  7  8  1  0  0  0  0
  8  9  2  0  0  0  0
  9 10  1  0  0  0  0
  5 10  2  0  0  0  0
  3 11  1  0  0  0  0
 11 12  1  0  0  0  0
 12 13  1  0  0  0  0
 13 14  1  0  0  0  0
  2 14  1  0  0  0  0
 14 15  1  0  0  0  0
 14 16  1  0  0  0  0
 11 16  1  0  0  0  0
 16 17  1  0  0  0  0
 16 18  1  0  0  0  0
M  END