529
  Mrv0541 04071411322D          

 18 18  0  0  0  0            999 V2000
    1.2375    0.0000    0.0000 C   0  0  0  0  0  0  0  0  0  0  0  0
    1.6500    0.7145    0.0000 C   0  0  0  0  0  0  0  0  0  0  0  0
    1.2375    1.4290    0.0000 C   0  0  0  0  0  0  0  0  0  0  0  0
    0.4125    1.4290    0.0000 C   0  0  0  0  0  0  0  0  0  0  0  0
    0.0000    2.1435    0.0000 C   0  0  0  0  0  0  0  0  0  0  0  0
    0.4125    2.8579    0.0000 C   0  0  0  0  0  0  0  0  0  0  0  0
    1.2375    2.8579    0.0000 C   0  0  0  0  0  0  0  0  0  0  0  0
    1.6500    3.5724    0.0000 C   0  0  0  0  0  0  0  0  0  0  0  0
    1.2375    4.2869    0.0000 C   0  0  0  0  0  0  0  0  0  0  0  0
    1.6500    2.1435    0.0000 C   0  0  0  0  0  0  0  0  0  0  0  0
    2.4751    2.1435    0.0000 N   0  0  0  0  0  0  0  0  0  0  0  0
    2.8876    1.4290    0.0000 C   0  0  0  0  0  0  0  0  0  0  0  0
    3.7126    1.4290    0.0000 O   0  0  0  0  0  0  0  0  0  0  0  0
    4.1251    0.7145    0.0000 C   0  0  0  0  0  0  0  0  0  0  0  0
    2.8876    2.8579    0.0000 C   0  0  0  0  0  0  0  0  0  0  0  0
    2.4751    3.5724    0.0000 O   0  0  0  0  0  0  0  0  0  0  0  0
    3.7126    2.8579    0.0000 C   0  0  0  0  0  0  0  0  0  0  0  0
    4.1251    2.1435    0.0000 Cl  0  0  0  0  0  0  0  0  0  0  0  0
  1  2  1  0  0  0  0
  2  3  1  0  0  0  0
  3  4  1  0  0  0  0
  4  5  2  0  0  0  0
  5  6  1  0  0  0  0
  6  7  2  0  0  0  0
  7  8  1  0  0  0  0
  8  9  1  0  0  0  0
  7 10  1  0  0  0  0
  3 10  2  0  0  0  0
 10 11  1  0  0  0  0
 11 12  1  0  0  0  0
 12 13  1  0  0  0  0
 13 14  1  0  0  0  0
 11 15  1  0  0  0  0
 15 16  2  0  0  0  0
 15 17  1  0  0  0  0
 17 18  1  0  0  0  0
M  END