540
  Mrv0541 04071411322D          

 22 23  0  0  0  0            999 V2000
    0.0000    1.6500    0.0000 C   0  0  0  0  0  0  0  0  0  0  0  0
    0.7144    1.2375    0.0000 C   0  0  0  0  0  0  0  0  0  0  0  0
    0.7144    0.4125    0.0000 C   0  0  0  0  0  0  0  0  0  0  0  0
    1.4290    1.6500    0.0000 O   0  0  0  0  0  0  0  0  0  0  0  0
    2.1434    1.2375    0.0000 C   0  0  0  0  0  0  0  0  0  0  0  0
    2.8579    1.6500    0.0000 C   0  0  0  0  0  0  0  0  0  0  0  0
    3.5724    1.2375    0.0000 C   0  0  0  0  0  0  0  0  0  0  0  0
    3.5724    0.4125    0.0000 C   0  0  0  0  0  0  0  0  0  0  0  0
    4.2868    0.0000    0.0000 Cl  0  0  0  0  0  0  0  0  0  0  0  0
    2.8579    0.0000    0.0000 C   0  0  0  0  0  0  0  0  0  0  0  0
    2.1434    0.4125    0.0000 C   0  0  0  0  0  0  0  0  0  0  0  0
    1.4290    0.0000    0.0000 Cl  0  0  0  0  0  0  0  0  0  0  0  0
    4.2868    1.6500    0.0000 N   0  0  0  0  0  0  0  0  0  0  0  0
    4.3731    2.4705    0.0000 N   0  0  0  0  0  0  0  0  0  0  0  0
    5.1801    2.6420    0.0000 C   0  0  0  0  0  0  0  0  0  0  0  0
    5.5926    1.9276    0.0000 O   0  0  0  0  0  0  0  0  0  0  0  0
    5.0405    1.3145    0.0000 C   0  0  0  0  0  0  0  0  0  0  0  0
    5.2121    0.5075    0.0000 O   0  0  0  0  0  0  0  0  0  0  0  0
    5.5156    3.3957    0.0000 C   0  0  0  0  0  0  0  0  0  0  0  0
    4.7619    3.7312    0.0000 C   0  0  0  0  0  0  0  0  0  0  0  0
    5.8511    4.1493    0.0000 C   0  0  0  0  0  0  0  0  0  0  0  0
    6.2693    3.0601    0.0000 C   0  0  0  0  0  0  0  0  0  0  0  0
  1  2  1  0  0  0  0
  2  3  1  0  0  0  0
  2  4  1  0  0  0  0
  4  5  1  0  0  0  0
  5  6  1  0  0  0  0
  6  7  2  0  0  0  0
  7  8  1  0  0  0  0
  8  9  1  0  0  0  0
  8 10  2  0  0  0  0
 10 11  1  0  0  0  0
  5 11  2  0  0  0  0
 11 12  1  0  0  0  0
  7 13  1  0  0  0  0
 13 14  1  0  0  0  0
 14 15  2  0  0  0  0
 15 16  1  0  0  0  0
 16 17  1  0  0  0  0
 13 17  1  0  0  0  0
 17 18  2  0  0  0  0
 15 19  1  0  0  0  0
 19 20  1  0  0  0  0
 19 21  1  0  0  0  0
 19 22  1  0  0  0  0
M  END