548
  Mrv0541 04071411322D          

 13 13  0  0  0  0            999 V2000
    0.4125    2.8579    0.0000 O   0  5  0  0  0  0  0  0  0  0  0  0
    1.2375    2.8579    0.0000 N   0  3  0  0  0  0  0  0  0  0  0  0
    1.6500    3.5724    0.0000 O   0  0  0  0  0  0  0  0  0  0  0  0
    1.6500    2.1434    0.0000 C   0  0  0  0  0  0  0  0  0  0  0  0
    2.4750    2.1434    0.0000 C   0  0  0  0  0  0  0  0  0  0  0  0
    2.8875    1.4290    0.0000 C   0  0  0  0  0  0  0  0  0  0  0  0
    2.4750    0.7144    0.0000 C   0  0  0  0  0  0  0  0  0  0  0  0
    1.6500    0.7144    0.0000 C   0  0  0  0  0  0  0  0  0  0  0  0
    1.2375    0.0000    0.0000 C   0  0  0  0  0  0  0  0  0  0  0  0
    1.2375    1.4290    0.0000 C   0  0  0  0  0  0  0  0  0  0  0  0
    0.4125    1.4290    0.0000 N   0  3  0  0  0  0  0  0  0  0  0  0
    0.0000    0.7144    0.0000 O   0  5  0  0  0  0  0  0  0  0  0  0
    0.0000    2.1434    0.0000 O   0  0  0  0  0  0  0  0  0  0  0  0
  1  2  1  0  0  0  0
  2  3  2  0  0  0  0
  2  4  1  0  0  0  0
  4  5  1  0  0  0  0
  5  6  2  0  0  0  0
  6  7  1  0  0  0  0
  7  8  2  0  0  0  0
  8  9  1  0  0  0  0
  8 10  1  0  0  0  0
  4 10  2  0  0  0  0
 10 11  1  0  0  0  0
 11 12  1  0  0  0  0
 11 13  2  0  0  0  0
M  CHG  4   1  -1   2   1  11   1  12  -1
M  END