559
  Mrv0541 04071411322D          

 29 30  0  0  0  0            999 V2000
    0.0000    4.1250    0.0000 C   0  0  0  0  0  0  0  0  0  0  0  0
    0.7144    3.7125    0.0000 C   0  0  0  0  0  0  0  0  0  0  0  0
    0.7144    2.8875    0.0000 C   0  0  0  0  0  0  0  0  0  0  0  0
    1.4290    2.4750    0.0000 C   0  0  0  0  0  0  0  0  0  0  0  0
    1.4290    1.6500    0.0000 C   0  0  0  0  0  0  0  0  0  0  0  0
    2.1434    1.2375    0.0000 C   0  0  0  0  0  0  0  0  0  0  0  0
    2.1434    0.4125    0.0000 C   0  0  0  0  0  0  0  0  0  0  0  0
    2.8579    0.0000    0.0000 C   0  0  0  0  0  0  0  0  0  0  0  0
    3.5724    0.4125    0.0000 C   0  0  0  0  0  0  0  0  0  0  0  0
    3.5724    1.2375    0.0000 C   0  0  0  0  0  0  0  0  0  0  0  0
    4.2868    1.6500    0.0000 C   0  0  0  0  0  0  0  0  0  0  0  0
    5.0013    1.2375    0.0000 C   0  0  0  0  0  0  0  0  0  0  0  0
    5.0013    0.4125    0.0000 C   0  0  0  0  0  0  0  0  0  0  0  0
    4.2868    0.0000    0.0000 C   0  0  0  0  0  0  0  0  0  0  0  0
    5.7158    1.6500    0.0000 N   0  0  0  0  0  0  0  0  0  0  0  0
    6.4302    1.2375    0.0000 C   0  0  0  0  0  0  0  0  0  0  0  0
    7.1447    1.6500    0.0000 C   0  0  0  0  0  0  0  0  0  0  0  0
    7.8592    1.2375    0.0000 C   0  0  0  0  0  0  0  0  0  0  0  0
    7.8592    0.4125    0.0000 C   0  0  0  0  0  0  0  0  0  0  0  0
    8.5736    0.0000    0.0000 C   0  0  0  0  0  0  0  0  0  0  0  0
    9.2881    0.4125    0.0000 C   0  0  0  0  0  0  0  0  0  0  0  0
   10.0026    0.0000    0.0000 C   0  0  0  0  0  0  0  0  0  0  0  0
   10.7170    0.4125    0.0000 C   0  0  0  0  0  0  0  0  0  0  0  0
   11.4316    0.0000    0.0000 C   0  0  0  0  0  0  0  0  0  0  0  0
   12.1460    0.4125    0.0000 C   0  0  0  0  0  0  0  0  0  0  0  0
   12.8605    0.0000    0.0000 C   0  0  0  0  0  0  0  0  0  0  0  0
   13.5750    0.4125    0.0000 C   0  0  0  0  0  0  0  0  0  0  0  0
    7.1447    0.0000    0.0000 C   0  0  0  0  0  0  0  0  0  0  0  0
    6.4302    0.4125    0.0000 C   0  0  0  0  0  0  0  0  0  0  0  0
  1  2  1  0  0  0  0
  2  3  1  0  0  0  0
  3  4  1  0  0  0  0
  4  5  1  0  0  0  0
  5  6  1  0  0  0  0
  6  7  1  0  0  0  0
  7  8  1  0  0  0  0
  8  9  1  0  0  0  0
  9 10  1  0  0  0  0
 10 11  2  0  0  0  0
 11 12  1  0  0  0  0
 12 13  2  0  0  0  0
 13 14  1  0  0  0  0
  9 14  2  0  0  0  0
 12 15  1  0  0  0  0
 15 16  1  0  0  0  0
 16 17  1  0  0  0  0
 17 18  2  0  0  0  0
 18 19  1  0  0  0  0
 19 20  1  0  0  0  0
 20 21  1  0  0  0  0
 21 22  1  0  0  0  0
 22 23  1  0  0  0  0
 23 24  1  0  0  0  0
 24 25  1  0  0  0  0
 25 26  1  0  0  0  0
 26 27  1  0  0  0  0
 19 28  2  0  0  0  0
 28 29  1  0  0  0  0
 16 29  2  0  0  0  0
M  END