561
  Mrv0541 04071411322D          

 33 32  0  0  0  0            999 V2000
    2.8579    0.4125    0.0000 C   0  0  0  0  0  0  0  0  0  0  0  0
    2.8579    1.2375    0.0000 O   0  0  0  0  0  0  0  0  0  0  0  0
    3.5724    0.0000    0.0000 C   0  0  0  0  0  0  0  0  0  0  0  0
    4.2869    0.4125    0.0000 C   0  0  0  0  0  0  0  0  0  0  0  0
    5.0014    0.0000    0.0000 C   0  0  0  0  0  0  0  0  0  0  0  0
    5.7159    0.4125    0.0000 C   0  0  0  0  0  0  0  0  0  0  0  0
    6.4304    0.0000    0.0000 C   0  0  0  0  0  0  0  0  0  0  0  0
    7.1449    0.4125    0.0000 C   0  0  0  0  0  0  0  0  0  0  0  0
    7.8594    0.0000    0.0000 C   0  0  0  0  0  0  0  0  0  0  0  0
    8.5738    0.4125    0.0000 C   0  0  0  0  0  0  0  0  0  0  0  0
    9.2883    0.0000    0.0000 C   0  0  0  0  0  0  0  0  0  0  0  0
   10.0028    0.4125    0.0000 C   0  0  0  0  0  0  0  0  0  0  0  0
   10.7173    0.0000    0.0000 C   0  0  0  0  0  0  0  0  0  0  0  0
   11.4318    0.4125    0.0000 C   0  0  0  0  0  0  0  0  0  0  0  0
   12.1463    0.0000    0.0000 C   0  0  0  0  0  0  0  0  0  0  0  0
   12.8607    0.4125    0.0000 C   0  0  0  0  0  0  0  0  0  0  0  0
   13.5753    0.0000    0.0000 C   0  0  0  0  0  0  0  0  0  0  0  0
   14.2897    0.4125    0.0000 C   0  0  0  0  0  0  0  0  0  0  0  0
   15.0043    0.0000    0.0000 C   0  0  0  0  0  0  0  0  0  0  0  0
   15.7187    0.4125    0.0000 C   0  0  0  0  0  0  0  0  0  0  0  0
   16.4332    0.0000    0.0000 C   0  0  0  0  0  0  0  0  0  0  0  0
   17.1477    0.4125    0.0000 C   0  0  0  0  0  0  0  0  0  0  0  0
   17.8622    0.0000    0.0000 C   0  0  0  0  0  0  0  0  0  0  0  0
   18.5766    0.4125    0.0000 C   0  0  0  0  0  0  0  0  0  0  0  0
   19.2912    0.0000    0.0000 C   0  0  0  0  0  0  0  0  0  0  0  0
   20.0056    0.4125    0.0000 C   0  0  0  0  0  0  0  0  0  0  0  0
   20.7201    0.0000    0.0000 C   0  0  0  0  0  0  0  0  0  0  0  0
   21.4346    0.4125    0.0000 C   0  0  0  0  0  0  0  0  0  0  0  0
   22.1491    0.0000    0.0000 C   0  0  0  0  0  0  0  0  0  0  0  0
    2.1435    0.0000    0.0000 O   0  0  0  0  0  0  0  0  0  0  0  0
    1.4290    0.4125    0.0000 C   0  0  0  0  0  0  0  0  0  0  0  0
    0.7145    0.0000    0.0000 C   0  0  0  0  0  0  0  0  0  0  0  0
    0.0000    0.4125    0.0000 O   0  0  0  0  0  0  0  0  0  0  0  0
  1  2  2  0  0  0  0
  1  3  1  0  0  0  0
  3  4  1  0  0  0  0
  4  5  1  0  0  0  0
  5  6  1  0  0  0  0
  6  7  1  0  0  0  0
  7  8  1  0  0  0  0
  8  9  1  0  0  0  0
  9 10  1  0  0  0  0
 10 11  1  0  0  0  0
 11 12  1  0  0  0  0
 12 13  1  0  0  0  0
 13 14  1  0  0  0  0
 14 15  1  0  0  0  0
 15 16  1  0  0  0  0
 16 17  1  0  0  0  0
 17 18  1  0  0  0  0
 18 19  1  0  0  0  0
 19 20  1  0  0  0  0
 20 21  1  0  0  0  0
 21 22  1  0  0  0  0
 22 23  1  0  0  0  0
 23 24  1  0  0  0  0
 24 25  1  0  0  0  0
 25 26  1  0  0  0  0
 26 27  1  0  0  0  0
 27 28  1  0  0  0  0
 28 29  1  0  0  0  0
  1 30  1  0  0  0  0
 30 31  1  0  0  0  0
 31 32  1  0  0  0  0
 32 33  1  0  0  0  0
M  END