567
  Mrv0541 04071411322D          

 13 14  0  0  0  0            999 V2000
    0.2670    1.6572    0.0000 Cl  0  0  0  0  0  0  0  0  0  0  0  0
    0.8504    1.0738    0.0000 C   0  0  0  0  0  0  0  0  0  0  0  0
    1.4326    1.2666    0.0000 C   0  0  0  0  0  0  0  0  0  0  0  0
    1.4326    2.5866    0.0000 Cl  0  0  0  0  0  0  0  0  0  0  0  0
    1.9370    0.8974    0.0000 C   0  0  0  0  0  0  0  0  0  0  0  0
    2.7620    0.8974    0.0000 Cl  0  0  0  0  0  0  0  0  0  0  0  0
    1.4521    0.2300    0.0000 C   0  0  0  0  0  0  0  0  0  0  0  0
    0.6674    0.4849    0.0000 C   0  0  0  0  0  0  0  0  0  0  0  0
    0.0000    0.0000    0.0000 Cl  0  0  0  0  0  0  0  0  0  0  0  0
    0.6674    1.3099    0.0000 C   0  0  0  0  0  0  0  0  0  0  0  0
    0.0000    1.7949    0.0000 Cl  0  0  0  0  0  0  0  0  0  0  0  0
    1.4521    1.5649    0.0000 C   0  0  0  0  0  0  0  0  0  0  0  0
    1.7070    2.3495    0.0000 Cl  0  0  0  0  0  0  0  0  0  0  0  0
  1  2  1  0  0  0  0
  2  3  2  0  0  0  0
  3  4  1  0  0  0  0
  3  5  1  0  0  0  0
  5  6  1  0  0  0  0
  5  7  1  0  0  0  0
  7  8  1  0  0  0  0
  2  8  1  0  0  0  0
  8  9  1  0  0  0  0
  8 10  1  0  0  0  0
 10 11  1  0  0  0  0
 10 12  2  0  0  0  0
  5 12  1  0  0  0  0
 12 13  1  0  0  0  0
M  END