568
  Mrv0541 04071411322D          

 16 17  0  0  0  0            999 V2000
    1.1165    2.8732    0.0000 Cl  0  0  0  0  0  0  0  0  0  0  0  0
    1.4521    2.1195    0.0000 C   0  0  0  0  0  0  0  0  0  0  0  0
    2.1665    2.5320    0.0000 Cl  0  0  0  0  0  0  0  0  0  0  0  0
    1.9370    1.4521    0.0000 C   0  0  1  0  0  0  0  0  0  0  0  0
    2.7620    1.4521    0.0000 Cl  0  0  0  0  0  0  0  0  0  0  0  0
    1.4521    0.7846    0.0000 C   0  0  0  0  0  0  0  0  0  0  0  0
    1.7070    0.0000    0.0000 Cl  0  0  0  0  0  0  0  0  0  0  0  0
    0.6674    1.0396    0.0000 C   0  0  0  0  0  0  0  0  0  0  0  0
    0.6674    1.8646    0.0000 C   0  0  1  0  0  0  0  0  0  0  0  0
    0.0000    2.3495    0.0000 Cl  0  0  0  0  0  0  0  0  0  0  0  0
    0.8521    1.2741    0.0000 C   0  0  1  0  0  0  0  0  0  0  0  0
    0.0310    1.1939    0.0000 Cl  0  0  0  0  0  0  0  0  0  0  0  0
    0.7628    0.4539    0.0000 H   0  0  0  0  0  0  0  0  0  0  0  0
    1.4419    1.0821    0.0000 C   0  0  1  0  0  0  0  0  0  0  0  0
    2.0578    0.5354    0.0000 Cl  0  0  0  0  0  0  0  0  0  0  0  0
    1.0294    0.3676    0.0000 H   0  0  0  0  0  0  0  0  0  0  0  0
  1  2  1  0  0  0  0
  2  3  1  0  0  0  0
  2  4  1  0  0  0  0
  4  5  1  6  0  0  0
  4  6  1  0  0  0  0
  6  7  1  0  0  0  0
  6  8  2  0  0  0  0
  8  9  1  0  0  0  0
  2  9  1  0  0  0  0
  9 10  1  6  0  0  0
  9 11  1  0  0  0  0
 11 12  1  6  0  0  0
 11 13  1  1  0  0  0
 11 14  1  0  0  0  0
  4 14  1  0  0  0  0
 14 15  1  6  0  0  0
 14 16  1  1  0  0  0
M  END