587
  Mrv0541 04071411322D          

 16 16  0  0  0  0            999 V2000
    2.0625    1.4290    0.0000 O   0  0  0  0  0  0  0  0  0  0  0  0
    2.8875    1.4290    0.0000 C   0  0  0  0  0  0  0  0  0  0  0  0
    3.3000    2.1434    0.0000 C   0  0  0  0  0  0  0  0  0  0  0  0
    4.1250    2.1434    0.0000 C   0  0  0  0  0  0  0  0  0  0  0  0
    4.5375    1.4290    0.0000 C   0  0  0  0  0  0  0  0  0  0  0  0
    4.1250    0.7144    0.0000 C   0  0  0  0  0  0  0  0  0  0  0  0
    3.3000    0.7144    0.0000 C   0  0  0  0  0  0  0  0  0  0  0  0
    2.8875    0.0000    0.0000 Br  0  0  0  0  0  0  0  0  0  0  0  0
    5.3625    1.4290    0.0000 Br  0  0  0  0  0  0  0  0  0  0  0  0
    2.8875    2.8579    0.0000 Br  0  0  0  0  0  0  0  0  0  0  0  0
    1.6500    2.1434    0.0000 C   0  0  0  0  0  0  0  0  0  0  0  0
    0.8250    2.1434    0.0000 C   0  0  0  0  0  0  0  0  0  0  0  0
    0.0000    2.1434    0.0000 C   0  0  0  0  0  0  0  0  0  0  0  0
    0.8250    1.3184    0.0000 C   0  0  0  0  0  0  0  0  0  0  0  0
    0.1106    0.9059    0.0000 Br  0  0  0  0  0  0  0  0  0  0  0  0
    0.8250    2.9684    0.0000 Br  0  0  0  0  0  0  0  0  0  0  0  0
  1  2  1  0  0  0  0
  2  3  1  0  0  0  0
  3  4  2  0  0  0  0
  4  5  1  0  0  0  0
  5  6  2  0  0  0  0
  6  7  1  0  0  0  0
  2  7  2  0  0  0  0
  7  8  1  0  0  0  0
  5  9  1  0  0  0  0
  3 10  1  0  0  0  0
  1 11  1  0  0  0  0
 11 12  1  0  0  0  0
 12 13  1  0  0  0  0
 12 14  1  0  0  0  0
 14 15  1  0  0  0  0
 12 16  1  0  0  0  0
M  END