592
  Mrv0541 04071411322D          

 16 17  0  0  0  0            999 V2000
   -1.1647    1.5016    0.0000 C   0  0  0  0  0  0  0  0  0  0  0  0
   -1.1647    2.3266    0.0000 C   0  0  0  0  0  0  0  0  0  0  0  0
   -0.4502    2.7391    0.0000 C   0  0  0  0  0  0  0  0  0  0  0  0
    0.2642    2.3266    0.0000 C   0  0  0  0  0  0  0  0  0  0  0  0
    0.9787    2.7391    0.0000 C   0  0  0  0  0  0  0  0  0  0  0  0
    1.6932    2.3266    0.0000 C   0  0  0  0  0  0  0  0  0  0  0  0
    1.6932    1.5016    0.0000 C   0  0  0  0  0  0  0  0  0  0  0  0
    0.9787    1.0891    0.0000 C   0  0  0  0  0  0  0  0  0  0  0  0
    0.9787    0.2641    0.0000 C   0  0  0  0  0  0  0  0  0  0  0  0
    0.2642   -0.1484    0.0000 C   0  0  0  0  0  0  0  0  0  0  0  0
    1.6932   -0.1484    0.0000 C   0  0  0  0  0  0  0  0  0  0  0  0
    0.2642    1.5016    0.0000 C   0  0  0  0  0  0  0  0  0  0  0  0
   -0.4502    1.0891    0.0000 C   0  0  0  0  0  0  0  0  0  0  0  0
    2.4077    1.0891    0.0000 C   0  0  0  0  0  0  0  0  0  0  0  0
    3.1221    1.5016    0.0000 C   0  0  0  0  0  0  0  0  0  0  0  0
    2.4077    0.2641    0.0000 C   0  0  0  0  0  0  0  0  0  0  0  0
  1  2  1  0  0  0  0
  2  3  2  0  0  0  0
  3  4  1  0  0  0  0
  4  5  2  0  0  0  0
  5  6  1  0  0  0  0
  6  7  2  0  0  0  0
  7  8  1  0  0  0  0
  8  9  1  0  0  0  0
  9 10  1  0  0  0  0
  9 11  1  0  0  0  0
  8 12  2  0  0  0  0
  4 12  1  0  0  0  0
 12 13  1  0  0  0  0
  1 13  2  0  0  0  0
  7 14  1  0  0  0  0
 14 15  1  0  0  0  0
 14 16  1  0  0  0  0
M  END