596
  Mrv0541 04071411322D          

 20 21  0  0  0  0            999 V2000
    9.4875    2.8579    0.0000 C   0  0  0  0  0  0  0  0  0  0  0  0
    9.0750    2.1434    0.0000 C   0  0  0  0  0  0  0  0  0  0  0  0
    8.2500    2.1434    0.0000 C   0  0  0  0  0  0  0  0  0  0  0  0
    7.8375    1.4290    0.0000 C   0  0  0  0  0  0  0  0  0  0  0  0
    7.0125    1.4290    0.0000 C   0  0  0  0  0  0  0  0  0  0  0  0
    6.6000    0.7144    0.0000 C   0  0  0  0  0  0  0  0  0  0  0  0
    5.7750    0.7144    0.0000 C   0  0  0  0  0  0  0  0  0  0  0  0
    5.3625    0.0000    0.0000 C   0  0  0  0  0  0  0  0  0  0  0  0
    4.5375    0.0000    0.0000 C   0  0  0  0  0  0  0  0  0  0  0  0
    4.1250    0.7144    0.0000 C   0  0  0  0  0  0  0  0  0  0  0  0
    4.5375    1.4290    0.0000 C   0  0  0  0  0  0  0  0  0  0  0  0
    5.3625    1.4290    0.0000 C   0  0  0  0  0  0  0  0  0  0  0  0
    3.3000    0.7144    0.0000 C   0  0  0  0  0  0  0  0  0  0  0  0
    2.8875    0.0000    0.0000 C   0  0  0  0  0  0  0  0  0  0  0  0
    2.0625    0.0000    0.0000 C   0  0  0  0  0  0  0  0  0  0  0  0
    1.6500    0.7144    0.0000 C   0  0  0  0  0  0  0  0  0  0  0  0
    0.8250    0.7144    0.0000 C   0  0  0  0  0  0  0  0  0  0  0  0
    0.0000    0.7144    0.0000 N   0  0  0  0  0  0  0  0  0  0  0  0
    2.0625    1.4290    0.0000 C   0  0  0  0  0  0  0  0  0  0  0  0
    2.8875    1.4290    0.0000 C   0  0  0  0  0  0  0  0  0  0  0  0
  1  2  1  0  0  0  0
  2  3  1  0  0  0  0
  3  4  1  0  0  0  0
  4  5  1  0  0  0  0
  5  6  1  0  0  0  0
  6  7  1  0  0  0  0
  7  8  1  0  0  0  0
  8  9  2  0  0  0  0
  9 10  1  0  0  0  0
 10 11  2  0  0  0  0
 11 12  1  0  0  0  0
  7 12  2  0  0  0  0
 10 13  1  0  0  0  0
 13 14  1  0  0  0  0
 14 15  2  0  0  0  0
 15 16  1  0  0  0  0
 16 17  1  0  0  0  0
 17 18  3  0  0  0  0
 16 19  2  0  0  0  0
 19 20  1  0  0  0  0
 13 20  2  0  0  0  0
M  END