600
  Mrv0541 04071411322D          

 18 19  0  0  0  0            999 V2000
    5.7750    0.7144    0.0000 N   0  0  0  0  0  0  0  0  0  0  0  0
    4.9500    0.7144    0.0000 C   0  0  0  0  0  0  0  0  0  0  0  0
    4.5375    0.0000    0.0000 C   0  0  0  0  0  0  0  0  0  0  0  0
    3.7125    0.0000    0.0000 C   0  0  0  0  0  0  0  0  0  0  0  0
    3.3000    0.7144    0.0000 C   0  0  0  0  0  0  0  0  0  0  0  0
    3.7125    1.4290    0.0000 C   0  0  0  0  0  0  0  0  0  0  0  0
    3.3000    2.1434    0.0000 Cl  0  0  0  0  0  0  0  0  0  0  0  0
    4.5375    1.4290    0.0000 C   0  0  0  0  0  0  0  0  0  0  0  0
    4.9500    2.1434    0.0000 Cl  0  0  0  0  0  0  0  0  0  0  0  0
    2.4750    0.7144    0.0000 C   0  0  0  0  0  0  0  0  0  0  0  0
    2.0625    0.0000    0.0000 C   0  0  0  0  0  0  0  0  0  0  0  0
    1.2375    0.0000    0.0000 C   0  0  0  0  0  0  0  0  0  0  0  0
    0.8250    0.7144    0.0000 C   0  0  0  0  0  0  0  0  0  0  0  0
    0.0000    0.7144    0.0000 N   0  0  0  0  0  0  0  0  0  0  0  0
    1.2375    1.4290    0.0000 C   0  0  0  0  0  0  0  0  0  0  0  0
    0.8250    2.1434    0.0000 Cl  0  0  0  0  0  0  0  0  0  0  0  0
    2.0625    1.4290    0.0000 C   0  0  0  0  0  0  0  0  0  0  0  0
    2.4750    2.1434    0.0000 Cl  0  0  0  0  0  0  0  0  0  0  0  0
  1  2  1  0  0  0  0
  2  3  1  0  0  0  0
  3  4  2  0  0  0  0
  4  5  1  0  0  0  0
  5  6  2  0  0  0  0
  6  7  1  0  0  0  0
  6  8  1  0  0  0  0
  2  8  2  0  0  0  0
  8  9  1  0  0  0  0
  5 10  1  0  0  0  0
 10 11  1  0  0  0  0
 11 12  2  0  0  0  0
 12 13  1  0  0  0  0
 13 14  1  0  0  0  0
 13 15  2  0  0  0  0
 15 16  1  0  0  0  0
 15 17  1  0  0  0  0
 10 17  2  0  0  0  0
 17 18  1  0  0  0  0
M  END