625
  Mrv0541 04071411322D          

 30 33  0  0  0  0            999 V2000
    0.0000    0.0000    0.0000 C   0  0  0  0  0  0  0  0  0  0  0  0
    0.0000    0.8250    0.0000 C   0  0  0  0  0  0  0  0  0  0  0  0
    0.7144    1.2375    0.0000 C   0  0  0  0  0  0  0  0  0  0  0  0
    0.7144    2.0625    0.0000 C   0  0  0  0  0  0  0  0  0  0  0  0
    1.4290    2.4750    0.0000 O   0  0  0  0  0  0  0  0  0  0  0  0
    1.4290    3.3000    0.0000 C   0  0  0  0  0  0  0  0  0  0  0  0
    2.1434    3.7125    0.0000 C   0  0  0  0  0  0  0  0  0  0  0  0
    2.8579    3.3000    0.0000 N   0  0  0  0  0  0  0  0  0  0  0  0
    3.6116    3.6355    0.0000 C   0  0  0  0  0  0  0  0  0  0  0  0
    3.7831    4.4425    0.0000 N   0  0  0  0  0  0  0  0  0  0  0  0
    4.1636    3.0224    0.0000 C   0  0  0  0  0  0  0  0  0  0  0  0
    4.9886    3.0224    0.0000 C   0  0  0  0  0  0  0  0  0  0  0  0
    5.4011    3.7370    0.0000 N   0  0  0  0  0  0  0  0  0  0  0  0
    5.4011    2.3080    0.0000 C   0  0  0  0  0  0  0  0  0  0  0  0
    6.2261    2.3080    0.0000 C   0  0  0  0  0  0  0  0  0  0  0  0
    6.6386    3.0224    0.0000 O   0  0  0  0  0  0  0  0  0  0  0  0
    6.6386    1.5935    0.0000 C   0  0  0  0  0  0  0  0  0  0  0  0
    7.4636    1.5935    0.0000 C   0  0  0  0  0  0  0  0  0  0  0  0
    7.8761    0.8790    0.0000 C   0  0  0  0  0  0  0  0  0  0  0  0
    7.4636    0.1646    0.0000 C   0  0  0  0  0  0  0  0  0  0  0  0
    6.6386    0.1646    0.0000 C   0  0  0  0  0  0  0  0  0  0  0  0
    6.2261    0.8790    0.0000 C   0  0  0  0  0  0  0  0  0  0  0  0
    5.4011    0.8790    0.0000 C   0  0  0  0  0  0  0  0  0  0  0  0
    4.9886    0.1646    0.0000 O   0  0  0  0  0  0  0  0  0  0  0  0
    4.9886    1.5935    0.0000 C   0  0  0  0  0  0  0  0  0  0  0  0
    4.1636    1.5935    0.0000 C   0  0  0  0  0  0  0  0  0  0  0  0
    3.7511    0.8790    0.0000 N   0  0  0  0  0  0  0  0  0  0  0  0
    3.7511    2.3080    0.0000 C   0  0  0  0  0  0  0  0  0  0  0  0
    2.9441    2.4795    0.0000 C   0  0  0  0  0  0  0  0  0  0  0  0
    2.3310    1.9275    0.0000 O   0  0  0  0  0  0  0  0  0  0  0  0
  1  2  1  0  0  0  0
  2  3  1  0  0  0  0
  3  4  1  0  0  0  0
  4  5  1  0  0  0  0
  5  6  1  0  0  0  0
  6  7  1  0  0  0  0
  7  8  1  0  0  0  0
  8  9  1  0  0  0  0
  9 10  2  0  0  0  0
  9 11  1  0  0  0  0
 11 12  1  0  0  0  0
 12 13  1  0  0  0  0
 12 14  2  0  0  0  0
 14 15  1  0  0  0  0
 15 16  2  0  0  0  0
 15 17  1  0  0  0  0
 17 18  1  0  0  0  0
 18 19  2  0  0  0  0
 19 20  1  0  0  0  0
 20 21  2  0  0  0  0
 21 22  1  0  0  0  0
 17 22  2  0  0  0  0
 22 23  1  0  0  0  0
 23 24  2  0  0  0  0
 23 25  1  0  0  0  0
 14 25  1  0  0  0  0
 25 26  2  0  0  0  0
 26 27  1  0  0  0  0
 26 28  1  0  0  0  0
 11 28  2  0  0  0  0
 28 29  1  0  0  0  0
  8 29  1  0  0  0  0
 29 30  1  0  0  0  0
M  END