630
  Mrv0541 04071411322D          

 16 16  0  0  0  0            999 V2000
    0.0000    0.7145    0.0000 O   0  0  0  0  0  0  0  0  0  0  0  0
    0.7145    1.1270    0.0000 C   0  0  0  0  0  0  0  0  0  0  0  0
    1.4290    0.7145    0.0000 O   0  0  0  0  0  0  0  0  0  0  0  0
    0.7145    1.9520    0.0000 C   0  0  0  0  0  0  0  0  0  0  0  0
    0.0000    2.3645    0.0000 C   0  0  0  0  0  0  0  0  0  0  0  0
    1.4290    2.3645    0.0000 C   0  0  0  0  0  0  0  0  0  0  0  0
    2.1434    1.9520    0.0000 C   0  0  0  0  0  0  0  0  0  0  0  0
    2.8579    2.3645    0.0000 C   0  0  0  0  0  0  0  0  0  0  0  0
    3.5724    1.9520    0.0000 C   0  0  0  0  0  0  0  0  0  0  0  0
    3.5724    1.1270    0.0000 C   0  0  0  0  0  0  0  0  0  0  0  0
    2.8579    0.7145    0.0000 C   0  0  0  0  0  0  0  0  0  0  0  0
    2.1434    1.1270    0.0000 C   0  0  0  0  0  0  0  0  0  0  0  0
    4.2869    0.7145    0.0000 C   0  0  0  0  0  0  0  0  0  0  0  0
    4.6994    1.4290    0.0000 C   0  0  0  0  0  0  0  0  0  0  0  0
    5.0013    0.3020    0.0000 C   0  0  0  0  0  0  0  0  0  0  0  0
    3.8744    0.0000    0.0000 C   0  0  0  0  0  0  0  0  0  0  0  0
  1  2  1  0  0  0  0
  2  3  2  0  0  0  0
  2  4  1  0  0  0  0
  4  5  1  0  0  0  0
  4  6  1  0  0  0  0
  6  7  1  0  0  0  0
  7  8  1  0  0  0  0
  8  9  2  0  0  0  0
  9 10  1  0  0  0  0
 10 11  2  0  0  0  0
 11 12  1  0  0  0  0
  7 12  2  0  0  0  0
 10 13  1  0  0  0  0
 13 14  1  0  0  0  0
 13 15  1  0  0  0  0
 13 16  1  0  0  0  0
M  END