637
  Mrv0541 04071411322D          

 23 24  0  0  0  0            999 V2000
    0.0000    2.0963    0.0000 C   0  0  0  0  0  0  0  0  0  0  0  0
    0.4849    1.4288    0.0000 C   0  0  0  0  0  0  0  0  0  0  0  0
    1.3054    1.5151    0.0000 C   0  0  0  0  0  0  0  0  0  0  0  0
    1.7179    2.2295    0.0000 N   0  0  0  0  0  0  0  0  0  0  0  0
    2.5249    2.0580    0.0000 N   0  0  0  0  0  0  0  0  0  0  0  0
    3.1379    2.6100    0.0000 C   0  0  0  0  0  0  0  0  0  0  0  0
    2.6111    1.2375    0.0000 C   0  0  0  0  0  0  0  0  0  0  0  0
    3.3256    0.8250    0.0000 C   0  0  0  0  0  0  0  0  0  0  0  0
    3.3256    0.0000    0.0000 O   0  0  0  0  0  0  0  0  0  0  0  0
    4.0400    1.2375    0.0000 N   0  0  0  0  0  0  0  0  0  0  0  0
    4.7545    0.8250    0.0000 C   0  0  0  0  0  0  0  0  0  0  0  0
    5.4690    1.2375    0.0000 C   0  0  0  0  0  0  0  0  0  0  0  0
    5.4690    2.0625    0.0000 C   0  0  0  0  0  0  0  0  0  0  0  0
    6.1835    2.4750    0.0000 C   0  0  0  0  0  0  0  0  0  0  0  0
    6.8980    2.0625    0.0000 C   0  0  0  0  0  0  0  0  0  0  0  0
    6.8980    1.2375    0.0000 C   0  0  0  0  0  0  0  0  0  0  0  0
    6.1835    0.8250    0.0000 C   0  0  0  0  0  0  0  0  0  0  0  0
    7.6124    2.4750    0.0000 C   0  0  0  0  0  0  0  0  0  0  0  0
    8.3269    2.8875    0.0000 C   0  0  0  0  0  0  0  0  0  0  0  0
    8.0249    1.7606    0.0000 C   0  0  0  0  0  0  0  0  0  0  0  0
    7.1999    3.1895    0.0000 C   0  0  0  0  0  0  0  0  0  0  0  0
    1.8574    0.9020    0.0000 C   0  0  0  0  0  0  0  0  0  0  0  0
    1.6859    0.0950    0.0000 Cl  0  0  0  0  0  0  0  0  0  0  0  0
  1  2  1  0  0  0  0
  2  3  1  0  0  0  0
  3  4  2  0  0  0  0
  4  5  1  0  0  0  0
  5  6  1  0  0  0  0
  5  7  1  0  0  0  0
  7  8  1  0  0  0  0
  8  9  2  0  0  0  0
  8 10  1  0  0  0  0
 10 11  1  0  0  0  0
 11 12  1  0  0  0  0
 12 13  1  0  0  0  0
 13 14  2  0  0  0  0
 14 15  1  0  0  0  0
 15 16  2  0  0  0  0
 16 17  1  0  0  0  0
 12 17  2  0  0  0  0
 15 18  1  0  0  0  0
 18 19  1  0  0  0  0
 18 20  1  0  0  0  0
 18 21  1  0  0  0  0
  7 22  2  0  0  0  0
  3 22  1  0  0  0  0
 22 23  1  0  0  0  0
M  END