76
  Mrv0541 04071411322D          

 32 36  0  0  0  0            999 V2000
    8.8522    0.7099    0.0000 C   0  0  0  0  0  0  0  0  0  0  0  0
    8.3002    1.3229    0.0000 C   0  0  0  0  0  0  0  0  0  0  0  0
    8.5137    2.1198    0.0000 C   0  0  0  0  0  0  0  0  0  0  0  0
    7.4932    1.1514    0.0000 C   0  0  1  0  0  0  0  0  0  0  0  0
    7.7482    0.3668    0.0000 H   0  0  0  0  0  0  0  0  0  0  0  0
    6.7395    0.8159    0.0000 C   0  0  0  0  0  0  0  0  0  0  0  0
    6.1875    1.4290    0.0000 C   0  0  0  0  0  0  0  0  0  0  0  0
    6.6000    2.1434    0.0000 C   0  0  0  0  0  0  0  0  0  0  0  0
    7.4070    1.9719    0.0000 O   0  0  0  0  0  0  0  0  0  0  0  0
    6.1875    2.8579    0.0000 C   0  0  0  0  0  0  0  0  0  0  0  0
    5.3625    2.8579    0.0000 C   0  0  0  0  0  0  0  0  0  0  0  0
    4.9500    2.1434    0.0000 C   0  0  0  0  0  0  0  0  0  0  0  0
    5.3625    1.4290    0.0000 C   0  0  0  0  0  0  0  0  0  0  0  0
    4.9500    0.7145    0.0000 O   0  0  0  0  0  0  0  0  0  0  0  0
    4.1250    0.7145    0.0000 C   0  0  1  0  0  0  0  0  0  0  0  0
    4.5375    0.0000    0.0000 H   0  0  0  0  0  0  0  0  0  0  0  0
    3.7125    0.0000    0.0000 C   0  0  0  0  0  0  0  0  0  0  0  0
    2.8875    0.0000    0.0000 O   0  0  0  0  0  0  0  0  0  0  0  0
    2.4750    0.7145    0.0000 C   0  0  0  0  0  0  0  0  0  0  0  0
    1.6500    0.7145    0.0000 C   0  0  0  0  0  0  0  0  0  0  0  0
    1.2375    1.4290    0.0000 C   0  0  0  0  0  0  0  0  0  0  0  0
    0.4125    1.4290    0.0000 O   0  0  0  0  0  0  0  0  0  0  0  0
    0.0000    0.7145    0.0000 C   0  0  0  0  0  0  0  0  0  0  0  0
    1.6500    2.1434    0.0000 C   0  0  0  0  0  0  0  0  0  0  0  0
    2.4750    2.1434    0.0000 C   0  0  0  0  0  0  0  0  0  0  0  0
    2.8875    1.4290    0.0000 C   0  0  0  0  0  0  0  0  0  0  0  0
    3.7125    1.4290    0.0000 C   0  0  2  0  0  0  0  0  0  0  0  0
    3.3000    2.1434    0.0000 H   0  0  0  0  0  0  0  0  0  0  0  0
    4.1250    2.1434    0.0000 C   0  0  0  0  0  0  0  0  0  0  0  0
    3.7125    2.8579    0.0000 O   0  0  0  0  0  0  0  0  0  0  0  0
    1.2375    2.8579    0.0000 O   0  0  0  0  0  0  0  0  0  0  0  0
    0.4125    2.8579    0.0000 C   0  0  0  0  0  0  0  0  0  0  0  0
  1  2  1  0  0  0  0
  2  3  2  0  0  0  0
  4  2  1  1  0  0  0
  4  5  1  6  0  0  0
  4  6  1  0  0  0  0
  6  7  1  0  0  0  0
  7  8  2  0  0  0  0
  8  9  1  0  0  0  0
  4  9  1  0  0  0  0
  8 10  1  0  0  0  0
 10 11  2  0  0  0  0
 11 12  1  0  0  0  0
 12 13  2  0  0  0  0
  7 13  1  0  0  0  0
 13 14  1  0  0  0  0
 14 15  1  0  0  0  0
 15 16  1  6  0  0  0
 15 17  1  0  0  0  0
 17 18  1  0  0  0  0
 18 19  1  0  0  0  0
 19 20  2  0  0  0  0
 20 21  1  0  0  0  0
 21 22  1  0  0  0  0
 22 23  1  0  0  0  0
 21 24  2  0  0  0  0
 24 25  1  0  0  0  0
 25 26  2  0  0  0  0
 19 26  1  0  0  0  0
 26 27  1  0  0  0  0
 15 27  1  0  0  0  0
 27 28  1  1  0  0  0
 27 29  1  0  0  0  0
 12 29  1  0  0  0  0
 29 30  2  0  0  0  0
 24 31  1  0  0  0  0
 31 32  1  0  0  0  0
M  END