78
  Mrv0541 04071411322D          

 19 20  0  0  0  0            999 V2000
    2.7620    2.8579    0.0000 Cl  0  0  0  0  0  0  0  0  0  0  0  0
    3.1745    2.1434    0.0000 C   0  0  0  0  0  0  0  0  0  0  0  0
    3.9995    2.1434    0.0000 C   0  0  0  0  0  0  0  0  0  0  0  0
    4.4120    1.4290    0.0000 C   0  0  0  0  0  0  0  0  0  0  0  0
    3.9995    0.7144    0.0000 C   0  0  0  0  0  0  0  0  0  0  0  0
    4.4120    0.0000    0.0000 Cl  0  0  0  0  0  0  0  0  0  0  0  0
    3.1745    0.7144    0.0000 C   0  0  0  0  0  0  0  0  0  0  0  0
    2.7620    1.4290    0.0000 C   0  0  0  0  0  0  0  0  0  0  0  0
    1.9370    1.4290    0.0000 N   0  0  0  0  0  0  0  0  0  0  0  0
    1.4521    0.7615    0.0000 N   0  0  0  0  0  0  0  0  0  0  0  0
    0.6674    1.0165    0.0000 C   0  0  0  0  0  0  0  0  0  0  0  0
    0.0000    0.5315    0.0000 C   0  0  0  0  0  0  0  0  0  0  0  0
    0.6674    1.8415    0.0000 C   0  0  0  0  0  0  0  0  0  0  0  0
    1.4521    2.0964    0.0000 C   0  0  0  0  0  0  0  0  0  0  0  0
    1.7070    2.8810    0.0000 O   0  0  0  0  0  0  0  0  0  0  0  0
    5.2370    1.4290    0.0000 S   0  0  0  0  0  0  0  0  0  0  0  0
    5.2370    2.2540    0.0000 O   0  0  0  0  0  0  0  0  0  0  0  0
    5.2370    0.6040    0.0000 O   0  0  0  0  0  0  0  0  0  0  0  0
    6.0620    1.4290    0.0000 O   0  0  0  0  0  0  0  0  0  0  0  0
  1  2  1  0  0  0  0
  2  3  1  0  0  0  0
  3  4  2  0  0  0  0
  4  5  1  0  0  0  0
  5  6  1  0  0  0  0
  5  7  2  0  0  0  0
  7  8  1  0  0  0  0
  2  8  2  0  0  0  0
  8  9  1  0  0  0  0
  9 10  1  0  0  0  0
 10 11  2  0  0  0  0
 11 12  1  0  0  0  0
 11 13  1  0  0  0  0
 13 14  1  0  0  0  0
  9 14  1  0  0  0  0
 14 15  2  0  0  0  0
  4 16  1  0  0  0  0
 16 17  2  0  0  0  0
 16 18  2  0  0  0  0
 16 19  1  0  0  0  0
M  END