8
  Mrv0541 04071411322D          

 16 16  0  0  0  0            999 V2000
    0.8250   -1.4289    0.0000 C   0  0  0  0  0  0  0  0  0  0  0  0
    1.5395   -1.0164    0.0000 S   0  0  0  0  0  0  0  0  0  0  0  0
    2.2539   -1.4289    0.0000 C   0  0  0  0  0  0  0  0  0  0  0  0
    2.9684   -1.0164    0.0000 C   0  0  0  0  0  0  0  0  0  0  0  0
    3.6829   -1.4289    0.0000 C   0  0  0  0  0  0  0  0  0  0  0  0
    3.6829   -2.2539    0.0000 C   0  0  0  0  0  0  0  0  0  0  0  0
    2.9684   -2.6664    0.0000 C   0  0  0  0  0  0  0  0  0  0  0  0
    2.2539   -2.2539    0.0000 C   0  0  0  0  0  0  0  0  0  0  0  0
    1.5395   -2.6664    0.0000 C   0  0  0  0  0  0  0  0  0  0  0  0
    4.3974   -2.6664    0.0000 O   0  0  0  0  0  0  0  0  0  0  0  0
    5.1118   -2.2539    0.0000 P   0  0  0  0  0  0  0  0  0  0  0  0
    5.5243   -2.9684    0.0000 S   0  0  0  0  0  0  0  0  0  0  0  0
    4.6993   -1.5395    0.0000 O   0  0  0  0  0  0  0  0  0  0  0  0
    5.1118   -0.8250    0.0000 C   0  0  0  0  0  0  0  0  0  0  0  0
    5.8263   -1.8414    0.0000 O   0  0  0  0  0  0  0  0  0  0  0  0
    6.5408   -2.2539    0.0000 C   0  0  0  0  0  0  0  0  0  0  0  0
  1  2  1  0  0  0  0
  2  3  1  0  0  0  0
  3  4  1  0  0  0  0
  4  5  2  0  0  0  0
  5  6  1  0  0  0  0
  6  7  2  0  0  0  0
  7  8  1  0  0  0  0
  3  8  2  0  0  0  0
  8  9  1  0  0  0  0
  6 10  1  0  0  0  0
 10 11  1  0  0  0  0
 11 12  2  0  0  0  0
 11 13  1  0  0  0  0
 13 14  1  0  0  0  0
 11 15  1  0  0  0  0
 15 16  1  0  0  0  0
M  END