83
  Mrv0541 04071411322D          

 23 24  0  0  0  0            999 V2000
    0.4125    5.7158    0.0000 C   0  0  0  0  0  0  0  0  0  0  0  0
    1.2375    5.7158    0.0000 C   0  0  0  0  0  0  0  0  0  0  0  0
    1.6500    5.0013    0.0000 C   0  0  0  0  0  0  0  0  0  0  0  0
    2.4750    5.0013    0.0000 C   0  0  0  0  0  0  0  0  0  0  0  0
    2.8875    4.2868    0.0000 O   0  0  0  0  0  0  0  0  0  0  0  0
    3.7125    4.2868    0.0000 C   0  0  0  0  0  0  0  0  0  0  0  0
    4.1250    5.0013    0.0000 O   0  0  0  0  0  0  0  0  0  0  0  0
    4.1250    3.5724    0.0000 C   0  0  0  0  0  0  0  0  0  0  0  0
    4.9500    3.5724    0.0000 C   0  0  0  0  0  0  0  0  0  0  0  0
    5.3625    2.8579    0.0000 C   0  0  0  0  0  0  0  0  0  0  0  0
    4.9500    2.1434    0.0000 C   0  0  0  0  0  0  0  0  0  0  0  0
    4.1250    2.1434    0.0000 C   0  0  0  0  0  0  0  0  0  0  0  0
    3.7125    2.8579    0.0000 C   0  0  0  0  0  0  0  0  0  0  0  0
    2.8875    2.8579    0.0000 C   0  0  0  0  0  0  0  0  0  0  0  0
    2.4750    3.5724    0.0000 O   0  0  0  0  0  0  0  0  0  0  0  0
    2.4750    2.1434    0.0000 O   0  0  0  0  0  0  0  0  0  0  0  0
    1.6500    2.1434    0.0000 C   0  0  0  0  0  0  0  0  0  0  0  0
    1.2375    1.4290    0.0000 C   0  0  0  0  0  0  0  0  0  0  0  0
    1.6500    0.7144    0.0000 C   0  0  0  0  0  0  0  0  0  0  0  0
    1.2375    0.0000    0.0000 C   0  0  0  0  0  0  0  0  0  0  0  0
    0.4125    0.0000    0.0000 C   0  0  0  0  0  0  0  0  0  0  0  0
    0.0000    0.7144    0.0000 C   0  0  0  0  0  0  0  0  0  0  0  0
    0.4125    1.4290    0.0000 C   0  0  0  0  0  0  0  0  0  0  0  0
  1  2  1  0  0  0  0
  2  3  1  0  0  0  0
  3  4  1  0  0  0  0
  4  5  1  0  0  0  0
  5  6  1  0  0  0  0
  6  7  2  0  0  0  0
  6  8  1  0  0  0  0
  8  9  1  0  0  0  0
  9 10  2  0  0  0  0
 10 11  1  0  0  0  0
 11 12  2  0  0  0  0
 12 13  1  0  0  0  0
  8 13  2  0  0  0  0
 13 14  1  0  0  0  0
 14 15  2  0  0  0  0
 14 16  1  0  0  0  0
 16 17  1  0  0  0  0
 17 18  1  0  0  0  0
 18 19  1  0  0  0  0
 19 20  2  0  0  0  0
 20 21  1  0  0  0  0
 21 22  2  0  0  0  0
 22 23  1  0  0  0  0
 18 23  2  0  0  0  0
M  END