84
  Mrv0541 04071411322D          

 29 32  0  0  0  0            999 V2000
    2.9684   -4.9500    0.0000 C   0  0  0  0  0  0  0  0  0  0  0  0
    2.2539   -4.5375    0.0000 C   0  0  0  0  0  0  0  0  0  0  0  0
    1.5395   -4.9500    0.0000 C   0  0  0  0  0  0  0  0  0  0  0  0
    0.8250   -4.5375    0.0000 C   0  0  0  0  0  0  0  0  0  0  0  0
    0.8250   -3.7125    0.0000 C   0  0  0  0  0  0  0  0  0  0  0  0
    1.5395   -3.3000    0.0000 C   0  0  0  0  0  0  0  0  0  0  0  0
    2.2539   -3.7125    0.0000 C   0  0  0  0  0  0  0  0  0  0  0  0
    2.9684   -3.3000    0.0000 N   0  0  0  0  0  0  0  0  0  0  0  0
    3.6829   -3.7125    0.0000 N   0  0  0  0  0  0  0  0  0  0  0  0
    4.3974   -3.3000    0.0000 C   0  0  0  0  0  0  0  0  0  0  0  0
    4.3974   -2.4750    0.0000 C   0  0  0  0  0  0  0  0  0  0  0  0
    5.1118   -2.0625    0.0000 C   0  0  0  0  0  0  0  0  0  0  0  0
    5.8263   -2.4750    0.0000 C   0  0  0  0  0  0  0  0  0  0  0  0
    6.5408   -2.0625    0.0000 N   0  0  0  0  0  0  0  0  0  0  0  0
    7.2553   -2.4750    0.0000 N   0  0  0  0  0  0  0  0  0  0  0  0
    7.9697   -2.0625    0.0000 C   0  0  0  0  0  0  0  0  0  0  0  0
    7.9697   -1.2375    0.0000 C   0  0  0  0  0  0  0  0  0  0  0  0
    7.2553   -0.8250    0.0000 O   0  0  0  0  0  0  0  0  0  0  0  0
    8.6842   -0.8250    0.0000 C   0  0  0  0  0  0  0  0  0  0  0  0
    9.3986   -1.2375    0.0000 C   0  0  0  0  0  0  0  0  0  0  0  0
    9.3986   -2.0625    0.0000 C   0  0  0  0  0  0  0  0  0  0  0  0
   10.1131   -2.4750    0.0000 C   0  0  0  0  0  0  0  0  0  0  0  0
   10.1131   -3.3000    0.0000 C   0  0  0  0  0  0  0  0  0  0  0  0
    9.3986   -3.7125    0.0000 C   0  0  0  0  0  0  0  0  0  0  0  0
    8.6842   -3.3000    0.0000 C   0  0  0  0  0  0  0  0  0  0  0  0
    8.6842   -2.4750    0.0000 C   0  0  0  0  0  0  0  0  0  0  0  0
    5.8263   -3.3000    0.0000 C   0  0  0  0  0  0  0  0  0  0  0  0
    6.5408   -3.7125    0.0000 C   0  0  0  0  0  0  0  0  0  0  0  0
    5.1118   -3.7125    0.0000 C   0  0  0  0  0  0  0  0  0  0  0  0
  1  2  1  0  0  0  0
  2  3  1  0  0  0  0
  3  4  2  0  0  0  0
  4  5  1  0  0  0  0
  5  6  2  0  0  0  0
  6  7  1  0  0  0  0
  2  7  2  0  0  0  0
  7  8  1  0  0  0  0
  8  9  2  0  0  0  0
  9 10  1  0  0  0  0
 10 11  1  0  0  0  0
 11 12  2  0  0  0  0
 12 13  1  0  0  0  0
 13 14  1  0  0  0  0
 14 15  2  0  0  0  0
 15 16  1  0  0  0  0
 16 17  1  0  0  0  0
 17 18  1  0  0  0  0
 17 19  2  0  0  0  0
 19 20  1  0  0  0  0
 20 21  2  0  0  0  0
 21 22  1  0  0  0  0
 22 23  2  0  0  0  0
 23 24  1  0  0  0  0
 24 25  2  0  0  0  0
 25 26  1  0  0  0  0
 21 26  1  0  0  0  0
 16 26  2  0  0  0  0
 13 27  2  0  0  0  0
 27 28  1  0  0  0  0
 27 29  1  0  0  0  0
 10 29  2  0  0  0  0
M  END