1
  Mrv0541 04071411322D          

  9  8  0  0  0  0            999 V2000
    0.0000   -0.2059    0.0000 C   0  0  0  0  0  0  0  0  0  0  0  0
    0.7165    0.2059    0.0000 C   0  0  0  0  0  0  0  0  0  0  0  0
    1.4248   -0.2059    0.0000 C   0  0  0  0  0  0  0  0  0  0  0  0
    2.1413    0.2059    0.0000 C   0  0  0  0  0  0  0  0  0  0  0  0
    2.8496   -0.2059    0.0000 C   0  0  0  0  0  0  0  0  0  0  0  0
    2.8475   -1.0295    0.0000 C   0  0  0  0  0  0  0  0  0  0  0  0
    3.5661    0.2059    0.0000 C   0  0  0  0  0  0  0  0  0  0  0  0
    4.2826   -0.2059    0.0000 C   0  0  0  0  0  0  0  0  0  0  0  0
    3.5661    1.0295    0.0000 C   0  0  0  0  0  0  0  0  0  0  0  0
  1  2  1  0  0  0  0
  2  3  1  0  0  0  0
  3  4  1  0  0  0  0
  4  5  1  0  0  0  0
  5  6  1  0  0  0  0
  5  7  1  0  0  0  0
  7  8  1  0  0  0  0
  7  9  1  0  0  0  0
M  END