105
  Mrv0541 04071411322D          

 10 10  0  0  0  0            999 V2000
   -0.7149    0.4075    0.0000 C   0  0  0  0  0  0  0  0  0  0  0  0
   -0.7149   -0.4075    0.0000 C   0  0  0  0  0  0  0  0  0  0  0  0
    0.0018    0.8223    0.0000 C   0  0  0  0  0  0  0  0  0  0  0  0
   -1.4281    0.8223    0.0000 O   0  0  0  0  0  0  0  0  0  0  0  0
    0.0018   -0.8223    0.0000 C   0  0  0  0  0  0  0  0  0  0  0  0
   -1.4281   -0.8223    0.0000 Cl  0  0  0  0  0  0  0  0  0  0  0  0
    0.7149    0.4075    0.0000 C   0  0  0  0  0  0  0  0  0  0  0  0
    0.7149   -0.4075    0.0000 C   0  0  0  0  0  0  0  0  0  0  0  0
    1.4263    0.8223    0.0000 Cl  0  0  0  0  0  0  0  0  0  0  0  0
    1.4263   -0.8223    0.0000 Cl  0  0  0  0  0  0  0  0  0  0  0  0
  1  2  2  0  0  0  0
  1  3  1  0  0  0  0
  1  4  1  0  0  0  0
  2  5  1  0  0  0  0
  2  6  1  0  0  0  0
  3  7  2  0  0  0  0
  5  8  2  0  0  0  0
  7  9  1  0  0  0  0
  8 10  1  0  0  0  0
  7  8  1  0  0  0  0
M  END