109
  Mrv0541 04071411322D          

 24 24  0  0  0  0            999 V2000
   -1.6222    1.8694    0.0000 C   0  0  0  0  0  0  0  0  0  0  0  0
   -2.3267    2.2826    0.0000 C   0  0  0  0  0  0  0  0  0  0  0  0
   -1.6222    1.0465    0.0000 C   0  0  0  0  0  0  0  0  0  0  0  0
   -0.9008    2.2826    0.0000 C   0  0  0  0  0  0  0  0  0  0  0  0
   -3.0345    1.8694    0.0000 C   0  0  0  0  0  0  0  0  0  0  0  0
   -2.3267    0.6367    0.0000 C   0  0  0  0  0  0  0  0  0  0  0  0
   -0.1863    1.8694    0.0000 C   0  0  0  0  0  0  0  0  0  0  0  0
   -3.0345    1.0465    0.0000 C   0  0  0  0  0  0  0  0  0  0  0  0
   -0.1863    1.0364    0.0000 C   0  0  0  0  0  0  0  0  0  0  0  0
   -3.7491    0.6367    0.0000 S   0  0  0  0  0  0  0  0  0  0  0  0
    0.5521    0.6130    0.0000 C   0  0  0  0  0  0  0  0  0  0  0  0
   -4.0437    1.3750    0.0000 O   0  0  0  0  0  0  0  0  0  0  0  0
   -3.4511   -0.1219    0.0000 O   0  0  0  0  0  0  0  0  0  0  0  0
   -4.6060    0.3115    0.0000 O   0  0  0  0  0  0  0  0  0  0  0  0
    0.5521   -0.1964    0.0000 C   0  0  0  0  0  0  0  0  0  0  0  0
    1.2599   -0.6333    0.0000 C   0  0  0  0  0  0  0  0  0  0  0  0
    1.9846   -0.2100    0.0000 C   0  0  0  0  0  0  0  0  0  0  0  0
    2.6992   -0.6333    0.0000 C   0  0  0  0  0  0  0  0  0  0  0  0
    2.6992   -1.4699    0.0000 C   0  0  0  0  0  0  0  0  0  0  0  0
    3.4206   -1.8898    0.0000 C   0  0  0  0  0  0  0  0  0  0  0  0
    3.4071   -2.7128    0.0000 C   0  0  0  0  0  0  0  0  0  0  0  0
    4.1250   -3.1395    0.0000 C   0  0  0  0  0  0  0  0  0  0  0  0
    4.8430   -2.7331    0.0000 C   0  0  0  0  0  0  0  0  0  0  0  0
    5.5475   -3.1429    0.0000 C   0  0  0  0  0  0  0  0  0  0  0  0
  1  2  1  0  0  0  0
  1  3  2  0  0  0  0
  1  4  1  0  0  0  0
  2  5  2  0  0  0  0
  3  6  1  0  0  0  0
  4  7  1  0  0  0  0
  5  8  1  0  0  0  0
  7  9  1  0  0  0  0
  8 10  1  0  0  0  0
  9 11  1  0  0  0  0
 10 12  1  0  0  0  0
 10 13  2  0  0  0  0
 10 14  2  0  0  0  0
 11 15  1  0  0  0  0
 15 16  1  0  0  0  0
 16 17  1  0  0  0  0
 17 18  1  0  0  0  0
 18 19  1  0  0  0  0
 19 20  1  0  0  0  0
 20 21  1  0  0  0  0
 21 22  1  0  0  0  0
 22 23  1  0  0  0  0
 23 24  1  0  0  0  0
  6  8  2  0  0  0  0
M  END