110
  Mrv0541 04071411322D          

  8  8  0  0  0  0            999 V2000
    0.2707   -0.2430    0.0000 C   0  0  0  0  0  0  0  0  0  0  0  0
    0.2707    0.5690    0.0000 C   0  0  0  0  0  0  0  0  0  0  0  0
   -0.4327   -0.6702    0.0000 C   0  0  0  0  0  0  0  0  0  0  0  0
    0.9888   -0.6519    0.0000 C   0  0  0  0  0  0  0  0  0  0  0  0
   -0.4512    0.9759    0.0000 C   0  0  0  0  0  0  0  0  0  0  0  0
   -1.1729   -0.2578    0.0000 C   0  0  0  0  0  0  0  0  0  0  0  0
    1.6996   -0.2357    0.0000 C   0  0  0  0  0  0  0  0  0  0  0  0
   -1.1729    0.5119    0.0000 C   0  0  0  0  0  0  0  0  0  0  0  0
  1  2  1  0  0  0  0
  1  3  1  0  0  0  0
  1  4  1  0  0  0  0
  2  5  1  0  0  0  0
  3  6  1  0  0  0  0
  4  7  2  0  0  0  0
  5  8  1  0  0  0  0
  6  8  2  0  0  0  0
M  END