112
  Mrv0541 04071411322D          

  6  6  0  0  0  0            999 V2000
    3.8167   -2.6858    0.0000 C   0  0  0  0  0  0  0  0  0  0  0  0
    4.2280   -3.4010    0.0000 C   0  0  0  0  0  0  0  0  0  0  0  0
    4.2280   -1.9706    0.0000 C   0  0  0  0  0  0  0  0  0  0  0  0
    5.0506   -3.4010    0.0000 C   0  0  0  0  0  0  0  0  0  0  0  0
    5.0506   -1.9706    0.0000 C   0  0  0  0  0  0  0  0  0  0  0  0
    5.4694   -2.6858    0.0000 C   0  0  0  0  0  0  0  0  0  0  0  0
  1  2  1  0  0  0  0
  1  3  1  0  0  0  0
  2  4  1  0  0  0  0
  3  5  1  0  0  0  0
  4  6  1  0  0  0  0
  5  6  1  0  0  0  0
M  END