115
  Mrv0541 04071411322D          

 11 11  0  0  0  0            999 V2000
   -0.1306   -0.3679    0.0000 C   0  0  1  0  0  0  0  0  0  0  0  0
    0.5811    0.0550    0.0000 C   0  0  1  0  0  0  0  0  0  0  0  0
   -0.8391    0.0550    0.0000 C   0  0  0  0  0  0  0  0  0  0  0  0
   -0.1306   -1.1932    0.0000 C   0  0  0  0  0  0  0  0  0  0  0  0
    0.5811    0.8768    0.0000 C   0  0  0  0  0  0  0  0  0  0  0  0
    1.2895   -0.3679    0.0000 O   0  0  0  0  0  0  0  0  0  0  0  0
   -0.8391    0.8768    0.0000 C   0  0  0  0  0  0  0  0  0  0  0  0
   -0.7944   -1.6746    0.0000 C   0  0  0  0  0  0  0  0  0  0  0  0
    0.5433   -1.6746    0.0000 C   0  0  0  0  0  0  0  0  0  0  0  0
   -0.1306    1.2895    0.0000 C   0  0  1  0  0  0  0  0  0  0  0  0
   -0.1306    2.1251    0.0000 C   0  0  0  0  0  0  0  0  0  0  0  0
  1  2  1  0  0  0  0
  1  3  1  0  0  0  0
  1  4  1  6  0  0  0
  2  5  1  0  0  0  0
  2  6  1  1  0  0  0
  3  7  1  0  0  0  0
  4  8  1  0  0  0  0
  4  9  1  0  0  0  0
  5 10  1  0  0  0  0
 10 11  1  1  0  0  0
  7 10  1  0  0  0  0
M  END