119
  Mrv0541 04071411322D          

 13 14  0  0  0  0            999 V2000
    0.7147   -0.3444    0.0000 C   0  0  0  0  0  0  0  0  0  0  0  0
    0.0018   -0.7609    0.0000 C   0  0  0  0  0  0  0  0  0  0  0  0
    1.4256   -0.7609    0.0000 C   0  0  0  0  0  0  0  0  0  0  0  0
    0.7147    0.4721    0.0000 C   0  0  0  0  0  0  0  0  0  0  0  0
   -0.7147   -0.3444    0.0000 C   0  0  0  0  0  0  0  0  0  0  0  0
    2.1495   -0.3444    0.0000 C   0  0  0  0  0  0  0  0  0  0  0  0
    1.4256    0.8831    0.0000 C   0  0  0  0  0  0  0  0  0  0  0  0
   -0.7147    0.4721    0.0000 C   0  0  0  0  0  0  0  0  0  0  0  0
   -1.4293   -0.7609    0.0000 C   0  0  0  0  0  0  0  0  0  0  0  0
    2.1495    0.4721    0.0000 C   0  0  0  0  0  0  0  0  0  0  0  0
   -1.4293    0.8831    0.0000 C   0  0  0  0  0  0  0  0  0  0  0  0
   -2.1458   -0.3444    0.0000 C   0  0  0  0  0  0  0  0  0  0  0  0
   -2.1458    0.4721    0.0000 C   0  0  0  0  0  0  0  0  0  0  0  0
  1  2  1  0  0  0  0
  1  3  2  0  0  0  0
  1  4  1  0  0  0  0
  2  5  1  0  0  0  0
  3  6  1  0  0  0  0
  4  7  2  0  0  0  0
  5  8  2  0  0  0  0
  5  9  1  0  0  0  0
  6 10  2  0  0  0  0
  8 11  1  0  0  0  0
  9 12  2  0  0  0  0
 11 13  2  0  0  0  0
  7 10  1  0  0  0  0
 12 13  1  0  0  0  0
M  END