12
  Mrv0541 04071411322D          

 12 12  0  0  0  0            999 V2000
   -0.0055    0.8176    0.0000 C   0  0  0  0  0  0  0  0  0  0  0  0
   -0.7140    0.4088    0.0000 C   0  0  0  0  0  0  0  0  0  0  0  0
    0.7122    0.3996    0.0000 C   0  0  0  0  0  0  0  0  0  0  0  0
   -0.0055    1.6427    0.0000 O   0  0  0  0  0  0  0  0  0  0  0  0
   -0.7140   -0.4162    0.0000 C   0  0  0  0  0  0  0  0  0  0  0  0
   -1.4336    0.8379    0.0000 Cl  0  0  0  0  0  0  0  0  0  0  0  0
    0.7122   -0.4052    0.0000 C   0  0  0  0  0  0  0  0  0  0  0  0
    1.4429    0.7955    0.0000 Cl  0  0  0  0  0  0  0  0  0  0  0  0
   -0.0055   -0.8250    0.0000 C   0  0  0  0  0  0  0  0  0  0  0  0
   -1.4336   -0.8250    0.0000 Cl  0  0  0  0  0  0  0  0  0  0  0  0
    1.4521   -0.7918    0.0000 Cl  0  0  0  0  0  0  0  0  0  0  0  0
   -0.0055   -1.6389    0.0000 Cl  0  0  0  0  0  0  0  0  0  0  0  0
  1  2  2  0  0  0  0
  1  3  1  0  0  0  0
  1  4  1  0  0  0  0
  2  5  1  0  0  0  0
  2  6  1  0  0  0  0
  3  7  2  0  0  0  0
  3  8  1  0  0  0  0
  5  9  2  0  0  0  0
  5 10  1  0  0  0  0
  7 11  1  0  0  0  0
  9 12  1  0  0  0  0
  7  9  1  0  0  0  0
M  END