120
  Mrv0541 04071411322D          

 17 18  0  0  0  0            999 V2000
   -0.7085    0.3718    0.0000 C   0  0  0  0  0  0  0  0  0  0  0  0
   -0.0018    0.7733    0.0000 C   0  0  0  0  0  0  0  0  0  0  0  0
   -1.4244    0.7751    0.0000 C   0  0  0  0  0  0  0  0  0  0  0  0
   -0.7085   -0.4588    0.0000 C   0  0  0  0  0  0  0  0  0  0  0  0
    0.7085    0.3644    0.0000 C   0  0  0  0  0  0  0  0  0  0  0  0
   -2.1439    0.3737    0.0000 C   0  0  0  0  0  0  0  0  0  0  0  0
   -1.4170    1.5983    0.0000 O   0  0  0  0  0  0  0  0  0  0  0  0
   -1.4317   -0.8620    0.0000 C   0  0  0  0  0  0  0  0  0  0  0  0
    1.4299    0.7658    0.0000 C   0  0  0  0  0  0  0  0  0  0  0  0
    0.7085   -0.4606    0.0000 C   0  0  0  0  0  0  0  0  0  0  0  0
   -2.1439   -0.4513    0.0000 C   0  0  0  0  0  0  0  0  0  0  0  0
   -1.4373   -1.6852    0.0000 Cl  0  0  0  0  0  0  0  0  0  0  0  0
    2.1439    0.3570    0.0000 C   0  0  0  0  0  0  0  0  0  0  0  0
    1.4373    1.5871    0.0000 O   0  0  0  0  0  0  0  0  0  0  0  0
    1.4262   -0.8805    0.0000 C   0  0  0  0  0  0  0  0  0  0  0  0
    2.1439   -0.4680    0.0000 C   0  0  0  0  0  0  0  0  0  0  0  0
    1.4262   -1.7018    0.0000 Cl  0  0  0  0  0  0  0  0  0  0  0  0
  1  2  1  0  0  0  0
  1  3  2  0  0  0  0
  1  4  1  0  0  0  0
  2  5  1  0  0  0  0
  3  6  1  0  0  0  0
  3  7  1  0  0  0  0
  4  8  2  0  0  0  0
  5  9  1  0  0  0  0
  5 10  2  0  0  0  0
  6 11  2  0  0  0  0
  8 12  1  0  0  0  0
  9 13  2  0  0  0  0
  9 14  1  0  0  0  0
 10 15  1  0  0  0  0
 13 16  1  0  0  0  0
 15 17  1  0  0  0  0
  8 11  1  0  0  0  0
 15 16  2  0  0  0  0
M  END