13
  Mrv0541 04071411322D          

  9 10  0  0  0  0            999 V2000
   -0.1638   -0.4175    0.0000 C   0  0  0  0  0  0  0  0  0  0  0  0
   -0.1638    0.4104    0.0000 C   0  0  0  0  0  0  0  0  0  0  0  0
   -0.9443   -0.6658    0.0000 C   0  0  0  0  0  0  0  0  0  0  0  0
    0.5513   -0.8262    0.0000 C   0  0  0  0  0  0  0  0  0  0  0  0
   -0.9443    0.6658    0.0000 C   0  0  0  0  0  0  0  0  0  0  0  0
    0.5513    0.8245    0.0000 C   0  0  0  0  0  0  0  0  0  0  0  0
   -1.4295    0.0070    0.0000 C   0  0  0  0  0  0  0  0  0  0  0  0
    1.2728   -0.4069    0.0000 C   0  0  0  0  0  0  0  0  0  0  0  0
    1.2728    0.4069    0.0000 C   0  0  0  0  0  0  0  0  0  0  0  0
  1  2  1  0  0  0  0
  1  3  1  0  0  0  0
  1  4  1  0  0  0  0
  2  5  1  0  0  0  0
  2  6  1  0  0  0  0
  3  7  1  0  0  0  0
  4  8  1  0  0  0  0
  6  9  1  0  0  0  0
  5  7  1  0  0  0  0
  8  9  1  0  0  0  0
M  END