14
  Mrv0541 04071411322D          

 12 13  0  0  0  0            999 V2000
    4.2068   -2.2656    0.0000 C   0  0  2  0  0  0  0  0  0  0  0  0
    4.2068   -3.0806    0.0000 C   0  0  2  0  0  0  0  0  0  0  0  0
    4.9199   -1.8508    0.0000 C   0  0  0  0  0  0  0  0  0  0  0  0
    3.4901   -1.8508    0.0000 C   0  0  0  0  0  0  0  0  0  0  0  0
    4.9199   -3.4954    0.0000 C   0  0  0  0  0  0  0  0  0  0  0  0
    3.4901   -3.4954    0.0000 C   0  0  0  0  0  0  0  0  0  0  0  0
    5.6312   -2.2656    0.0000 C   0  0  0  0  0  0  0  0  0  0  0  0
    2.7770   -2.2656    0.0000 C   0  0  0  0  0  0  0  0  0  0  0  0
    5.6312   -3.0806    0.0000 C   0  0  0  0  0  0  0  0  0  0  0  0
    2.7770   -3.0806    0.0000 C   0  0  0  0  0  0  0  0  0  0  0  0
    3.9950   -1.4787    0.0000 H   0  0  0  0  0  0  0  0  0  0  0  0
    4.4169   -3.8679    0.0000 H   0  0  0  0  0  0  0  0  0  0  0  0
  1  3  1  0  0  0  0
  1  4  1  0  0  0  0
  2  5  1  0  0  0  0
  2  6  1  0  0  0  0
  3  7  1  0  0  0  0
  4  8  1  0  0  0  0
  5  9  1  0  0  0  0
  6 10  1  0  0  0  0
  7  9  1  0  0  0  0
  8 10  1  0  0  0  0
  1 11  1  6  0  0  0
  1  2  1  0  0  0  0
  2 12  1  1  0  0  0
M  END