141
  Mrv0541 04071411322D          

 17 19  0  0  0  0            999 V2000
    0.6347    0.3135    0.0000 C   0  0  0  0  0  0  0  0  0  0  0  0
    0.6347   -0.5012    0.0000 C   0  0  0  0  0  0  0  0  0  0  0  0
   -0.0833    0.7199    0.0000 C   0  0  0  0  0  0  0  0  0  0  0  0
    1.3471    0.7199    0.0000 C   0  0  0  0  0  0  0  0  0  0  0  0
   -0.0833   -0.9136    0.0000 C   0  0  0  0  0  0  0  0  0  0  0  0
    1.3471   -0.9136    0.0000 C   0  0  0  0  0  0  0  0  0  0  0  0
   -0.8031    0.3135    0.0000 C   0  0  0  0  0  0  0  0  0  0  0  0
   -0.0833    1.6876    0.0000 O   0  0  0  0  0  0  0  0  0  0  0  0
    2.0650    0.3135    0.0000 C   0  0  0  0  0  0  0  0  0  0  0  0
    1.3471    1.5967    0.0000 O   0  0  0  0  0  0  0  0  0  0  0  0
   -0.8031   -0.5012    0.0000 C   0  0  0  0  0  0  0  0  0  0  0  0
   -0.0833   -1.9509    0.0000 O   0  0  0  0  0  0  0  0  0  0  0  0
    2.0650   -0.5012    0.0000 C   0  0  0  0  0  0  0  0  0  0  0  0
   -1.5155    0.7199    0.0000 C   0  0  0  0  0  0  0  0  0  0  0  0
   -1.5155   -0.9136    0.0000 C   0  0  0  0  0  0  0  0  0  0  0  0
   -2.2353    0.3135    0.0000 C   0  0  0  0  0  0  0  0  0  0  0  0
   -2.2353   -0.5012    0.0000 C   0  0  0  0  0  0  0  0  0  0  0  0
  1  2  2  0  0  0  0
  1  3  1  0  0  0  0
  1  4  1  0  0  0  0
  2  5  1  0  0  0  0
  2  6  1  0  0  0  0
  3  7  1  0  0  0  0
  3  8  2  0  0  0  0
  4  9  2  0  0  0  0
  4 10  1  0  0  0  0
  5 11  1  0  0  0  0
  5 12  2  0  0  0  0
  6 13  2  0  0  0  0
  7 14  1  0  0  0  0
 11 15  1  0  0  0  0
 14 16  2  0  0  0  0
 15 17  2  0  0  0  0
  7 11  2  0  0  0  0
  9 13  1  0  0  0  0
 16 17  1  0  0  0  0
M  END