142
  Mrv0541 04071411322D          

 20 23  0  0  0  0            999 V2000
    0.2597    0.0995    0.0000 C   0  0  0  0  0  0  0  0  0  0  0  0
    0.2597   -0.7201    0.0000 C   0  0  0  0  0  0  0  0  0  0  0  0
    0.9650    0.5193    0.0000 C   0  0  0  0  0  0  0  0  0  0  0  0
   -0.4604    0.5193    0.0000 C   0  0  0  0  0  0  0  0  0  0  0  0
   -0.4604   -1.1233    0.0000 C   0  0  0  0  0  0  0  0  0  0  0  0
    0.9650   -1.1233    0.0000 C   0  0  0  0  0  0  0  0  0  0  0  0
    1.6795    0.0995    0.0000 C   0  0  0  0  0  0  0  0  0  0  0  0
    0.9650    1.3352    0.0000 C   0  0  0  0  0  0  0  0  0  0  0  0
   -1.1824    0.0995    0.0000 C   0  0  0  0  0  0  0  0  0  0  0  0
   -0.4604    1.3352    0.0000 O   0  0  0  0  0  0  0  0  0  0  0  0
   -1.1824   -0.7201    0.0000 C   0  0  0  0  0  0  0  0  0  0  0  0
   -0.4604   -1.9577    0.0000 O   0  0  0  0  0  0  0  0  0  0  0  0
    1.6795   -0.7366    0.0000 C   0  0  0  0  0  0  0  0  0  0  0  0
    2.3996    0.5193    0.0000 C   0  0  0  0  0  0  0  0  0  0  0  0
    1.6795    1.7477    0.0000 C   0  0  0  0  0  0  0  0  0  0  0  0
   -1.8987    0.5083    0.0000 C   0  0  0  0  0  0  0  0  0  0  0  0
   -1.8987   -1.1233    0.0000 C   0  0  0  0  0  0  0  0  0  0  0  0
    2.3996    1.3352    0.0000 C   0  0  0  0  0  0  0  0  0  0  0  0
   -2.6243    0.0884    0.0000 C   0  0  0  0  0  0  0  0  0  0  0  0
   -2.6243   -0.7016    0.0000 C   0  0  0  0  0  0  0  0  0  0  0  0
  1  2  2  0  0  0  0
  1  3  1  0  0  0  0
  1  4  1  0  0  0  0
  2  5  1  0  0  0  0
  2  6  1  0  0  0  0
  3  7  2  0  0  0  0
  3  8  1  0  0  0  0
  4  9  1  0  0  0  0
  4 10  2  0  0  0  0
  5 11  1  0  0  0  0
  5 12  2  0  0  0  0
  6 13  2  0  0  0  0
  7 14  1  0  0  0  0
  8 15  2  0  0  0  0
  9 16  1  0  0  0  0
 11 17  1  0  0  0  0
 14 18  2  0  0  0  0
 16 19  2  0  0  0  0
 17 20  2  0  0  0  0
  7 13  1  0  0  0  0
  9 11  2  0  0  0  0
 15 18  1  0  0  0  0
 19 20  1  0  0  0  0
M  END