143
  Mrv0541 04071411322D          

 18 21  0  0  0  0            999 V2000
    0.6025    0.2066    0.0000 C   0  0  0  0  0  0  0  0  0  0  0  0
   -0.1170    0.6197    0.0000 C   0  0  0  0  0  0  0  0  0  0  0  0
    0.5922   -0.6197    0.0000 C   0  0  0  0  0  0  0  0  0  0  0  0
    1.3049    0.6163    0.0000 C   0  0  0  0  0  0  0  0  0  0  0  0
   -0.8332    0.2066    0.0000 C   0  0  0  0  0  0  0  0  0  0  0  0
   -0.1170    1.4462    0.0000 C   0  0  0  0  0  0  0  0  0  0  0  0
   -0.1170   -1.0294    0.0000 C   0  0  0  0  0  0  0  0  0  0  0  0
    1.3049   -1.0294    0.0000 C   0  0  0  0  0  0  0  0  0  0  0  0
    1.3049    1.4392    0.0000 C   0  0  0  0  0  0  0  0  0  0  0  0
    2.0176    0.2100    0.0000 C   0  0  0  0  0  0  0  0  0  0  0  0
   -0.8332   -0.6197    0.0000 C   0  0  0  0  0  0  0  0  0  0  0  0
   -1.5459    0.6163    0.0000 C   0  0  0  0  0  0  0  0  0  0  0  0
    0.5922    1.8558    0.0000 C   0  0  0  0  0  0  0  0  0  0  0  0
   -0.1170   -1.8558    0.0000 O   0  0  0  0  0  0  0  0  0  0  0  0
    2.0176   -0.6197    0.0000 C   0  0  0  0  0  0  0  0  0  0  0  0
   -1.5391   -1.0294    0.0000 C   0  0  0  0  0  0  0  0  0  0  0  0
   -2.2552    0.2066    0.0000 C   0  0  0  0  0  0  0  0  0  0  0  0
   -2.2552   -0.6197    0.0000 C   0  0  0  0  0  0  0  0  0  0  0  0
  1  2  1  0  0  0  0
  1  3  2  0  0  0  0
  1  4  1  0  0  0  0
  2  5  1  0  0  0  0
  2  6  2  0  0  0  0
  3  7  1  0  0  0  0
  3  8  1  0  0  0  0
  4  9  1  0  0  0  0
  4 10  2  0  0  0  0
  5 11  1  0  0  0  0
  5 12  2  0  0  0  0
  6 13  1  0  0  0  0
  7 14  2  0  0  0  0
  8 15  2  0  0  0  0
 11 16  2  0  0  0  0
 12 17  1  0  0  0  0
 16 18  1  0  0  0  0
  7 11  1  0  0  0  0
  9 13  2  0  0  0  0
 10 15  1  0  0  0  0
 17 18  2  0  0  0  0
M  END