145
  Mrv0541 04071411322D          

 15 16  0  0  0  0            999 V2000
    2.4165   -0.8216    0.0000 C   0  0  0  0  0  0  0  0  0  0  0  0
    3.1445   -0.4817    0.0000 C   0  0  0  0  0  0  0  0  0  0  0  0
    1.7368   -0.4332    0.0000 C   0  0  0  0  0  0  0  0  0  0  0  0
    2.4165   -1.6471    0.0000 C   0  0  0  0  0  0  0  0  0  0  0  0
    3.8245   -0.8216    0.0000 C   0  0  0  0  0  0  0  0  0  0  0  0
    3.1445   -2.0356    0.0000 C   0  0  0  0  0  0  0  0  0  0  0  0
    1.0568   -0.8216    0.0000 C   0  0  0  0  0  0  0  0  0  0  0  0
    3.8245   -1.6471    0.0000 C   0  0  0  0  0  0  0  0  0  0  0  0
    3.1445    0.3431    0.0000 C   0  0  0  0  0  0  0  0  0  0  0  0
    3.1445   -2.8608    0.0000 C   0  0  0  0  0  0  0  0  0  0  0  0
    0.3288   -0.4332    0.0000 C   0  0  0  0  0  0  0  0  0  0  0  0
    1.0568   -1.6471    0.0000 C   0  0  0  0  0  0  0  0  0  0  0  0
    0.3288   -2.0356    0.0000 C   0  0  0  0  0  0  0  0  0  0  0  0
   -0.3510   -0.8216    0.0000 C   0  0  0  0  0  0  0  0  0  0  0  0
   -0.3510   -1.6471    0.0000 C   0  0  0  0  0  0  0  0  0  0  0  0
  2  1  1  0  0  0  0
  3  1  1  0  0  0  0
  4  1  2  0  0  0  0
  5  2  2  0  0  0  0
  6  4  1  0  0  0  0
  7  3  1  0  0  0  0
  8  6  2  0  0  0  0
  9  2  1  0  0  0  0
 10  6  1  0  0  0  0
 11  7  1  0  0  0  0
 12  7  2  0  0  0  0
 13 12  1  0  0  0  0
 14 11  2  0  0  0  0
 15 13  2  0  0  0  0
  8  5  1  0  0  0  0
 15 14  1  0  0  0  0
M  END