152
  Mrv0541 04071411322D          

 12 12  0  0  0  0            999 V2000
    2.4823   -0.3671    0.0000 C   0  0  0  0  0  0  0  0  0  0  0  0
    0.7669   -0.3671    0.0000 C   0  0  0  0  0  0  0  0  0  0  0  0
    1.1854    0.3439    0.0000 C   0  0  0  0  0  0  0  0  0  0  0  0
    2.0638    0.3439    0.0000 C   0  0  0  0  0  0  0  0  0  0  0  0
    1.1854   -1.0780    0.0000 C   0  0  0  0  0  0  0  0  0  0  0  0
    2.0638   -1.0780    0.0000 C   0  0  0  0  0  0  0  0  0  0  0  0
   -0.0700   -0.3671    0.0000 C   0  0  0  0  0  0  0  0  0  0  0  0
    3.2774   -0.3671    0.0000 C   0  0  0  0  0  0  0  0  0  0  0  0
   -0.4882   -1.0780    0.0000 C   0  0  0  0  0  0  0  0  0  0  0  0
   -0.4882    0.3439    0.0000 C   0  0  0  0  0  0  0  0  0  0  0  0
    3.6959    0.3439    0.0000 C   0  0  0  0  0  0  0  0  0  0  0  0
    3.6959   -1.0780    0.0000 C   0  0  0  0  0  0  0  0  0  0  0  0
  2  5  1  0  0  0  0
  3  4  1  0  0  0  0
  4  1  1  0  0  0  0
  5  6  1  0  0  0  0
  6  1  1  0  0  0  0
  7  2  1  0  0  0  0
  8  1  1  0  0  0  0
  9  7  1  0  0  0  0
 10  7  1  0  0  0  0
 11  8  1  0  0  0  0
 12  8  1  0  0  0  0
  3  2  1  0  0  0  0
M  END