153
  Mrv0541 04071411322D          

 12 12  0  0  0  0            999 V2000
    3.6458   -2.4042    0.0000 C   0  0  0  0  0  0  0  0  0  0  0  0
    3.6458   -3.2292    0.0000 C   0  0  0  0  0  0  0  0  0  0  0  0
    4.3579   -3.6375    0.0000 C   0  0  0  0  0  0  0  0  0  0  0  0
    5.0699   -3.2292    0.0000 C   0  0  0  0  0  0  0  0  0  0  0  0
    5.0699   -2.4042    0.0000 C   0  0  0  0  0  0  0  0  0  0  0  0
    4.3579   -1.9875    0.0000 C   0  0  0  0  0  0  0  0  0  0  0  0
    4.3500   -1.1625    0.0000 C   0  0  0  0  0  0  0  0  0  0  0  0
    5.0625   -0.7458    0.0000 C   0  0  0  0  0  0  0  0  0  0  0  0
    5.0583    0.0792    0.0000 C   0  0  0  0  0  0  0  0  0  0  0  0
    5.7792   -1.1545    0.0000 C   0  0  0  0  0  0  0  0  0  0  0  0
    5.7855   -1.9938    0.0000 C   0  0  0  0  0  0  0  0  0  0  0  0
    2.9320   -3.6427    0.0000 C   0  0  0  0  0  0  0  0  0  0  0  0
  5  6  1  0  0  0  0
  6  7  1  0  0  0  0
  1  2  1  0  0  0  0
  7  8  1  0  0  0  0
  1  6  1  0  0  0  0
  8  9  1  0  0  0  0
  2  3  1  0  0  0  0
  8 10  1  0  0  0  0
  3  4  1  0  0  0  0
  5 11  1  0  0  0  0
  4  5  1  0  0  0  0
  2 12  1  0  0  0  0
M  END