157
  Mrv0541 04071411322D          

  9  9  0  0  0  0            999 V2000
    0.5564    0.3273    0.0000 C   0  0  0  0  0  0  0  0  0  0  0  0
   -0.1584    0.7286    0.0000 C   0  0  0  0  0  0  0  0  0  0  0  0
    0.5564   -0.5133    0.0000 C   0  0  0  0  0  0  0  0  0  0  0  0
    1.2677    0.7458    0.0000 Br  0  0  0  0  0  0  0  0  0  0  0  0
   -0.8733    0.3273    0.0000 C   0  0  0  0  0  0  0  0  0  0  0  0
   -0.1584    1.5536    0.0000 Br  0  0  0  0  0  0  0  0  0  0  0  0
   -0.1584   -0.9198    0.0000 C   0  0  0  0  0  0  0  0  0  0  0  0
   -0.8733   -0.5029    0.0000 C   0  0  0  0  0  0  0  0  0  0  0  0
   -0.1584   -1.7432    0.0000 Br  0  0  0  0  0  0  0  0  0  0  0  0
  1  2  1  0  0  0  0
  1  3  2  0  0  0  0
  1  4  1  0  0  0  0
  2  5  2  0  0  0  0
  2  6  1  0  0  0  0
  3  7  1  0  0  0  0
  5  8  1  0  0  0  0
  7  9  1  0  0  0  0
  7  8  2  0  0  0  0
M  END