158
  Mrv0541 04071411322D          

 10 10  0  0  0  0            999 V2000
    4.5168   -2.2157    0.0000 C   0  0  0  0  0  0  0  0  0  0  0  0
    3.8021   -1.8144    0.0000 C   0  0  0  0  0  0  0  0  0  0  0  0
    4.5168   -3.0560    0.0000 C   0  0  0  0  0  0  0  0  0  0  0  0
    5.2280   -1.7972    0.0000 Br  0  0  0  0  0  0  0  0  0  0  0  0
    3.0873   -2.2157    0.0000 C   0  0  0  0  0  0  0  0  0  0  0  0
    3.8021   -0.9896    0.0000 Br  0  0  0  0  0  0  0  0  0  0  0  0
    3.8021   -3.4625    0.0000 C   0  0  0  0  0  0  0  0  0  0  0  0
    3.0873   -3.0457    0.0000 C   0  0  0  0  0  0  0  0  0  0  0  0
    3.8021   -4.2857    0.0000 Br  0  0  0  0  0  0  0  0  0  0  0  0
    5.2432   -3.4785    0.0000 Br  0  0  0  0  0  0  0  0  0  0  0  0
  1  2  1  0  0  0  0
  1  3  2  0  0  0  0
  1  4  1  0  0  0  0
  2  5  2  0  0  0  0
  2  6  1  0  0  0  0
  3  7  1  0  0  0  0
  5  8  1  0  0  0  0
  7  9  1  0  0  0  0
  7  8  2  0  0  0  0
  3 10  1  0  0  0  0
M  END