159
  Mrv0541 04071411322D          

 12 12  0  0  0  0            999 V2000
   -0.7123   -0.4116    0.0000 C   0  0  0  0  0  0  0  0  0  0  0  0
    0.0037   -0.8231    0.0000 C   0  0  0  0  0  0  0  0  0  0  0  0
   -0.7123    0.4079    0.0000 C   0  0  0  0  0  0  0  0  0  0  0  0
   -1.4303   -0.8231    0.0000 Cl  0  0  0  0  0  0  0  0  0  0  0  0
    0.7105   -0.4116    0.0000 C   0  0  0  0  0  0  0  0  0  0  0  0
   -0.0037   -1.6536    0.0000 Cl  0  0  0  0  0  0  0  0  0  0  0  0
    0.0037    0.8194    0.0000 C   0  0  0  0  0  0  0  0  0  0  0  0
   -1.4303    0.8194    0.0000 Cl  0  0  0  0  0  0  0  0  0  0  0  0
    0.7105    0.4134    0.0000 C   0  0  0  0  0  0  0  0  0  0  0  0
    1.4285   -0.8176    0.0000 Cl  0  0  0  0  0  0  0  0  0  0  0  0
    0.0037    1.6554    0.0000 Cl  0  0  0  0  0  0  0  0  0  0  0  0
    1.4285    0.8268    0.0000 Cl  0  0  0  0  0  0  0  0  0  0  0  0
  1  2  2  0  0  0  0
  1  3  1  0  0  0  0
  1  4  1  0  0  0  0
  2  5  1  0  0  0  0
  2  6  1  0  0  0  0
  3  7  2  0  0  0  0
  3  8  1  0  0  0  0
  5  9  2  0  0  0  0
  5 10  1  0  0  0  0
  7 11  1  0  0  0  0
  9 12  1  0  0  0  0
  7  9  1  0  0  0  0
M  END