165
  Mrv0541 04071411322D          

 14 15  0  0  0  0            999 V2000
   -0.4153   -0.2062    0.0000 C   0  0  0  0  0  0  0  0  0  0  0  0
    0.4096   -0.2062    0.0000 C   0  0  0  0  0  0  0  0  0  0  0  0
   -0.8307    0.5064    0.0000 C   0  0  0  0  0  0  0  0  0  0  0  0
   -0.7993   -0.9530    0.0000 C   0  0  0  0  0  0  0  0  0  0  0  0
    0.8136    0.5064    0.0000 C   0  0  0  0  0  0  0  0  0  0  0  0
    0.8278   -0.9174    0.0000 C   0  0  0  0  0  0  0  0  0  0  0  0
   -1.6556    0.5064    0.0000 C   0  0  0  0  0  0  0  0  0  0  0  0
   -1.6357   -0.9586    0.0000 C   0  0  0  0  0  0  0  0  0  0  0  0
    1.6884    0.5106    0.0000 C   0  0  0  0  0  0  0  0  0  0  0  0
    1.6599   -0.9174    0.0000 C   0  0  0  0  0  0  0  0  0  0  0  0
   -2.0738   -0.2062    0.0000 C   0  0  0  0  0  0  0  0  0  0  0  0
   -2.0596    1.2275    0.0000 Cl  0  0  0  0  0  0  0  0  0  0  0  0
    2.0667   -0.2062    0.0000 C   0  0  0  0  0  0  0  0  0  0  0  0
    2.0027    1.3157    0.0000 Cl  0  0  0  0  0  0  0  0  0  0  0  0
  1  2  1  0  0  0  0
  1  3  2  0  0  0  0
  1  4  1  0  0  0  0
  2  5  1  0  0  0  0
  2  6  2  0  0  0  0
  3  7  1  0  0  0  0
  4  8  2  0  0  0  0
  5  9  2  0  0  0  0
  6 10  1  0  0  0  0
  7 11  2  0  0  0  0
  7 12  1  0  0  0  0
  9 13  1  0  0  0  0
  9 14  1  0  0  0  0
  8 11  1  0  0  0  0
 10 13  2  0  0  0  0
M  END