170
  Mrv0541 04071411322D          

 16 17  0  0  0  0            999 V2000
   -0.4130   -0.0016    0.0000 C   0  0  0  0  0  0  0  0  0  0  0  0
    0.4130   -0.0016    0.0000 C   0  0  0  0  0  0  0  0  0  0  0  0
   -0.8277    0.7153    0.0000 C   0  0  0  0  0  0  0  0  0  0  0  0
   -0.8277   -0.7137    0.0000 C   0  0  0  0  0  0  0  0  0  0  0  0
    0.8392    0.7153    0.0000 C   0  0  0  0  0  0  0  0  0  0  0  0
    0.8392   -0.7137    0.0000 C   0  0  0  0  0  0  0  0  0  0  0  0
   -1.6470    0.7153    0.0000 C   0  0  0  0  0  0  0  0  0  0  0  0
   -0.3882    1.4637    0.0000 Cl  0  0  0  0  0  0  0  0  0  0  0  0
   -1.6470   -0.7137    0.0000 C   0  0  0  0  0  0  0  0  0  0  0  0
    1.6421    0.7153    0.0000 C   0  0  0  0  0  0  0  0  0  0  0  0
    0.3783    1.4637    0.0000 Cl  0  0  0  0  0  0  0  0  0  0  0  0
    1.6421   -0.7137    0.0000 C   0  0  0  0  0  0  0  0  0  0  0  0
   -2.0584   -0.0016    0.0000 C   0  0  0  0  0  0  0  0  0  0  0  0
   -2.0832   -1.4620    0.0000 Cl  0  0  0  0  0  0  0  0  0  0  0  0
    2.0551   -0.0016    0.0000 C   0  0  0  0  0  0  0  0  0  0  0  0
    2.0848   -1.4620    0.0000 Cl  0  0  0  0  0  0  0  0  0  0  0  0
  1  2  1  0  0  0  0
  1  3  2  0  0  0  0
  1  4  1  0  0  0  0
  2  5  2  0  0  0  0
  2  6  1  0  0  0  0
  3  7  1  0  0  0  0
  3  8  1  0  0  0  0
  4  9  2  0  0  0  0
  5 10  1  0  0  0  0
  5 11  1  0  0  0  0
  6 12  2  0  0  0  0
  7 13  2  0  0  0  0
  9 14  1  0  0  0  0
 10 15  2  0  0  0  0
 12 16  1  0  0  0  0
  9 13  1  0  0  0  0
 12 15  1  0  0  0  0
M  END