174
  Mrv0541 04071411322D          

 16 17  0  0  0  0            999 V2000
   -0.4625   -0.0897    0.0000 C   0  0  0  0  0  0  0  0  0  0  0  0
    0.3693   -0.0897    0.0000 C   0  0  0  0  0  0  0  0  0  0  0  0
   -0.8785   -0.8077    0.0000 C   0  0  0  0  0  0  0  0  0  0  0  0
   -0.8785    0.6248    0.0000 C   0  0  0  0  0  0  0  0  0  0  0  0
    0.7732    0.6248    0.0000 C   0  0  0  0  0  0  0  0  0  0  0  0
    0.7732   -0.8077    0.0000 C   0  0  0  0  0  0  0  0  0  0  0  0
   -1.6792   -0.8077    0.0000 C   0  0  0  0  0  0  0  0  0  0  0  0
   -0.4970   -1.5222    0.0000 Cl  0  0  0  0  0  0  0  0  0  0  0  0
   -1.6792    0.6248    0.0000 C   0  0  0  0  0  0  0  0  0  0  0  0
    1.5826    0.6248    0.0000 C   0  0  0  0  0  0  0  0  0  0  0  0
    0.3383    1.3617    0.0000 Cl  0  0  0  0  0  0  0  0  0  0  0  0
    1.5826   -0.8077    0.0000 C   0  0  0  0  0  0  0  0  0  0  0  0
   -2.1021   -0.0897    0.0000 C   0  0  0  0  0  0  0  0  0  0  0  0
   -2.0589    1.3427    0.0000 Cl  0  0  0  0  0  0  0  0  0  0  0  0
    1.9950   -0.0897    0.0000 C   0  0  0  0  0  0  0  0  0  0  0  0
    2.8217   -0.0897    0.0000 Cl  0  0  0  0  0  0  0  0  0  0  0  0
  1  2  1  0  0  0  0
  1  3  1  0  0  0  0
  1  4  2  0  0  0  0
  2  5  2  0  0  0  0
  2  6  1  0  0  0  0
  3  7  2  0  0  0  0
  3  8  1  0  0  0  0
  4  9  1  0  0  0  0
  5 10  1  0  0  0  0
  5 11  1  0  0  0  0
  6 12  2  0  0  0  0
  7 13  1  0  0  0  0
  9 14  1  0  0  0  0
 10 15  2  0  0  0  0
 15 16  1  0  0  0  0
  9 13  2  0  0  0  0
 12 15  1  0  0  0  0
M  END