183
  Mrv0541 04071411322D          

 17 18  0  0  0  0            999 V2000
    0.2387   -0.1729    0.0000 C   0  0  0  0  0  0  0  0  0  0  0  0
   -0.5880   -0.1729    0.0000 C   0  0  0  0  0  0  0  0  0  0  0  0
    0.6572    0.5517    0.0000 C   0  0  0  0  0  0  0  0  0  0  0  0
    0.6572   -0.8769    0.0000 C   0  0  0  0  0  0  0  0  0  0  0  0
   -0.9979   -0.8769    0.0000 C   0  0  0  0  0  0  0  0  0  0  0  0
   -0.9979    0.5517    0.0000 C   0  0  0  0  0  0  0  0  0  0  0  0
    1.4822    0.5517    0.0000 C   0  0  0  0  0  0  0  0  0  0  0  0
    0.2387    1.2556    0.0000 Cl  0  0  0  0  0  0  0  0  0  0  0  0
    1.4822   -0.8769    0.0000 C   0  0  0  0  0  0  0  0  0  0  0  0
   -1.8177   -0.8769    0.0000 C   0  0  0  0  0  0  0  0  0  0  0  0
   -0.5742   -1.6033    0.0000 Cl  0  0  0  0  0  0  0  0  0  0  0  0
   -1.8177    0.5517    0.0000 C   0  0  0  0  0  0  0  0  0  0  0  0
    1.8938   -0.1729    0.0000 C   0  0  0  0  0  0  0  0  0  0  0  0
    1.8938    1.2556    0.0000 Cl  0  0  0  0  0  0  0  0  0  0  0  0
   -2.2293   -0.1729    0.0000 C   0  0  0  0  0  0  0  0  0  0  0  0
   -2.2293    1.2556    0.0000 Cl  0  0  0  0  0  0  0  0  0  0  0  0
    2.7135   -0.1729    0.0000 Cl  0  0  0  0  0  0  0  0  0  0  0  0
  1  2  1  0  0  0  0
  1  3  2  0  0  0  0
  1  4  1  0  0  0  0
  2  5  1  0  0  0  0
  2  6  2  0  0  0  0
  3  7  1  0  0  0  0
  3  8  1  0  0  0  0
  4  9  2  0  0  0  0
  5 10  2  0  0  0  0
  5 11  1  0  0  0  0
  6 12  1  0  0  0  0
  7 13  2  0  0  0  0
  7 14  1  0  0  0  0
 10 15  1  0  0  0  0
 12 16  1  0  0  0  0
 13 17  1  0  0  0  0
  9 13  1  0  0  0  0
 12 15  2  0  0  0  0
M  END