186
  Mrv0541 04071411322D          

 17 18  0  0  0  0            999 V2000
    4.2515   -3.9571    0.0000 C   0  0  0  0  0  0  0  0  0  0  0  0
    4.2504   -4.7842    0.0000 C   0  0  0  0  0  0  0  0  0  0  0  0
    4.9649   -5.1971    0.0000 C   0  0  0  0  0  0  0  0  0  0  0  0
    5.6810   -4.7837    0.0000 C   0  0  0  0  0  0  0  0  0  0  0  0
    5.6782   -3.9535    0.0000 C   0  0  0  0  0  0  0  0  0  0  0  0
    4.9631   -3.5444    0.0000 C   0  0  0  0  0  0  0  0  0  0  0  0
    6.3962   -5.1951    0.0000 C   0  0  0  0  0  0  0  0  0  0  0  0
    6.3926   -6.0202    0.0000 C   0  0  0  0  0  0  0  0  0  0  0  0
    7.1065   -6.4315    0.0000 C   0  0  0  0  0  0  0  0  0  0  0  0
    7.8210   -6.0178    0.0000 C   0  0  0  0  0  0  0  0  0  0  0  0
    7.8171   -5.1888    0.0000 C   0  0  0  0  0  0  0  0  0  0  0  0
    7.1025   -4.7812    0.0000 C   0  0  0  0  0  0  0  0  0  0  0  0
    3.5370   -3.5448    0.0000 Cl  0  0  0  0  0  0  0  0  0  0  0  0
    3.5356   -5.1961    0.0000 Cl  0  0  0  0  0  0  0  0  0  0  0  0
    7.0977   -3.9566    0.0000 Cl  0  0  0  0  0  0  0  0  0  0  0  0
    5.6774   -6.4315    0.0000 Cl  0  0  0  0  0  0  0  0  0  0  0  0
    8.5364   -6.4282    0.0000 Cl  0  0  0  0  0  0  0  0  0  0  0  0
  8  9  1  0  0  0  0
  4  5  1  0  0  0  0
  9 10  2  0  0  0  0
  2  3  1  0  0  0  0
 10 11  1  0  0  0  0
  5  6  2  0  0  0  0
 11 12  2  0  0  0  0
 12  7  1  0  0  0  0
  6  1  1  0  0  0  0
  1 13  1  0  0  0  0
  1  2  2  0  0  0  0
  2 14  1  0  0  0  0
  4  7  1  0  0  0  0
 12 15  1  0  0  0  0
  3  4  2  0  0  0  0
  8 16  1  0  0  0  0
  7  8  2  0  0  0  0
 10 17  1  0  0  0  0
M  END