187
  Mrv0541 04071411322D          

 17 18  0  0  0  0            999 V2000
    1.6151    0.6166    0.0000 C   0  0  0  0  0  0  0  0  0  0  0  0
    1.6140   -0.2107    0.0000 C   0  0  0  0  0  0  0  0  0  0  0  0
    2.3289   -0.6235    0.0000 C   0  0  0  0  0  0  0  0  0  0  0  0
    3.0452   -0.2102    0.0000 C   0  0  0  0  0  0  0  0  0  0  0  0
    3.0424    0.6202    0.0000 C   0  0  0  0  0  0  0  0  0  0  0  0
    2.3271    1.0294    0.0000 C   0  0  0  0  0  0  0  0  0  0  0  0
    3.7603   -0.6215    0.0000 C   0  0  0  0  0  0  0  0  0  0  0  0
    3.7567   -1.4470    0.0000 C   0  0  0  0  0  0  0  0  0  0  0  0
    4.4710   -1.8582    0.0000 C   0  0  0  0  0  0  0  0  0  0  0  0
    5.1857   -1.4446    0.0000 C   0  0  0  0  0  0  0  0  0  0  0  0
    5.1818   -0.6152    0.0000 C   0  0  0  0  0  0  0  0  0  0  0  0
    4.4670   -0.2077    0.0000 C   0  0  0  0  0  0  0  0  0  0  0  0
    0.8993   -0.6225    0.0000 Cl  0  0  0  0  0  0  0  0  0  0  0  0
    0.9007    1.0290    0.0000 Cl  0  0  0  0  0  0  0  0  0  0  0  0
    5.8941   -0.1992    0.0000 Cl  0  0  0  0  0  0  0  0  0  0  0  0
    5.9014   -1.8549    0.0000 Cl  0  0  0  0  0  0  0  0  0  0  0  0
    4.4719   -2.6831    0.0000 Cl  0  0  0  0  0  0  0  0  0  0  0  0
  8  9  1  0  0  0  0
  4  5  1  0  0  0  0
  9 10  2  0  0  0  0
  2  3  1  0  0  0  0
 10 11  1  0  0  0  0
  5  6  2  0  0  0  0
 11 12  2  0  0  0  0
 12  7  1  0  0  0  0
  6  1  1  0  0  0  0
  2 13  1  0  0  0  0
  1  2  2  0  0  0  0
  1 14  1  0  0  0  0
  4  7  1  0  0  0  0
 11 15  1  0  0  0  0
  3  4  2  0  0  0  0
 10 16  1  0  0  0  0
  7  8  2  0  0  0  0
  9 17  1  0  0  0  0
M  END