189
  Mrv0541 04071411322D          

  7  7  0  0  0  0            999 V2000
    0.5109    0.2981    0.0000 C   0  0  0  0  0  0  0  0  0  0  0  0
   -0.2055    0.7072    0.0000 C   0  0  0  0  0  0  0  0  0  0  0  0
    0.5109   -0.5332    0.0000 C   0  0  0  0  0  0  0  0  0  0  0  0
    1.2237    0.7072    0.0000 Cl  0  0  0  0  0  0  0  0  0  0  0  0
   -0.9182    0.2981    0.0000 C   0  0  0  0  0  0  0  0  0  0  0  0
   -0.2055   -0.9441    0.0000 C   0  0  0  0  0  0  0  0  0  0  0  0
   -0.9182   -0.5332    0.0000 C   0  0  0  0  0  0  0  0  0  0  0  0
  1  2  1  0  0  0  0
  1  3  2  0  0  0  0
  1  4  1  0  0  0  0
  2  5  2  0  0  0  0
  3  6  1  0  0  0  0
  5  7  1  0  0  0  0
  6  7  2  0  0  0  0
M  END