199
  Mrv0541 04071411322D          

  9  9  0  0  0  0            999 V2000
    0.5500    0.3228    0.0000 C   0  0  0  0  0  0  0  0  0  0  0  0
   -0.1547    0.7313    0.0000 C   0  0  0  0  0  0  0  0  0  0  0  0
    0.5500   -0.5079    0.0000 C   0  0  0  0  0  0  0  0  0  0  0  0
    1.2699    0.7313    0.0000 Cl  0  0  0  0  0  0  0  0  0  0  0  0
   -0.8746    0.3228    0.0000 C   0  0  0  0  0  0  0  0  0  0  0  0
   -0.1547    1.5544    0.0000 Cl  0  0  0  0  0  0  0  0  0  0  0  0
   -0.1547   -0.9109    0.0000 C   0  0  0  0  0  0  0  0  0  0  0  0
   -0.8746   -0.5079    0.0000 C   0  0  0  0  0  0  0  0  0  0  0  0
   -0.1547   -1.7320    0.0000 Cl  0  0  0  0  0  0  0  0  0  0  0  0
  1  2  2  0  0  0  0
  1  3  1  0  0  0  0
  1  4  1  0  0  0  0
  2  5  1  0  0  0  0
  2  6  1  0  0  0  0
  3  7  2  0  0  0  0
  5  8  2  0  0  0  0
  7  9  1  0  0  0  0
  7  8  1  0  0  0  0
M  END