204
  Mrv0541 04071411322D          

 14 15  0  0  0  0            999 V2000
   -0.4045    0.4101    0.0000 C   0  0  0  0  0  0  0  0  0  0  0  0
   -0.4045   -0.4101    0.0000 C   0  0  0  0  0  0  0  0  0  0  0  0
    0.3048    0.8220    0.0000 C   0  0  0  0  0  0  0  0  0  0  0  0
   -1.1212    0.8220    0.0000 C   0  0  0  0  0  0  0  0  0  0  0  0
    0.3048   -0.8220    0.0000 C   0  0  0  0  0  0  0  0  0  0  0  0
   -1.1212   -0.8220    0.0000 C   0  0  0  0  0  0  0  0  0  0  0  0
    1.0196    0.4101    0.0000 C   0  0  0  0  0  0  0  0  0  0  0  0
    0.3048    1.6495    0.0000 Cl  0  0  0  0  0  0  0  0  0  0  0  0
   -1.8379    0.4101    0.0000 C   0  0  0  0  0  0  0  0  0  0  0  0
    1.0196   -0.4101    0.0000 C   0  0  0  0  0  0  0  0  0  0  0  0
    0.3048   -1.6495    0.0000 Cl  0  0  0  0  0  0  0  0  0  0  0  0
   -1.8379   -0.4101    0.0000 C   0  0  0  0  0  0  0  0  0  0  0  0
    1.7363    0.8220    0.0000 Cl  0  0  0  0  0  0  0  0  0  0  0  0
    1.7363   -0.8220    0.0000 Cl  0  0  0  0  0  0  0  0  0  0  0  0
  1  2  2  0  0  0  0
  1  3  1  0  0  0  0
  1  4  1  0  0  0  0
  2  5  1  0  0  0  0
  2  6  1  0  0  0  0
  3  7  2  0  0  0  0
  3  8  1  0  0  0  0
  4  9  2  0  0  0  0
  5 10  2  0  0  0  0
  5 11  1  0  0  0  0
  6 12  2  0  0  0  0
  7 13  1  0  0  0  0
 10 14  1  0  0  0  0
  7 10  1  0  0  0  0
  9 12  1  0  0  0  0
M  END