205
  Mrv0541 04071411322D          

 23 25  0  0  0  0            999 V2000
    8.3534    8.3534    0.0000 C   0  0  0  0  0  0  0  0  0  0  0  0
    8.3534    7.5168    0.0000 C   0  0  0  0  0  0  0  0  0  0  0  0
    7.5168    8.3534    0.0000 C   0  0  0  0  0  0  0  0  0  0  0  0
    8.3534    9.1858    0.0000 C   0  0  0  0  0  0  0  0  0  0  0  0
    9.0603    7.1027    0.0000 C   0  0  0  0  0  0  0  0  0  0  0  0
    7.1027    7.6423    0.0000 C   0  0  0  0  0  0  0  0  0  0  0  0
    7.1027    9.0603    0.0000 C   0  0  0  0  0  0  0  0  0  0  0  0
    7.6423    7.1027    0.0000 C   0  0  0  0  0  0  0  0  0  0  0  0
    7.6423    9.6041    0.0000 C   0  0  0  0  0  0  0  0  0  0  0  0
    9.0603    9.6041    0.0000 C   0  0  0  0  0  0  0  0  0  0  0  0
    9.1858    8.3534    0.0000 O   0  0  0  0  0  0  0  0  0  0  0  0
    8.3534    5.8520    0.0000 C   0  0  0  0  0  0  0  0  0  0  0  0
    8.3534   10.8548    0.0000 C   0  0  0  0  0  0  0  0  0  0  0  0
    5.8520    8.3534    0.0000 C   0  0  0  0  0  0  0  0  0  0  0  0
    6.2661    7.6423    0.0000 C   0  0  0  0  0  0  0  0  0  0  0  0
    7.6423    6.2661    0.0000 C   0  0  0  0  0  0  0  0  0  0  0  0
    7.6423   10.4365    0.0000 C   0  0  0  0  0  0  0  0  0  0  0  0
    6.2661    9.0603    0.0000 C   0  0  0  0  0  0  0  0  0  0  0  0
    9.0603   10.4365    0.0000 C   0  0  0  0  0  0  0  0  0  0  0  0
    9.0603    6.2661    0.0000 C   0  0  0  0  0  0  0  0  0  0  0  0
    5.0196    8.3534    0.0000 Cl  0  0  0  0  0  0  0  0  0  0  0  0
    8.3534   11.6873    0.0000 Cl  0  0  0  0  0  0  0  0  0  0  0  0
    8.3534    5.0196    0.0000 Cl  0  0  0  0  0  0  0  0  0  0  0  0
  2  1  1  0  0  0  0
  3  1  1  0  0  0  0
  4  1  1  0  0  0  0
  5  2  2  0  0  0  0
  6  3  2  0  0  0  0
  7  3  1  0  0  0  0
  8  2  1  0  0  0  0
  9  4  2  0  0  0  0
 10  4  1  0  0  0  0
 11  1  1  0  0  0  0
 12 16  1  0  0  0  0
 13 19  1  0  0  0  0
 14 18  1  0  0  0  0
 15  6  1  0  0  0  0
 16  8  2  0  0  0  0
 17  9  1  0  0  0  0
 18  7  2  0  0  0  0
 19 10  2  0  0  0  0
 20  5  1  0  0  0  0
 21 14  1  0  0  0  0
 22 13  1  0  0  0  0
 23 12  1  0  0  0  0
 13 17  2  0  0  0  0
 14 15  2  0  0  0  0
 12 20  2  0  0  0  0
M  END