206
  Mrv0541 04071411322D          

 16 17  0  0  0  0            999 V2000
    3.5322   -1.7443    0.0000 C   0  0  0  0  0  0  0  0  0  0  0  0
    2.8176   -2.1760    0.0000 O   0  0  0  0  0  0  0  0  0  0  0  0
    4.2448   -2.1537    0.0000 C   0  0  0  0  0  0  0  0  0  0  0  0
    3.5322   -0.9125    0.0000 C   0  0  0  0  0  0  0  0  0  0  0  0
    2.0956   -1.7648    0.0000 C   0  0  0  0  0  0  0  0  0  0  0  0
    4.9669   -1.7313    0.0000 C   0  0  0  0  0  0  0  0  0  0  0  0
    4.2448   -2.9855    0.0000 Cl  0  0  0  0  0  0  0  0  0  0  0  0
    4.2448   -0.5031    0.0000 C   0  0  0  0  0  0  0  0  0  0  0  0
    2.0956   -0.9423    0.0000 C   0  0  0  0  0  0  0  0  0  0  0  0
    1.3847   -2.1835    0.0000 C   0  0  0  0  0  0  0  0  0  0  0  0
    4.9669   -0.9014    0.0000 C   0  0  0  0  0  0  0  0  0  0  0  0
    1.3605   -0.5347    0.0000 C   0  0  0  0  0  0  0  0  0  0  0  0
    0.6590   -1.7759    0.0000 C   0  0  0  0  0  0  0  0  0  0  0  0
    5.6684   -0.4697    0.0000 Cl  0  0  0  0  0  0  0  0  0  0  0  0
    0.6590   -0.9665    0.0000 C   0  0  0  0  0  0  0  0  0  0  0  0
   -0.0835   -0.5645    0.0000 Cl  0  0  0  0  0  0  0  0  0  0  0  0
  1  2  1  0  0  0  0
  1  3  2  0  0  0  0
  1  4  1  0  0  0  0
  2  5  1  0  0  0  0
  3  6  1  0  0  0  0
  3  7  1  0  0  0  0
  4  8  2  0  0  0  0
  5  9  2  0  0  0  0
  5 10  1  0  0  0  0
  6 11  2  0  0  0  0
  9 12  1  0  0  0  0
 10 13  2  0  0  0  0
 11 14  1  0  0  0  0
 12 15  2  0  0  0  0
 15 16  1  0  0  0  0
  8 11  1  0  0  0  0
 13 15  1  0  0  0  0
M  END