21
  Mrv0541 04071411322D          

 12 13  0  0  0  0            999 V2000
   -0.3525    0.4178    0.0000 C   0  0  0  0  0  0  0  0  0  0  0  0
   -0.3525   -0.4154    0.0000 C   0  0  0  0  0  0  0  0  0  0  0  0
    0.3583    0.8239    0.0000 C   0  0  0  0  0  0  0  0  0  0  0  0
   -1.0666    0.8239    0.0000 C   0  0  0  0  0  0  0  0  0  0  0  0
    0.3583   -0.8286    0.0000 C   0  0  0  0  0  0  0  0  0  0  0  0
   -1.0666   -0.8286    0.0000 C   0  0  0  0  0  0  0  0  0  0  0  0
    1.0654    0.4178    0.0000 C   0  0  0  0  0  0  0  0  0  0  0  0
   -1.7809    0.4178    0.0000 C   0  0  0  0  0  0  0  0  0  0  0  0
    1.0654   -0.4154    0.0000 C   0  0  0  0  0  0  0  0  0  0  0  0
   -1.7809   -0.4154    0.0000 C   0  0  0  0  0  0  0  0  0  0  0  0
    1.7762    0.8449    0.0000 C   0  0  0  0  0  0  0  0  0  0  0  0
    1.7762   -0.8414    0.0000 C   0  0  0  0  0  0  0  0  0  0  0  0
  1  2  2  0  0  0  0
  1  3  1  0  0  0  0
  1  4  1  0  0  0  0
  2  5  1  0  0  0  0
  2  6  1  0  0  0  0
  3  7  2  0  0  0  0
  4  8  2  0  0  0  0
  5  9  2  0  0  0  0
  6 10  2  0  0  0  0
  7 11  1  0  0  0  0
  9 12  1  0  0  0  0
  7  9  1  0  0  0  0
  8 10  1  0  0  0  0
M  END