211
  Mrv0541 04071411322D          

 17 18  0  0  0  0            999 V2000
    0.6521   -1.8238    0.0000 C   0  0  0  0  0  0  0  0  0  0  0  0
   -0.0175   -2.2156    0.0000 Cl  0  0  0  0  0  0  0  0  0  0  0  0
    3.5327   -1.7445    0.0000 C   0  0  0  0  0  0  0  0  0  0  0  0
    2.8179   -2.1764    0.0000 O   0  0  0  0  0  0  0  0  0  0  0  0
    4.2454   -2.1540    0.0000 C   0  0  0  0  0  0  0  0  0  0  0  0
    3.5327   -0.9126    0.0000 C   0  0  0  0  0  0  0  0  0  0  0  0
    2.0959   -1.7650    0.0000 C   0  0  0  0  0  0  0  0  0  0  0  0
    4.9677   -1.7315    0.0000 C   0  0  0  0  0  0  0  0  0  0  0  0
    4.2454   -0.5032    0.0000 C   0  0  0  0  0  0  0  0  0  0  0  0
    2.0959   -0.9424    0.0000 C   0  0  0  0  0  0  0  0  0  0  0  0
    1.3849   -2.1838    0.0000 C   0  0  0  0  0  0  0  0  0  0  0  0
    4.9677   -0.9015    0.0000 C   0  0  0  0  0  0  0  0  0  0  0  0
    1.3607   -0.5349    0.0000 C   0  0  0  0  0  0  0  0  0  0  0  0
    5.6693   -0.4698    0.0000 Cl  0  0  0  0  0  0  0  0  0  0  0  0
    0.6590   -0.9666    0.0000 C   0  0  0  0  0  0  0  0  0  0  0  0
   -0.0835   -0.5646    0.0000 Cl  0  0  0  0  0  0  0  0  0  0  0  0
    4.2383    0.3188    0.0000 Cl  0  0  0  0  0  0  0  0  0  0  0  0
  1  2  1  0  0  0  0
  3  4  1  0  0  0  0
  3  5  2  0  0  0  0
  3  6  1  0  0  0  0
  4  7  1  0  0  0  0
  5  8  1  0  0  0  0
  6  9  2  0  0  0  0
  7 10  2  0  0  0  0
  7 11  1  0  0  0  0
  8 12  2  0  0  0  0
 10 13  1  0  0  0  0
 11  1  2  0  0  0  0
 12 14  1  0  0  0  0
 13 15  2  0  0  0  0
 15 16  1  0  0  0  0
  9 12  1  0  0  0  0
  1 15  1  0  0  0  0
  9 17  1  0  0  0  0
M  END