217
  Mrv0541 04071411322D          

 19 20  0  0  0  0            999 V2000
    5.7520   -1.2003    0.0000 C   0  0  0  0  0  0  0  0  0  0  0  0
    6.4712   -1.6134    0.0000 C   0  0  0  0  0  0  0  0  0  0  0  0
    5.0420   -1.6113    0.0000 C   0  0  0  0  0  0  0  0  0  0  0  0
    5.7494   -0.3731    0.0000 C   0  0  0  0  0  0  0  0  0  0  0  0
    7.1815   -1.2009    0.0000 C   0  0  0  0  0  0  0  0  0  0  0  0
    6.4712   -2.4343    0.0000 C   0  0  0  0  0  0  0  0  0  0  0  0
    5.0398   -2.4363    0.0000 C   0  0  0  0  0  0  0  0  0  0  0  0
    4.3255   -1.1981    0.0000 C   0  0  0  0  0  0  0  0  0  0  0  0
    6.5751   -0.1837    0.0000 Cl  0  0  0  0  0  0  0  0  0  0  0  0
    4.9278   -0.1836    0.0000 Cl  0  0  0  0  0  0  0  0  0  0  0  0
    5.7501    0.4504    0.0000 Cl  0  0  0  0  0  0  0  0  0  0  0  0
    7.8930   -1.6156    0.0000 C   0  0  0  0  0  0  0  0  0  0  0  0
    7.1786   -2.8482    0.0000 C   0  0  0  0  0  0  0  0  0  0  0  0
    4.3297   -2.8488    0.0000 C   0  0  0  0  0  0  0  0  0  0  0  0
    3.6098   -1.6113    0.0000 C   0  0  0  0  0  0  0  0  0  0  0  0
    7.8950   -2.4357    0.0000 C   0  0  0  0  0  0  0  0  0  0  0  0
    3.6098   -2.4363    0.0000 C   0  0  0  0  0  0  0  0  0  0  0  0
    8.6107   -2.8538    0.0000 Cl  0  0  0  0  0  0  0  0  0  0  0  0
    2.8899   -2.8530    0.0000 Cl  0  0  0  0  0  0  0  0  0  0  0  0
  1  2  1  0  0  0  0
  1  3  1  0  0  0  0
  1  4  1  0  0  0  0
  2  5  1  0  0  0  0
  2  6  2  0  0  0  0
  3  7  1  0  0  0  0
  3  8  2  0  0  0  0
  4  9  1  0  0  0  0
  4 10  1  0  0  0  0
  4 11  1  0  0  0  0
  5 12  2  0  0  0  0
  6 13  1  0  0  0  0
  7 14  2  0  0  0  0
  8 15  1  0  0  0  0
 12 16  1  0  0  0  0
 14 17  1  0  0  0  0
 16 18  1  0  0  0  0
 17 19  1  0  0  0  0
 13 16  2  0  0  0  0
 15 17  2  0  0  0  0
M  END