220
  Mrv0541 04071411322D          

  5  4  0  0  0  0            999 V2000
    0.0017   -0.0008    0.0000 C   0  0  0  0  0  0  0  0  0  0  0  0
    0.0017    0.8241    0.0000 Cl  0  0  0  0  0  0  0  0  0  0  0  0
   -0.8283   -0.0008    0.0000 Cl  0  0  0  0  0  0  0  0  0  0  0  0
    0.8267    0.0041    0.0000 Cl  0  0  0  0  0  0  0  0  0  0  0  0
   -0.0017   -0.8250    0.0000 Cl  0  0  0  0  0  0  0  0  0  0  0  0
  1  2  1  0  0  0  0
  1  3  1  0  0  0  0
  1  4  1  0  0  0  0
  1  5  1  0  0  0  0
M  END