223
  Mrv0541 04071411322D          

  5  4  0  0  0  0            999 V2000
   -0.2880   -0.0034    0.0000 C   0  0  0  0  0  0  0  0  0  0  0  0
    0.4302   -0.4094    0.0000 C   0  0  0  0  0  0  0  0  0  0  0  0
   -1.0027   -0.4198    0.0000 Cl  0  0  0  0  0  0  0  0  0  0  0  0
   -0.2880    0.8257    0.0000 Cl  0  0  0  0  0  0  0  0  0  0  0  0
    1.1484    0.0034    0.0000 Cl  0  0  0  0  0  0  0  0  0  0  0  0
  1  2  1  0  0  0  0
  1  3  1  0  0  0  0
  1  4  1  0  0  0  0
  2  5  1  0  0  0  0
M  END