224
  Mrv0541 04071411322D          

  6  5  0  0  0  0            999 V2000
   -0.3560    0.2074    0.0000 C   0  0  0  0  0  0  0  0  0  0  0  0
    0.3560   -0.2074    0.0000 C   0  0  0  0  0  0  0  0  0  0  0  0
   -1.0715   -0.2074    0.0000 Cl  0  0  0  0  0  0  0  0  0  0  0  0
   -0.3560    1.0334    0.0000 Cl  0  0  0  0  0  0  0  0  0  0  0  0
    1.0715    0.2074    0.0000 Cl  0  0  0  0  0  0  0  0  0  0  0  0
    0.3560   -1.0334    0.0000 Cl  0  0  0  0  0  0  0  0  0  0  0  0
  1  2  1  0  0  0  0
  1  3  1  0  0  0  0
  1  4  1  0  0  0  0
  2  5  1  0  0  0  0
  2  6  1  0  0  0  0
M  END