228
  Mrv0541 04071411322D          

  5  4  0  0  0  0            999 V2000
    0.0000    0.1632    0.0000 C   0  0  0  0  0  0  0  0  0  0  0  0
    0.7160   -0.2467    0.0000 C   0  0  0  0  0  0  0  0  0  0  0  0
   -0.7160   -0.2467    0.0000 C   0  0  0  0  0  0  0  0  0  0  0  0
    1.4357    0.1632    0.0000 C   0  0  0  0  0  0  0  0  0  0  0  0
   -1.4357    0.1632    0.0000 Cl  0  0  0  0  0  0  0  0  0  0  0  0
  1  2  1  0  0  0  0
  1  3  1  0  0  0  0
  2  4  1  0  0  0  0
  3  5  1  0  0  0  0
M  END