23
  Mrv0541 04071411322D          

 13 14  0  0  0  0            999 V2000
   -0.1596   -0.3421    0.0000 C   0  0  0  0  0  0  0  0  0  0  0  0
   -0.1596    0.4823    0.0000 C   0  0  0  0  0  0  0  0  0  0  0  0
    0.5524   -0.7723    0.0000 C   0  0  0  0  0  0  0  0  0  0  0  0
   -0.8848   -0.7723    0.0000 C   0  0  0  0  0  0  0  0  0  0  0  0
    0.5524    0.8920    0.0000 C   0  0  0  0  0  0  0  0  0  0  0  0
   -0.8848    0.8920    0.0000 C   0  0  0  0  0  0  0  0  0  0  0  0
    1.2510   -0.3421    0.0000 C   0  0  0  0  0  0  0  0  0  0  0  0
   -1.5894   -0.3421    0.0000 C   0  0  0  0  0  0  0  0  0  0  0  0
    1.2510    0.4823    0.0000 C   0  0  0  0  0  0  0  0  0  0  0  0
   -1.5894    0.4823    0.0000 C   0  0  0  0  0  0  0  0  0  0  0  0
    1.9678   -0.7844    0.0000 C   0  0  0  0  0  0  0  0  0  0  0  0
   -2.3050   -0.7844    0.0000 C   0  0  0  0  0  0  0  0  0  0  0  0
    1.9980    0.9089    0.0000 C   0  0  0  0  0  0  0  0  0  0  0  0
  1  2  2  0  0  0  0
  1  3  1  0  0  0  0
  1  4  1  0  0  0  0
  2  5  1  0  0  0  0
  2  6  1  0  0  0  0
  3  7  2  0  0  0  0
  4  8  2  0  0  0  0
  5  9  2  0  0  0  0
  6 10  2  0  0  0  0
  7 11  1  0  0  0  0
  8 12  1  0  0  0  0
  9 13  1  0  0  0  0
  7  9  1  0  0  0  0
  8 10  1  0  0  0  0
M  END