237
  Mrv0541 04071411322D          

  4  3  0  0  0  0            999 V2000
   -0.0037    0.0037    0.0000 C   0  0  0  0  0  0  0  0  0  0  0  0
    0.8213    0.0037    0.0000 C   0  0  0  0  0  0  0  0  0  0  0  0
   -0.4226    0.7038    0.0000 Cl  0  0  0  0  0  0  0  0  0  0  0  0
   -0.3950   -0.7092    0.0000 Cl  0  0  0  0  0  0  0  0  0  0  0  0
  1  2  2  0  0  0  0
  1  3  1  0  0  0  0
  1  4  1  0  0  0  0
M  END