238
  Mrv0541 04071411322D          

  5  4  0  0  0  0            999 V2000
   -0.2848    0.0069    0.0000 C   0  0  0  0  0  0  0  0  0  0  0  0
    0.4220   -0.4186    0.0000 C   0  0  0  0  0  0  0  0  0  0  0  0
   -1.0020   -0.3947    0.0000 Cl  0  0  0  0  0  0  0  0  0  0  0  0
   -0.2745    0.8269    0.0000 Cl  0  0  0  0  0  0  0  0  0  0  0  0
    1.1359   -0.0206    0.0000 Cl  0  0  0  0  0  0  0  0  0  0  0  0
  1  2  2  0  0  0  0
  1  3  1  0  0  0  0
  1  4  1  0  0  0  0
  2  5  1  0  0  0  0
M  END