241
  Mrv0541 04071411322D          

 10  9  0  0  0  0            999 V2000
   -0.7223    0.0916    0.0000 C   0  0  0  0  0  0  0  0  0  0  0  0
   -0.0083   -0.3177    0.0000 C   0  0  0  0  0  0  0  0  0  0  0  0
   -0.2915    0.8379    0.0000 F   0  0  0  0  0  0  0  0  0  0  0  0
   -1.1639   -0.6414    0.0000 F   0  0  0  0  0  0  0  0  0  0  0  0
   -1.4579    0.5164    0.0000 F   0  0  0  0  0  0  0  0  0  0  0  0
    0.7223    0.0654    0.0000 C   0  0  0  0  0  0  0  0  0  0  0  0
   -0.0083   -1.1854    0.0000 O   0  0  0  0  0  0  0  0  0  0  0  0
    0.3130    0.8163    0.0000 F   0  0  0  0  0  0  0  0  0  0  0  0
    1.4686    0.4974    0.0000 F   0  0  0  0  0  0  0  0  0  0  0  0
    1.1485   -0.6807    0.0000 F   0  0  0  0  0  0  0  0  0  0  0  0
  1  2  1  0  0  0  0
  1  3  1  0  0  0  0
  1  4  1  0  0  0  0
  1  5  1  0  0  0  0
  2  6  1  0  0  0  0
  2  7  1  0  0  0  0
  6  8  1  0  0  0  0
  6  9  1  0  0  0  0
  6 10  1  0  0  0  0
M  END