242
  Mrv0541 04071411322D          

  8  7  0  0  0  0            999 V2000
    0.3906   -0.0100    0.0000 C   0  0  0  0  0  0  0  0  0  0  0  0
   -0.4344   -0.0100    0.0000 C   0  0  0  0  0  0  0  0  0  0  0  0
    0.3906    0.8587    0.0000 C   0  0  0  0  0  0  0  0  0  0  0  0
    0.3906   -0.7914    0.0000 C   0  0  0  0  0  0  0  0  0  0  0  0
    1.3672   -0.0100    0.0000 O   0  0  0  0  0  0  0  0  0  0  0  0
   -1.2426   -0.0100    0.0000 Cl  0  0  0  0  0  0  0  0  0  0  0  0
   -0.4344   -0.8352    0.0000 Cl  0  0  0  0  0  0  0  0  0  0  0  0
   -0.4344    0.8082    0.0000 Cl  0  0  0  0  0  0  0  0  0  0  0  0
  1  2  1  0  0  0  0
  1  3  1  0  0  0  0
  1  4  1  0  0  0  0
  1  5  1  0  0  0  0
  2  6  1  0  0  0  0
  2  7  1  0  0  0  0
  2  8  1  0  0  0  0
M  END