243
  Mrv0541 04071411322D          

  9  8  0  0  0  0            999 V2000
   -0.0018   -0.0018    0.0000 C   0  0  0  0  0  0  0  0  0  0  0  0
    0.4048    0.7231    0.0000 C   0  0  0  0  0  0  0  0  0  0  0  0
   -0.7120    0.4121    0.0000 C   0  0  0  0  0  0  0  0  0  0  0  0
   -0.4121   -0.7175    0.0000 C   0  0  0  0  0  0  0  0  0  0  0  0
    0.7175   -0.4048    0.0000 C   0  0  0  0  0  0  0  0  0  0  0  0
    1.2382    0.7231    0.0000 O   0  0  0  0  0  0  0  0  0  0  0  0
   -0.7120    1.2253    0.0000 O   0  0  0  0  0  0  0  0  0  0  0  0
   -1.2382   -0.7175    0.0000 Br  0  0  0  0  0  0  0  0  0  0  0  0
    0.7175   -1.2382    0.0000 Br  0  0  0  0  0  0  0  0  0  0  0  0
  1  2  1  0  0  0  0
  1  3  1  0  0  0  0
  1  4  1  0  0  0  0
  1  5  1  0  0  0  0
  2  6  1  0  0  0  0
  3  7  1  0  0  0  0
  4  8  1  0  0  0  0
  5  9  1  0  0  0  0
M  END