246
  Mrv0541 04071411322D          

 13 14  0  0  0  0            999 V2000
    0.7151   -0.3446    0.0000 C   0  0  0  0  0  0  0  0  0  0  0  0
    0.0018   -0.7613    0.0000 O   0  0  0  0  0  0  0  0  0  0  0  0
    1.4266   -0.7613    0.0000 C   0  0  0  0  0  0  0  0  0  0  0  0
    0.7151    0.4725    0.0000 C   0  0  0  0  0  0  0  0  0  0  0  0
   -0.7151   -0.3446    0.0000 C   0  0  0  0  0  0  0  0  0  0  0  0
    2.1509   -0.3446    0.0000 C   0  0  0  0  0  0  0  0  0  0  0  0
    1.4266    0.8838    0.0000 C   0  0  0  0  0  0  0  0  0  0  0  0
   -0.7151    0.4725    0.0000 C   0  0  0  0  0  0  0  0  0  0  0  0
   -1.4303   -0.7613    0.0000 C   0  0  0  0  0  0  0  0  0  0  0  0
    2.1509    0.4725    0.0000 C   0  0  0  0  0  0  0  0  0  0  0  0
   -1.4303    0.8838    0.0000 C   0  0  0  0  0  0  0  0  0  0  0  0
   -2.1473   -0.3446    0.0000 C   0  0  0  0  0  0  0  0  0  0  0  0
   -2.1473    0.4725    0.0000 C   0  0  0  0  0  0  0  0  0  0  0  0
  1  2  1  0  0  0  0
  1  3  2  0  0  0  0
  1  4  1  0  0  0  0
  2  5  1  0  0  0  0
  3  6  1  0  0  0  0
  4  7  2  0  0  0  0
  5  8  2  0  0  0  0
  5  9  1  0  0  0  0
  6 10  2  0  0  0  0
  8 11  1  0  0  0  0
  9 12  2  0  0  0  0
 11 13  2  0  0  0  0
  7 10  1  0  0  0  0
 12 13  1  0  0  0  0
M  END