247
  Mrv0541 04071411322D          

 15 16  0  0  0  0            999 V2000
    1.4223   -0.2716    0.0000 C   0  0  0  0  0  0  0  0  0  0  0  0
    0.7056   -0.6835    0.0000 C   0  0  0  0  0  0  0  0  0  0  0  0
    2.1444   -0.6835    0.0000 C   0  0  0  0  0  0  0  0  0  0  0  0
    1.4223    0.5449    0.0000 C   0  0  0  0  0  0  0  0  0  0  0  0
    0.0018   -0.2716    0.0000 O   0  0  0  0  0  0  0  0  0  0  0  0
    2.8556   -0.2716    0.0000 C   0  0  0  0  0  0  0  0  0  0  0  0
    2.1444    0.9568    0.0000 C   0  0  0  0  0  0  0  0  0  0  0  0
   -0.7056   -0.6835    0.0000 C   0  0  0  0  0  0  0  0  0  0  0  0
    2.8556    0.5449    0.0000 C   0  0  0  0  0  0  0  0  0  0  0  0
   -1.4260   -0.2716    0.0000 C   0  0  0  0  0  0  0  0  0  0  0  0
   -1.4260    0.5449    0.0000 C   0  0  0  0  0  0  0  0  0  0  0  0
   -2.1408   -0.6835    0.0000 C   0  0  0  0  0  0  0  0  0  0  0  0
   -2.1408    0.9568    0.0000 C   0  0  0  0  0  0  0  0  0  0  0  0
   -2.8556   -0.2716    0.0000 C   0  0  0  0  0  0  0  0  0  0  0  0
   -2.8556    0.5449    0.0000 C   0  0  0  0  0  0  0  0  0  0  0  0
  1  2  1  0  0  0  0
  1  3  2  0  0  0  0
  1  4  1  0  0  0  0
  2  5  1  0  0  0  0
  3  6  1  0  0  0  0
  4  7  2  0  0  0  0
  5  8  1  0  0  0  0
  6  9  2  0  0  0  0
  8 10  1  0  0  0  0
 10 11  2  0  0  0  0
 10 12  1  0  0  0  0
 11 13  1  0  0  0  0
 12 14  2  0  0  0  0
 13 15  2  0  0  0  0
  7  9  1  0  0  0  0
 14 15  1  0  0  0  0
M  END