25
  Mrv0541 04071411322D          

 10 10  0  0  0  0            999 V2000
    0.4086   -0.4281    0.0000 C   0  0  0  0  0  0  0  0  0  0  0  0
    0.4118    0.3841    0.0000 C   0  0  0  0  0  0  0  0  0  0  0  0
   -0.2588   -0.7765    0.0000 C   0  0  0  0  0  0  0  0  0  0  0  0
    1.1264   -0.8530    0.0000 C   0  0  0  0  0  0  0  0  0  0  0  0
   -0.3109    0.7813    0.0000 C   0  0  0  0  0  0  0  0  0  0  0  0
    1.1395    0.8334    0.0000 C   0  0  0  0  0  0  0  0  0  0  0  0
   -0.9735   -0.4590    0.0000 C   0  0  0  0  0  0  0  0  0  0  0  0
   -0.2588   -1.6018    0.0000 C   0  0  0  0  0  0  0  0  0  0  0  0
   -0.9735    0.3907    0.0000 C   0  0  0  0  0  0  0  0  0  0  0  0
   -0.3109    1.7304    0.0000 C   0  0  0  0  0  0  0  0  0  0  0  0
  1  2  1  0  0  0  0
  1  3  2  0  0  0  0
  1  4  1  0  0  0  0
  2  5  2  0  0  0  0
  2  6  1  0  0  0  0
  3  7  1  0  0  0  0
  3  8  1  0  0  0  0
  5  9  1  0  0  0  0
  5 10  1  0  0  0  0
  7  9  2  0  0  0  0
M  END