250
  Mrv0541 04071411322D          

  7  7  0  0  0  0            999 V2000
    0.5107    0.2979    0.0000 C   0  0  0  0  0  0  0  0  0  0  0  0
   -0.2054    0.7013    0.0000 C   0  0  0  0  0  0  0  0  0  0  0  0
    0.5107   -0.5274    0.0000 C   0  0  0  0  0  0  0  0  0  0  0  0
    1.2231    0.7013    0.0000 Cl  0  0  0  0  0  0  0  0  0  0  0  0
   -0.9177    0.2979    0.0000 C   0  0  0  0  0  0  0  0  0  0  0  0
   -0.2054   -0.9436    0.0000 C   0  0  0  0  0  0  0  0  0  0  0  0
   -0.9177   -0.5274    0.0000 C   0  0  0  0  0  0  0  0  0  0  0  0
  1  2  1  0  0  0  0
  1  3  1  0  0  0  0
  1  4  1  0  0  0  0
  2  5  1  0  0  0  0
  3  6  1  0  0  0  0
  5  7  1  0  0  0  0
  6  7  1  0  0  0  0
M  END