254
  Mrv0541 04071411322D          

 19 23  0  0  0  0            999 V2000
    1.9093   -0.6426    0.0000 C   0  0  0  0  0  0  0  0  0  0  0  0
    1.6835   -1.1216    0.0000 C   0  0  0  0  0  0  0  0  0  0  0  0
    2.8605   -0.1978    0.0000 C   0  0  0  0  0  0  0  0  0  0  0  0
    1.3036   -0.2869    0.0000 C   0  0  0  0  0  0  0  0  0  0  0  0
    2.5594   -0.6974    0.0000 C   0  0  0  0  0  0  0  0  0  0  0  0
    1.1257   -0.8377    0.0000 C   0  0  0  0  0  0  0  0  0  0  0  0
    2.3232    0.4282    0.0000 C   0  0  0  0  0  0  0  0  0  0  0  0
    3.7843   -0.4305    0.0000 C   0  0  0  0  0  0  0  0  0  0  0  0
    3.2129    0.3907    0.0000 Cl  0  0  0  0  0  0  0  0  0  0  0  0
    0.8041   -0.6392    0.0000 C   0  0  0  0  0  0  0  0  0  0  0  0
    0.8656    0.5069    0.0000 C   0  0  0  0  0  0  0  0  0  0  0  0
    3.3634   -0.9540    0.0000 C   0  0  0  0  0  0  0  0  0  0  0  0
    2.1215   -1.6281    0.0000 Cl  0  0  0  0  0  0  0  0  0  0  0  0
    0.5304   -1.1388    0.0000 C   0  0  0  0  0  0  0  0  0  0  0  0
    1.8271    0.9175    0.0000 Cl  0  0  0  0  0  0  0  0  0  0  0  0
    2.6654    1.0236    0.0000 Cl  0  0  0  0  0  0  0  0  0  0  0  0
    4.3796   -0.0884    0.0000 Cl  0  0  0  0  0  0  0  0  0  0  0  0
   -0.2292   -0.6426    0.0000 O   0  0  0  0  0  0  0  0  0  0  0  0
    3.5414   -1.6144    0.0000 Cl  0  0  0  0  0  0  0  0  0  0  0  0
  1  2  1  0  0  0  0
  1  3  1  0  0  0  0
  1  4  1  0  0  0  0
  2  5  1  0  0  0  0
  2  6  1  0  0  0  0
  3  7  1  0  0  0  0
  3  8  1  0  0  0  0
  3  9  1  0  0  0  0
  4 10  1  0  0  0  0
  4 11  1  0  0  0  0
  5 12  1  0  0  0  0
  5 13  1  0  0  0  0
  6 14  1  0  0  0  0
  7 15  1  0  0  0  0
  7 16  1  0  0  0  0
  8 17  1  0  0  0  0
 10 18  1  0  0  0  0
 12 19  1  0  0  0  0
  5  7  1  0  0  0  0
  6 11  1  0  0  0  0
  8 12  2  0  0  0  0
 10 14  1  0  0  0  0
 14 18  1  0  0  0  0
M  END