255
  Mrv0541 04071411322D          

 18 21  0  0  0  0            999 V2000
    0.0825   -1.2432    0.0000 C   0  0  0  0  0  0  0  0  0  0  0  0
    0.8719   -1.4550    0.0000 C   0  0  0  0  0  0  0  0  0  0  0  0
    1.3174   -0.7454    0.0000 C   0  0  0  0  0  0  0  0  0  0  0  0
   -0.2860   -0.7454    0.0000 C   0  0  0  0  0  0  0  0  0  0  0  0
    0.5281   -0.5088    0.0000 C   0  0  0  0  0  0  0  0  0  0  0  0
    0.1073    0.2008    0.0000 C   0  0  0  0  0  0  0  0  0  0  0  0
   -1.0754   -0.9544    0.0000 C   0  0  0  0  0  0  0  0  0  0  0  0
   -1.8895   -0.7454    0.0000 C   0  0  0  0  0  0  0  0  0  0  0  0
   -2.3103   -1.4550    0.0000 C   0  0  0  0  0  0  0  0  0  0  0  0
   -1.0754   -2.4011    0.0000 C   0  0  0  0  0  0  0  0  0  0  0  0
   -0.7068   -1.4550    0.0000 C   0  0  0  0  0  0  0  0  0  0  0  0
   -1.4962   -1.6915    0.0000 C   0  0  0  0  0  0  0  0  0  0  0  0
   -0.3383   -1.9555    0.0000 Cl  0  0  0  0  0  0  0  0  0  0  0  0
    0.9241    0.2008    0.0000 Cl  0  0  0  0  0  0  0  0  0  0  0  0
    0.2916    0.9901    0.0000 Cl  0  0  0  0  0  0  0  0  0  0  0  0
   -0.4951    0.7811    0.0000 Cl  0  0  0  0  0  0  0  0  0  0  0  0
    1.2927   -2.1646    0.0000 Cl  0  0  0  0  0  0  0  0  0  0  0  0
    2.1591   -0.7454    0.0000 Cl  0  0  0  0  0  0  0  0  0  0  0  0
  1 11  1  0  0  0  0
  1  2  1  0  0  0  0
  2  3  2  0  0  0  0
  4 11  1  0  0  0  0
  4  5  1  0  0  0  0
  3  5  1  0  0  0  0
  5  6  1  0  0  0  0
  1  6  1  0  0  0  0
  4  7  1  0  0  0  0
  7  8  1  0  0  0  0
  8  9  2  0  0  0  0
  9 12  1  0  0  0  0
 10 12  1  0  0  0  0
  7 10  1  0  0  0  0
 11 12  1  0  0  0  0
  1 13  1  0  0  0  0
  5 14  1  0  0  0  0
  6 15  1  0  0  0  0
  6 16  1  0  0  0  0
  2 17  1  0  0  0  0
  3 18  1  0  0  0  0
M  END