258
  Mrv0541 04071411322D          

 19 20  0  0  0  0            999 V2000
    0.4040    0.5540    0.0000 C   0  0  0  0  0  0  0  0  0  0  0  0
   -0.3000    0.1458    0.0000 C   0  0  0  0  0  0  0  0  0  0  0  0
    0.0500    1.2789    0.0000 C   0  0  0  0  0  0  0  0  0  0  0  0
    1.1206    0.1458    0.0000 C   0  0  0  0  0  0  0  0  0  0  0  0
    1.0686    1.1872    0.0000 Cl  0  0  0  0  0  0  0  0  0  0  0  0
   -0.3000   -0.6748    0.0000 C   0  0  0  0  0  0  0  0  0  0  0  0
   -1.1664    0.4853    0.0000 C   0  0  0  0  0  0  0  0  0  0  0  0
    0.3978   -0.2770    0.0000 C   0  0  0  0  0  0  0  0  0  0  0  0
   -0.7831    1.6642    0.0000 Cl  0  0  0  0  0  0  0  0  0  0  0  0
    0.4332    2.1037    0.0000 Cl  0  0  0  0  0  0  0  0  0  0  0  0
    1.1206   -0.6748    0.0000 C   0  0  0  0  0  0  0  0  0  0  0  0
    1.9225    0.6144    0.0000 Cl  0  0  0  0  0  0  0  0  0  0  0  0
   -0.7727   -1.4705    0.0000 C   0  0  0  0  0  0  0  0  0  0  0  0
   -1.8745   -0.0584    0.0000 O   0  0  0  0  0  0  0  0  0  0  0  0
   -1.3268    1.4456    0.0000 O   0  0  0  0  0  0  0  0  0  0  0  0
    0.3978   -1.1977    0.0000 Cl  0  0  0  0  0  0  0  0  0  0  0  0
    1.5955   -1.4705    0.0000 Cl  0  0  0  0  0  0  0  0  0  0  0  0
   -1.6726   -1.4768    0.0000 O   0  0  0  0  0  0  0  0  0  0  0  0
   -0.3124   -2.3223    0.0000 O   0  0  0  0  0  0  0  0  0  0  0  0
  1  2  1  0  0  0  0
  1  3  1  0  0  0  0
  1  4  1  0  0  0  0
  1  5  1  0  0  0  0
  2  6  1  0  0  0  0
  2  7  1  0  0  0  0
  3  8  1  0  0  0  0
  3  9  1  0  0  0  0
  3 10  1  0  0  0  0
  4 11  2  0  0  0  0
  4 12  1  0  0  0  0
  6 13  1  0  0  0  0
  7 14  1  0  0  0  0
  7 15  2  0  0  0  0
  8 16  1  0  0  0  0
 11 17  1  0  0  0  0
 13 18  1  0  0  0  0
 13 19  2  0  0  0  0
  6  8  1  0  0  0  0
  8 11  1  0  0  0  0
M  END