26
  Mrv0541 04071411322D          

 12 13  0  0  0  0            999 V2000
    1.6499   -1.3148    0.0000 C   0  0  0  0  0  0  0  0  0  0  0  0
    0.8568   -1.3148    0.0000 C   0  0  0  0  0  0  0  0  0  0  0  0
    2.0962   -2.0088    0.0000 C   0  0  0  0  0  0  0  0  0  0  0  0
    0.4110   -2.0088    0.0000 C   0  0  0  0  0  0  0  0  0  0  0  0
    0.8568   -2.7518    0.0000 C   0  0  0  0  0  0  0  0  0  0  0  0
    1.6499   -2.7518    0.0000 C   0  0  0  0  0  0  0  0  0  0  0  0
    2.0962   -0.6206    0.0000 C   0  0  0  0  0  0  0  0  0  0  0  0
    0.4110   -0.6206    0.0000 C   0  0  0  0  0  0  0  0  0  0  0  0
   -0.3816   -2.0088    0.0000 C   0  0  0  0  0  0  0  0  0  0  0  0
    2.8894   -2.0088    0.0000 C   0  0  0  0  0  0  0  0  0  0  0  0
    1.6499    0.1224    0.0000 C   0  0  0  0  0  0  0  0  0  0  0  0
    0.8568    0.1224    0.0000 C   0  0  0  0  0  0  0  0  0  0  0  0
  2  1  1  0  0  0  0
  3  1  1  0  0  0  0
  4  2  1  0  0  0  0
  5  6  1  0  0  0  0
  6  3  1  0  0  0  0
  7  1  2  0  0  0  0
  8  2  2  0  0  0  0
  9  4  1  0  0  0  0
 10  3  1  0  0  0  0
 11  7  1  0  0  0  0
 12 11  2  0  0  0  0
 12  8  1  0  0  0  0
  5  4  1  0  0  0  0
M  END