260
  Mrv0541 04071411322D          

 11 11  0  0  0  0            999 V2000
    2.1413    1.4425    0.0000 Cl  0  0  0  0  0  0  0  0  0  0  0  0
    1.4273    1.0293    0.0000 C   0  0  0  0  0  0  0  0  0  0  0  0
    0.7095    1.4418    0.0000 C   0  0  0  0  0  0  0  0  0  0  0  0
    0.0000    1.0293    0.0000 C   0  0  0  0  0  0  0  0  0  0  0  0
    0.0000    0.2043    0.0000 C   0  0  0  0  0  0  0  0  0  0  0  0
    0.7095   -0.2082    0.0000 C   0  0  0  0  0  0  0  0  0  0  0  0
    1.4273    0.2043    0.0000 C   0  0  0  0  0  0  0  0  0  0  0  0
    2.1413   -0.2090    0.0000 C   0  0  0  0  0  0  0  0  0  0  0  0
    2.8589    0.2039    0.0000 O   0  0  0  0  0  0  0  0  0  0  0  0
    2.1410   -1.0296    0.0000 C   0  0  0  0  0  0  0  0  0  0  0  0
    1.4234   -1.4425    0.0000 O   0  0  0  0  0  0  0  0  0  0  0  0
  1  2  1  0  0  0  0
  2  3  1  0  0  0  0
  3  4  2  0  0  0  0
  4  5  1  0  0  0  0
  5  6  2  0  0  0  0
  6  7  1  0  0  0  0
  7  2  2  0  0  0  0
  7  8  1  0  0  0  0
  8  9  1  0  0  0  0
  8 10  1  0  0  0  0
 10 11  1  0  0  0  0
M  END