261
  Mrv0541 04071411322D          

 17 18  0  0  0  0            999 V2000
    0.7175    0.2691    0.0000 C   0  0  0  0  0  0  0  0  0  0  0  0
    0.0000    0.6796    0.0000 O   0  0  0  0  0  0  0  0  0  0  0  0
    1.4247    0.6865    0.0000 C   0  0  0  0  0  0  0  0  0  0  0  0
    0.7175   -0.5555    0.0000 C   0  0  0  0  0  0  0  0  0  0  0  0
   -0.7141    0.2622    0.0000 C   0  0  0  0  0  0  0  0  0  0  0  0
    2.1388    0.2794    0.0000 C   0  0  0  0  0  0  0  0  0  0  0  0
    1.4178    1.5110    0.0000 O   0  0  0  0  0  0  0  0  0  0  0  0
    1.4317   -0.9625    0.0000 C   0  0  0  0  0  0  0  0  0  0  0  0
   -1.4282    0.6727    0.0000 C   0  0  0  0  0  0  0  0  0  0  0  0
   -0.7106   -0.5693    0.0000 C   0  0  0  0  0  0  0  0  0  0  0  0
    2.1457   -0.5485    0.0000 C   0  0  0  0  0  0  0  0  0  0  0  0
   -2.1424    0.2587    0.0000 C   0  0  0  0  0  0  0  0  0  0  0  0
   -1.4317    1.4973    0.0000 Cl  0  0  0  0  0  0  0  0  0  0  0  0
   -1.4282   -0.9797    0.0000 C   0  0  0  0  0  0  0  0  0  0  0  0
    2.8633   -0.9590    0.0000 Cl  0  0  0  0  0  0  0  0  0  0  0  0
   -2.1424   -0.5693    0.0000 C   0  0  0  0  0  0  0  0  0  0  0  0
   -2.8565   -0.9797    0.0000 Cl  0  0  0  0  0  0  0  0  0  0  0  0
  1  2  1  0  0  0  0
  1  3  1  0  0  0  0
  1  4  2  0  0  0  0
  2  5  1  0  0  0  0
  3  6  2  0  0  0  0
  3  7  1  0  0  0  0
  4  8  1  0  0  0  0
  5  9  2  0  0  0  0
  5 10  1  0  0  0  0
  6 11  1  0  0  0  0
  9 12  1  0  0  0  0
  9 13  1  0  0  0  0
 10 14  2  0  0  0  0
 11 15  1  0  0  0  0
 12 16  2  0  0  0  0
 16 17  1  0  0  0  0
  8 11  2  0  0  0  0
 14 16  1  0  0  0  0
M  END