264
  Mrv0541 04071411322D          

 15 14  0  0  0  0            999 V2000
    0.0028   -0.2172    0.0000 C   0  0  0  0  0  0  0  0  0  0  0  0
   -0.7137    0.1890    0.0000 C   0  0  0  0  0  0  0  0  0  0  0  0
    0.7110    0.1890    0.0000 C   0  0  0  0  0  0  0  0  0  0  0  0
   -1.4360   -0.2172    0.0000 C   0  0  0  0  0  0  0  0  0  0  0  0
    1.4360   -0.2172    0.0000 C   0  0  0  0  0  0  0  0  0  0  0  0
   -2.1442    0.1890    0.0000 C   0  0  0  0  0  0  0  0  0  0  0  0
    2.1442    0.1890    0.0000 C   0  0  0  0  0  0  0  0  0  0  0  0
   -2.8663   -0.2172    0.0000 C   0  0  0  0  0  0  0  0  0  0  0  0
    2.8663   -0.2172    0.0000 C   0  0  0  0  0  0  0  0  0  0  0  0
   -3.5829    0.1890    0.0000 C   0  0  0  0  0  0  0  0  0  0  0  0
    3.5858    0.1890    0.0000 C   0  0  0  0  0  0  0  0  0  0  0  0
   -4.3081   -0.2172    0.0000 C   0  0  0  0  0  0  0  0  0  0  0  0
    4.3024   -0.2172    0.0000 C   0  0  0  0  0  0  0  0  0  0  0  0
   -5.0190    0.1890    0.0000 C   0  0  0  0  0  0  0  0  0  0  0  0
    5.0247    0.1890    0.0000 C   0  0  0  0  0  0  0  0  0  0  0  0
  1  2  1  0  0  0  0
  1  3  1  0  0  0  0
  2  4  1  0  0  0  0
  3  5  1  0  0  0  0
  4  6  1  0  0  0  0
  5  7  1  0  0  0  0
  6  8  1  0  0  0  0
  7  9  1  0  0  0  0
  8 10  1  0  0  0  0
  9 11  1  0  0  0  0
 10 12  1  0  0  0  0
 11 13  1  0  0  0  0
 12 14  1  0  0  0  0
 13 15  1  0  0  0  0
M  END