265
  Mrv0541 04071411322D          

 16 15  0  0  0  0            999 V2000
   -1.0149   -0.6754    0.0000 C   0  0  0  0  0  0  0  0  0  0  0  0
   -0.5955    0.0427    0.0000 C   0  0  0  0  0  0  0  0  0  0  0  0
   -1.8343   -0.6754    0.0000 C   0  0  0  0  0  0  0  0  0  0  0  0
   -0.1760    0.7572    0.0000 C   0  0  0  0  0  0  0  0  0  0  0  0
    0.1191   -0.3768    0.0000 C   0  0  0  0  0  0  0  0  0  0  0  0
   -1.3100    0.4551    0.0000 C   0  0  0  0  0  0  0  0  0  0  0  0
   -1.8504   -1.5001    0.0000 C   0  0  0  0  0  0  0  0  0  0  0  0
   -2.6697   -0.6754    0.0000 C   0  0  0  0  0  0  0  0  0  0  0  0
   -1.8343    0.1387    0.0000 C   0  0  0  0  0  0  0  0  0  0  0  0
    0.6400    0.7572    0.0000 C   0  0  0  0  0  0  0  0  0  0  0  0
    1.0362    0.0533    0.0000 C   0  0  0  0  0  0  0  0  0  0  0  0
    1.0522    1.4788    0.0000 C   0  0  0  0  0  0  0  0  0  0  0  0
    1.8965    0.0533    0.0000 C   0  0  0  0  0  0  0  0  0  0  0  0
    1.8965   -0.7661    0.0000 C   0  0  0  0  0  0  0  0  0  0  0  0
    1.8965    0.8709    0.0000 C   0  0  0  0  0  0  0  0  0  0  0  0
    2.7479    0.0587    0.0000 C   0  0  0  0  0  0  0  0  0  0  0  0
  1  2  1  0  0  0  0
  1  3  1  0  0  0  0
  2  4  1  0  0  0  0
  2  5  1  0  0  0  0
  2  6  1  0  0  0  0
  3  7  1  0  0  0  0
  3  8  1  0  0  0  0
  3  9  1  0  0  0  0
  4 10  1  0  0  0  0
 10 11  1  0  0  0  0
 10 12  1  0  0  0  0
 11 13  1  0  0  0  0
 13 14  1  0  0  0  0
 13 15  1  0  0  0  0
 13 16  1  0  0  0  0
M  END