267
  Mrv0541 04071411322D          

 18 18  0  0  0  0            999 V2000
    0.0042    1.6561    0.0000 C   0  0  0  0  0  0  0  0  0  0  0  0
    0.0042    0.8312    0.0000 C   0  0  0  0  0  0  0  0  0  0  0  0
    0.7050    2.0706    0.0000 C   0  0  0  0  0  0  0  0  0  0  0  0
   -0.7070    2.0602    0.0000 C   0  0  0  0  0  0  0  0  0  0  0  0
    0.0063    2.6851    0.0000 C   0  0  0  0  0  0  0  0  0  0  0  0
   -0.7112    0.4230    0.0000 C   0  0  0  0  0  0  0  0  0  0  0  0
    0.7154    0.4230    0.0000 C   0  0  0  0  0  0  0  0  0  0  0  0
   -0.7112   -0.4082    0.0000 C   0  0  0  0  0  0  0  0  0  0  0  0
    0.7154   -0.4082    0.0000 C   0  0  0  0  0  0  0  0  0  0  0  0
   -1.4309   -0.8228    0.0000 C   0  0  0  0  0  0  0  0  0  0  0  0
    0.0042   -0.8228    0.0000 C   0  0  0  0  0  0  0  0  0  0  0  0
    1.4288   -0.8228    0.0000 C   0  0  0  0  0  0  0  0  0  0  0  0
   -2.1527   -0.4271    0.0000 C   0  0  0  0  0  0  0  0  0  0  0  0
   -1.4309   -1.6476    0.0000 C   0  0  0  0  0  0  0  0  0  0  0  0
   -2.2053   -1.3341    0.0000 C   0  0  0  0  0  0  0  0  0  0  0  0
    1.4288   -1.6708    0.0000 C   0  0  0  0  0  0  0  0  0  0  0  0
    2.1400   -0.4187    0.0000 C   0  0  0  0  0  0  0  0  0  0  0  0
    2.2011   -1.3572    0.0000 C   0  0  0  0  0  0  0  0  0  0  0  0
  1  2  1  0  0  0  0
  1  3  1  0  0  0  0
  1  4  1  0  0  0  0
  1  5  1  0  0  0  0
  2  6  2  0  0  0  0
  2  7  1  0  0  0  0
  6  8  1  0  0  0  0
  7  9  2  0  0  0  0
  8 10  1  0  0  0  0
  8 11  2  0  0  0  0
  9 12  1  0  0  0  0
 10 13  1  0  0  0  0
 10 14  1  0  0  0  0
 10 15  1  0  0  0  0
 12 16  1  0  0  0  0
 12 17  1  0  0  0  0
 12 18  1  0  0  0  0
  9 11  1  0  0  0  0
M  END