270
  Mrv0541 04071411322D          

 22 23  0  0  0  0            999 V2000
   -0.4137    0.0000    0.0000 C   0  0  0  0  0  0  0  0  0  0  0  0
    0.4219    0.0000    0.0000 C   0  0  0  0  0  0  0  0  0  0  0  0
   -0.8356    0.7118    0.0000 C   0  0  0  0  0  0  0  0  0  0  0  0
   -0.8242   -0.7118    0.0000 C   0  0  0  0  0  0  0  0  0  0  0  0
    0.8291    0.7118    0.0000 C   0  0  0  0  0  0  0  0  0  0  0  0
    0.8291   -0.7118    0.0000 C   0  0  0  0  0  0  0  0  0  0  0  0
   -1.6598    0.7118    0.0000 C   0  0  0  0  0  0  0  0  0  0  0  0
   -0.4235    1.4481    0.0000 Br  0  0  0  0  0  0  0  0  0  0  0  0
   -1.6598   -0.7118    0.0000 C   0  0  0  0  0  0  0  0  0  0  0  0
   -0.4137   -1.4481    0.0000 Br  0  0  0  0  0  0  0  0  0  0  0  0
    1.6549    0.7118    0.0000 C   0  0  0  0  0  0  0  0  0  0  0  0
    0.4316    1.4481    0.0000 Br  0  0  0  0  0  0  0  0  0  0  0  0
    1.6549   -0.7118    0.0000 C   0  0  0  0  0  0  0  0  0  0  0  0
    0.4088   -1.4481    0.0000 Br  0  0  0  0  0  0  0  0  0  0  0  0
   -2.0768    0.0000    0.0000 C   0  0  0  0  0  0  0  0  0  0  0  0
   -2.0768    1.4481    0.0000 Br  0  0  0  0  0  0  0  0  0  0  0  0
   -2.0882   -1.4481    0.0000 Br  0  0  0  0  0  0  0  0  0  0  0  0
    2.0687    0.0000    0.0000 C   0  0  0  0  0  0  0  0  0  0  0  0
    2.0817    1.4481    0.0000 Br  0  0  0  0  0  0  0  0  0  0  0  0
    2.0817   -1.4481    0.0000 Br  0  0  0  0  0  0  0  0  0  0  0  0
   -2.8945    0.0000    0.0000 Br  0  0  0  0  0  0  0  0  0  0  0  0
    2.9043    0.0000    0.0000 Br  0  0  0  0  0  0  0  0  0  0  0  0
  1  2  1  0  0  0  0
  1  3  1  0  0  0  0
  1  4  2  0  0  0  0
  2  5  1  0  0  0  0
  2  6  2  0  0  0  0
  3  7  2  0  0  0  0
  3  8  1  0  0  0  0
  4  9  1  0  0  0  0
  4 10  1  0  0  0  0
  5 11  2  0  0  0  0
  5 12  1  0  0  0  0
  6 13  1  0  0  0  0
  6 14  1  0  0  0  0
  7 15  1  0  0  0  0
  7 16  1  0  0  0  0
  9 17  1  0  0  0  0
 11 18  1  0  0  0  0
 11 19  1  0  0  0  0
 13 20  1  0  0  0  0
 15 21  1  0  0  0  0
 18 22  1  0  0  0  0
  9 15  2  0  0  0  0
 13 18  2  0  0  0  0
M  END