275
  Mrv0541 04071411322D          

  7  6  0  0  0  0            999 V2000
    0.0018    0.0018    0.0000 N   0  0  0  0  0  0  0  0  0  0  0  0
    0.7769    0.2862    0.0000 C   0  0  0  0  0  0  0  0  0  0  0  0
   -0.6356    0.5224    0.0000 C   0  0  0  0  0  0  0  0  0  0  0  0
   -0.1394   -0.8122    0.0000 C   0  0  0  0  0  0  0  0  0  0  0  0
    1.4032   -0.2454    0.0000 C   0  0  0  0  0  0  0  0  0  0  0  0
   -0.4944    1.3437    0.0000 C   0  0  0  0  0  0  0  0  0  0  0  0
   -0.9145   -1.0947    0.0000 C   0  0  0  0  0  0  0  0  0  0  0  0
  1  2  1  0  0  0  0
  1  3  1  0  0  0  0
  1  4  1  0  0  0  0
  2  5  1  0  0  0  0
  3  6  1  0  0  0  0
  4  7  1  0  0  0  0
M  END