278
  Mrv0541 04071411322D          

  6  5  0  0  0  0            999 V2000
   -0.0275   -0.4405    0.0000 C   0  0  0  0  0  0  0  0  0  0  0  0
   -0.0275    0.3784    0.0000 N   0  3  0  0  0  0  0  0  0  0  0  0
   -0.7398   -0.8567    0.0000 C   0  0  0  0  0  0  0  0  0  0  0  0
    0.6813   -0.8567    0.0000 C   0  0  0  0  0  0  0  0  0  0  0  0
   -0.7398    0.7949    0.0000 O   0  0  0  0  0  0  0  0  0  0  0  0
    0.8533    0.9771    0.0000 O   0  5  0  0  0  0  0  0  0  0  0  0
  1  2  1  0  0  0  0
  1  3  1  0  0  0  0
  1  4  1  0  0  0  0
  2  5  2  0  0  0  0
  2  6  1  0  0  0  0
M  CHG  2   2   1   6  -1
M  END