280
  Mrv0541 04071411322D          

 10  9  0  0  0  0            999 V2000
    0.0037   -0.0018    0.0000 N   0  0  0  0  0  0  0  0  0  0  0  0
    0.7832    0.2935    0.0000 C   0  0  0  0  0  0  0  0  0  0  0  0
   -0.6355    0.5309    0.0000 C   0  0  0  0  0  0  0  0  0  0  0  0
   -0.1383   -0.8149    0.0000 C   0  0  0  0  0  0  0  0  0  0  0  0
    1.4131   -0.2392    0.0000 C   0  0  0  0  0  0  0  0  0  0  0  0
   -0.4972    1.3439    0.0000 C   0  0  0  0  0  0  0  0  0  0  0  0
   -0.9178   -1.1066    0.0000 C   0  0  0  0  0  0  0  0  0  0  0  0
    2.1833    0.0430    0.0000 O   0  0  0  0  0  0  0  0  0  0  0  0
   -1.1346    1.8655    0.0000 O   0  0  0  0  0  0  0  0  0  0  0  0
   -1.0599   -1.9197    0.0000 O   0  0  0  0  0  0  0  0  0  0  0  0
  1  2  1  0  0  0  0
  1  3  1  0  0  0  0
  1  4  1  0  0  0  0
  2  5  1  0  0  0  0
  3  6  1  0  0  0  0
  4  7  1  0  0  0  0
  5  8  1  0  0  0  0
  6  9  1  0  0  0  0
  7 10  1  0  0  0  0
M  END