285
  Mrv0541 04071411322D          

  6  5  0  0  0  0            999 V2000
    0.1205    0.4785    0.0000 N   0  0  0  0  0  0  0  0  0  0  0  0
   -0.5956    0.0689    0.0000 C   0  0  0  0  0  0  0  0  0  0  0  0
    0.8331    0.0689    0.0000 C   0  0  0  0  0  0  0  0  0  0  0  0
   -1.3151    0.4821    0.0000 N   0  0  0  0  0  0  0  0  0  0  0  0
   -0.5956   -0.7540    0.0000 N   0  0  0  0  0  0  0  0  0  0  0  0
    1.5527   -0.3442    0.0000 N   0  0  0  0  0  0  0  0  0  0  0  0
  1  2  1  0  0  0  0
  1  3  1  0  0  0  0
  2  4  1  0  0  0  0
  2  5  2  0  0  0  0
  3  6  3  0  0  0  0
M  END