292
  Mrv0541 04071411322D          

  9  9  0  0  0  0            999 V2000
    0.5513   -0.3259    0.0000 C   0  0  0  0  0  0  0  0  0  0  0  0
   -0.1602   -0.7319    0.0000 C   0  0  0  0  0  0  0  0  0  0  0  0
    0.5513    0.5103    0.0000 C   0  0  0  0  0  0  0  0  0  0  0  0
    1.2795   -0.7468    0.0000 C   0  0  0  0  0  0  0  0  0  0  0  0
   -0.8734   -0.3148    0.0000 C   0  0  0  0  0  0  0  0  0  0  0  0
   -0.1602   -1.5569    0.0000 C   0  0  0  0  0  0  0  0  0  0  0  0
   -0.1602    0.9163    0.0000 C   0  0  0  0  0  0  0  0  0  0  0  0
   -0.8734    0.5103    0.0000 C   0  0  0  0  0  0  0  0  0  0  0  0
   -0.1602    1.7376    0.0000 N   0  0  0  0  0  0  0  0  0  0  0  0
  1  2  2  0  0  0  0
  1  3  1  0  0  0  0
  1  4  1  0  0  0  0
  2  5  1  0  0  0  0
  2  6  1  0  0  0  0
  3  7  2  0  0  0  0
  5  8  2  0  0  0  0
  7  9  1  0  0  0  0
  7  8  1  0  0  0  0
M  END