302
  Mrv0541 04071411322D          

  9  9  0  0  0  0            999 V2000
    2.5039   -0.6505    0.0000 C   0  0  0  0  0  0  0  0  0  0  0  0
    2.9192    0.0585    0.0000 C   0  0  0  0  0  0  0  0  0  0  0  0
    1.6789   -0.6505    0.0000 C   0  0  0  0  0  0  0  0  0  0  0  0
    2.5039    0.7805    0.0000 C   0  0  0  0  0  0  0  0  0  0  0  0
    1.2636    0.0585    0.0000 C   0  0  0  0  0  0  0  0  0  0  0  0
    1.6789    0.7805    0.0000 C   0  0  0  0  0  0  0  0  0  0  0  0
    0.4312    0.0641    0.0000 N   0  0  0  0  0  0  0  0  0  0  0  0
    1.2687   -1.3663    0.0000 Cl  0  0  0  0  0  0  0  0  0  0  0  0
    2.9210    1.5016    0.0000 Cl  0  0  0  0  0  0  0  0  0  0  0  0
  1  3  1  0  0  0  0
  2  4  1  0  0  0  0
  3  5  2  0  0  0  0
  4  6  2  0  0  0  0
  5  7  1  0  0  0  0
  5  6  1  0  0  0  0
  3  8  1  0  0  0  0
  1  2  2  0  0  0  0
  4  9  1  0  0  0  0
M  END