305
  Mrv0541 04071411322D          

 10 10  0  0  0  0            999 V2000
   -0.0055    0.6635    0.0000 C   0  0  0  0  0  0  0  0  0  0  0  0
   -0.7154    0.2447    0.0000 C   0  0  0  0  0  0  0  0  0  0  0  0
    0.7136    0.2577    0.0000 C   0  0  0  0  0  0  0  0  0  0  0  0
   -0.0055    1.4809    0.0000 N   0  0  0  0  0  0  0  0  0  0  0  0
   -0.7154   -0.5931    0.0000 C   0  0  0  0  0  0  0  0  0  0  0  0
   -1.4364    0.6543    0.0000 Cl  0  0  0  0  0  0  0  0  0  0  0  0
    0.7136   -0.5820    0.0000 C   0  0  0  0  0  0  0  0  0  0  0  0
    1.4346    0.6747    0.0000 Cl  0  0  0  0  0  0  0  0  0  0  0  0
    0.0037   -0.9916    0.0000 C   0  0  0  0  0  0  0  0  0  0  0  0
    0.0148   -1.8089    0.0000 Cl  0  0  0  0  0  0  0  0  0  0  0  0
  1  2  2  0  0  0  0
  1  3  1  0  0  0  0
  1  4  1  0  0  0  0
  2  5  1  0  0  0  0
  2  6  1  0  0  0  0
  3  7  2  0  0  0  0
  3  8  1  0  0  0  0
  5  9  2  0  0  0  0
  9 10  1  0  0  0  0
  7  9  1  0  0  0  0
M  END