309
  Mrv0541 04071411322D          

 10 10  0  0  0  0            999 V2000
    0.2144   -0.2841    0.0000 C   0  0  0  0  0  0  0  0  0  0  0  0
    0.2144    0.5462    0.0000 C   0  0  0  0  0  0  0  0  0  0  0  0
   -0.5022   -0.6965    0.0000 C   0  0  0  0  0  0  0  0  0  0  0  0
    0.9237   -0.7094    0.0000 N   0  3  0  0  0  0  0  0  0  0  0  0
   -0.5022    0.9513    0.0000 C   0  0  0  0  0  0  0  0  0  0  0  0
   -1.2134   -0.2841    0.0000 C   0  0  0  0  0  0  0  0  0  0  0  0
    0.9237   -1.5267    0.0000 O   0  0  0  0  0  0  0  0  0  0  0  0
    1.6496   -0.3042    0.0000 O   0  5  0  0  0  0  0  0  0  0  0  0
   -1.2207    0.5333    0.0000 C   0  0  0  0  0  0  0  0  0  0  0  0
   -0.4875    1.7687    0.0000 N   0  0  0  0  0  0  0  0  0  0  0  0
  1  2  1  0  0  0  0
  1  3  2  0  0  0  0
  1  4  1  0  0  0  0
  2  5  2  0  0  0  0
  3  6  1  0  0  0  0
  4  7  2  0  0  0  0
  4  8  1  0  0  0  0
  5  9  1  0  0  0  0
  5 10  1  0  0  0  0
  6  9  2  0  0  0  0
M  CHG  2   4   1   8  -1
M  END