310
  Mrv0541 04071411322D          

 10 10  0  0  0  0            999 V2000
    0.0000   -0.4109    0.0000 C   0  0  0  0  0  0  0  0  0  0  0  0
    0.0000   -1.2363    0.0000 N   0  3  0  0  0  0  0  0  0  0  0  0
   -0.7144    0.0018    0.0000 C   0  0  0  0  0  0  0  0  0  0  0  0
    0.7144    0.0018    0.0000 C   0  0  0  0  0  0  0  0  0  0  0  0
    0.7144   -1.6546    0.0000 O   0  0  0  0  0  0  0  0  0  0  0  0
   -0.7144   -1.6546    0.0000 O   0  5  0  0  0  0  0  0  0  0  0  0
   -0.7144    0.8236    0.0000 C   0  0  0  0  0  0  0  0  0  0  0  0
    0.7144    0.8236    0.0000 C   0  0  0  0  0  0  0  0  0  0  0  0
    0.0000    1.2363    0.0000 C   0  0  0  0  0  0  0  0  0  0  0  0
    0.0000    2.0692    0.0000 N   0  0  0  0  0  0  0  0  0  0  0  0
  1  2  1  0  0  0  0
  1  3  2  0  0  0  0
  1  4  1  0  0  0  0
  2  5  2  0  0  0  0
  2  6  1  0  0  0  0
  3  7  1  0  0  0  0
  4  8  2  0  0  0  0
  7  9  2  0  0  0  0
  9 10  1  0  0  0  0
  8  9  1  0  0  0  0
M  CHG  2   2   1   6  -1
M  END