311
  Mrv0541 04071411322D          

 11 11  0  0  0  0            999 V2000
   -0.2556   -0.1589    0.0000 C   0  0  0  0  0  0  0  0  0  0  0  0
   -0.2797    0.6665    0.0000 C   0  0  0  0  0  0  0  0  0  0  0  0
    0.4697   -0.5422    0.0000 C   0  0  0  0  0  0  0  0  0  0  0  0
   -0.9567   -0.5975    0.0000 N   0  3  0  0  0  0  0  0  0  0  0  0
    0.4178    1.1051    0.0000 C   0  0  0  0  0  0  0  0  0  0  0  0
   -1.0187    1.0568    0.0000 N   0  0  0  0  0  0  0  0  0  0  0  0
    1.1708   -0.1104    0.0000 C   0  0  0  0  0  0  0  0  0  0  0  0
   -0.9221   -1.4228    0.0000 O   0  0  0  0  0  0  0  0  0  0  0  0
   -1.6853   -0.2175    0.0000 O   0  5  0  0  0  0  0  0  0  0  0  0
    1.1465    0.7183    0.0000 C   0  0  0  0  0  0  0  0  0  0  0  0
    1.9098   -0.4973    0.0000 Cl  0  0  0  0  0  0  0  0  0  0  0  0
  1  2  2  0  0  0  0
  1  3  1  0  0  0  0
  1  4  1  0  0  0  0
  2  5  1  0  0  0  0
  2  6  1  0  0  0  0
  3  7  2  0  0  0  0
  4  8  2  0  0  0  0
  4  9  1  0  0  0  0
  5 10  2  0  0  0  0
  7 11  1  0  0  0  0
  7 10  1  0  0  0  0
M  CHG  2   4   1   9  -1
M  END