317
  Mrv0541 04071411322D          

 10 10  0  0  0  0            999 V2000
    0.2097   -0.0422    0.0000 C   0  0  0  0  0  0  0  0  0  0  0  0
   -0.5025    0.3759    0.0000 C   0  0  0  0  0  0  0  0  0  0  0  0
    0.2047   -0.8660    0.0000 C   0  0  0  0  0  0  0  0  0  0  0  0
    0.9367    0.3896    0.0000 N   0  3  0  0  0  0  0  0  0  0  0  0
   -1.2170   -0.0496    0.0000 C   0  0  0  0  0  0  0  0  0  0  0  0
   -0.5025    1.1947    0.0000 Cl  0  0  0  0  0  0  0  0  0  0  0  0
   -0.4975   -1.2791    0.0000 C   0  0  0  0  0  0  0  0  0  0  0  0
    0.9379    1.1848    0.0000 O   0  0  0  0  0  0  0  0  0  0  0  0
    1.6488   -0.0286    0.0000 O   0  5  0  0  0  0  0  0  0  0  0  0
   -1.2170   -0.8771    0.0000 C   0  0  0  0  0  0  0  0  0  0  0  0
  1  2  2  0  0  0  0
  1  3  1  0  0  0  0
  1  4  1  0  0  0  0
  2  5  1  0  0  0  0
  2  6  1  0  0  0  0
  3  7  2  0  0  0  0
  4  8  2  0  0  0  0
  4  9  1  0  0  0  0
  5 10  2  0  0  0  0
  7 10  1  0  0  0  0
M  CHG  2   4   1   9  -1
M  END