319
  Mrv0541 04071411322D          

 13 13  0  0  0  0            999 V2000
    0.2682   -0.3817    0.0000 C   0  0  0  0  0  0  0  0  0  0  0  0
   -0.1169    0.3301    0.0000 C   0  0  0  0  0  0  0  0  0  0  0  0
   -0.1479   -1.0936    0.0000 C   0  0  0  0  0  0  0  0  0  0  0  0
    1.1005   -0.4058    0.0000 N   0  3  0  0  0  0  0  0  0  0  0  0
   -0.9389    0.3439    0.0000 C   0  0  0  0  0  0  0  0  0  0  0  0
    0.3061    1.0282    0.0000 N   0  3  0  0  0  0  0  0  0  0  0  0
   -0.9766   -1.0764    0.0000 C   0  0  0  0  0  0  0  0  0  0  0  0
    1.4890   -1.1383    0.0000 O   0  0  0  0  0  0  0  0  0  0  0  0
    1.5372    0.2958    0.0000 O   0  5  0  0  0  0  0  0  0  0  0  0
   -1.3755   -0.3439    0.0000 C   0  0  0  0  0  0  0  0  0  0  0  0
   -0.0791    1.7608    0.0000 O   0  0  0  0  0  0  0  0  0  0  0  0
    1.1383    1.0144    0.0000 O   0  5  0  0  0  0  0  0  0  0  0  0
   -2.2009   -0.3336    0.0000 C   0  0  0  0  0  0  0  0  0  0  0  0
  1  2  1  0  0  0  0
  1  3  2  0  0  0  0
  1  4  1  0  0  0  0
  2  5  2  0  0  0  0
  2  6  1  0  0  0  0
  3  7  1  0  0  0  0
  4  8  2  0  0  0  0
  4  9  1  0  0  0  0
  5 10  1  0  0  0  0
  6 11  2  0  0  0  0
  6 12  1  0  0  0  0
 10 13  1  0  0  0  0
  7 10  2  0  0  0  0
M  CHG  4   4   1   6   1   9  -1  12  -1
M  END