320
  Mrv0541 04071411322D          

 11 11  0  0  0  0            999 V2000
   -0.5293    0.1249    0.0000 C   0  0  0  0  0  0  0  0  0  0  0  0
   -0.1099   -0.5833    0.0000 C   0  0  0  0  0  0  0  0  0  0  0  0
   -0.1099    0.8555    0.0000 C   0  0  0  0  0  0  0  0  0  0  0  0
   -1.3606    0.1249    0.0000 N   0  3  0  0  0  0  0  0  0  0  0  0
    0.7138   -0.5833    0.0000 C   0  0  0  0  0  0  0  0  0  0  0  0
    0.7138    0.8555    0.0000 C   0  0  0  0  0  0  0  0  0  0  0  0
   -1.7818    0.8499    0.0000 O   0  0  0  0  0  0  0  0  0  0  0  0
   -1.7743   -0.5890    0.0000 O   0  5  0  0  0  0  0  0  0  0  0  0
    1.1369    0.1249    0.0000 C   0  0  0  0  0  0  0  0  0  0  0  0
    1.1332   -1.3065    0.0000 Cl  0  0  0  0  0  0  0  0  0  0  0  0
    1.9700    0.1249    0.0000 Cl  0  0  0  0  0  0  0  0  0  0  0  0
  1  2  2  0  0  0  0
  1  3  1  0  0  0  0
  1  4  1  0  0  0  0
  2  5  1  0  0  0  0
  3  6  2  0  0  0  0
  4  7  2  0  0  0  0
  4  8  1  0  0  0  0
  5  9  2  0  0  0  0
  5 10  1  0  0  0  0
  9 11  1  0  0  0  0
  6  9  1  0  0  0  0
M  CHG  2   4   1   8  -1
M  END