321
  Mrv0541 04071411322D          

 16 17  0  0  0  0            999 V2000
    1.4328   -0.3055    0.0000 C   0  0  0  0  0  0  0  0  0  0  0  0
    0.7145   -0.7201    0.0000 N   0  0  0  0  0  0  0  0  0  0  0  0
    2.1491   -0.7201    0.0000 C   0  0  0  0  0  0  0  0  0  0  0  0
    1.4254    0.5128    0.0000 C   0  0  0  0  0  0  0  0  0  0  0  0
    0.0018   -0.3055    0.0000 C   0  0  0  0  0  0  0  0  0  0  0  0
    2.8655   -0.3055    0.0000 C   0  0  0  0  0  0  0  0  0  0  0  0
    2.1491    0.9218    0.0000 C   0  0  0  0  0  0  0  0  0  0  0  0
   -0.7145   -0.7201    0.0000 N   0  0  0  0  0  0  0  0  0  0  0  0
    0.0018    0.5128    0.0000 N   0  0  0  0  0  0  0  0  0  0  0  0
    2.8655    0.5128    0.0000 C   0  0  0  0  0  0  0  0  0  0  0  0
   -1.4328   -0.3055    0.0000 C   0  0  0  0  0  0  0  0  0  0  0  0
   -1.4291    0.5128    0.0000 C   0  0  0  0  0  0  0  0  0  0  0  0
   -2.1455   -0.7201    0.0000 C   0  0  0  0  0  0  0  0  0  0  0  0
   -2.1455    0.9218    0.0000 C   0  0  0  0  0  0  0  0  0  0  0  0
   -2.8693   -0.3055    0.0000 C   0  0  0  0  0  0  0  0  0  0  0  0
   -2.8693    0.5128    0.0000 C   0  0  0  0  0  0  0  0  0  0  0  0
  1  2  1  0  0  0  0
  1  3  2  0  0  0  0
  1  4  1  0  0  0  0
  2  5  1  0  0  0  0
  3  6  1  0  0  0  0
  4  7  2  0  0  0  0
  5  8  1  0  0  0  0
  5  9  2  0  0  0  0
  6 10  2  0  0  0  0
  8 11  1  0  0  0  0
 11 12  2  0  0  0  0
 11 13  1  0  0  0  0
 12 14  1  0  0  0  0
 13 15  2  0  0  0  0
 14 16  2  0  0  0  0
  7 10  1  0  0  0  0
 15 16  1  0  0  0  0
M  END