322
  Mrv0541 04071411322D          

 10 10  0  0  0  0            999 V2000
    0.5736    0.0785    0.0000 C   0  0  0  0  0  0  0  0  0  0  0  0
   -0.1370    0.4932    0.0000 C   0  0  0  0  0  0  0  0  0  0  0  0
    0.5736   -0.7507    0.0000 C   0  0  0  0  0  0  0  0  0  0  0  0
    1.2823    0.5023    0.0000 O   0  0  0  0  0  0  0  0  0  0  0  0
   -0.8640    0.0840    0.0000 C   0  0  0  0  0  0  0  0  0  0  0  0
   -0.1370    1.3079    0.0000 N   0  0  0  0  0  0  0  0  0  0  0  0
   -0.1370   -1.1490    0.0000 C   0  0  0  0  0  0  0  0  0  0  0  0
    1.2823    1.3152    0.0000 C   0  0  0  0  0  0  0  0  0  0  0  0
   -0.8567   -0.7398    0.0000 C   0  0  0  0  0  0  0  0  0  0  0  0
   -1.5782   -1.1398    0.0000 C   0  0  0  0  0  0  0  0  0  0  0  0
  1  2  1  0  0  0  0
  1  3  2  0  0  0  0
  1  4  1  0  0  0  0
  2  5  2  0  0  0  0
  2  6  1  0  0  0  0
  3  7  1  0  0  0  0
  4  8  1  0  0  0  0
  5  9  1  0  0  0  0
  9 10  1  0  0  0  0
  7  9  2  0  0  0  0
M  END