325
  Mrv0541 04071411322D          

 13 13  0  0  0  0            999 V2000
    0.5483    0.4448    0.0000 C   0  0  0  0  0  0  0  0  0  0  0  0
    0.5516   -0.3862    0.0000 C   0  0  0  0  0  0  0  0  0  0  0  0
   -0.1655    0.8551    0.0000 C   0  0  0  0  0  0  0  0  0  0  0  0
    1.2620    0.8586    0.0000 N   0  0  0  0  0  0  0  0  0  0  0  0
   -0.1621   -0.8000    0.0000 C   0  0  0  0  0  0  0  0  0  0  0  0
   -0.8758    0.4414    0.0000 C   0  0  0  0  0  0  0  0  0  0  0  0
    1.9722    0.4483    0.0000 C   0  0  0  0  0  0  0  0  0  0  0  0
   -0.8793   -0.3862    0.0000 C   0  0  0  0  0  0  0  0  0  0  0  0
    2.6861    0.8620    0.0000 C   0  0  0  0  0  0  0  0  0  0  0  0
    1.9758   -0.3759    0.0000 O   0  0  0  0  0  0  0  0  0  0  0  0
   -1.5930   -0.7930    0.0000 O   0  0  0  0  0  0  0  0  0  0  0  0
   -2.3033   -0.3792    0.0000 C   0  0  0  0  0  0  0  0  0  0  0  0
   -3.0170   -0.7897    0.0000 C   0  0  0  0  0  0  0  0  0  0  0  0
  1  2  1  0  0  0  0
  1  3  2  0  0  0  0
  1  4  1  0  0  0  0
  2  5  2  0  0  0  0
  3  6  1  0  0  0  0
  4  7  1  0  0  0  0
  5  8  1  0  0  0  0
  7  9  1  0  0  0  0
  7 10  2  0  0  0  0
  8 11  1  0  0  0  0
 11 12  1  0  0  0  0
 12 13  1  0  0  0  0
  6  8  2  0  0  0  0
M  END