326
  Mrv0541 04071411322D          

 10 10  0  0  0  0            999 V2000
    0.2168   -0.0445    0.0000 C   0  0  0  0  0  0  0  0  0  0  0  0
   -0.5023    0.3652    0.0000 C   0  0  0  0  0  0  0  0  0  0  0  0
    0.2168   -0.8712    0.0000 C   0  0  0  0  0  0  0  0  0  0  0  0
    0.9250    0.3855    0.0000 N   0  3  0  0  0  0  0  0  0  0  0  0
   -1.2122   -0.0519    0.0000 C   0  0  0  0  0  0  0  0  0  0  0  0
   -0.5023    1.1918    0.0000 O   0  0  0  0  0  0  0  0  0  0  0  0
   -0.4930   -1.2808    0.0000 C   0  0  0  0  0  0  0  0  0  0  0  0
    1.6366   -0.0186    0.0000 O   0  0  0  0  0  0  0  0  0  0  0  0
    0.9250    1.2067    0.0000 O   0  5  0  0  0  0  0  0  0  0  0  0
   -1.2122   -0.8823    0.0000 C   0  0  0  0  0  0  0  0  0  0  0  0
  1  2  2  0  0  0  0
  1  3  1  0  0  0  0
  1  4  1  0  0  0  0
  2  5  1  0  0  0  0
  2  6  1  0  0  0  0
  3  7  2  0  0  0  0
  4  8  2  0  0  0  0
  4  9  1  0  0  0  0
  5 10  2  0  0  0  0
  7 10  1  0  0  0  0
M  CHG  2   4   1   9  -1
M  END