329
  Mrv0541 04071411322D          

 11 11  0  0  0  0            999 V2000
    0.0668   -0.6391    0.0000 C   0  0  0  0  0  0  0  0  0  0  0  0
    0.7831   -0.2297    0.0000 C   0  0  0  0  0  0  0  0  0  0  0  0
   -0.6453   -0.2297    0.0000 C   0  0  0  0  0  0  0  0  0  0  0  0
    0.0668   -1.4639    0.0000 N   0  3  0  0  0  0  0  0  0  0  0  0
    0.7831    0.6056    0.0000 C   0  0  0  0  0  0  0  0  0  0  0  0
   -0.6453    0.6056    0.0000 C   0  0  0  0  0  0  0  0  0  0  0  0
    0.7706   -1.8775    0.0000 O   0  0  0  0  0  0  0  0  0  0  0  0
   -0.6600   -1.8879    0.0000 O   0  5  0  0  0  0  0  0  0  0  0  0
    0.0668    1.0192    0.0000 C   0  0  0  0  0  0  0  0  0  0  0  0
    0.0668    1.8441    0.0000 O   0  0  0  0  0  0  0  0  0  0  0  0
   -0.6453    2.2534    0.0000 C   0  0  0  0  0  0  0  0  0  0  0  0
  1  2  1  0  0  0  0
  1  3  2  0  0  0  0
  1  4  1  0  0  0  0
  2  5  2  0  0  0  0
  3  6  1  0  0  0  0
  4  7  2  0  0  0  0
  4  8  1  0  0  0  0
  5  9  1  0  0  0  0
  9 10  1  0  0  0  0
 10 11  1  0  0  0  0
  6  9  2  0  0  0  0
M  CHG  2   4   1   8  -1
M  END