332
  Mrv0541 04071411322D          

 11 11  0  0  0  0            999 V2000
   -0.1338   -0.3735    0.0000 C   0  0  0  0  0  0  0  0  0  0  0  0
    0.5835    0.0297    0.0000 C   0  0  0  0  0  0  0  0  0  0  0  0
   -0.8381    0.0409    0.0000 C   0  0  0  0  0  0  0  0  0  0  0  0
   -0.1338   -1.1855    0.0000 N   0  3  0  0  0  0  0  0  0  0  0  0
    0.5835    0.8566    0.0000 C   0  0  0  0  0  0  0  0  0  0  0  0
    1.3007   -0.3828    0.0000 C   0  0  0  0  0  0  0  0  0  0  0  0
   -0.8381    0.8659    0.0000 C   0  0  0  0  0  0  0  0  0  0  0  0
    0.5835   -1.6017    0.0000 O   0  0  0  0  0  0  0  0  0  0  0  0
   -0.8381   -1.6017    0.0000 O   0  5  0  0  0  0  0  0  0  0  0  0
   -0.1338    1.2691    0.0000 C   0  0  0  0  0  0  0  0  0  0  0  0
   -0.1338    2.0848    0.0000 O   0  0  0  0  0  0  0  0  0  0  0  0
  1  2  1  0  0  0  0
  1  3  2  0  0  0  0
  1  4  1  0  0  0  0
  2  5  2  0  0  0  0
  2  6  1  0  0  0  0
  3  7  1  0  0  0  0
  4  8  2  0  0  0  0
  4  9  1  0  0  0  0
  5 10  1  0  0  0  0
 10 11  1  0  0  0  0
  7 10  2  0  0  0  0
M  CHG  2   4   1   9  -1
M  END