333
  Mrv0541 04071411322D          

 13 13  0  0  0  0            999 V2000
    2.4178   -1.8962    0.0000 C   0  0  0  0  0  0  0  0  0  0  0  0
    3.1262   -1.4839    0.0000 C   0  0  0  0  0  0  0  0  0  0  0  0
    2.4174   -2.7209    0.0000 C   0  0  0  0  0  0  0  0  0  0  0  0
    1.6975   -1.4831    0.0000 N   0  3  0  0  0  0  0  0  0  0  0  0
    3.8410   -1.8958    0.0000 C   0  0  0  0  0  0  0  0  0  0  0  0
    3.1253   -3.1326    0.0000 C   0  0  0  0  0  0  0  0  0  0  0  0
    1.6967   -3.1429    0.0000 O   0  0  0  0  0  0  0  0  0  0  0  0
    1.6991   -0.6559    0.0000 O   0  0  0  0  0  0  0  0  0  0  0  0
    0.9852   -1.8920    0.0000 O   0  5  0  0  0  0  0  0  0  0  0  0
    3.8434   -2.7218    0.0000 C   0  0  0  0  0  0  0  0  0  0  0  0
    4.5617   -1.4876    0.0000 N   0  3  0  0  0  0  0  0  0  0  0  0
    4.5649   -0.6616    0.0000 O   0  0  0  0  0  0  0  0  0  0  0  0
    5.2697   -1.9022    0.0000 O   0  5  0  0  0  0  0  0  0  0  0  0
  1  2  1  0  0  0  0
  1  3  2  0  0  0  0
  1  4  1  0  0  0  0
  2  5  2  0  0  0  0
  3  6  1  0  0  0  0
  3  7  1  0  0  0  0
  4  8  2  0  0  0  0
  4  9  1  0  0  0  0
  5 10  1  0  0  0  0
  5 11  1  0  0  0  0
 11 12  2  0  0  0  0
 11 13  1  0  0  0  0
  6 10  2  0  0  0  0
M  CHG  4   4   1   9  -1  11   1  13  -1
M  END