337
  Mrv0541 04071411322D          

 10 10  0  0  0  0            999 V2000
    0.0018   -0.4117    0.0000 C   0  0  0  0  0  0  0  0  0  0  0  0
   -0.7157    0.0018    0.0000 C   0  0  0  0  0  0  0  0  0  0  0  0
    0.7157    0.0018    0.0000 C   0  0  0  0  0  0  0  0  0  0  0  0
   -0.7157    0.8252    0.0000 C   0  0  0  0  0  0  0  0  0  0  0  0
   -1.4353   -0.4117    0.0000 C   0  0  0  0  0  0  0  0  0  0  0  0
    0.7157    0.8252    0.0000 C   0  0  0  0  0  0  0  0  0  0  0  0
    1.4278   -0.4117    0.0000 C   0  0  0  0  0  0  0  0  0  0  0  0
    0.0018    1.2387    0.0000 C   0  0  0  0  0  0  0  0  0  0  0  0
   -2.1492   -0.8289    0.0000 N   0  0  0  0  0  0  0  0  0  0  0  0
    2.1528   -0.8289    0.0000 N   0  0  0  0  0  0  0  0  0  0  0  0
  1  2  2  0  0  0  0
  1  3  1  0  0  0  0
  2  4  1  0  0  0  0
  2  5  1  0  0  0  0
  3  6  2  0  0  0  0
  3  7  1  0  0  0  0
  4  8  2  0  0  0  0
  5  9  3  0  0  0  0
  7 10  3  0  0  0  0
  6  8  1  0  0  0  0
M  END