338
  Mrv0541 04071411322D          

 15 15  0  0  0  0            999 V2000
   -0.2969    0.5808    0.0000 C   0  0  0  0  0  0  0  0  0  0  0  0
   -0.2969   -0.2540    0.0000 C   0  0  0  0  0  0  0  0  0  0  0  0
    0.4109    1.0309    0.0000 N   0  0  0  0  0  0  0  0  0  0  0  0
   -0.9917    0.9842    0.0000 C   0  0  0  0  0  0  0  0  0  0  0  0
   -1.0122   -0.6650    0.0000 C   0  0  0  0  0  0  0  0  0  0  0  0
    1.1205    0.6257    0.0000 C   0  0  0  0  0  0  0  0  0  0  0  0
   -1.7219    0.5715    0.0000 C   0  0  0  0  0  0  0  0  0  0  0  0
   -1.7219   -0.2484    0.0000 C   0  0  0  0  0  0  0  0  0  0  0  0
   -1.0122   -1.5072    0.0000 Cl  0  0  0  0  0  0  0  0  0  0  0  0
    1.1149   -0.1942    0.0000 N   0  0  0  0  0  0  0  0  0  0  0  0
    1.8452    1.0850    0.0000 O   0  0  0  0  0  0  0  0  0  0  0  0
   -2.4671   -0.6612    0.0000 Cl  0  0  0  0  0  0  0  0  0  0  0  0
    1.9125   -0.5996    0.0000 O   0  0  0  0  0  0  0  0  0  0  0  0
    0.4893   -0.6201    0.0000 C   0  0  0  0  0  0  0  0  0  0  0  0
    2.6277   -0.1308    0.0000 C   0  0  0  0  0  0  0  0  0  0  0  0
  1  2  2  0  0  0  0
  1  3  1  0  0  0  0
  1  4  1  0  0  0  0
  2  5  1  0  0  0  0
  3  6  1  0  0  0  0
  4  7  2  0  0  0  0
  5  8  2  0  0  0  0
  5  9  1  0  0  0  0
  6 10  1  0  0  0  0
  6 11  2  0  0  0  0
  8 12  1  0  0  0  0
 10 13  1  0  0  0  0
 10 14  1  0  0  0  0
 13 15  1  0  0  0  0
  7  8  1  0  0  0  0
M  END