34
  Mrv0541 04071411322D          

 15 17  0  0  0  0            999 V2000
    0.5278    0.3481    0.0000 C   0  0  0  0  0  0  0  0  0  0  0  0
    0.5278   -0.4604    0.0000 C   0  0  0  0  0  0  0  0  0  0  0  0
   -0.1853    0.7720    0.0000 C   0  0  0  0  0  0  0  0  0  0  0  0
    1.2253    0.7720    0.0000 C   0  0  0  0  0  0  0  0  0  0  0  0
   -0.1853   -0.8730    0.0000 C   0  0  0  0  0  0  0  0  0  0  0  0
    1.2253   -0.8730    0.0000 C   0  0  0  0  0  0  0  0  0  0  0  0
   -0.8997    0.3481    0.0000 C   0  0  0  0  0  0  0  0  0  0  0  0
    1.9398    0.3481    0.0000 C   0  0  0  0  0  0  0  0  0  0  0  0
   -0.8997   -0.4604    0.0000 C   0  0  0  0  0  0  0  0  0  0  0  0
    1.9398   -0.4604    0.0000 C   0  0  0  0  0  0  0  0  0  0  0  0
   -1.6169    0.7594    0.0000 C   0  0  0  0  0  0  0  0  0  0  0  0
    2.6711    0.7594    0.0000 C   0  0  0  0  0  0  0  0  0  0  0  0
   -1.6169   -0.8730    0.0000 C   0  0  0  0  0  0  0  0  0  0  0  0
   -2.3258    0.3397    0.0000 C   0  0  0  0  0  0  0  0  0  0  0  0
   -2.3258   -0.4477    0.0000 C   0  0  0  0  0  0  0  0  0  0  0  0
  1  2  2  0  0  0  0
  1  3  1  0  0  0  0
  1  4  1  0  0  0  0
  2  5  1  0  0  0  0
  2  6  1  0  0  0  0
  3  7  2  0  0  0  0
  4  8  2  0  0  0  0
  5  9  2  0  0  0  0
  6 10  2  0  0  0  0
  7 11  1  0  0  0  0
  8 12  1  0  0  0  0
  9 13  1  0  0  0  0
 11 14  2  0  0  0  0
 13 15  2  0  0  0  0
  7  9  1  0  0  0  0
  8 10  1  0  0  0  0
 14 15  1  0  0  0  0
M  END