343
  Mrv0541 04071411322D          

 15 16  0  0  0  0            999 V2000
   -0.7127   -0.4597    0.0000 C   0  0  0  0  0  0  0  0  0  0  0  0
    0.0000   -0.8752    0.0000 C   0  0  0  0  0  0  0  0  0  0  0  0
   -1.4254   -0.8752    0.0000 C   0  0  0  0  0  0  0  0  0  0  0  0
   -0.7127    0.3526    0.0000 C   0  0  0  0  0  0  0  0  0  0  0  0
    0.7127   -0.4597    0.0000 C   0  0  0  0  0  0  0  0  0  0  0  0
   -2.1418   -0.4597    0.0000 C   0  0  0  0  0  0  0  0  0  0  0  0
   -1.4291    0.7644    0.0000 C   0  0  0  0  0  0  0  0  0  0  0  0
    1.4291   -0.8752    0.0000 C   0  0  0  0  0  0  0  0  0  0  0  0
    0.7127    0.3526    0.0000 C   0  0  0  0  0  0  0  0  0  0  0  0
   -2.1418    0.3526    0.0000 C   0  0  0  0  0  0  0  0  0  0  0  0
    2.1418   -0.4597    0.0000 C   0  0  0  0  0  0  0  0  0  0  0  0
    1.4291    0.7644    0.0000 C   0  0  0  0  0  0  0  0  0  0  0  0
   -2.8619    0.7644    0.0000 N   0  0  0  0  0  0  0  0  0  0  0  0
    2.1418    0.3526    0.0000 C   0  0  0  0  0  0  0  0  0  0  0  0
    2.8582    0.7644    0.0000 N   0  0  0  0  0  0  0  0  0  0  0  0
  1  2  1  0  0  0  0
  1  3  2  0  0  0  0
  1  4  1  0  0  0  0
  2  5  1  0  0  0  0
  3  6  1  0  0  0  0
  4  7  2  0  0  0  0
  5  8  2  0  0  0  0
  5  9  1  0  0  0  0
  6 10  2  0  0  0  0
  8 11  1  0  0  0  0
  9 12  2  0  0  0  0
 10 13  1  0  0  0  0
 11 14  2  0  0  0  0
 14 15  1  0  0  0  0
  7 10  1  0  0  0  0
 12 14  1  0  0  0  0
M  END