347
  Mrv0541 04071411322D          

 12 13  0  0  0  0            999 V2000
    2.1424   -0.2075    0.0000 C   0  0  0  0  0  0  0  0  0  0  0  0
    1.4246    0.2050    0.0000 C   0  0  0  0  0  0  0  0  0  0  0  0
    0.7151   -0.2075    0.0000 C   0  0  0  0  0  0  0  0  0  0  0  0
    0.0000    0.2039    0.0000 N   0  0  0  0  0  0  0  0  0  0  0  0
    0.7151   -1.0325    0.0000 C   0  0  0  0  0  0  0  0  0  0  0  0
    1.4246   -1.4450    0.0000 C   0  0  0  0  0  0  0  0  0  0  0  0
    2.1424   -1.0325    0.0000 C   0  0  0  0  0  0  0  0  0  0  0  0
    1.4269    1.0311    0.0000 C   0  0  0  0  0  0  0  0  0  0  0  0
    0.7132    1.4450    0.0000 N   0  0  0  0  0  0  0  0  0  0  0  0
    2.1418    1.4428    0.0000 C   0  0  0  0  0  0  0  0  0  0  0  0
    2.8575    1.0267    0.0000 C   0  0  0  0  0  0  0  0  0  0  0  0
    2.8542    0.2061    0.0000 C   0  0  0  0  0  0  0  0  0  0  0  0
  1  2  1  0  0  0  0
  2  3  1  0  0  0  0
  3  4  1  0  0  0  0
  3  5  2  0  0  0  0
  5  6  1  0  0  0  0
  6  7  2  0  0  0  0
  7  1  1  0  0  0  0
  2  8  2  0  0  0  0
  8  9  1  0  0  0  0
  8 10  1  0  0  0  0
 10 11  2  0  0  0  0
 11 12  1  0  0  0  0
 12  1  2  0  0  0  0
M  END