348
  Mrv0541 04071411322D          

 17 19  0  0  0  0            999 V2000
    0.1643   -0.0068    0.0000 C   0  0  0  0  0  0  0  0  0  0  0  0
    0.8247    0.4586    0.0000 C   0  0  0  0  0  0  0  0  0  0  0  0
   -0.5168    0.4072    0.0000 N   0  0  0  0  0  0  0  0  0  0  0  0
    0.1643   -0.8247    0.0000 C   0  0  0  0  0  0  0  0  0  0  0  0
    1.6187   -0.0513    0.0000 C   0  0  0  0  0  0  0  0  0  0  0  0
    0.8247    1.1876    0.0000 C   0  0  0  0  0  0  0  0  0  0  0  0
   -1.2354   -0.0034    0.0000 C   0  0  0  0  0  0  0  0  0  0  0  0
    0.8864   -1.2936    0.0000 C   0  0  0  0  0  0  0  0  0  0  0  0
    1.6187   -0.8111    0.0000 C   0  0  0  0  0  0  0  0  0  0  0  0
    2.3135    0.3936    0.0000 C   0  0  0  0  0  0  0  0  0  0  0  0
    1.5537    1.6701    0.0000 C   0  0  0  0  0  0  0  0  0  0  0  0
   -1.9713    0.4586    0.0000 C   0  0  0  0  0  0  0  0  0  0  0  0
   -1.2354   -0.7838    0.0000 C   0  0  0  0  0  0  0  0  0  0  0  0
    2.3135    1.2080    0.0000 C   0  0  0  0  0  0  0  0  0  0  0  0
   -2.6728    0.0170    0.0000 C   0  0  0  0  0  0  0  0  0  0  0  0
   -1.9713   -1.2286    0.0000 C   0  0  0  0  0  0  0  0  0  0  0  0
   -2.6728   -0.8008    0.0000 C   0  0  0  0  0  0  0  0  0  0  0  0
  1  2  2  0  0  0  0
  1  3  1  0  0  0  0
  1  4  1  0  0  0  0
  2  5  1  0  0  0  0
  2  6  1  0  0  0  0
  3  7  1  0  0  0  0
  4  8  2  0  0  0  0
  5  9  2  0  0  0  0
  5 10  1  0  0  0  0
  6 11  2  0  0  0  0
  7 12  2  0  0  0  0
  7 13  1  0  0  0  0
 10 14  2  0  0  0  0
 12 15  1  0  0  0  0
 13 16  2  0  0  0  0
 15 17  2  0  0  0  0
  8  9  1  0  0  0  0
 11 14  1  0  0  0  0
 16 17  1  0  0  0  0
M  END