353
  Mrv0541 04071411322D          

  7  7  0  0  0  0            999 V2000
    0.5861    0.0000    0.0000 C   0  0  0  0  0  0  0  0  0  0  0  0
    0.1762   -0.7159    0.0000 C   0  0  0  0  0  0  0  0  0  0  0  0
    0.1762    0.7159    0.0000 C   0  0  0  0  0  0  0  0  0  0  0  0
    1.4191    0.0000    0.0000 N   0  0  0  0  0  0  0  0  0  0  0  0
   -0.6454   -0.7159    0.0000 C   0  0  0  0  0  0  0  0  0  0  0  0
   -0.6454    0.7159    0.0000 C   0  0  0  0  0  0  0  0  0  0  0  0
   -1.0667    0.0000    0.0000 N   0  0  0  0  0  0  0  0  0  0  0  0
  1  2  2  0  0  0  0
  1  3  1  0  0  0  0
  1  4  1  0  0  0  0
  2  5  1  0  0  0  0
  3  6  2  0  0  0  0
  5  7  2  0  0  0  0
  6  7  1  0  0  0  0
M  END