356
  Mrv0541 04071411322D          

 10 11  0  0  0  0            999 V2000
    0.0018   -0.4068    0.0000 C   0  0  0  0  0  0  0  0  0  0  0  0
    0.0018    0.4068    0.0000 C   0  0  0  0  0  0  0  0  0  0  0  0
    0.7139   -0.8267    0.0000 C   0  0  0  0  0  0  0  0  0  0  0  0
   -0.7139   -0.8267    0.0000 C   0  0  0  0  0  0  0  0  0  0  0  0
    0.7139    0.8267    0.0000 C   0  0  0  0  0  0  0  0  0  0  0  0
   -0.7139    0.8267    0.0000 N   0  0  0  0  0  0  0  0  0  0  0  0
    1.4241   -0.4068    0.0000 C   0  0  0  0  0  0  0  0  0  0  0  0
   -1.4260   -0.4068    0.0000 C   0  0  0  0  0  0  0  0  0  0  0  0
    1.4241    0.4068    0.0000 C   0  0  0  0  0  0  0  0  0  0  0  0
   -1.4260    0.4068    0.0000 C   0  0  0  0  0  0  0  0  0  0  0  0
  1  2  1  0  0  0  0
  1  3  1  0  0  0  0
  1  4  2  0  0  0  0
  2  5  1  0  0  0  0
  2  6  2  0  0  0  0
  3  7  2  0  0  0  0
  4  8  1  0  0  0  0
  5  9  2  0  0  0  0
  6 10  1  0  0  0  0
  7  9  1  0  0  0  0
  8 10  2  0  0  0  0
M  END