362
  Mrv0541 04071411322D          

 16 17  0  0  0  0            999 V2000
   -0.4070    0.1757    0.0000 C   0  0  0  0  0  0  0  0  0  0  0  0
    0.4070    0.1757    0.0000 C   0  0  0  0  0  0  0  0  0  0  0  0
   -0.8214   -0.5328    0.0000 C   0  0  0  0  0  0  0  0  0  0  0  0
   -0.8214    0.8899    0.0000 C   0  0  0  0  0  0  0  0  0  0  0  0
    0.8214   -0.5328    0.0000 C   0  0  0  0  0  0  0  0  0  0  0  0
    0.8214    0.8899    0.0000 C   0  0  0  0  0  0  0  0  0  0  0  0
   -1.6521   -0.5328    0.0000 C   0  0  0  0  0  0  0  0  0  0  0  0
   -1.6521    0.8899    0.0000 C   0  0  0  0  0  0  0  0  0  0  0  0
    1.6540   -0.5328    0.0000 C   0  0  0  0  0  0  0  0  0  0  0  0
    1.6540    0.8899    0.0000 C   0  0  0  0  0  0  0  0  0  0  0  0
   -2.0684    0.1757    0.0000 C   0  0  0  0  0  0  0  0  0  0  0  0
   -2.0684   -1.2451    0.0000 C   0  0  0  0  0  0  0  0  0  0  0  0
    2.0665    0.1757    0.0000 C   0  0  0  0  0  0  0  0  0  0  0  0
    2.0665   -1.2451    0.0000 C   0  0  0  0  0  0  0  0  0  0  0  0
   -2.8936    0.1757    0.0000 N   0  0  0  0  0  0  0  0  0  0  0  0
    2.8917    0.1757    0.0000 N   0  0  0  0  0  0  0  0  0  0  0  0
  1  2  1  0  0  0  0
  1  3  2  0  0  0  0
  1  4  1  0  0  0  0
  2  5  2  0  0  0  0
  2  6  1  0  0  0  0
  3  7  1  0  0  0  0
  4  8  2  0  0  0  0
  5  9  1  0  0  0  0
  6 10  2  0  0  0  0
  7 11  2  0  0  0  0
  7 12  1  0  0  0  0
  9 13  2  0  0  0  0
  9 14  1  0  0  0  0
 11 15  1  0  0  0  0
 13 16  1  0  0  0  0
  8 11  1  0  0  0  0
 10 13  1  0  0  0  0
M  END