365
  Mrv0541 04071411322D          

  4  3  0  0  0  0            999 V2000
    3.5405    0.2645    0.0000 S   0  0  0  0  0  0  0  0  0  0  0  0
    2.8315   -0.1574    0.0000 C   0  0  0  0  0  0  0  0  0  0  0  0
    4.2584   -0.1389    0.0000 C   0  0  0  0  0  0  0  0  0  0  0  0
    3.5332    1.0912    0.0000 O   0  0  0  0  0  0  0  0  0  0  0  0
  1  2  1  0  0  0  0
  1  3  1  0  0  0  0
  1  4  2  0  0  0  0
M  END