367
  Mrv0541 04071411322D          

 20 19  0  0  0  0            999 V2000
    0.2218   -0.0208    0.0000 P   0  0  0  0  0  0  0  0  0  0  0  0
   -0.6309   -0.0936    0.0000 O   0  0  0  0  0  0  0  0  0  0  0  0
    1.0780   -0.0451    0.0000 O   0  0  0  0  0  0  0  0  0  0  0  0
    0.2218   -0.7592    0.0000 O   0  0  0  0  0  0  0  0  0  0  0  0
    0.2218    0.8215    0.0000 O   0  0  0  0  0  0  0  0  0  0  0  0
   -1.1127    0.5615    0.0000 C   0  0  0  0  0  0  0  0  0  0  0  0
    1.3658    0.7348    0.0000 C   0  0  0  0  0  0  0  0  0  0  0  0
   -0.3050   -1.3900    0.0000 C   0  0  0  0  0  0  0  0  0  0  0  0
   -1.9377    0.5615    0.0000 C   0  0  0  0  0  0  0  0  0  0  0  0
   -0.8493    1.3623    0.0000 C   0  0  0  0  0  0  0  0  0  0  0  0
    0.9082    1.4143    0.0000 C   0  0  0  0  0  0  0  0  0  0  0  0
    2.1699    0.9498    0.0000 C   0  0  0  0  0  0  0  0  0  0  0  0
   -0.0936   -2.1873    0.0000 C   0  0  0  0  0  0  0  0  0  0  0  0
   -1.0608   -1.3900    0.0000 C   0  0  0  0  0  0  0  0  0  0  0  0
   -2.2081   -0.2149    0.0000 Cl  0  0  0  0  0  0  0  0  0  0  0  0
   -1.5009    1.8683    0.0000 Cl  0  0  0  0  0  0  0  0  0  0  0  0
    1.4040    2.0799    0.0000 Cl  0  0  0  0  0  0  0  0  0  0  0  0
    2.6449    0.2600    0.0000 Cl  0  0  0  0  0  0  0  0  0  0  0  0
    0.9394   -2.4264    0.0000 Cl  0  0  0  0  0  0  0  0  0  0  0  0
   -1.4732   -2.0937    0.0000 Cl  0  0  0  0  0  0  0  0  0  0  0  0
  1  2  1  0  0  0  0
  1  3  1  0  0  0  0
  1  4  1  0  0  0  0
  1  5  2  0  0  0  0
  2  6  1  0  0  0  0
  3  7  1  0  0  0  0
  4  8  1  0  0  0  0
  6  9  1  0  0  0  0
  6 10  1  0  0  0  0
  7 11  1  0  0  0  0
  7 12  1  0  0  0  0
  8 13  1  0  0  0  0
  8 14  1  0  0  0  0
  9 15  1  0  0  0  0
 10 16  1  0  0  0  0
 11 17  1  0  0  0  0
 12 18  1  0  0  0  0
 13 19  1  0  0  0  0
 14 20  1  0  0  0  0
M  END