371
  Mrv0541 04071411322D          

 11 10  0  0  0  0            999 V2000
   -0.1289   -0.3038    0.0000 P   0  0  0  0  0  0  0  0  0  0  0  0
   -0.9503   -0.2965    0.0000 O   0  0  0  0  0  0  0  0  0  0  0  0
    0.6889   -0.2947    0.0000 O   0  0  0  0  0  0  0  0  0  0  0  0
   -0.1289    0.5322    0.0000 O   0  0  0  0  0  0  0  0  0  0  0  0
   -0.1234   -1.1382    0.0000 O   0  0  0  0  0  0  0  0  0  0  0  0
   -1.3665    0.4181    0.0000 C   0  0  0  0  0  0  0  0  0  0  0  0
    1.0995   -1.0239    0.0000 C   0  0  0  0  0  0  0  0  0  0  0  0
    0.5820    0.9393    0.0000 C   0  0  0  0  0  0  0  0  0  0  0  0
   -2.1861    0.4181    0.0000 C   0  0  0  0  0  0  0  0  0  0  0  0
    1.9245   -1.0166    0.0000 C   0  0  0  0  0  0  0  0  0  0  0  0
    0.5892    1.7680    0.0000 C   0  0  0  0  0  0  0  0  0  0  0  0
  1  2  1  0  0  0  0
  1  3  1  0  0  0  0
  1  4  1  0  0  0  0
  1  5  2  0  0  0  0
  2  6  1  0  0  0  0
  3  7  1  0  0  0  0
  4  8  1  0  0  0  0
  6  9  1  0  0  0  0
  7 10  1  0  0  0  0
  8 11  1  0  0  0  0
M  END