375
  Mrv0541 04071411322D          

 26 25  0  0  0  0            999 V2000
    0.9061   -0.1117    0.0000 P   0  0  0  0  0  0  0  0  0  0  0  0
    0.2681   -0.6446    0.0000 O   0  0  0  0  0  0  0  0  0  0  0  0
    1.6018    0.2935    0.0000 O   0  0  0  0  0  0  0  0  0  0  0  0
    0.3190    0.4595    0.0000 O   0  0  0  0  0  0  0  0  0  0  0  0
    1.3593   -0.7944    0.0000 O   0  0  0  0  0  0  0  0  0  0  0  0
   -0.5073   -0.3670    0.0000 C   0  0  0  0  0  0  0  0  0  0  0  0
    2.3197   -0.1117    0.0000 C   0  0  0  0  0  0  0  0  0  0  0  0
   -0.4785    0.2457    0.0000 C   0  0  0  0  0  0  0  0  0  0  0  0
   -1.1423   -0.8967    0.0000 C   0  0  0  0  0  0  0  0  0  0  0  0
    3.0376    0.2935    0.0000 C   0  0  0  0  0  0  0  0  0  0  0  0
   -1.0690    0.8264    0.0000 C   0  0  0  0  0  0  0  0  0  0  0  0
   -1.9176   -0.6190    0.0000 O   0  0  0  0  0  0  0  0  0  0  0  0
    3.7555   -0.1117    0.0000 O   0  0  0  0  0  0  0  0  0  0  0  0
   -1.8665    0.6095    0.0000 O   0  0  0  0  0  0  0  0  0  0  0  0
   -2.5526   -1.1487    0.0000 C   0  0  0  0  0  0  0  0  0  0  0  0
    4.4702    0.2968    0.0000 C   0  0  0  0  0  0  0  0  0  0  0  0
   -2.4505    1.1966    0.0000 C   0  0  0  0  0  0  0  0  0  0  0  0
   -3.3280   -0.8711    0.0000 C   0  0  0  0  0  0  0  0  0  0  0  0
    5.1850   -0.0989    0.0000 C   0  0  0  0  0  0  0  0  0  0  0  0
   -3.2545    0.9764    0.0000 C   0  0  0  0  0  0  0  0  0  0  0  0
   -3.9597   -1.4039    0.0000 C   0  0  0  0  0  0  0  0  0  0  0  0
    5.9029    0.3063    0.0000 C   0  0  0  0  0  0  0  0  0  0  0  0
   -3.8449    1.5572    0.0000 C   0  0  0  0  0  0  0  0  0  0  0  0
   -4.7351   -1.1263    0.0000 C   0  0  0  0  0  0  0  0  0  0  0  0
    6.6240   -0.0989    0.0000 C   0  0  0  0  0  0  0  0  0  0  0  0
   -4.6425    1.3465    0.0000 C   0  0  0  0  0  0  0  0  0  0  0  0
  1  2  1  0  0  0  0
  1  3  1  0  0  0  0
  1  4  1  0  0  0  0
  1  5  2  0  0  0  0
  2  6  1  0  0  0  0
  3  7  1  0  0  0  0
  4  8  1  0  0  0  0
  6  9  1  0  0  0  0
  7 10  1  0  0  0  0
  8 11  1  0  0  0  0
  9 12  1  0  0  0  0
 10 13  1  0  0  0  0
 11 14  1  0  0  0  0
 12 15  1  0  0  0  0
 13 16  1  0  0  0  0
 14 17  1  0  0  0  0
 15 18  1  0  0  0  0
 16 19  1  0  0  0  0
 17 20  1  0  0  0  0
 18 21  1  0  0  0  0
 19 22  1  0  0  0  0
 20 23  1  0  0  0  0
 21 24  1  0  0  0  0
 22 25  1  0  0  0  0
 23 26  1  0  0  0  0
M  END