377
  Mrv0541 04071411322D          

 13 14  0  0  0  0            999 V2000
   -0.1925    0.0000    0.0000 C   0  0  0  0  0  0  0  0  0  0  0  0
    0.6292    0.0000    0.0000 C   0  0  0  0  0  0  0  0  0  0  0  0
   -0.5996   -0.7144    0.0000 C   0  0  0  0  0  0  0  0  0  0  0  0
   -0.5996    0.7144    0.0000 C   0  0  0  0  0  0  0  0  0  0  0  0
    1.0419   -0.7144    0.0000 C   0  0  0  0  0  0  0  0  0  0  0  0
    1.0419    0.7144    0.0000 C   0  0  0  0  0  0  0  0  0  0  0  0
   -1.4268   -0.7144    0.0000 C   0  0  0  0  0  0  0  0  0  0  0  0
   -1.4268    0.7144    0.0000 C   0  0  0  0  0  0  0  0  0  0  0  0
    1.8766   -0.7144    0.0000 C   0  0  0  0  0  0  0  0  0  0  0  0
    1.8766    0.7144    0.0000 C   0  0  0  0  0  0  0  0  0  0  0  0
   -1.8395    0.0000    0.0000 C   0  0  0  0  0  0  0  0  0  0  0  0
    2.2856    0.0000    0.0000 C   0  0  0  0  0  0  0  0  0  0  0  0
   -2.6723    0.0000    0.0000 O   0  0  0  0  0  0  0  0  0  0  0  0
  1  2  1  0  0  0  0
  1  3  2  0  0  0  0
  1  4  1  0  0  0  0
  2  5  2  0  0  0  0
  2  6  1  0  0  0  0
  3  7  1  0  0  0  0
  4  8  2  0  0  0  0
  5  9  1  0  0  0  0
  6 10  2  0  0  0  0
  7 11  2  0  0  0  0
  9 12  2  0  0  0  0
 11 13  1  0  0  0  0
  8 11  1  0  0  0  0
 10 12  1  0  0  0  0
M  END