379
  Mrv0541 04071411322D          

  6  6  0  0  0  0            999 V2000
    0.2544   -0.3596    0.0000 C   0  0  0  0  0  0  0  0  0  0  0  0
   -0.5525   -0.3596    0.0000 C   0  0  0  0  0  0  0  0  0  0  0  0
    0.5177    0.4222    0.0000 C   0  0  0  0  0  0  0  0  0  0  0  0
    0.7293   -1.0474    0.0000 C   0  0  0  0  0  0  0  0  0  0  0  0
   -0.8040    0.4332    0.0000 C   0  0  0  0  0  0  0  0  0  0  0  0
   -0.1450    0.9123    0.0000 S   0  0  0  0  0  0  0  0  0  0  0  0
  1  2  1  0  0  0  0
  1  3  2  0  0  0  0
  1  4  1  0  0  0  0
  2  5  2  0  0  0  0
  3  6  1  0  0  0  0
  5  6  1  0  0  0  0
M  END