395
  Mrv0541 04071411322D          

 15 15  0  0  0  0            999 V2000
    6.8762   -3.7036    0.0000 O   0  0  0  0  0  0  0  0  0  0  0  0
    6.1586   -3.2908    0.0000 C   0  0  0  0  0  0  0  0  0  0  0  0
    6.1583   -2.4701    0.0000 O   0  0  0  0  0  0  0  0  0  0  0  0
    5.4446   -3.7040    0.0000 C   0  0  0  0  0  0  0  0  0  0  0  0
    4.7268   -3.2915    0.0000 C   0  0  0  0  0  0  0  0  0  0  0  0
    4.0173   -3.7040    0.0000 C   0  0  0  0  0  0  0  0  0  0  0  0
    3.3022   -3.2926    0.0000 N   0  3  0  0  0  0  0  0  0  0  0  0
    3.3006   -2.4647    0.0000 O   0  5  0  0  0  0  0  0  0  0  0  0
    2.5919   -3.7036    0.0000 O   0  0  0  0  0  0  0  0  0  0  0  0
    4.0173   -4.5290    0.0000 C   0  0  0  0  0  0  0  0  0  0  0  0
    4.7268   -4.9415    0.0000 C   0  0  0  0  0  0  0  0  0  0  0  0
    5.4446   -4.5290    0.0000 C   0  0  0  0  0  0  0  0  0  0  0  0
    4.7239   -2.1365    0.0000 C   0  0  0  0  0  0  0  0  0  0  0  0
    5.4396   -1.7204    0.0000 O   0  0  0  0  0  0  0  0  0  0  0  0
    4.0124   -1.7275    0.0000 O   0  0  0  0  0  0  0  0  0  0  0  0
  1  2  2  0  0  0  0
  2  3  1  0  0  0  0
  2  4  1  0  0  0  0
  4  5  1  0  0  0  0
  5  6  2  0  0  0  0
  6  7  1  0  0  0  0
  7  8  1  0  0  0  0
  7  9  2  0  0  0  0
  6 10  1  0  0  0  0
 10 11  2  0  0  0  0
 11 12  1  0  0  0  0
 12  4  2  0  0  0  0
  5 13  1  0  0  0  0
 13 14  2  0  0  0  0
 13 15  1  0  0  0  0
M  CHG  2   7   1   8  -1
M  END