396
  Mrv0541 04071411322D          

 13 13  0  0  0  0            999 V2000
   -0.0743   -0.1757    0.0000 C   0  0  0  0  0  0  0  0  0  0  0  0
   -0.4662    0.5575    0.0000 C   0  0  0  0  0  0  0  0  0  0  0  0
   -0.4662   -0.8749    0.0000 C   0  0  0  0  0  0  0  0  0  0  0  0
    0.7566   -0.1757    0.0000 O   0  0  0  0  0  0  0  0  0  0  0  0
   -1.3006    0.5575    0.0000 C   0  0  0  0  0  0  0  0  0  0  0  0
   -1.3006   -0.8478    0.0000 C   0  0  0  0  0  0  0  0  0  0  0  0
    1.4560    0.2500    0.0000 C   0  0  0  0  0  0  0  0  0  0  0  0
   -1.7161   -0.1553    0.0000 C   0  0  0  0  0  0  0  0  0  0  0  0
   -1.7161    1.2533    0.0000 C   0  0  0  0  0  0  0  0  0  0  0  0
   -1.7161   -1.5742    0.0000 C   0  0  0  0  0  0  0  0  0  0  0  0
    2.1519   -0.1757    0.0000 N   0  0  0  0  0  0  0  0  0  0  0  0
    1.4560    1.0709    0.0000 O   0  0  0  0  0  0  0  0  0  0  0  0
    2.9458    0.2871    0.0000 C   0  0  0  0  0  0  0  0  0  0  0  0
  1  2  2  0  0  0  0
  1  3  1  0  0  0  0
  1  4  1  0  0  0  0
  2  5  1  0  0  0  0
  3  6  2  0  0  0  0
  4  7  1  0  0  0  0
  5  8  2  0  0  0  0
  5  9  1  0  0  0  0
  6 10  1  0  0  0  0
  7 11  1  0  0  0  0
  7 12  2  0  0  0  0
 11 13  1  0  0  0  0
  6  8  1  0  0  0  0
M  END