397
  Mrv0541 04071411322D          

 14 14  0  0  0  0            999 V2000
    0.6752   -0.4571    0.0000 C   0  0  0  0  0  0  0  0  0  0  0  0
   -0.0441   -0.0047    0.0000 C   0  0  0  0  0  0  0  0  0  0  0  0
    0.6752   -1.2552    0.0000 C   0  0  0  0  0  0  0  0  0  0  0  0
    1.4084   -0.0788    0.0000 C   0  0  0  0  0  0  0  0  0  0  0  0
   -0.0441    0.8214    0.0000 O   0  0  0  0  0  0  0  0  0  0  0  0
   -0.7936   -0.4571    0.0000 C   0  0  0  0  0  0  0  0  0  0  0  0
   -0.0441   -1.7262    0.0000 C   0  0  0  0  0  0  0  0  0  0  0  0
    1.4084    0.7425    0.0000 C   0  0  0  0  0  0  0  0  0  0  0  0
    2.0581   -0.5498    0.0000 C   0  0  0  0  0  0  0  0  0  0  0  0
   -0.7680    1.3272    0.0000 C   0  0  0  0  0  0  0  0  0  0  0  0
   -0.7936   -1.2552    0.0000 C   0  0  0  0  0  0  0  0  0  0  0  0
   -1.4850    0.8214    0.0000 N   0  0  0  0  0  0  0  0  0  0  0  0
   -0.7680    1.9792    0.0000 O   0  0  0  0  0  0  0  0  0  0  0  0
   -1.4850    0.0905    0.0000 C   0  0  0  0  0  0  0  0  0  0  0  0
  1  2  1  0  0  0  0
  1  3  2  0  0  0  0
  1  4  1  0  0  0  0
  2  5  1  0  0  0  0
  2  6  2  0  0  0  0
  3  7  1  0  0  0  0
  4  8  1  0  0  0  0
  4  9  1  0  0  0  0
  5 10  1  0  0  0  0
  6 11  1  0  0  0  0
 10 12  1  0  0  0  0
 10 13  2  0  0  0  0
 12 14  1  0  0  0  0
  7 11  2  0  0  0  0
M  END