399
  Mrv0541 04071411322D          

 11 11  0  0  0  0            999 V2000
   -2.7878   -1.7764    0.0000 C   0  0  0  0  0  0  0  0  0  0  0  0
   -2.0732   -2.1860    0.0000 N   0  0  0  0  0  0  0  0  0  0  0  0
   -1.3584   -1.7722    0.0000 C   0  0  0  0  0  0  0  0  0  0  0  0
   -0.6431   -2.1872    0.0000 C   0  0  0  0  0  0  0  0  0  0  0  0
    0.0711   -1.7742    0.0000 C   0  0  0  0  0  0  0  0  0  0  0  0
    0.0705   -0.9474    0.0000 C   0  0  0  0  0  0  0  0  0  0  0  0
   -0.6503   -0.5354    0.0000 C   0  0  0  0  0  0  0  0  0  0  0  0
   -1.3614   -0.9510    0.0000 C   0  0  0  0  0  0  0  0  0  0  0  0
    0.7817   -0.5308    0.0000 C   0  0  0  0  0  0  0  0  0  0  0  0
    1.4963   -0.9404    0.0000 O   0  0  0  0  0  0  0  0  0  0  0  0
    0.7776    0.2967    0.0000 O   0  0  0  0  0  0  0  0  0  0  0  0
  5  6  2  0  0  0  0
  1  2  1  0  0  0  0
  6  7  1  0  0  0  0
  3  4  2  0  0  0  0
  7  8  2  0  0  0  0
  8  3  1  0  0  0  0
  6  9  1  0  0  0  0
  4  5  1  0  0  0  0
  9 10  1  0  0  0  0
  2  3  1  0  0  0  0
  9 11  2  0  0  0  0
M  END