40
  Mrv0541 04071411322D          

 18 21  0  0  0  0            999 V2000
    0.1985    0.0779    0.0000 C   0  0  0  0  0  0  0  0  0  0  0  0
    0.9049    0.4877    0.0000 C   0  0  0  0  0  0  0  0  0  0  0  0
    0.1985   -0.7620    0.0000 C   0  0  0  0  0  0  0  0  0  0  0  0
   -0.5136    0.4877    0.0000 C   0  0  0  0  0  0  0  0  0  0  0  0
    1.6298    0.0668    0.0000 C   0  0  0  0  0  0  0  0  0  0  0  0
    0.9049    1.3090    0.0000 C   0  0  0  0  0  0  0  0  0  0  0  0
   -0.5210   -1.1700    0.0000 C   0  0  0  0  0  0  0  0  0  0  0  0
    0.9086   -1.1700    0.0000 C   0  0  0  0  0  0  0  0  0  0  0  0
   -1.2330    0.0668    0.0000 C   0  0  0  0  0  0  0  0  0  0  0  0
    1.6354   -0.7695    0.0000 C   0  0  0  0  0  0  0  0  0  0  0  0
    2.3399    0.4747    0.0000 C   0  0  0  0  0  0  0  0  0  0  0  0
    1.6298    1.7243    0.0000 C   0  0  0  0  0  0  0  0  0  0  0  0
   -1.2330   -0.7491    0.0000 C   0  0  0  0  0  0  0  0  0  0  0  0
   -1.9413    0.4747    0.0000 C   0  0  0  0  0  0  0  0  0  0  0  0
    2.3436    1.2997    0.0000 C   0  0  0  0  0  0  0  0  0  0  0  0
   -1.9413   -1.1589    0.0000 C   0  0  0  0  0  0  0  0  0  0  0  0
   -2.6514    0.0575    0.0000 C   0  0  0  0  0  0  0  0  0  0  0  0
   -2.6644   -0.7398    0.0000 C   0  0  0  0  0  0  0  0  0  0  0  0
  1  2  2  0  0  0  0
  1  3  1  0  0  0  0
  1  4  1  0  0  0  0
  2  5  1  0  0  0  0
  2  6  1  0  0  0  0
  3  7  1  0  0  0  0
  3  8  2  0  0  0  0
  4  9  2  0  0  0  0
  5 10  2  0  0  0  0
  5 11  1  0  0  0  0
  6 12  2  0  0  0  0
  7 13  2  0  0  0  0
  9 14  1  0  0  0  0
 11 15  2  0  0  0  0
 13 16  1  0  0  0  0
 14 17  2  0  0  0  0
 16 18  2  0  0  0  0
  8 10  1  0  0  0  0
  9 13  1  0  0  0  0
 12 15  1  0  0  0  0
 17 18  1  0  0  0  0
M  END