400
  Mrv0541 04071411322D          

 10 10  0  0  0  0            999 V2000
    1.9583   -2.4375    0.0000 C   0  0  0  0  0  0  0  0  0  0  0  0
    1.9583   -3.2625    0.0000 C   0  0  0  0  0  0  0  0  0  0  0  0
    2.6704   -3.6708    0.0000 C   0  0  0  0  0  0  0  0  0  0  0  0
    3.3824   -3.2625    0.0000 C   0  0  0  0  0  0  0  0  0  0  0  0
    3.3824   -2.4375    0.0000 C   0  0  0  0  0  0  0  0  0  0  0  0
    2.6704   -2.0208    0.0000 C   0  0  0  0  0  0  0  0  0  0  0  0
    4.0980   -2.0271    0.0000 N   0  0  0  0  0  0  0  0  0  0  0  0
    4.8113   -2.4417    0.0000 N   0  0  0  0  0  0  0  0  0  0  0  0
    4.1005   -1.2021    0.0000 O   0  0  0  0  0  0  0  0  0  0  0  0
    4.8089   -3.2667    0.0000 O   0  0  0  0  0  0  0  0  0  0  0  0
  3  4  1  0  0  0  0
  4  5  1  0  0  0  0
  5  6  1  0  0  0  0
  5  7  1  0  0  0  0
  1  2  1  0  0  0  0
  7  8  1  0  0  0  0
  1  6  1  0  0  0  0
  7  9  1  0  0  0  0
  2  3  1  0  0  0  0
  8 10  2  0  0  0  0
M  END