405
  Mrv0541 04071411322D          

  8  8  0  0  0  0            999 V2000
    0.0887    0.3643    0.0000 C   0  0  0  0  0  0  0  0  0  0  0  0
    0.8061   -0.0444    0.0000 C   0  0  0  0  0  0  0  0  0  0  0  0
   -0.6194   -0.0518    0.0000 C   0  0  0  0  0  0  0  0  0  0  0  0
    0.0776    1.1815    0.0000 C   0  0  0  0  0  0  0  0  0  0  0  0
    0.8061   -0.8690    0.0000 C   0  0  0  0  0  0  0  0  0  0  0  0
   -0.6194   -0.8801    0.0000 C   0  0  0  0  0  0  0  0  0  0  0  0
   -0.6416    1.5864    0.0000 C   0  0  0  0  0  0  0  0  0  0  0  0
    0.0980   -1.2887    0.0000 N   0  0  0  0  0  0  0  0  0  0  0  0
  1  2  2  0  0  0  0
  1  3  1  0  0  0  0
  1  4  1  0  0  0  0
  2  5  1  0  0  0  0
  3  6  2  0  0  0  0
  4  7  2  0  0  0  0
  5  8  2  0  0  0  0
  6  8  1  0  0  0  0
M  END