414
  Mrv0541 04071411322D          

 33 35  0  0  0  0            999 V2000
    8.5809   -8.4141    0.0000 C   0  0  0  0  0  0  0  0  0  0  0  0
    8.1684   -7.6996    0.0000 C   0  0  0  0  0  0  0  0  0  0  0  0
    7.3434   -7.6996    0.0000 C   0  0  0  0  0  0  0  0  0  0  0  0
    8.9934   -9.1286    0.0000 N   0  0  0  0  0  0  0  0  0  0  0  0
    6.9309   -6.9852    0.0000 N   0  0  0  0  0  0  0  0  0  0  0  0
    6.1059   -6.9852    0.0000 C   0  0  0  0  0  0  0  0  0  0  0  0
    5.6934   -7.6996    0.0000 C   0  0  0  0  0  0  0  0  0  0  0  0
    4.8684   -7.6996    0.0000 C   0  0  0  0  0  0  0  0  0  0  0  0
    4.4559   -6.9852    0.0000 C   0  0  0  0  0  0  0  0  0  0  0  0
    4.8684   -6.2707    0.0000 C   0  0  0  0  0  0  0  0  0  0  0  0
    5.6934   -6.2707    0.0000 C   0  0  0  0  0  0  0  0  0  0  0  0
    3.6309   -6.9852    0.0000 N   0  0  0  0  0  0  0  0  0  0  0  0
    3.2184   -7.6996    0.0000 N   0  0  0  0  0  0  0  0  0  0  0  0
    2.3934   -7.6996    0.0000 C   0  0  0  0  0  0  0  0  0  0  0  0
    1.9809   -8.4141    0.0000 C   0  0  0  0  0  0  0  0  0  0  0  0
    1.1559   -8.4141    0.0000 C   0  0  0  0  0  0  0  0  0  0  0  0
    0.7434   -7.6996    0.0000 C   0  0  0  0  0  0  0  0  0  0  0  0
    1.1559   -6.9852    0.0000 C   0  0  0  0  0  0  0  0  0  0  0  0
    1.9809   -6.9852    0.0000 C   0  0  0  0  0  0  0  0  0  0  0  0
   -0.0816   -7.6996    0.0000 N   0  3  0  0  0  0  0  0  0  0  0  0
   -0.4941   -6.9852    0.0000 O   0  0  0  0  0  0  0  0  0  0  0  0
   -0.4941   -8.4141    0.0000 O   0  5  0  0  0  0  0  0  0  0  0  0
    7.3434   -6.2707    0.0000 C   0  0  0  0  0  0  0  0  0  0  0  0
    8.1684   -6.2707    0.0000 C   0  0  0  0  0  0  0  0  0  0  0  0
    8.5809   -5.5562    0.0000 O   0  0  0  0  0  0  0  0  0  0  0  0
    9.4059   -5.5562    0.0000 C   0  0  0  0  0  0  0  0  0  0  0  0
    9.8184   -4.8418    0.0000 C   0  0  0  0  0  0  0  0  0  0  0  0
    9.4059   -4.1272    0.0000 C   0  0  0  0  0  0  0  0  0  0  0  0
    9.8184   -3.4128    0.0000 C   0  0  0  0  0  0  0  0  0  0  0  0
   10.6434   -3.4128    0.0000 C   0  0  0  0  0  0  0  0  0  0  0  0
   11.0559   -4.1272    0.0000 C   0  0  0  0  0  0  0  0  0  0  0  0
   10.6434   -4.8418    0.0000 C   0  0  0  0  0  0  0  0  0  0  0  0
    9.8184   -6.2707    0.0000 O   0  0  0  0  0  0  0  0  0  0  0  0
  1  2  1  0  0  0  0
  2  3  1  0  0  0  0
  1  4  3  0  0  0  0
  6  7  1  0  0  0  0
  7  8  2  0  0  0  0
  8  9  1  0  0  0  0
  9 10  2  0  0  0  0
 10 11  1  0  0  0  0
  6 11  2  0  0  0  0
 12 13  2  0  0  0  0
 14 15  1  0  0  0  0
 15 16  2  0  0  0  0
 16 17  1  0  0  0  0
 17 18  2  0  0  0  0
 18 19  1  0  0  0  0
 14 19  2  0  0  0  0
 20 21  2  0  0  0  0
 20 22  1  0  0  0  0
 17 20  1  0  0  0  0
 13 14  1  0  0  0  0
  9 12  1  0  0  0  0
  5  6  1  0  0  0  0
 23 24  1  0  0  0  0
 26 27  1  0  0  0  0
 27 28  1  0  0  0  0
 28 29  2  0  0  0  0
 29 30  1  0  0  0  0
 30 31  2  0  0  0  0
 31 32  1  0  0  0  0
 27 32  2  0  0  0  0
 26 33  2  0  0  0  0
 25 26  1  0  0  0  0
 24 25  1  0  0  0  0
  5 23  1  0  0  0  0
  3  5  1  0  0  0  0
M  CHG  2  20   1  22  -1
M  END