415
  Mrv0541 04071411322D          

 36 37  0  0  0  0            999 V2000
    7.6048   -1.2251    0.0000 O   0  0  0  0  0  0  0  0  0  0  0  0
    6.8813   -0.8106    0.0000 C   0  0  0  0  0  0  0  0  0  0  0  0
    6.1650   -1.2198    0.0000 O   0  0  0  0  0  0  0  0  0  0  0  0
    5.4414   -0.8053    0.0000 C   0  0  0  0  0  0  0  0  0  0  0  0
    5.4435    0.0127    0.0000 C   0  0  0  0  0  0  0  0  0  0  0  0
    4.7199    0.4272    0.0000 N   0  0  0  0  0  0  0  0  0  0  0  0
    3.9995    0.0146    0.0000 C   0  0  0  0  0  0  0  0  0  0  0  0
    3.2745    0.4264    0.0000 C   0  0  0  0  0  0  0  0  0  0  0  0
    2.5596    0.0146    0.0000 C   0  0  0  0  0  0  0  0  0  0  0  0
    2.5596   -0.8089    0.0000 C   0  0  0  0  0  0  0  0  0  0  0  0
    1.8336   -1.2194    0.0000 N   0  0  0  0  0  0  0  0  0  0  0  0
    1.1134   -0.8063    0.0000 N   0  0  0  0  0  0  0  0  0  0  0  0
    0.3917   -1.2167    0.0000 C   0  0  0  0  0  0  0  0  0  0  0  0
   -0.3321   -0.8027    0.0000 C   0  0  0  0  0  0  0  0  0  0  0  0
   -1.0482   -1.2166    0.0000 C   0  0  0  0  0  0  0  0  0  0  0  0
   -1.0508   -2.0358    0.0000 C   0  0  0  0  0  0  0  0  0  0  0  0
   -1.7738   -2.4483    0.0000 N   0  3  0  0  0  0  0  0  0  0  0  0
   -2.4960   -2.0317    0.0000 O   0  0  0  0  0  0  0  0  0  0  0  0
   -1.7784   -3.2665    0.0000 O   0  5  0  0  0  0  0  0  0  0  0  0
   -0.3372   -2.4498    0.0000 C   0  0  0  0  0  0  0  0  0  0  0  0
    0.3892   -2.0402    0.0000 C   0  0  0  0  0  0  0  0  0  0  0  0
   -0.3321    0.0165    0.0000 Cl  0  0  0  0  0  0  0  0  0  0  0  0
    3.2745   -1.2207    0.0000 C   0  0  0  0  0  0  0  0  0  0  0  0
    3.2719   -2.0442    0.0000 N   0  0  0  0  0  0  0  0  0  0  0  0
    3.9947   -2.4600    0.0000 C   0  0  0  0  0  0  0  0  0  0  0  0
    4.7172   -2.0508    0.0000 O   0  0  0  0  0  0  0  0  0  0  0  0
    3.9911   -3.2781    0.0000 C   0  0  0  0  0  0  0  0  0  0  0  0
    4.7138   -3.6939    0.0000 C   0  0  0  0  0  0  0  0  0  0  0  0
    3.9995   -0.8089    0.0000 C   0  0  0  0  0  0  0  0  0  0  0  0
    4.7170    1.2499    0.0000 C   0  0  0  0  0  0  0  0  0  0  0  0
    3.9986    1.6598    0.0000 C   0  0  0  0  0  0  0  0  0  0  0  0
    3.9956    2.4825    0.0000 O   0  0  0  0  0  0  0  0  0  0  0  0
    3.2771    2.8881    0.0000 C   0  0  0  0  0  0  0  0  0  0  0  0
    3.2741    3.7135    0.0000 O   0  0  0  0  0  0  0  0  0  0  0  0
    2.5579    2.4775    0.0000 C   0  0  0  0  0  0  0  0  0  0  0  0
    6.8818    0.0128    0.0000 C   0  0  0  0  0  0  0  0  0  0  0  0
  1  2  2  0  0  0  0
  2  3  1  0  0  0  0
  3  4  1  0  0  0  0
  4  5  1  0  0  0  0
  5  6  1  0  0  0  0
  6  7  1  0  0  0  0
  7  8  1  0  0  0  0
  8  9  2  0  0  0  0
  9 10  1  0  0  0  0
 10 11  1  0  0  0  0
 11 12  2  0  0  0  0
 12 13  1  0  0  0  0
 13 14  1  0  0  0  0
 14 15  2  0  0  0  0
 15 16  1  0  0  0  0
 16 17  1  0  0  0  0
 17 18  2  0  0  0  0
 17 19  1  0  0  0  0
 16 20  2  0  0  0  0
 20 21  1  0  0  0  0
 21 13  2  0  0  0  0
 14 22  1  0  0  0  0
 10 23  2  0  0  0  0
 23 24  1  0  0  0  0
 24 25  1  0  0  0  0
 25 26  2  0  0  0  0
 25 27  1  0  0  0  0
 27 28  1  0  0  0  0
 23 29  1  0  0  0  0
 29  7  2  0  0  0  0
  6 30  1  0  0  0  0
 30 31  1  0  0  0  0
 31 32  1  0  0  0  0
 32 33  1  0  0  0  0
 33 34  2  0  0  0  0
 33 35  1  0  0  0  0
  2 36  1  0  0  0  0
M  CHG  2  17   1  19  -1
M  END