417
  Mrv0541 04071411322D          

 25 27  0  0  0  0            999 V2000
    3.5715    1.2067    0.0000 O   0  0  0  0  0  0  0  0  0  0  0  0
    2.8575    0.7935    0.0000 C   0  0  0  0  0  0  0  0  0  0  0  0
    2.1397    1.2060    0.0000 C   0  0  0  0  0  0  0  0  0  0  0  0
    1.4302    0.7935    0.0000 C   0  0  0  0  0  0  0  0  0  0  0  0
    1.4302   -0.0315    0.0000 C   0  0  0  0  0  0  0  0  0  0  0  0
    2.1397   -0.4440    0.0000 C   0  0  0  0  0  0  0  0  0  0  0  0
    2.8575   -0.0315    0.0000 C   0  0  0  0  0  0  0  0  0  0  0  0
    3.5715   -0.4447    0.0000 N   0  0  0  0  0  0  0  0  0  0  0  0
    4.3325   -0.1077    0.0000 N   0  0  0  0  0  0  0  0  0  0  0  0
    4.8796   -0.7196    0.0000 C   0  0  0  0  0  0  0  0  0  0  0  0
    4.4706   -1.4394    0.0000 C   0  0  0  0  0  0  0  0  0  0  0  0
    4.8865   -2.1469    0.0000 C   0  0  0  0  0  0  0  0  0  0  0  0
    5.7115   -2.1429    0.0000 C   0  0  0  0  0  0  0  0  0  0  0  0
    6.1206   -1.4315    0.0000 C   0  0  0  0  0  0  0  0  0  0  0  0
    5.7046   -0.7157    0.0000 C   0  0  0  0  0  0  0  0  0  0  0  0
    6.1263   -2.8560    0.0000 Cl  0  0  0  0  0  0  0  0  0  0  0  0
    3.6576   -1.2652    0.0000 N   0  0  0  0  0  0  0  0  0  0  0  0
    0.7151   -0.4429    0.0000 C   0  0  0  0  0  0  0  0  0  0  0  0
    1.1265   -1.1580    0.0000 C   0  0  0  0  0  0  0  0  0  0  0  0
    0.3037    0.2722    0.0000 C   0  0  0  0  0  0  0  0  0  0  0  0
    0.0000   -0.8543    0.0000 C   0  0  0  0  0  0  0  0  0  0  0  0
    2.1377    2.0310    0.0000 C   0  0  0  0  0  0  0  0  0  0  0  0
    1.3127    2.0289    0.0000 C   0  0  0  0  0  0  0  0  0  0  0  0
    2.9626    2.0330    0.0000 C   0  0  0  0  0  0  0  0  0  0  0  0
    2.1356    2.8560    0.0000 C   0  0  0  0  0  0  0  0  0  0  0  0
  1  2  1  0  0  0  0
  2  3  1  0  0  0  0
  3  4  2  0  0  0  0
  4  5  1  0  0  0  0
  5  6  2  0  0  0  0
  6  7  1  0  0  0  0
  7  2  2  0  0  0  0
  7  8  1  0  0  0  0
  8  9  1  0  0  0  0
  9 10  2  0  0  0  0
 10 11  1  0  0  0  0
 11 12  1  0  0  0  0
 12 13  2  0  0  0  0
 13 14  1  0  0  0  0
 14 15  2  0  0  0  0
 15 10  1  0  0  0  0
 13 16  1  0  0  0  0
 11 17  2  0  0  0  0
 17  8  1  0  0  0  0
  5 18  1  0  0  0  0
 18 19  1  0  0  0  0
 18 20  1  0  0  0  0
 18 21  1  0  0  0  0
  3 22  1  0  0  0  0
 22 23  1  0  0  0  0
 22 24  1  0  0  0  0
 22 25  1  0  0  0  0
M  END