419
  Mrv0541 04071411322D          

 11 11  0  0  0  0            999 V2000
    0.3884    0.2238    0.0000 C   0  0  0  0  0  0  0  0  0  0  0  0
   -0.3181    0.6289    0.0000 N   0  0  0  0  0  0  0  0  0  0  0  0
    0.3884   -0.6141    0.0000 N   0  0  0  0  0  0  0  0  0  0  0  0
    1.1062    0.6400    0.0000 C   0  0  0  0  0  0  0  0  0  0  0  0
   -1.0396    0.2312    0.0000 C   0  0  0  0  0  0  0  0  0  0  0  0
   -0.3293   -1.0229    0.0000 C   0  0  0  0  0  0  0  0  0  0  0  0
    1.1062    1.4650    0.0000 C   0  0  0  0  0  0  0  0  0  0  0  0
    1.8165    0.2312    0.0000 C   0  0  0  0  0  0  0  0  0  0  0  0
   -1.0396   -0.6049    0.0000 C   0  0  0  0  0  0  0  0  0  0  0  0
   -1.7443    0.6604    0.0000 C   0  0  0  0  0  0  0  0  0  0  0  0
   -0.3293   -1.8387    0.0000 O   0  0  0  0  0  0  0  0  0  0  0  0
  1  2  1  0  0  0  0
  1  3  2  0  0  0  0
  1  4  1  0  0  0  0
  2  5  1  0  0  0  0
  3  6  1  0  0  0  0
  4  7  1  0  0  0  0
  4  8  1  0  0  0  0
  5  9  2  0  0  0  0
  5 10  1  0  0  0  0
  6 11  2  0  0  0  0
  6  9  1  0  0  0  0
M  END