421
  Mrv0541 04071411322D          

 12 12  0  0  0  0            999 V2000
   -0.7139   -0.4130    0.0000 C   0  0  0  0  0  0  0  0  0  0  0  0
   -1.4482   -0.8312    0.0000 C   0  0  0  0  0  0  0  0  0  0  0  0
   -0.0034   -0.8176    0.0000 C   0  0  0  0  0  0  0  0  0  0  0  0
   -0.7139    0.4215    0.0000 C   0  0  0  0  0  0  0  0  0  0  0  0
   -2.1536   -0.4130    0.0000 O   0  0  0  0  0  0  0  0  0  0  0  0
   -1.4482   -1.6555    0.0000 O   0  0  0  0  0  0  0  0  0  0  0  0
    0.7156   -0.4130    0.0000 C   0  0  0  0  0  0  0  0  0  0  0  0
   -0.0034    0.8261    0.0000 N   0  0  0  0  0  0  0  0  0  0  0  0
    0.7156    0.4080    0.0000 C   0  0  0  0  0  0  0  0  0  0  0  0
    1.4499    0.8261    0.0000 C   0  0  0  0  0  0  0  0  0  0  0  0
    2.1536    0.4080    0.0000 O   0  0  0  0  0  0  0  0  0  0  0  0
    1.4499    1.6521    0.0000 O   0  0  0  0  0  0  0  0  0  0  0  0
  1  2  1  0  0  0  0
  1  3  2  0  0  0  0
  1  4  1  0  0  0  0
  2  5  1  0  0  0  0
  2  6  2  0  0  0  0
  3  7  1  0  0  0  0
  4  8  2  0  0  0  0
  7  9  2  0  0  0  0
  9 10  1  0  0  0  0
 10 11  1  0  0  0  0
 10 12  2  0  0  0  0
  8  9  1  0  0  0  0
M  END