424
  Mrv0541 04071411322D          

  9  8  0  0  0  0            999 V2000
   -0.0018   -0.4991    0.0000 O   0  0  0  0  0  0  0  0  0  0  0  0
    0.6851   -0.0313    0.0000 C   0  0  0  0  0  0  0  0  0  0  0  0
   -0.6961   -0.0092    0.0000 C   0  0  0  0  0  0  0  0  0  0  0  0
    1.3573   -0.5193    0.0000 C   0  0  0  0  0  0  0  0  0  0  0  0
    0.7091    0.7827    0.0000 C   0  0  0  0  0  0  0  0  0  0  0  0
   -1.3573   -0.4789    0.0000 C   0  0  0  0  0  0  0  0  0  0  0  0
   -0.6961    0.8158    0.0000 C   0  0  0  0  0  0  0  0  0  0  0  0
    2.0405   -0.0626    0.0000 Cl  0  0  0  0  0  0  0  0  0  0  0  0
   -2.0386   -0.0018    0.0000 Cl  0  0  0  0  0  0  0  0  0  0  0  0
  1  2  1  0  0  0  0
  1  3  1  0  0  0  0
  2  4  1  0  0  0  0
  2  5  1  0  0  0  0
  3  6  1  0  0  0  0
  3  7  1  0  0  0  0
  4  8  1  0  0  0  0
  6  9  1  0  0  0  0
M  END