425
  Mrv0541 04071411322D          

  9  9  0  0  0  0            999 V2000
   -0.7067   -0.4059    0.0000 C   0  0  0  0  0  0  0  0  0  0  0  0
   -0.7067    0.4059    0.0000 O   0  0  0  0  0  0  0  0  0  0  0  0
    0.0037   -0.8212    0.0000 O   0  0  0  0  0  0  0  0  0  0  0  0
   -1.4209   -0.8249    0.0000 C   0  0  0  0  0  0  0  0  0  0  0  0
   -0.0092    0.8175    0.0000 C   0  0  0  0  0  0  0  0  0  0  0  0
    0.7104   -0.4041    0.0000 C   0  0  0  0  0  0  0  0  0  0  0  0
    0.7104    0.4096    0.0000 O   0  0  0  0  0  0  0  0  0  0  0  0
   -0.0092    1.6404    0.0000 C   0  0  0  0  0  0  0  0  0  0  0  0
    1.4263   -0.8212    0.0000 C   0  0  0  0  0  0  0  0  0  0  0  0
  1  2  1  0  0  0  0
  1  3  1  0  0  0  0
  1  4  1  0  0  0  0
  2  5  1  0  0  0  0
  3  6  1  0  0  0  0
  5  7  1  0  0  0  0
  5  8  1  0  0  0  0
  6  9  1  0  0  0  0
  6  7  1  0  0  0  0
M  END