426
  Mrv0541 04071411322D          

 14 13  0  0  0  0            999 V2000
    0.4320   -0.0483    0.0000 P   0  0  0  0  0  0  0  0  0  0  0  0
   -0.2058   -0.5823    0.0000 O   0  0  0  0  0  0  0  0  0  0  0  0
    1.1404    0.3542    0.0000 O   0  0  0  0  0  0  0  0  0  0  0  0
   -0.1521    0.5266    0.0000 O   0  0  0  0  0  0  0  0  0  0  0  0
    0.8919   -0.7306    0.0000 O   0  0  0  0  0  0  0  0  0  0  0  0
   -0.9846   -0.2986    0.0000 C   0  0  0  0  0  0  0  0  0  0  0  0
    1.8598   -0.0519    0.0000 C   0  0  0  0  0  0  0  0  0  0  0  0
   -0.9568    0.3189    0.0000 C   0  0  0  0  0  0  0  0  0  0  0  0
   -1.6225   -0.8288    0.0000 C   0  0  0  0  0  0  0  0  0  0  0  0
    2.5793    0.3468    0.0000 C   0  0  0  0  0  0  0  0  0  0  0  0
   -1.5353    0.9030    0.0000 C   0  0  0  0  0  0  0  0  0  0  0  0
   -2.3958   -0.5414    0.0000 C   0  0  0  0  0  0  0  0  0  0  0  0
    3.2914   -0.0575    0.0000 C   0  0  0  0  0  0  0  0  0  0  0  0
   -2.3420    0.6879    0.0000 C   0  0  0  0  0  0  0  0  0  0  0  0
  1  2  1  0  0  0  0
  1  3  1  0  0  0  0
  1  4  1  0  0  0  0
  1  5  2  0  0  0  0
  2  6  1  0  0  0  0
  3  7  1  0  0  0  0
  4  8  1  0  0  0  0
  6  9  1  0  0  0  0
  7 10  1  0  0  0  0
  8 11  1  0  0  0  0
  9 12  2  0  0  0  0
 10 13  2  0  0  0  0
 11 14  2  0  0  0  0
M  END