43
  Mrv0541 04071411322D          

 20 24  0  0  0  0            999 V2000
    0.7076    0.4064    0.0000 C   0  0  0  0  0  0  0  0  0  0  0  0
    0.0018    0.8184    0.0000 C   0  0  0  0  0  0  0  0  0  0  0  0
    0.7002   -0.4046    0.0000 C   0  0  0  0  0  0  0  0  0  0  0  0
    1.4300    0.8259    0.0000 C   0  0  0  0  0  0  0  0  0  0  0  0
   -0.7057    0.4064    0.0000 C   0  0  0  0  0  0  0  0  0  0  0  0
   -0.0055    1.6424    0.0000 C   0  0  0  0  0  0  0  0  0  0  0  0
    0.0018   -0.8147    0.0000 C   0  0  0  0  0  0  0  0  0  0  0  0
    1.4207   -0.8259    0.0000 C   0  0  0  0  0  0  0  0  0  0  0  0
    1.4225    1.6424    0.0000 C   0  0  0  0  0  0  0  0  0  0  0  0
    2.1449    0.4101    0.0000 C   0  0  0  0  0  0  0  0  0  0  0  0
   -0.7057   -0.4064    0.0000 C   0  0  0  0  0  0  0  0  0  0  0  0
   -1.4189    0.8259    0.0000 C   0  0  0  0  0  0  0  0  0  0  0  0
    0.7131    2.0655    0.0000 C   0  0  0  0  0  0  0  0  0  0  0  0
    0.0037   -1.6461    0.0000 C   0  0  0  0  0  0  0  0  0  0  0  0
    2.1449   -0.4138    0.0000 C   0  0  0  0  0  0  0  0  0  0  0  0
   -1.4300   -0.8259    0.0000 C   0  0  0  0  0  0  0  0  0  0  0  0
   -2.1413    0.4101    0.0000 C   0  0  0  0  0  0  0  0  0  0  0  0
   -0.7131   -2.0655    0.0000 C   0  0  0  0  0  0  0  0  0  0  0  0
   -2.1394   -0.4138    0.0000 C   0  0  0  0  0  0  0  0  0  0  0  0
   -1.4300   -1.6387    0.0000 C   0  0  0  0  0  0  0  0  0  0  0  0
  1  2  2  0  0  0  0
  1  3  1  0  0  0  0
  1  4  1  0  0  0  0
  2  5  1  0  0  0  0
  2  6  1  0  0  0  0
  3  7  1  0  0  0  0
  3  8  2  0  0  0  0
  4  9  2  0  0  0  0
  4 10  1  0  0  0  0
  5 11  2  0  0  0  0
  5 12  1  0  0  0  0
  6 13  2  0  0  0  0
  7 14  2  0  0  0  0
  8 15  1  0  0  0  0
 11 16  1  0  0  0  0
 12 17  2  0  0  0  0
 14 18  1  0  0  0  0
 16 19  2  0  0  0  0
 16 20  1  0  0  0  0
  7 11  1  0  0  0  0
  9 13  1  0  0  0  0
 10 15  2  0  0  0  0
 17 19  1  0  0  0  0
 18 20  2  0  0  0  0
M  END