435
  Mrv0541 04071411322D          

 11 11  0  0  0  0            999 V2000
   -0.0700    0.1289    0.0000 C   0  0  0  0  0  0  0  0  0  0  0  0
    0.3333   -0.5801    0.0000 C   0  0  0  0  0  0  0  0  0  0  0  0
    0.3463    0.8438    0.0000 C   0  0  0  0  0  0  0  0  0  0  0  0
   -0.8953    0.1289    0.0000 S   0  0  0  0  0  0  0  0  0  0  0  0
    1.1403   -0.5801    0.0000 C   0  0  0  0  0  0  0  0  0  0  0  0
   -0.0939   -1.2931    0.0000 C   0  0  0  0  0  0  0  0  0  0  0  0
    1.1753    0.8456    0.0000 C   0  0  0  0  0  0  0  0  0  0  0  0
   -0.8953    0.9505    0.0000 N   0  0  0  0  0  0  0  0  0  0  0  0
   -1.7056    0.1289    0.0000 O   0  0  0  0  0  0  0  0  0  0  0  0
   -0.8953   -0.6983    0.0000 O   0  0  0  0  0  0  0  0  0  0  0  0
    1.5620    0.1289    0.0000 C   0  0  0  0  0  0  0  0  0  0  0  0
  1  2  2  0  0  0  0
  1  3  1  0  0  0  0
  1  4  1  0  0  0  0
  2  5  1  0  0  0  0
  2  6  1  0  0  0  0
  3  7  2  0  0  0  0
  4  8  1  0  0  0  0
  4  9  2  0  0  0  0
  4 10  2  0  0  0  0
  5 11  2  0  0  0  0
  7 11  1  0  0  0  0
M  END