438
  Mrv0541 04071411322D          

 31 33  0  0  0  0            999 V2000
    3.8054   -4.4036    0.0000 O   0  0  0  0  0  0  0  0  0  0  0  0
    4.5195   -4.8169    0.0000 S   0  0  0  0  0  0  0  0  0  0  0  0
    4.9328   -4.1027    0.0000 O   0  0  0  0  0  0  0  0  0  0  0  0
    4.1063   -5.5309    0.0000 O   0  0  0  0  0  0  0  0  0  0  0  0
    5.2337   -5.2300    0.0000 C   0  0  0  0  0  0  0  0  0  0  0  0
    5.2337   -6.0579    0.0000 C   0  0  0  0  0  0  0  0  0  0  0  0
    5.9449   -6.4675    0.0000 C   0  0  0  0  0  0  0  0  0  0  0  0
    5.9446   -7.2926    0.0000 Cl  0  0  0  0  0  0  0  0  0  0  0  0
    6.6601   -6.0564    0.0000 C   0  0  0  0  0  0  0  0  0  0  0  0
    6.6643   -5.2356    0.0000 C   0  0  0  0  0  0  0  0  0  0  0  0
    5.9490   -4.8189    0.0000 C   0  0  0  0  0  0  0  0  0  0  0  0
    5.9514   -3.9939    0.0000 O   0  0  0  0  0  0  0  0  0  0  0  0
    5.9596   -3.1669    0.0000 C   0  0  0  0  0  0  0  0  0  0  0  0
    6.6791   -2.7575    0.0000 C   0  0  0  0  0  0  0  0  0  0  0  0
    6.6836   -1.9368    0.0000 C   0  0  0  0  0  0  0  0  0  0  0  0
    5.9727   -1.5182    0.0000 C   0  0  0  0  0  0  0  0  0  0  0  0
    5.9809   -0.6932    0.0000 Cl  0  0  0  0  0  0  0  0  0  0  0  0
    5.2572   -1.9204    0.0000 C   0  0  0  0  0  0  0  0  0  0  0  0
    5.2485   -2.7483    0.0000 C   0  0  0  0  0  0  0  0  0  0  0  0
    4.5367   -3.1629    0.0000 N   0  0  0  0  0  0  0  0  0  0  0  0
    3.8106   -2.7650    0.0000 C   0  0  0  0  0  0  0  0  0  0  0  0
    3.7931   -1.9445    0.0000 O   0  0  0  0  0  0  0  0  0  0  0  0
    3.1054   -3.1931    0.0000 N   0  0  0  0  0  0  0  0  0  0  0  0
    2.3819   -2.7962    0.0000 C   0  0  0  0  0  0  0  0  0  0  0  0
    1.6737   -3.2251    0.0000 C   0  0  0  0  0  0  0  0  0  0  0  0
    0.9550   -2.8289    0.0000 C   0  0  0  0  0  0  0  0  0  0  0  0
    0.9362   -2.0042    0.0000 C   0  0  0  0  0  0  0  0  0  0  0  0
    0.2118   -1.6091    0.0000 Cl  0  0  0  0  0  0  0  0  0  0  0  0
    1.6360   -1.5754    0.0000 C   0  0  0  0  0  0  0  0  0  0  0  0
    1.6151   -0.7507    0.0000 Cl  0  0  0  0  0  0  0  0  0  0  0  0
    2.3632   -1.9715    0.0000 C   0  0  0  0  0  0  0  0  0  0  0  0
 11 12  1  0  0  0  0
 12 13  1  0  0  0  0
 13 14  1  0  0  0  0
 14 15  2  0  0  0  0
 15 16  1  0  0  0  0
 16 17  1  0  0  0  0
 16 18  2  0  0  0  0
 18 19  1  0  0  0  0
 19 13  2  0  0  0  0
  1  2  1  0  0  0  0
  2  3  2  0  0  0  0
  2  4  2  0  0  0  0
  2  5  1  0  0  0  0
  5  6  1  0  0  0  0
  6  7  2  0  0  0  0
  7  8  1  0  0  0  0
  7  9  1  0  0  0  0
  9 10  2  0  0  0  0
 10 11  1  0  0  0  0
 11  5  2  0  0  0  0
 20 21  1  0  0  0  0
 21 22  2  0  0  0  0
 21 23  1  0  0  0  0
 23 24  1  0  0  0  0
 24 25  1  0  0  0  0
 25 26  2  0  0  0  0
 26 27  1  0  0  0  0
 27 28  1  0  0  0  0
 27 29  2  0  0  0  0
 29 30  1  0  0  0  0
 29 31  1  0  0  0  0
 31 24  2  0  0  0  0
 20 19  1  0  0  0  0
M  END