439
  Mrv0541 04071411322D          

 21 21  0  0  0  0            999 V2000
    3.4357   -0.9087    0.0000 O   0  0  0  0  0  0  0  0  0  0  0  0
    4.0488   -0.4926    0.0000 O   0  0  0  0  0  0  0  0  0  0  0  0
    4.8746   -0.4979    0.0000 C   0  0  0  0  0  0  0  0  0  0  0  0
    4.8607    0.3371    0.0000 C   0  0  0  0  0  0  0  0  0  0  0  0
    5.5861   -0.4939    0.0000 C   0  0  0  0  0  0  0  0  0  0  0  0
    4.8622   -1.2411    0.0000 C   0  0  0  0  0  0  0  0  0  0  0  0
    2.7506   -1.4334    0.0000 C   0  0  0  0  0  0  0  0  0  0  0  0
    2.1677   -0.9061    0.0000 O   0  0  0  0  0  0  0  0  0  0  0  0
    1.6019   -0.4416    0.0000 O   0  0  0  0  0  0  0  0  0  0  0  0
    0.6422   -0.4405    0.0000 C   0  0  0  0  0  0  0  0  0  0  0  0
    0.6419   -1.0625    0.0000 C   0  0  0  0  0  0  0  0  0  0  0  0
   -0.0574   -0.4402    0.0000 C   0  0  0  0  0  0  0  0  0  0  0  0
    0.6695    0.3363    0.0000 C   0  0  0  0  0  0  0  0  0  0  0  0
    2.0333   -1.8555    0.0000 C   0  0  0  0  0  0  0  0  0  0  0  0
    2.0409   -2.6805    0.0000 C   0  0  0  0  0  0  0  0  0  0  0  0
    2.7617   -3.0907    0.0000 C   0  0  0  0  0  0  0  0  0  0  0  0
    3.4751   -2.6760    0.0000 C   0  0  0  0  0  0  0  0  0  0  0  0
    4.1910   -2.3076    0.0000 C   0  0  0  0  0  0  0  0  0  0  0  0
    3.9031   -3.2644    0.0000 C   0  0  0  0  0  0  0  0  0  0  0  0
    3.4715   -1.8437    0.0000 C   0  0  0  0  0  0  0  0  0  0  0  0
    1.3258   -3.1008    0.0000 C   0  0  0  0  0  0  0  0  0  0  0  0
  1  2  1  0  0  0  0
  2  3  1  0  0  0  0
  3  4  1  0  0  0  0
  3  5  1  0  0  0  0
  3  6  1  0  0  0  0
  1  7  1  0  0  0  0
  7  8  1  0  0  0  0
  8  9  1  0  0  0  0
  9 10  1  0  0  0  0
 10 11  1  0  0  0  0
 10 12  1  0  0  0  0
 10 13  1  0  0  0  0
  7 14  1  0  0  0  0
 14 15  1  0  0  0  0
 15 16  1  0  0  0  0
 16 17  1  0  0  0  0
 17 18  1  0  0  0  0
 17 19  1  0  0  0  0
 17 20  1  0  0  0  0
 20  7  1  0  0  0  0
 15 21  1  0  0  0  0
M  END