443
  Mrv0541 04071411322D          

 27 28  0  0  0  0            999 V2000
   -1.1455    0.7336    0.0000 P   0  0  0  0  0  0  0  0  0  0  0  0
   -0.3322    0.7336    0.0000 O   0  0  0  0  0  0  0  0  0  0  0  0
   -1.9553    0.7198    0.0000 O   0  0  0  0  0  0  0  0  0  0  0  0
   -1.1455   -0.0934    0.0000 O   0  0  0  0  0  0  0  0  0  0  0  0
   -1.1455    1.5539    0.0000 O   0  0  0  0  0  0  0  0  0  0  0  0
    0.4845    0.7198    0.0000 C   0  0  0  0  0  0  0  0  0  0  0  0
   -2.7582    0.7198    0.0000 C   0  0  0  0  0  0  0  0  0  0  0  0
   -1.1455   -0.9240    0.0000 C   0  0  0  0  0  0  0  0  0  0  0  0
    0.8998   -0.0277    0.0000 C   0  0  0  0  0  0  0  0  0  0  0  0
    0.9240    1.4016    0.0000 C   0  0  0  0  0  0  0  0  0  0  0  0
   -3.1804    1.4154    0.0000 C   0  0  0  0  0  0  0  0  0  0  0  0
   -3.1665    0.0173    0.0000 C   0  0  0  0  0  0  0  0  0  0  0  0
   -0.4325   -1.3324    0.0000 C   0  0  0  0  0  0  0  0  0  0  0  0
    1.7372   -0.0519    0.0000 C   0  0  0  0  0  0  0  0  0  0  0  0
    1.7649    1.3843    0.0000 C   0  0  0  0  0  0  0  0  0  0  0  0
   -4.0178    1.4154    0.0000 C   0  0  0  0  0  0  0  0  0  0  0  0
   -3.9936   -0.0069    0.0000 C   0  0  0  0  0  0  0  0  0  0  0  0
    0.2838   -0.9171    0.0000 C   0  0  0  0  0  0  0  0  0  0  0  0
    2.1733    0.6714    0.0000 C   0  0  0  0  0  0  0  0  0  0  0  0
   -4.4192    0.6991    0.0000 C   0  0  0  0  0  0  0  0  0  0  0  0
    1.0002   -1.3254    0.0000 C   0  0  0  0  0  0  0  0  0  0  0  0
    1.7130   -0.9102    0.0000 C   0  0  0  0  0  0  0  0  0  0  0  0
    2.4294   -1.3254    0.0000 C   0  0  0  0  0  0  0  0  0  0  0  0
    3.1423   -0.9102    0.0000 C   0  0  0  0  0  0  0  0  0  0  0  0
    3.8552   -1.3185    0.0000 C   0  0  0  0  0  0  0  0  0  0  0  0
    4.5750   -0.9066    0.0000 C   0  0  0  0  0  0  0  0  0  0  0  0
    3.8586   -2.1491    0.0000 C   0  0  0  0  0  0  0  0  0  0  0  0
  1  2  1  0  0  0  0
  1  3  1  0  0  0  0
  1  4  1  0  0  0  0
  1  5  2  0  0  0  0
  2  6  1  0  0  0  0
  3  7  1  0  0  0  0
  4  8  1  0  0  0  0
  6  9  2  0  0  0  0
  6 10  1  0  0  0  0
  7 11  2  0  0  0  0
  7 12  1  0  0  0  0
  8 13  1  0  0  0  0
  9 14  1  0  0  0  0
 10 15  2  0  0  0  0
 11 16  1  0  0  0  0
 12 17  2  0  0  0  0
 13 18  1  0  0  0  0
 14 19  2  0  0  0  0
 16 20  2  0  0  0  0
 18 21  1  0  0  0  0
 21 22  1  0  0  0  0
 22 23  1  0  0  0  0
 23 24  1  0  0  0  0
 24 25  1  0  0  0  0
 25 26  1  0  0  0  0
 25 27  1  0  0  0  0
 15 19  1  0  0  0  0
 17 20  1  0  0  0  0
M  END