444
  Mrv0541 04071411322D          

 29 30  0  0  0  0            999 V2000
    2.8512    0.2067    0.0000 O   0  0  0  0  0  0  0  0  0  0  0  0
    2.1404   -0.2036    0.0000 P   0  0  0  0  0  0  0  0  0  0  0  0
    2.1412   -1.0314    0.0000 O   0  0  0  0  0  0  0  0  0  0  0  0
    1.4272   -1.4446    0.0000 C   0  0  0  0  0  0  0  0  0  0  0  0
    0.7095   -1.0321    0.0000 C   0  0  0  0  0  0  0  0  0  0  0  0
    0.0000   -1.4446    0.0000 C   0  0  0  0  0  0  0  0  0  0  0  0
    0.0000   -2.2696    0.0000 C   0  0  0  0  0  0  0  0  0  0  0  0
    0.7095   -2.6821    0.0000 C   0  0  0  0  0  0  0  0  0  0  0  0
    1.4272   -2.2696    0.0000 C   0  0  0  0  0  0  0  0  0  0  0  0
    1.4258    0.2086    0.0000 O   0  0  0  0  0  0  0  0  0  0  0  0
    1.4254    1.0335    0.0000 C   0  0  0  0  0  0  0  0  0  0  0  0
    0.7087    1.4478    0.0000 C   0  0  0  0  0  0  0  0  0  0  0  0
    0.7100    2.2685    0.0000 C   0  0  0  0  0  0  0  0  0  0  0  0
    1.4238    2.6821    0.0000 C   0  0  0  0  0  0  0  0  0  0  0  0
    2.1365    2.2749    0.0000 C   0  0  0  0  0  0  0  0  0  0  0  0
    2.1393    1.4471    0.0000 C   0  0  0  0  0  0  0  0  0  0  0  0
    3.5676   -0.2080    0.0000 C   0  0  0  0  0  0  0  0  0  0  0  0
    4.2784    0.2023    0.0000 C   0  0  0  0  0  0  0  0  0  0  0  0
    4.9948   -0.2124    0.0000 C   0  0  0  0  0  0  0  0  0  0  0  0
    5.7139    0.1979    0.0000 C   0  0  0  0  0  0  0  0  0  0  0  0
    6.4221   -0.2168    0.0000 C   0  0  0  0  0  0  0  0  0  0  0  0
    7.1411    0.1935    0.0000 C   0  0  0  0  0  0  0  0  0  0  0  0
    7.8493   -0.2212    0.0000 C   0  0  0  0  0  0  0  0  0  0  0  0
    8.5683    0.1891    0.0000 C   0  0  0  0  0  0  0  0  0  0  0  0
    9.2847   -0.2256    0.0000 C   0  0  0  0  0  0  0  0  0  0  0  0
    9.9955    0.1847    0.0000 C   0  0  0  0  0  0  0  0  0  0  0  0
   10.7120   -0.2300    0.0000 C   0  0  0  0  0  0  0  0  0  0  0  0
   11.4227    0.1803    0.0000 C   0  0  0  0  0  0  0  0  0  0  0  0
   12.1392   -0.2345    0.0000 C   0  0  0  0  0  0  0  0  0  0  0  0
  1  2  1  0  0  0  0
  2  3  1  0  0  0  0
  3  4  1  0  0  0  0
  4  5  1  0  0  0  0
  5  6  2  0  0  0  0
  6  7  1  0  0  0  0
  7  8  2  0  0  0  0
  8  9  1  0  0  0  0
  9  4  2  0  0  0  0
  2 10  1  0  0  0  0
 10 11  1  0  0  0  0
 11 12  1  0  0  0  0
 12 13  2  0  0  0  0
 13 14  1  0  0  0  0
 14 15  2  0  0  0  0
 15 16  1  0  0  0  0
 16 11  2  0  0  0  0
  1 17  1  0  0  0  0
 17 18  1  0  0  0  0
 18 19  1  0  0  0  0
 19 20  1  0  0  0  0
 20 21  1  0  0  0  0
 21 22  1  0  0  0  0
 22 23  1  0  0  0  0
 23 24  1  0  0  0  0
 24 25  1  0  0  0  0
 25 26  1  0  0  0  0
 26 27  1  0  0  0  0
 27 28  1  0  0  0  0
 28 29  1  0  0  0  0
M  END