445
  Mrv0541 04071411322D          

 32 34  0  0  0  0            999 V2000
    2.1625    0.2956    0.0000 P   0  0  0  0  0  0  0  0  0  0  0  0
    2.9757    0.2956    0.0000 O   0  0  0  0  0  0  0  0  0  0  0  0
    1.3552    0.2897    0.0000 O   0  0  0  0  0  0  0  0  0  0  0  0
    2.1625   -0.5263    0.0000 O   0  0  0  0  0  0  0  0  0  0  0  0
    2.1625    1.1203    0.0000 O   0  0  0  0  0  0  0  0  0  0  0  0
    3.8005    0.2897    0.0000 C   0  0  0  0  0  0  0  0  0  0  0  0
    0.5538    0.2897    0.0000 C   0  0  0  0  0  0  0  0  0  0  0  0
    2.1597   -1.3308    0.0000 C   0  0  0  0  0  0  0  0  0  0  0  0
    4.2027   -0.4651    0.0000 C   0  0  0  0  0  0  0  0  0  0  0  0
    4.2405    0.9717    0.0000 C   0  0  0  0  0  0  0  0  0  0  0  0
    0.1312    0.9834    0.0000 C   0  0  0  0  0  0  0  0  0  0  0  0
    0.1457   -0.4214    0.0000 C   0  0  0  0  0  0  0  0  0  0  0  0
    1.4223   -1.7504    0.0000 C   0  0  0  0  0  0  0  0  0  0  0  0
    2.8387   -1.7824    0.0000 C   0  0  0  0  0  0  0  0  0  0  0  0
    5.0479   -0.4856    0.0000 C   0  0  0  0  0  0  0  0  0  0  0  0
    5.0741    0.9542    0.0000 C   0  0  0  0  0  0  0  0  0  0  0  0
   -0.7112    0.9834    0.0000 C   0  0  0  0  0  0  0  0  0  0  0  0
   -0.6790   -0.4418    0.0000 C   0  0  0  0  0  0  0  0  0  0  0  0
    1.4019   -2.5665    0.0000 C   0  0  0  0  0  0  0  0  0  0  0  0
    2.8270   -2.5986    0.0000 C   0  0  0  0  0  0  0  0  0  0  0  0
    5.4793    0.2431    0.0000 C   0  0  0  0  0  0  0  0  0  0  0  0
   -1.1133    0.2634    0.0000 C   0  0  0  0  0  0  0  0  0  0  0  0
    2.1159   -3.0007    0.0000 C   0  0  0  0  0  0  0  0  0  0  0  0
    2.1026   -3.8363    0.0000 C   0  0  0  0  0  0  0  0  0  0  0  0
    1.3723   -4.2426    0.0000 C   0  0  0  0  0  0  0  0  0  0  0  0
    2.8196   -4.2656    0.0000 C   0  0  0  0  0  0  0  0  0  0  0  0
   -1.9378    0.2460    0.0000 C   0  0  0  0  0  0  0  0  0  0  0  0
   -2.3652    0.9512    0.0000 C   0  0  0  0  0  0  0  0  0  0  0  0
   -2.3348   -0.4769    0.0000 C   0  0  0  0  0  0  0  0  0  0  0  0
    6.3260    0.2361    0.0000 C   0  0  0  0  0  0  0  0  0  0  0  0
    6.7433   -0.5008    0.0000 C   0  0  0  0  0  0  0  0  0  0  0  0
    6.7555    0.9658    0.0000 C   0  0  0  0  0  0  0  0  0  0  0  0
  6 10  1  0  0  0  0
  7 11  2  0  0  0  0
  7 12  1  0  0  0  0
  8 13  2  0  0  0  0
  8 14  1  0  0  0  0
  9 15  1  0  0  0  0
 10 16  2  0  0  0  0
 11 17  1  0  0  0  0
 12 18  2  0  0  0  0
 13 19  1  0  0  0  0
 14 20  2  0  0  0  0
 15 21  2  0  0  0  0
 17 22  2  0  0  0  0
 19 23  2  0  0  0  0
 16 21  1  0  0  0  0
 18 22  1  0  0  0  0
 20 23  1  0  0  0  0
 23 24  1  0  0  0  0
  1  2  1  0  0  0  0
 24 25  1  0  0  0  0
  1  3  1  0  0  0  0
 24 26  1  0  0  0  0
  1  4  1  0  0  0  0
 22 27  1  0  0  0  0
  1  5  2  0  0  0  0
 27 28  1  0  0  0  0
  2  6  1  0  0  0  0
 27 29  1  0  0  0  0
  3  7  1  0  0  0  0
 21 30  1  0  0  0  0
  4  8  1  0  0  0  0
 30 31  1  0  0  0  0
  6  9  2  0  0  0  0
 30 32  1  0  0  0  0
M  END