447
  Mrv0541 04071411322D          

 21 22  0  0  0  0            999 V2000
    1.6655    0.1277    0.0000 C   0  0  0  0  0  0  0  0  0  0  0  0
    0.8094    0.1152    0.0000 P   0  0  0  0  0  0  0  0  0  0  0  0
    2.0734    0.8530    0.0000 C   0  0  0  0  0  0  0  0  0  0  0  0
    2.0609   -0.5447    0.0000 C   0  0  0  0  0  0  0  0  0  0  0  0
   -0.0155    0.1277    0.0000 O   0  0  0  0  0  0  0  0  0  0  0  0
    0.8094   -0.7377    0.0000 O   0  0  0  0  0  0  0  0  0  0  0  0
    0.8094    1.0086    0.0000 S   0  0  0  0  0  0  0  0  0  0  0  0
    2.9045    0.8654    0.0000 C   0  0  0  0  0  0  0  0  0  0  0  0
    2.9076   -0.5572    0.0000 C   0  0  0  0  0  0  0  0  0  0  0  0
   -0.8280    0.1307    0.0000 C   0  0  0  0  0  0  0  0  0  0  0  0
    1.5752   -1.0460    0.0000 C   0  0  0  0  0  0  0  0  0  0  0  0
    3.3373    0.1619    0.0000 C   0  0  0  0  0  0  0  0  0  0  0  0
   -1.2110    0.8654    0.0000 C   0  0  0  0  0  0  0  0  0  0  0  0
   -1.2110   -0.5447    0.0000 C   0  0  0  0  0  0  0  0  0  0  0  0
    1.5659   -1.8429    0.0000 C   0  0  0  0  0  0  0  0  0  0  0  0
   -2.0235    0.8654    0.0000 C   0  0  0  0  0  0  0  0  0  0  0  0
   -2.0360   -0.5386    0.0000 C   0  0  0  0  0  0  0  0  0  0  0  0
   -2.4531    0.1619    0.0000 C   0  0  0  0  0  0  0  0  0  0  0  0
   -3.2656    0.1494    0.0000 N   0  3  0  0  0  0  0  0  0  0  0  0
   -3.7513   -0.5013    0.0000 O   0  0  0  0  0  0  0  0  0  0  0  0
   -3.7264    0.8841    0.0000 O   0  5  0  0  0  0  0  0  0  0  0  0
  1  2  1  0  0  0  0
  1  3  1  0  0  0  0
  1  4  2  0  0  0  0
  2  5  1  0  0  0  0
  2  6  1  0  0  0  0
  2  7  2  0  0  0  0
  3  8  2  0  0  0  0
  4  9  1  0  0  0  0
  5 10  1  0  0  0  0
  6 11  1  0  0  0  0
  8 12  1  0  0  0  0
 10 13  1  0  0  0  0
 10 14  2  0  0  0  0
 11 15  1  0  0  0  0
 13 16  2  0  0  0  0
 14 17  1  0  0  0  0
 16 18  1  0  0  0  0
 18 19  1  0  0  0  0
 19 20  2  0  0  0  0
 19 21  1  0  0  0  0
  9 12  2  0  0  0  0
 17 18  2  0  0  0  0
M  CHG  2  19   1  21  -1
M  END