45
  Mrv0541 04071411322D          

 15 17  0  0  0  0            999 V2000
   -0.4117    0.0781    0.0000 C   0  0  0  0  0  0  0  0  0  0  0  0
    0.4036    0.0781    0.0000 C   0  0  0  0  0  0  0  0  0  0  0  0
   -0.6475   -0.7160    0.0000 C   0  0  0  0  0  0  0  0  0  0  0  0
   -0.9552    0.6818    0.0000 C   0  0  0  0  0  0  0  0  0  0  0  0
    0.6672   -0.7062    0.0000 C   0  0  0  0  0  0  0  0  0  0  0  0
    0.9584    0.6916    0.0000 C   0  0  0  0  0  0  0  0  0  0  0  0
    0.0033   -1.1813    0.0000 O   0  0  0  0  0  0  0  0  0  0  0  0
   -1.4596   -0.8885    0.0000 C   0  0  0  0  0  0  0  0  0  0  0  0
   -1.7622    0.5320    0.0000 C   0  0  0  0  0  0  0  0  0  0  0  0
    1.4661   -0.8820    0.0000 C   0  0  0  0  0  0  0  0  0  0  0  0
    1.7524    0.5320    0.0000 C   0  0  0  0  0  0  0  0  0  0  0  0
   -2.0096   -0.2751    0.0000 C   0  0  0  0  0  0  0  0  0  0  0  0
   -2.3155    1.1537    0.0000 Cl  0  0  0  0  0  0  0  0  0  0  0  0
    2.0178   -0.2685    0.0000 C   0  0  0  0  0  0  0  0  0  0  0  0
    2.2960    1.1700    0.0000 Cl  0  0  0  0  0  0  0  0  0  0  0  0
  1  2  1  0  0  0  0
  1  3  2  0  0  0  0
  1  4  1  0  0  0  0
  2  5  2  0  0  0  0
  2  6  1  0  0  0  0
  3  7  1  0  0  0  0
  3  8  1  0  0  0  0
  4  9  2  0  0  0  0
  5 10  1  0  0  0  0
  6 11  2  0  0  0  0
  8 12  2  0  0  0  0
  9 13  1  0  0  0  0
 10 14  2  0  0  0  0
 11 15  1  0  0  0  0
  5  7  1  0  0  0  0
  9 12  1  0  0  0  0
 11 14  1  0  0  0  0
M  END