454
  Mrv0541 04071411322D          

 15 16  0  0  0  0            999 V2000
   -0.3931    0.2586    0.0000 C   0  0  0  0  0  0  0  0  0  0  0  0
    0.3310   -0.1207    0.0000 C   0  0  0  0  0  0  0  0  0  0  0  0
   -1.0794   -0.1828    0.0000 C   0  0  0  0  0  0  0  0  0  0  0  0
   -0.4069    1.0172    0.0000 S   0  0  0  0  0  0  0  0  0  0  0  0
    0.3828   -0.9414    0.0000 C   0  0  0  0  0  0  0  0  0  0  0  0
    1.0311    0.3310    0.0000 C   0  0  0  0  0  0  0  0  0  0  0  0
   -1.0414   -1.0069    0.0000 C   0  0  0  0  0  0  0  0  0  0  0  0
   -1.8172    0.1966    0.0000 N   0  0  0  0  0  0  0  0  0  0  0  0
   -0.4069    1.9552    0.0000 O   0  0  0  0  0  0  0  0  0  0  0  0
   -1.3725    1.0414    0.0000 O   0  0  0  0  0  0  0  0  0  0  0  0
    0.3931    1.0586    0.0000 O   0  0  0  0  0  0  0  0  0  0  0  0
   -0.3172   -1.3828    0.0000 C   0  0  0  0  0  0  0  0  0  0  0  0
    1.1207   -1.3172    0.0000 C   0  0  0  0  0  0  0  0  0  0  0  0
    1.7655   -0.0448    0.0000 C   0  0  0  0  0  0  0  0  0  0  0  0
    1.8070   -0.8690    0.0000 C   0  0  0  0  0  0  0  0  0  0  0  0
  1  2  2  0  0  0  0
  1  3  1  0  0  0  0
  1  4  1  0  0  0  0
  2  5  1  0  0  0  0
  2  6  1  0  0  0  0
  3  7  2  0  0  0  0
  3  8  1  0  0  0  0
  4  9  1  0  0  0  0
  4 10  2  0  0  0  0
  4 11  2  0  0  0  0
  5 12  2  0  0  0  0
  5 13  1  0  0  0  0
  6 14  2  0  0  0  0
 13 15  2  0  0  0  0
  7 12  1  0  0  0  0
 14 15  1  0  0  0  0
M  END