456
  Mrv0541 04071411322D          

 20 21  0  0  0  0            999 V2000
    2.1468    0.0687    0.0000 C   0  0  0  0  0  0  0  0  0  0  0  0
    2.1468   -0.7584    0.0000 C   0  0  0  0  0  0  0  0  0  0  0  0
    2.8614    0.4792    0.0000 C   0  0  0  0  0  0  0  0  0  0  0  0
    1.4360    0.4792    0.0000 C   0  0  0  0  0  0  0  0  0  0  0  0
    2.8614   -1.1707    0.0000 C   0  0  0  0  0  0  0  0  0  0  0  0
    1.4360   -1.1707    0.0000 C   0  0  0  0  0  0  0  0  0  0  0  0
    3.5721    0.0570    0.0000 C   0  0  0  0  0  0  0  0  0  0  0  0
    0.7214    0.0570    0.0000 C   0  0  0  0  0  0  0  0  0  0  0  0
    3.5721   -0.7584    0.0000 C   0  0  0  0  0  0  0  0  0  0  0  0
    2.8614   -2.0094    0.0000 N   0  0  0  0  0  0  0  0  0  0  0  0
    0.7214   -0.7584    0.0000 C   0  0  0  0  0  0  0  0  0  0  0  0
    1.4360   -2.0094    0.0000 O   0  0  0  0  0  0  0  0  0  0  0  0
    4.3023    0.4696    0.0000 S   0  0  0  0  0  0  0  0  0  0  0  0
   -0.0087    0.4696    0.0000 S   0  0  0  0  0  0  0  0  0  0  0  0
    4.7146   -0.2605    0.0000 O   0  0  0  0  0  0  0  0  0  0  0  0
    3.9071    1.1919    0.0000 O   0  0  0  0  0  0  0  0  0  0  0  0
    5.0304    0.8627    0.0000 O   0  0  0  0  0  0  0  0  0  0  0  0
   -0.4173   -0.2605    0.0000 O   0  0  0  0  0  0  0  0  0  0  0  0
   -0.7331    0.8627    0.0000 O   0  0  0  0  0  0  0  0  0  0  0  0
    0.3902    1.1919    0.0000 O   0  0  0  0  0  0  0  0  0  0  0  0
  1  2  2  0  0  0  0
  1  3  1  0  0  0  0
  1  4  1  0  0  0  0
  2  5  1  0  0  0  0
  2  6  1  0  0  0  0
  3  7  2  0  0  0  0
  4  8  2  0  0  0  0
  5  9  2  0  0  0  0
  5 10  1  0  0  0  0
  6 11  2  0  0  0  0
  6 12  1  0  0  0  0
  7 13  1  0  0  0  0
  8 14  1  0  0  0  0
 13 15  1  0  0  0  0
 13 16  2  0  0  0  0
 13 17  2  0  0  0  0
 14 18  2  0  0  0  0
 14 19  2  0  0  0  0
 14 20  1  0  0  0  0
  7  9  1  0  0  0  0
  8 11  1  0  0  0  0
M  END