457
  Mrv0541 04071411322D          

 20 21  0  0  0  0            999 V2000
    2.3843   -1.1963    0.0000 C   0  0  0  0  0  0  0  0  0  0  0  0
    1.6732   -1.6146    0.0000 S   0  0  0  0  0  0  0  0  0  0  0  0
    3.0913    0.8910    0.0000 S   0  0  0  0  0  0  0  0  0  0  0  0
    3.0913    0.0544    0.0000 C   0  0  0  0  0  0  0  0  0  0  0  0
    3.0913   -1.6146    0.0000 C   0  0  0  0  0  0  0  0  0  0  0  0
    3.8023   -1.1963    0.0000 C   0  0  0  0  0  0  0  0  0  0  0  0
    2.3843   -0.3639    0.0000 C   0  0  0  0  0  0  0  0  0  0  0  0
    3.8023   -0.3639    0.0000 C   0  0  0  0  0  0  0  0  0  0  0  0
    2.0916   -2.3257    0.0000 O   0  0  0  0  0  0  0  0  0  0  0  0
    0.9663   -2.0329    0.0000 O   0  0  0  0  0  0  0  0  0  0  0  0
    3.0913    1.7234    0.0000 O   0  0  0  0  0  0  0  0  0  0  0  0
    2.2588    0.8910    0.0000 O   0  0  0  0  0  0  0  0  0  0  0  0
    4.5135   -1.6146    0.0000 C   0  0  0  0  0  0  0  0  0  0  0  0
    1.2549   -0.9035    0.0000 O   0  0  0  0  0  0  0  0  0  0  0  0
    3.9278    0.8910    0.0000 O   0  0  0  0  0  0  0  0  0  0  0  0
    3.0913   -2.4470    0.0000 N   0  0  0  0  0  0  0  0  0  0  0  0
    4.5135    0.0544    0.0000 C   0  0  0  0  0  0  0  0  0  0  0  0
    4.5135   -2.4470    0.0000 O   0  0  0  0  0  0  0  0  0  0  0  0
    5.2204   -0.3639    0.0000 C   0  0  0  0  0  0  0  0  0  0  0  0
    5.2204   -1.1963    0.0000 C   0  0  0  0  0  0  0  0  0  0  0  0
  2  1  1  0  0  0  0
  3  4  1  0  0  0  0
  4  7  1  0  0  0  0
  5  1  1  0  0  0  0
  6  5  2  0  0  0  0
  7  1  2  0  0  0  0
  8  4  2  0  0  0  0
  9  2  2  0  0  0  0
 10  2  2  0  0  0  0
 11  3  2  0  0  0  0
 12  3  2  0  0  0  0
 13  6  1  0  0  0  0
 14  2  1  0  0  0  0
 15  3  1  0  0  0  0
 16  5  1  0  0  0  0
 17  8  1  0  0  0  0
 18 13  1  0  0  0  0
 19 17  2  0  0  0  0
 20 13  2  0  0  0  0
  6  8  1  0  0  0  0
 20 19  1  0  0  0  0
M  END