461
  Mrv0541 04071411322D          

 24 25  0  0  0  0            999 V2000
    3.4650   -1.1522    0.0000 N   0  0  0  0  0  0  0  0  0  0  0  0
    2.6400   -1.1522    0.0000 C   0  0  0  0  0  0  0  0  0  0  0  0
    2.2275   -1.8673    0.0000 C   0  0  0  0  0  0  0  0  0  0  0  0
    1.4025   -1.8673    0.0000 C   0  0  0  0  0  0  0  0  0  0  0  0
    0.9900   -1.1522    0.0000 C   0  0  0  0  0  0  0  0  0  0  0  0
    1.4025   -0.4400    0.0000 C   0  0  0  0  0  0  0  0  0  0  0  0
    2.2275   -0.4400    0.0000 C   0  0  0  0  0  0  0  0  0  0  0  0
    0.1650   -1.1522    0.0000 C   0  0  0  0  0  0  0  0  0  0  0  0
   -0.2475   -1.8673    0.0000 C   0  0  0  0  0  0  0  0  0  0  0  0
   -1.0725   -1.8673    0.0000 C   0  0  0  0  0  0  0  0  0  0  0  0
   -1.4850   -1.1522    0.0000 C   0  0  0  0  0  0  0  0  0  0  0  0
   -2.3100   -1.1522    0.0000 N   0  0  0  0  0  0  0  0  0  0  0  0
   -1.0725   -0.4400    0.0000 C   0  0  0  0  0  0  0  0  0  0  0  0
   -0.2475   -0.4400    0.0000 C   0  0  0  0  0  0  0  0  0  0  0  0
    2.6400    0.2750    0.0000 S   0  0  0  0  0  0  0  0  0  0  0  0
    1.9250    0.6875    0.0000 O   0  0  0  0  0  0  0  0  0  0  0  0
    3.0525    0.9900    0.0000 O   0  0  0  0  0  0  0  0  0  0  0  0
    3.3550   -0.1375    0.0000 O   0  0  0  0  0  0  0  0  0  0  0  0
   -1.4850    0.2750    0.0000 S   0  0  0  0  0  0  0  0  0  0  0  0
   -2.2000   -0.1375    0.0000 O   0  0  0  0  0  0  0  0  0  0  0  0
   -1.8975    0.9900    0.0000 O   0  0  0  0  0  0  0  0  0  0  0  0
   -0.7700    0.6875    0.0000 O   0  0  0  0  0  0  0  0  0  0  0  0
   -1.4850   -2.5822    0.0000 Cl  0  0  0  0  0  0  0  0  0  0  0  0
    2.6400   -2.5822    0.0000 Cl  0  0  0  0  0  0  0  0  0  0  0  0
  2  1  1  0  0  0  0
  3  2  1  0  0  0  0
  4  3  2  0  0  0  0
  5  4  1  0  0  0  0
  6  5  2  0  0  0  0
  7  6  1  0  0  0  0
  7  2  2  0  0  0  0
  8  5  1  0  0  0  0
  9  8  1  0  0  0  0
 10  9  2  0  0  0  0
 11 10  1  0  0  0  0
 12 11  1  0  0  0  0
 13 11  2  0  0  0  0
 14 13  1  0  0  0  0
 14  8  2  0  0  0  0
 16 15  2  0  0  0  0
 17 15  2  0  0  0  0
 18 15  1  0  0  0  0
  7 15  1  0  0  0  0
 20 19  2  0  0  0  0
 21 19  2  0  0  0  0
 22 19  1  0  0  0  0
 13 19  1  0  0  0  0
 10 23  1  0  0  0  0
  3 24  1  0  0  0  0
M  END