462
  Mrv0541 04071411322D          

 24 25  0  0  0  0            999 V2000
    3.8057   -0.3129    0.0000 S   0  0  0  0  0  0  0  0  0  0  0  0
    2.0537   -2.0537    0.0000 S   0  0  0  0  0  0  0  0  0  0  0  0
    1.3427   -1.6355    0.0000 C   0  0  0  0  0  0  0  0  0  0  0  0
    3.4759    0.4560    0.0000 C   0  0  0  0  0  0  0  0  0  0  0  0
    2.0537    0.4560    0.0000 C   0  0  0  0  0  0  0  0  0  0  0  0
    2.0537   -0.3807    0.0000 C   0  0  0  0  0  0  0  0  0  0  0  0
    3.0368   -0.6427    0.0000 O   0  0  0  0  0  0  0  0  0  0  0  0
    1.5769   -2.8568    0.0000 O   0  0  0  0  0  0  0  0  0  0  0  0
    0.6315   -2.0537    0.0000 C   0  0  0  0  0  0  0  0  0  0  0  0
    4.1869    0.8742    0.0000 C   0  0  0  0  0  0  0  0  0  0  0  0
    1.3427   -0.7989    0.0000 C   0  0  0  0  0  0  0  0  0  0  0  0
    2.7648    0.8742    0.0000 C   0  0  0  0  0  0  0  0  0  0  0  0
    2.7648   -2.4720    0.0000 O   0  0  0  0  0  0  0  0  0  0  0  0
    4.5744    0.0169    0.0000 O   0  0  0  0  0  0  0  0  0  0  0  0
    4.1354   -1.0817    0.0000 O   0  0  0  0  0  0  0  0  0  0  0  0
    2.4720   -1.3427    0.0000 O   0  0  0  0  0  0  0  0  0  0  0  0
    0.6315   -0.3807    0.0000 C   0  0  0  0  0  0  0  0  0  0  0  0
    2.7648    1.7108    0.0000 C   0  0  0  0  0  0  0  0  0  0  0  0
    4.1869    1.7108    0.0000 C   0  0  0  0  0  0  0  0  0  0  0  0
   -0.0795   -1.6355    0.0000 C   0  0  0  0  0  0  0  0  0  0  0  0
    4.8939    2.1249    0.0000 N   0  0  0  0  0  0  0  0  0  0  0  0
   -0.7864   -2.0537    0.0000 N   0  0  0  0  0  0  0  0  0  0  0  0
    3.4759    2.1249    0.0000 C   0  0  0  0  0  0  0  0  0  0  0  0
   -0.0795   -0.7989    0.0000 C   0  0  0  0  0  0  0  0  0  0  0  0
  2  3  1  0  0  0  0
  3 11  2  0  0  0  0
  4  1  1  0  0  0  0
  5 12  1  0  0  0  0
  6  5  2  0  0  0  0
  7  1  1  0  0  0  0
  8  2  2  0  0  0  0
  9  3  1  0  0  0  0
 10  4  1  0  0  0  0
 11  6  1  0  0  0  0
 12  4  2  0  0  0  0
 13  2  1  0  0  0  0
 14  1  2  0  0  0  0
 15  1  2  0  0  0  0
 16  2  2  0  0  0  0
 17 11  1  0  0  0  0
 18 12  1  0  0  0  0
 19 10  2  0  0  0  0
 20 24  1  0  0  0  0
 21 19  1  0  0  0  0
 22 20  1  0  0  0  0
 23 18  2  0  0  0  0
 24 17  2  0  0  0  0
 19 23  1  0  0  0  0
  9 20  2  0  0  0  0
M  END