467
  Mrv0541 04071411322D          

 26 28  0  0  0  0            999 V2000
    1.0796    0.5107    0.0000 C   0  0  0  0  0  0  0  0  0  0  0  0
    0.6576    1.2404    0.0000 C   0  0  0  0  0  0  0  0  0  0  0  0
    1.8723    0.5107    0.0000 N   0  0  0  0  0  0  0  0  0  0  0  0
    0.6576   -0.1982    0.0000 C   0  0  0  0  0  0  0  0  0  0  0  0
   -0.1888    1.2404    0.0000 C   0  0  0  0  0  0  0  0  0  0  0  0
    1.0796    1.9562    0.0000 N   0  3  0  0  0  0  0  0  0  0  0  0
    2.2896   -0.1982    0.0000 C   0  0  0  0  0  0  0  0  0  0  0  0
   -0.1888   -0.1982    0.0000 C   0  0  0  0  0  0  0  0  0  0  0  0
   -0.5596    0.5107    0.0000 C   0  0  0  0  0  0  0  0  0  0  0  0
    0.6878    2.6650    0.0000 O   0  0  0  0  0  0  0  0  0  0  0  0
    1.9166    1.9562    0.0000 O   0  5  0  0  0  0  0  0  0  0  0  0
    1.9166   -0.9092    0.0000 C   0  0  0  0  0  0  0  0  0  0  0  0
    3.1336   -0.1982    0.0000 C   0  0  0  0  0  0  0  0  0  0  0  0
   -1.3966    0.5107    0.0000 S   0  0  0  0  0  0  0  0  0  0  0  0
    2.2896   -1.6181    0.0000 C   0  0  0  0  0  0  0  0  0  0  0  0
    3.5534   -0.9092    0.0000 C   0  0  0  0  0  0  0  0  0  0  0  0
   -1.3966   -0.3148    0.0000 N   0  0  0  0  0  0  0  0  0  0  0  0
   -2.2407    0.5107    0.0000 O   0  0  0  0  0  0  0  0  0  0  0  0
   -1.3966    1.3570    0.0000 O   0  0  0  0  0  0  0  0  0  0  0  0
    3.1336   -1.6181    0.0000 C   0  0  0  0  0  0  0  0  0  0  0  0
   -2.0984   -0.7205    0.0000 C   0  0  0  0  0  0  0  0  0  0  0  0
   -2.8002   -0.3148    0.0000 C   0  0  0  0  0  0  0  0  0  0  0  0
   -2.0984   -1.5436    0.0000 C   0  0  0  0  0  0  0  0  0  0  0  0
   -3.5510   -0.7205    0.0000 C   0  0  0  0  0  0  0  0  0  0  0  0
   -2.8002   -1.9562    0.0000 C   0  0  0  0  0  0  0  0  0  0  0  0
   -3.5510   -1.5436    0.0000 C   0  0  0  0  0  0  0  0  0  0  0  0
  1  2  2  0  0  0  0
  1  3  1  0  0  0  0
  1  4  1  0  0  0  0
  2  5  1  0  0  0  0
  2  6  1  0  0  0  0
  3  7  1  0  0  0  0
  4  8  2  0  0  0  0
  5  9  2  0  0  0  0
  6 10  2  0  0  0  0
  6 11  1  0  0  0  0
  7 12  1  0  0  0  0
  7 13  2  0  0  0  0
  9 14  1  0  0  0  0
 12 15  2  0  0  0  0
 13 16  1  0  0  0  0
 14 17  1  0  0  0  0
 14 18  2  0  0  0  0
 14 19  2  0  0  0  0
 15 20  1  0  0  0  0
 17 21  1  0  0  0  0
 21 22  2  0  0  0  0
 21 23  1  0  0  0  0
 22 24  1  0  0  0  0
 23 25  2  0  0  0  0
 24 26  2  0  0  0  0
  8  9  1  0  0  0  0
 16 20  2  0  0  0  0
 25 26  1  0  0  0  0
M  CHG  2   6   1  11  -1
M  END