47
  Mrv0541 04071411322D          

 16 18  0  0  0  0            999 V2000
    0.3581    0.4067    0.0000 C   0  0  0  0  0  0  0  0  0  0  0  0
    0.3581   -0.4024    0.0000 C   0  0  0  0  0  0  0  0  0  0  0  0
   -0.3581    0.8268    0.0000 O   0  0  0  0  0  0  0  0  0  0  0  0
    1.0789    0.8136    0.0000 C   0  0  0  0  0  0  0  0  0  0  0  0
   -0.3581   -0.8268    0.0000 O   0  0  0  0  0  0  0  0  0  0  0  0
    1.0789   -0.8091    0.0000 C   0  0  0  0  0  0  0  0  0  0  0  0
   -1.0833    0.4156    0.0000 C   0  0  0  0  0  0  0  0  0  0  0  0
    1.7863    0.3935    0.0000 C   0  0  0  0  0  0  0  0  0  0  0  0
   -1.0833   -0.4201    0.0000 C   0  0  0  0  0  0  0  0  0  0  0  0
    1.7863   -0.3935    0.0000 C   0  0  0  0  0  0  0  0  0  0  0  0
   -1.8040    0.8268    0.0000 C   0  0  0  0  0  0  0  0  0  0  0  0
    2.5380    0.7605    0.0000 Cl  0  0  0  0  0  0  0  0  0  0  0  0
   -1.8040   -0.8268    0.0000 C   0  0  0  0  0  0  0  0  0  0  0  0
    2.5380   -0.7605    0.0000 Cl  0  0  0  0  0  0  0  0  0  0  0  0
   -2.5115    0.4067    0.0000 C   0  0  0  0  0  0  0  0  0  0  0  0
   -2.5115   -0.4024    0.0000 C   0  0  0  0  0  0  0  0  0  0  0  0
  1  2  2  0  0  0  0
  1  3  1  0  0  0  0
  1  4  1  0  0  0  0
  2  5  1  0  0  0  0
  2  6  1  0  0  0  0
  3  7  1  0  0  0  0
  4  8  2  0  0  0  0
  5  9  1  0  0  0  0
  6 10  2  0  0  0  0
  7 11  1  0  0  0  0
  8 12  1  0  0  0  0
  9 13  1  0  0  0  0
 10 14  1  0  0  0  0
 11 15  2  0  0  0  0
 13 16  2  0  0  0  0
  7  9  2  0  0  0  0
  8 10  1  0  0  0  0
 15 16  1  0  0  0  0
M  END