48
  Mrv0541 04071411322D          

 17 19  0  0  0  0            999 V2000
    3.8607   -2.5492    0.0000 C   0  0  0  0  0  0  0  0  0  0  0  0
    4.6759   -2.5492    0.0000 C   0  0  0  0  0  0  0  0  0  0  0  0
    3.6248   -3.3433    0.0000 C   0  0  0  0  0  0  0  0  0  0  0  0
    3.3172   -1.9455    0.0000 C   0  0  0  0  0  0  0  0  0  0  0  0
    4.9395   -3.3336    0.0000 C   0  0  0  0  0  0  0  0  0  0  0  0
    5.2308   -1.9358    0.0000 C   0  0  0  0  0  0  0  0  0  0  0  0
    4.2757   -3.8087    0.0000 O   0  0  0  0  0  0  0  0  0  0  0  0
    2.8128   -3.5158    0.0000 C   0  0  0  0  0  0  0  0  0  0  0  0
    2.5101   -2.0952    0.0000 C   0  0  0  0  0  0  0  0  0  0  0  0
    5.7385   -3.5093    0.0000 C   0  0  0  0  0  0  0  0  0  0  0  0
    6.0249   -2.0952    0.0000 C   0  0  0  0  0  0  0  0  0  0  0  0
    2.2628   -2.9024    0.0000 C   0  0  0  0  0  0  0  0  0  0  0  0
    1.9569   -1.4736    0.0000 Cl  0  0  0  0  0  0  0  0  0  0  0  0
    6.2902   -2.8959    0.0000 C   0  0  0  0  0  0  0  0  0  0  0  0
    6.5684   -1.4574    0.0000 Cl  0  0  0  0  0  0  0  0  0  0  0  0
    7.0852   -3.1081    0.0000 Cl  0  0  0  0  0  0  0  0  0  0  0  0
    1.4631   -3.1150    0.0000 Cl  0  0  0  0  0  0  0  0  0  0  0  0
  1  3  2  0  0  0  0
  1  4  1  0  0  0  0
  2  5  2  0  0  0  0
  2  6  1  0  0  0  0
  3  7  1  0  0  0  0
  3  8  1  0  0  0  0
  4  9  2  0  0  0  0
  5 10  1  0  0  0  0
  6 11  2  0  0  0  0
  8 12  2  0  0  0  0
  9 13  1  0  0  0  0
 10 14  2  0  0  0  0
 11 15  1  0  0  0  0
  5  7  1  0  0  0  0
  9 12  1  0  0  0  0
 11 14  1  0  0  0  0
 14 16  1  0  0  0  0
  1  2  1  0  0  0  0
 12 17  1  0  0  0  0
M  END