49
  Mrv0541 04071411322D          

 16 18  0  0  0  0            999 V2000
   -0.7106    0.4134    0.0000 C   0  0  0  0  0  0  0  0  0  0  0  0
   -0.7106   -0.4190    0.0000 C   0  0  0  0  0  0  0  0  0  0  0  0
   -0.0148    0.8194    0.0000 O   0  0  0  0  0  0  0  0  0  0  0  0
   -1.4138    0.8194    0.0000 C   0  0  0  0  0  0  0  0  0  0  0  0
   -0.0018   -0.8176    0.0000 O   0  0  0  0  0  0  0  0  0  0  0  0
   -1.4064   -0.8250    0.0000 C   0  0  0  0  0  0  0  0  0  0  0  0
    0.6866    0.4134    0.0000 C   0  0  0  0  0  0  0  0  0  0  0  0
   -2.1095    0.4060    0.0000 C   0  0  0  0  0  0  0  0  0  0  0  0
    0.6866   -0.4116    0.0000 C   0  0  0  0  0  0  0  0  0  0  0  0
   -2.1095   -0.4116    0.0000 C   0  0  0  0  0  0  0  0  0  0  0  0
    1.4101    0.8324    0.0000 C   0  0  0  0  0  0  0  0  0  0  0  0
    1.4101   -0.8268    0.0000 C   0  0  0  0  0  0  0  0  0  0  0  0
   -2.8256   -0.8268    0.0000 Cl  0  0  0  0  0  0  0  0  0  0  0  0
    2.1317    0.4134    0.0000 C   0  0  0  0  0  0  0  0  0  0  0  0
    2.1317   -0.4116    0.0000 C   0  0  0  0  0  0  0  0  0  0  0  0
    2.8459    0.8324    0.0000 Cl  0  0  0  0  0  0  0  0  0  0  0  0
  1  2  2  0  0  0  0
  1  3  1  0  0  0  0
  1  4  1  0  0  0  0
  2  5  1  0  0  0  0
  2  6  1  0  0  0  0
  3  7  1  0  0  0  0
  4  8  2  0  0  0  0
  5  9  1  0  0  0  0
  6 10  2  0  0  0  0
  7 11  1  0  0  0  0
  9 12  1  0  0  0  0
 10 13  1  0  0  0  0
 11 14  2  0  0  0  0
 12 15  2  0  0  0  0
 14 16  1  0  0  0  0
  7  9  2  0  0  0  0
  8 10  1  0  0  0  0
 14 15  1  0  0  0  0
M  END