5
  Mrv0541 04071411322D          

 12 11  0  0  0  0            999 V2000
   -0.6539   -1.3077    0.0000 C   0  0  0  0  0  0  0  0  0  0  0  0
    0.0582   -0.8969    0.0000 C   0  0  0  0  0  0  0  0  0  0  0  0
   -0.1780   -1.9754    0.0000 C   0  0  0  0  0  0  0  0  0  0  0  0
   -1.2461   -0.7223    0.0000 C   0  0  0  0  0  0  0  0  0  0  0  0
   -1.2872   -1.8281    0.0000 C   0  0  0  0  0  0  0  0  0  0  0  0
    0.0582   -0.0685    0.0000 C   0  0  0  0  0  0  0  0  0  0  0  0
    0.7772    0.3389    0.0000 C   0  0  0  0  0  0  0  0  0  0  0  0
   -0.6539    0.3389    0.0000 C   0  0  0  0  0  0  0  0  0  0  0  0
    0.7772    1.1639    0.0000 C   0  0  0  0  0  0  0  0  0  0  0  0
    1.5337    1.3831    0.0000 C   0  0  0  0  0  0  0  0  0  0  0  0
    0.0582    1.5816    0.0000 C   0  0  0  0  0  0  0  0  0  0  0  0
    0.7634    1.9925    0.0000 C   0  0  0  0  0  0  0  0  0  0  0  0
  1  2  1  0  0  0  0
  1  3  1  0  0  0  0
  1  4  1  0  0  0  0
  1  5  1  0  0  0  0
  2  6  1  0  0  0  0
  6  7  2  0  0  0  0
  6  8  1  0  0  0  0
  7  9  1  0  0  0  0
  9 10  1  0  0  0  0
  9 11  1  0  0  0  0
  9 12  1  0  0  0  0
M  END