51
  Mrv0541 04071411322D          

 17 19  0  0  0  0            999 V2000
    3.8470   -2.7106    0.0000 C   0  0  0  0  0  0  0  0  0  0  0  0
    4.6623   -2.7106    0.0000 C   0  0  0  0  0  0  0  0  0  0  0  0
    3.6111   -3.5047    0.0000 C   0  0  0  0  0  0  0  0  0  0  0  0
    3.3036   -2.1069    0.0000 C   0  0  0  0  0  0  0  0  0  0  0  0
    4.9259   -3.4949    0.0000 C   0  0  0  0  0  0  0  0  0  0  0  0
    5.2172   -2.0972    0.0000 C   0  0  0  0  0  0  0  0  0  0  0  0
    4.2620   -3.9700    0.0000 O   0  0  0  0  0  0  0  0  0  0  0  0
    2.7991   -3.6772    0.0000 C   0  0  0  0  0  0  0  0  0  0  0  0
    2.4964   -2.2566    0.0000 C   0  0  0  0  0  0  0  0  0  0  0  0
    5.7248   -3.6707    0.0000 C   0  0  0  0  0  0  0  0  0  0  0  0
    6.0112   -2.2566    0.0000 C   0  0  0  0  0  0  0  0  0  0  0  0
    2.2491   -3.0638    0.0000 C   0  0  0  0  0  0  0  0  0  0  0  0
    6.2765   -3.0573    0.0000 C   0  0  0  0  0  0  0  0  0  0  0  0
    6.5547   -1.6188    0.0000 Cl  0  0  0  0  0  0  0  0  0  0  0  0
    7.0715   -3.2696    0.0000 Cl  0  0  0  0  0  0  0  0  0  0  0  0
    5.0005   -1.2947    0.0000 Cl  0  0  0  0  0  0  0  0  0  0  0  0
    1.9096   -1.6726    0.0000 Cl  0  0  0  0  0  0  0  0  0  0  0  0
  1  4  1  0  0  0  0
  2  5  2  0  0  0  0
  2  6  1  0  0  0  0
  3  7  1  0  0  0  0
  3  8  1  0  0  0  0
  4  9  2  0  0  0  0
  5 10  1  0  0  0  0
  6 11  2  0  0  0  0
  8 12  2  0  0  0  0
 10 13  2  0  0  0  0
 11 14  1  0  0  0  0
  5  7  1  0  0  0  0
  9 12  1  0  0  0  0
 11 13  1  0  0  0  0
 13 15  1  0  0  0  0
  1  2  1  0  0  0  0
  6 16  1  0  0  0  0
  1  3  2  0  0  0  0
  9 17  1  0  0  0  0
M  END