55
  Mrv0541 04071411322D          

 23 22  0  0  0  0            999 V2000
    4.4174   -1.3987    0.0000 O   0  0  0  0  0  0  0  0  0  0  0  0
    5.0733   -1.5840    0.0000 S   0  0  0  0  0  0  0  0  0  0  0  0
    5.7422   -1.7343    0.0000 O   0  0  0  0  0  0  0  0  0  0  0  0
    5.2236   -0.9150    0.0000 O   0  0  0  0  0  0  0  0  0  0  0  0
    4.5829   -2.2720    0.0000 C   0  0  0  0  0  0  0  0  0  0  0  0
    4.6703   -2.9543    0.0000 F   0  0  0  0  0  0  0  0  0  0  0  0
    5.2677   -2.3040    0.0000 F   0  0  0  0  0  0  0  0  0  0  0  0
    3.5738   -1.8510    0.0000 C   0  0  0  0  0  0  0  0  0  0  0  0
    3.0692   -1.3869    0.0000 F   0  0  0  0  0  0  0  0  0  0  0  0
    3.7670   -1.2846    0.0000 F   0  0  0  0  0  0  0  0  0  0  0  0
    2.9185   -2.3522    0.0000 C   0  0  0  0  0  0  0  0  0  0  0  0
    3.4232   -2.8164    0.0000 F   0  0  0  0  0  0  0  0  0  0  0  0
    2.5489   -2.9297    0.0000 F   0  0  0  0  0  0  0  0  0  0  0  0
    1.9095   -1.9314    0.0000 C   0  0  0  0  0  0  0  0  0  0  0  0
    1.4048   -1.4672    0.0000 F   0  0  0  0  0  0  0  0  0  0  0  0
    2.2791   -1.3540    0.0000 F   0  0  0  0  0  0  0  0  0  0  0  0
    1.1453   -2.5159    0.0000 C   0  0  0  0  0  0  0  0  0  0  0  0
    1.6506   -2.9792    0.0000 F   0  0  0  0  0  0  0  0  0  0  0  0
    0.7775   -3.0945    0.0000 F   0  0  0  0  0  0  0  0  0  0  0  0
    0.2554   -2.1499    0.0000 C   0  0  0  0  0  0  0  0  0  0  0  0
   -0.2842   -2.5670    0.0000 F   0  0  0  0  0  0  0  0  0  0  0  0
   -0.2515   -1.6884    0.0000 F   0  0  0  0  0  0  0  0  0  0  0  0
    0.6221   -1.5707    0.0000 F   0  0  0  0  0  0  0  0  0  0  0  0
  1  2  2  0  0  0  0
  2  3  2  0  0  0  0
  2  4  1  0  0  0  0
  2  5  1  0  0  0  0
  5  6  1  0  0  0  0
  5  7  1  0  0  0  0
  5  8  1  0  0  0  0
  8  9  1  0  0  0  0
  8 10  1  0  0  0  0
  8 11  1  0  0  0  0
 11 12  1  0  0  0  0
 11 13  1  0  0  0  0
 11 14  1  0  0  0  0
 14 15  1  0  0  0  0
 14 16  1  0  0  0  0
 14 17  1  0  0  0  0
 17 18  1  0  0  0  0
 17 19  1  0  0  0  0
 17 20  1  0  0  0  0
 20 21  1  0  0  0  0
 20 22  1  0  0  0  0
 20 23  1  0  0  0  0
M  END