59
  Mrv0541 04071411322D          

  8  7  0  0  0  0            999 V2000
   -0.3556    0.5184    0.0000 C   0  0  0  0  0  0  0  0  0  0  0  0
   -0.3556   -0.3088    0.0000 C   0  0  0  0  0  0  0  0  0  0  0  0
   -1.1810    0.5184    0.0000 C   0  0  0  0  0  0  0  0  0  0  0  0
   -0.3556    1.3418    0.0000 C   0  0  0  0  0  0  0  0  0  0  0  0
    0.4679    0.5184    0.0000 C   0  0  0  0  0  0  0  0  0  0  0  0
    0.3593   -0.7205    0.0000 C   0  0  0  0  0  0  0  0  0  0  0  0
    1.0649   -0.3088    0.0000 C   0  0  0  0  0  0  0  0  0  0  0  0
    0.3593   -1.5571    0.0000 C   0  0  0  0  0  0  0  0  0  0  0  0
  1  2  1  0  0  0  0
  1  3  1  0  0  0  0
  1  4  1  0  0  0  0
  1  5  1  0  0  0  0
  2  6  1  0  0  0  0
  6  7  1  0  0  0  0
  6  8  2  0  0  0  0
M  END