6
  Mrv0541 04071411322D          

 12 11  0  0  0  0            999 V2000
   -1.4345   -0.0409    0.0000 C   0  0  0  0  0  0  0  0  0  0  0  0
   -0.7100   -0.4658    0.0000 C   0  0  0  0  0  0  0  0  0  0  0  0
   -2.1338    0.3972    0.0000 C   0  0  0  0  0  0  0  0  0  0  0  0
   -1.8546   -0.7509    0.0000 C   0  0  0  0  0  0  0  0  0  0  0  0
   -1.0109    0.6607    0.0000 C   0  0  0  0  0  0  0  0  0  0  0  0
    0.0060   -0.0662    0.0000 C   0  0  0  0  0  0  0  0  0  0  0  0
    0.7161   -0.4874    0.0000 C   0  0  0  0  0  0  0  0  0  0  0  0
    0.0060    0.7642    0.0000 C   0  0  0  0  0  0  0  0  0  0  0  0
    1.4273   -0.0939    0.0000 C   0  0  0  0  0  0  0  0  0  0  0  0
    1.8101   -0.8328    0.0000 C   0  0  0  0  0  0  0  0  0  0  0  0
    1.0278    0.6258    0.0000 C   0  0  0  0  0  0  0  0  0  0  0  0
    2.1506    0.2913    0.0000 C   0  0  0  0  0  0  0  0  0  0  0  0
  1  2  1  0  0  0  0
  1  3  1  0  0  0  0
  1  4  1  0  0  0  0
  1  5  1  0  0  0  0
  2  6  1  0  0  0  0
  6  7  1  0  0  0  0
  6  8  1  0  0  0  0
  7  9  1  0  0  0  0
  9 10  1  0  0  0  0
  9 11  1  0  0  0  0
  9 12  1  0  0  0  0
M  END