61
  Mrv0541 04071411322D          

  8  7  0  0  0  0            999 V2000
   -1.0725    0.2022    0.0000 C   0  0  0  0  0  0  0  0  0  0  0  0
   -0.3567   -0.2080    0.0000 C   0  0  0  0  0  0  0  0  0  0  0  0
   -1.0725    1.0272    0.0000 C   0  0  0  0  0  0  0  0  0  0  0  0
   -1.7639   -0.1731    0.0000 C   0  0  0  0  0  0  0  0  0  0  0  0
    0.3509    0.2022    0.0000 C   0  0  0  0  0  0  0  0  0  0  0  0
    1.0690   -0.2080    0.0000 C   0  0  0  0  0  0  0  0  0  0  0  0
    1.7766    0.2208    0.0000 C   0  0  0  0  0  0  0  0  0  0  0  0
    1.0690   -1.0620    0.0000 C   0  0  0  0  0  0  0  0  0  0  0  0
  1  2  2  0  0  0  0
  1  3  1  0  0  0  0
  1  4  1  0  0  0  0
  2  5  1  0  0  0  0
  5  6  2  0  0  0  0
  6  7  1  0  0  0  0
  6  8  1  0  0  0  0
M  END