67
  Mrv0541 04071411322D          

 11 10  0  0  0  0            999 V2000
   -2.1488   -0.0371    0.0000 C   0  0  0  0  0  0  0  0  0  0  0  0
   -1.4302    0.3743    0.0000 C   0  0  0  0  0  0  0  0  0  0  0  0
   -2.8639    0.3743    0.0000 C   0  0  0  0  0  0  0  0  0  0  0  0
   -2.1488   -0.8613    0.0000 C   0  0  0  0  0  0  0  0  0  0  0  0
   -0.7095   -0.0371    0.0000 C   0  0  0  0  0  0  0  0  0  0  0  0
    0.0000    0.3743    0.0000 O   0  0  0  0  0  0  0  0  0  0  0  0
    0.7076   -0.0371    0.0000 C   0  0  0  0  0  0  0  0  0  0  0  0
    1.4265    0.3743    0.0000 C   0  0  0  0  0  0  0  0  0  0  0  0
    2.1488   -0.0371    0.0000 C   0  0  0  0  0  0  0  0  0  0  0  0
    2.8639    0.3743    0.0000 C   0  0  0  0  0  0  0  0  0  0  0  0
    2.1488   -0.8613    0.0000 C   0  0  0  0  0  0  0  0  0  0  0  0
  1  2  1  0  0  0  0
  1  3  1  0  0  0  0
  1  4  1  0  0  0  0
  2  5  1  0  0  0  0
  5  6  1  0  0  0  0
  6  7  1  0  0  0  0
  7  8  1  0  0  0  0
  8  9  1  0  0  0  0
  9 10  1  0  0  0  0
  9 11  1  0  0  0  0
M  END