68
  Mrv0541 04071411322D          

 11 10  0  0  0  0            999 V2000
    0.1308   -0.0740    0.0000 C   0  0  0  0  0  0  0  0  0  0  0  0
    0.1308   -0.8990    0.0000 C   0  0  0  0  0  0  0  0  0  0  0  0
   -0.5832    0.3385    0.0000 C   0  0  0  0  0  0  0  0  0  0  0  0
    0.8449    0.3385    0.0000 C   0  0  0  0  0  0  0  0  0  0  0  0
    0.8449   -1.3115    0.0000 C   0  0  0  0  0  0  0  0  0  0  0  0
   -0.5832    1.1635    0.0000 O   0  0  0  0  0  0  0  0  0  0  0  0
    0.8449    1.1635    0.0000 C   0  0  0  0  0  0  0  0  0  0  0  0
    0.8449   -2.1365    0.0000 C   0  0  0  0  0  0  0  0  0  0  0  0
   -1.3001    1.5760    0.0000 C   0  0  0  0  0  0  0  0  0  0  0  0
    0.1308   -2.5490    0.0000 C   0  0  0  0  0  0  0  0  0  0  0  0
   -1.3001    2.4010    0.0000 C   0  0  0  0  0  0  0  0  0  0  0  0
  1  2  1  0  0  0  0
  1  3  1  0  0  0  0
  1  4  1  0  0  0  0
  2  5  1  0  0  0  0
  3  6  1  0  0  0  0
  4  7  1  0  0  0  0
  5  8  1  0  0  0  0
  6  9  1  0  0  0  0
  8 10  1  0  0  0  0
  9 11  2  0  0  0  0
M  END