7
  Mrv0541 04071411322D          

 12 11  0  0  0  0            999 V2000
    1.4156   -0.5992    0.0000 C   0  0  0  0  0  0  0  0  0  0  0  0
    0.6369   -0.9676    0.0000 C   0  0  0  0  0  0  0  0  0  0  0  0
    2.1539   -0.9676    0.0000 C   0  0  0  0  0  0  0  0  0  0  0  0
   -0.0595   -0.5992    0.0000 C   0  0  0  0  0  0  0  0  0  0  0  0
    2.8503   -0.5992    0.0000 C   0  0  0  0  0  0  0  0  0  0  0  0
    3.5468   -0.9676    0.0000 C   0  0  0  0  0  0  0  0  0  0  0  0
    4.9814   -0.9676    0.0000 C   0  0  0  0  0  0  0  0  0  0  0  0
    4.2850   -0.5992    0.0000 C   0  0  0  0  0  0  0  0  0  0  0  0
   -0.7555   -0.9676    0.0000 C   0  0  0  0  0  0  0  0  0  0  0  0
   -0.0595    0.2619    0.0000 C   0  0  0  0  0  0  0  0  0  0  0  0
    2.8503    0.2619    0.0000 C   0  0  0  0  0  0  0  0  0  0  0  0
    5.7197   -0.5992    0.0000 C   0  0  0  0  0  0  0  0  0  0  0  0
  2  1  1  0  0  0  0
  3  1  1  0  0  0  0
  4  2  1  0  0  0  0
  5  3  1  0  0  0  0
  6  5  1  0  0  0  0
  7  8  1  0  0  0  0
  8  6  1  0  0  0  0
  9  4  1  0  0  0  0
 10  4  1  0  0  0  0
 11  5  1  0  0  0  0
 12  7  1  0  0  0  0
M  END