70
  Mrv0541 04071411322D          

 10  9  0  0  0  0            999 V2000
    2.1450    0.2062    0.0000 C   0  0  0  0  0  0  0  0  0  0  0  0
    1.4266   -0.2062    0.0000 C   0  0  0  0  0  0  0  0  0  0  0  0
    0.7150    0.2062    0.0000 C   0  0  0  0  0  0  0  0  0  0  0  0
    2.8531   -0.2062    0.0000 C   0  0  0  0  0  0  0  0  0  0  0  0
    0.0000   -0.2062    0.0000 O   0  0  0  0  0  0  0  0  0  0  0  0
    3.5716    0.2062    0.0000 O   0  0  0  0  0  0  0  0  0  0  0  0
    2.1450    1.0312    0.0000 Br  0  0  0  0  0  0  0  0  0  0  0  0
    1.4231   -1.0312    0.0000 Br  0  0  0  0  0  0  0  0  0  0  0  0
    0.7184    1.0312    0.0000 O   0  0  0  0  0  0  0  0  0  0  0  0
    2.8497   -1.0312    0.0000 O   0  0  0  0  0  0  0  0  0  0  0  0
  2  1  1  0  0  0  0
  3  2  1  0  0  0  0
  4  1  1  0  0  0  0
  5  3  2  0  0  0  0
  6  4  2  0  0  0  0
  7  1  1  0  0  0  0
  8  2  1  0  0  0  0
  9  3  1  0  0  0  0
 10  4  1  0  0  0  0
M  END