71
  Mrv0541 04071411322D          

 21 20  0  0  0  0            999 V2000
    0.2370   -0.3848    0.0000 P   0  0  0  0  0  0  0  0  0  0  0  0
    0.8002    0.2191    0.0000 O   0  0  0  0  0  0  0  0  0  0  0  0
   -0.4841   -0.0025    0.0000 O   0  0  0  0  0  0  0  0  0  0  0  0
   -0.2013   -1.0779    0.0000 O   0  0  0  0  0  0  0  0  0  0  0  0
    0.9021   -0.8842    0.0000 O   0  0  0  0  0  0  0  0  0  0  0  0
    1.6029    0.0535    0.0000 C   0  0  0  0  0  0  0  0  0  0  0  0
   -1.1798   -0.4485    0.0000 C   0  0  0  0  0  0  0  0  0  0  0  0
    2.1584    0.6524    0.0000 C   0  0  0  0  0  0  0  0  0  0  0  0
   -1.9188   -0.0714    0.0000 C   0  0  0  0  0  0  0  0  0  0  0  0
    2.9713    0.4740    0.0000 C   0  0  0  0  0  0  0  0  0  0  0  0
    1.9086    1.4448    0.0000 C   0  0  0  0  0  0  0  0  0  0  0  0
   -2.6170   -0.5147    0.0000 C   0  0  0  0  0  0  0  0  0  0  0  0
   -1.9570    0.7517    0.0000 C   0  0  0  0  0  0  0  0  0  0  0  0
    3.2209   -0.3007    0.0000 C   0  0  0  0  0  0  0  0  0  0  0  0
    1.1034    1.6207    0.0000 C   0  0  0  0  0  0  0  0  0  0  0  0
   -3.3509   -0.1351    0.0000 C   0  0  0  0  0  0  0  0  0  0  0  0
   -2.6909    1.1238    0.0000 C   0  0  0  0  0  0  0  0  0  0  0  0
    4.0338   -0.4765    0.0000 C   0  0  0  0  0  0  0  0  0  0  0  0
   -4.0440   -0.5785    0.0000 C   0  0  0  0  0  0  0  0  0  0  0  0
    4.2886   -1.2690    0.0000 C   0  0  0  0  0  0  0  0  0  0  0  0
   -4.7754   -0.2064    0.0000 C   0  0  0  0  0  0  0  0  0  0  0  0
  1  2  1  0  0  0  0
  1  3  1  0  0  0  0
  1  4  1  0  0  0  0
  1  5  2  0  0  0  0
  2  6  1  0  0  0  0
  3  7  1  0  0  0  0
  6  8  1  0  0  0  0
  7  9  1  0  0  0  0
  8 10  1  0  0  0  0
  8 11  1  0  0  0  0
  9 12  1  0  0  0  0
  9 13  1  0  0  0  0
 10 14  1  0  0  0  0
 11 15  1  0  0  0  0
 12 16  1  0  0  0  0
 13 17  1  0  0  0  0
 14 18  1  0  0  0  0
 16 19  1  0  0  0  0
 18 20  1  0  0  0  0
 19 21  1  0  0  0  0
M  END