73
  Mrv0541 04071411322D          

  9  9  0  0  0  0            999 V2000
   -0.1812    0.0000    0.0000 C   0  0  0  0  0  0  0  0  0  0  0  0
    0.2275   -0.7140    0.0000 C   0  0  0  0  0  0  0  0  0  0  0  0
    0.2275    0.7140    0.0000 C   0  0  0  0  0  0  0  0  0  0  0  0
   -1.0062    0.0000    0.0000 C   0  0  0  0  0  0  0  0  0  0  0  0
    1.0525   -0.7140    0.0000 C   0  0  0  0  0  0  0  0  0  0  0  0
    1.0525    0.7140    0.0000 C   0  0  0  0  0  0  0  0  0  0  0  0
   -1.4187   -0.7140    0.0000 C   0  0  0  0  0  0  0  0  0  0  0  0
   -1.4187    0.7140    0.0000 C   0  0  0  0  0  0  0  0  0  0  0  0
    1.4667    0.0000    0.0000 C   0  0  0  0  0  0  0  0  0  0  0  0
  1  2  2  0  0  0  0
  1  3  1  0  0  0  0
  1  4  1  0  0  0  0
  2  5  1  0  0  0  0
  3  6  2  0  0  0  0
  4  7  1  0  0  0  0
  4  8  2  0  0  0  0
  5  9  2  0  0  0  0
  6  9  1  0  0  0  0
M  END