75
  Mrv0541 04071411322D          

 10 10  0  0  0  0            999 V2000
    3.0112   -0.5635    0.0000 C   0  0  0  0  0  0  0  0  0  0  0  0
    2.1862   -0.5635    0.0000 C   0  0  0  0  0  0  0  0  0  0  0  0
    1.7737    0.1510    0.0000 C   0  0  0  0  0  0  0  0  0  0  0  0
    2.1862    0.8655    0.0000 C   0  0  0  0  0  0  0  0  0  0  0  0
    3.0112    0.8655    0.0000 C   0  0  0  0  0  0  0  0  0  0  0  0
    3.4238    0.1510    0.0000 C   0  0  0  0  0  0  0  0  0  0  0  0
    3.4238   -1.2780    0.0000 C   0  0  0  0  0  0  0  0  0  0  0  0
    4.2488   -1.2780    0.0000 C   0  0  0  0  0  0  0  0  0  0  0  0
    1.7737   -1.2780    0.0000 C   0  0  0  0  0  0  0  0  0  0  0  0
    0.9487   -1.2780    0.0000 C   0  0  0  0  0  0  0  0  0  0  0  0
  1  2  1  0  0  0  0
  2  3  2  0  0  0  0
  3  4  1  0  0  0  0
  4  5  2  0  0  0  0
  5  6  1  0  0  0  0
  1  6  2  0  0  0  0
  7  8  1  0  0  0  0
  1  7  1  0  0  0  0
  9 10  2  0  0  0  0
  2  9  1  0  0  0  0
M  END