76
  Mrv0541 04071411322D          

 10 10  0  0  0  0            999 V2000
   -0.3533    0.0518    0.0000 C   0  0  0  0  0  0  0  0  0  0  0  0
    0.2257   -0.5310    0.0000 C   0  0  0  0  0  0  0  0  0  0  0  0
   -0.1369    0.8473    0.0000 C   0  0  0  0  0  0  0  0  0  0  0  0
   -1.1562   -0.1554    0.0000 C   0  0  0  0  0  0  0  0  0  0  0  0
    1.0230   -0.3164    0.0000 C   0  0  0  0  0  0  0  0  0  0  0  0
    0.6549    1.0618    0.0000 C   0  0  0  0  0  0  0  0  0  0  0  0
   -1.7389    0.4254    0.0000 C   0  0  0  0  0  0  0  0  0  0  0  0
   -1.3708   -0.9564    0.0000 C   0  0  0  0  0  0  0  0  0  0  0  0
    1.2376    0.4717    0.0000 C   0  0  0  0  0  0  0  0  0  0  0  0
    1.6112   -0.9028    0.0000 C   0  0  0  0  0  0  0  0  0  0  0  0
  1  2  2  0  0  0  0
  1  3  1  0  0  0  0
  1  4  1  0  0  0  0
  2  5  1  0  0  0  0
  3  6  2  0  0  0  0
  4  7  1  0  0  0  0
  4  8  1  0  0  0  0
  5  9  2  0  0  0  0
  5 10  1  0  0  0  0
  6  9  1  0  0  0  0
M  END