77
  Mrv0541 04071411322D          

 10 10  0  0  0  0            999 V2000
   -0.8212   -0.1443    0.0000 C   0  0  0  0  0  0  0  0  0  0  0  0
   -0.4069   -0.8564    0.0000 C   0  0  0  0  0  0  0  0  0  0  0  0
   -0.4069    0.5715    0.0000 C   0  0  0  0  0  0  0  0  0  0  0  0
   -1.6462   -0.1443    0.0000 C   0  0  0  0  0  0  0  0  0  0  0  0
    0.4069   -0.8564    0.0000 C   0  0  0  0  0  0  0  0  0  0  0  0
    0.4069    0.5715    0.0000 C   0  0  0  0  0  0  0  0  0  0  0  0
   -2.0679    0.5715    0.0000 C   0  0  0  0  0  0  0  0  0  0  0  0
    0.8212   -0.1443    0.0000 C   0  0  0  0  0  0  0  0  0  0  0  0
    1.6462   -0.1443    0.0000 C   0  0  0  0  0  0  0  0  0  0  0  0
    2.0660    0.5715    0.0000 C   0  0  0  0  0  0  0  0  0  0  0  0
  1  2  2  0  0  0  0
  1  3  1  0  0  0  0
  1  4  1  0  0  0  0
  2  5  1  0  0  0  0
  3  6  2  0  0  0  0
  4  7  1  0  0  0  0
  5  8  2  0  0  0  0
  8  9  1  0  0  0  0
  9 10  1  0  0  0  0
  6  8  1  0  0  0  0
M  END