80
  Mrv0541 04071411322D          

 11 11  0  0  0  0            999 V2000
    0.0000   -1.1269    0.0000 C   0  0  0  0  0  0  0  0  0  0  0  0
    0.0000   -0.3019    0.0000 C   0  0  0  0  0  0  0  0  0  0  0  0
    0.8314   -1.1269    0.0000 C   0  0  0  0  0  0  0  0  0  0  0  0
    0.0000   -1.9392    0.0000 C   0  0  0  0  0  0  0  0  0  0  0  0
   -0.8335   -1.1269    0.0000 C   0  0  0  0  0  0  0  0  0  0  0  0
    0.7102    0.0978    0.0000 C   0  0  0  0  0  0  0  0  0  0  0  0
   -0.7102    0.1276    0.0000 C   0  0  0  0  0  0  0  0  0  0  0  0
    0.7102    0.9378    0.0000 C   0  0  0  0  0  0  0  0  0  0  0  0
   -0.7102    0.9378    0.0000 C   0  0  0  0  0  0  0  0  0  0  0  0
    0.0000    1.3439    0.0000 C   0  0  0  0  0  0  0  0  0  0  0  0
    0.0000    2.1774    0.0000 O   0  0  0  0  0  0  0  0  0  0  0  0
  1  2  1  0  0  0  0
  1  3  1  0  0  0  0
  1  4  1  0  0  0  0
  1  5  1  0  0  0  0
  2  6  1  0  0  0  0
  2  7  2  0  0  0  0
  6  8  2  0  0  0  0
  7  9  1  0  0  0  0
  8 10  1  0  0  0  0
 10 11  1  0  0  0  0
  9 10  2  0  0  0  0
M  END