83
  Mrv0541 04071411322D          

 15 15  0  0  0  0            999 V2000
    0.7066   -0.1849    0.0000 C   0  0  0  0  0  0  0  0  0  0  0  0
    0.0018    0.2142    0.0000 C   0  0  0  0  0  0  0  0  0  0  0  0
    1.4554    0.2142    0.0000 C   0  0  0  0  0  0  0  0  0  0  0  0
    0.7066   -1.0197    0.0000 C   0  0  0  0  0  0  0  0  0  0  0  0
   -0.7066   -0.1849    0.0000 C   0  0  0  0  0  0  0  0  0  0  0  0
    0.0018    1.0507    0.0000 O   0  0  0  0  0  0  0  0  0  0  0  0
    2.1602   -0.1849    0.0000 C   0  0  0  0  0  0  0  0  0  0  0  0
    1.4554    1.0507    0.0000 C   0  0  0  0  0  0  0  0  0  0  0  0
    0.0018   -1.4425    0.0000 C   0  0  0  0  0  0  0  0  0  0  0  0
   -1.4572    0.2142    0.0000 C   0  0  0  0  0  0  0  0  0  0  0  0
   -0.7066   -1.0197    0.0000 C   0  0  0  0  0  0  0  0  0  0  0  0
    2.8685    0.2142    0.0000 C   0  0  0  0  0  0  0  0  0  0  0  0
   -2.1602   -0.1849    0.0000 C   0  0  0  0  0  0  0  0  0  0  0  0
   -1.4572    1.0507    0.0000 C   0  0  0  0  0  0  0  0  0  0  0  0
   -2.8704    0.2142    0.0000 C   0  0  0  0  0  0  0  0  0  0  0  0
  1  2  2  0  0  0  0
  1  3  1  0  0  0  0
  1  4  1  0  0  0  0
  2  5  1  0  0  0  0
  2  6  1  0  0  0  0
  3  7  1  0  0  0  0
  3  8  1  0  0  0  0
  4  9  2  0  0  0  0
  5 10  1  0  0  0  0
  5 11  2  0  0  0  0
  7 12  1  0  0  0  0
 10 13  1  0  0  0  0
 10 14  1  0  0  0  0
 13 15  1  0  0  0  0
  9 11  1  0  0  0  0
M  END