85
  Mrv0541 04071411322D          

 16 16  0  0  0  0            999 V2000
    4.2543   -1.8696    0.0000 C   0  0  0  0  0  0  0  0  0  0  0  0
    4.2456   -2.6880    0.0000 C   0  0  0  0  0  0  0  0  0  0  0  0
    3.5401   -1.4528    0.0000 C   0  0  0  0  0  0  0  0  0  0  0  0
    4.9707   -1.4528    0.0000 C   0  0  0  0  0  0  0  0  0  0  0  0
    3.5401   -3.0982    0.0000 C   0  0  0  0  0  0  0  0  0  0  0  0
    2.8303   -1.8565    0.0000 C   0  0  0  0  0  0  0  0  0  0  0  0
    3.5401   -0.6345    0.0000 O   0  0  0  0  0  0  0  0  0  0  0  0
    5.3874   -2.1713    0.0000 C   0  0  0  0  0  0  0  0  0  0  0  0
    5.6935   -1.0382    0.0000 C   0  0  0  0  0  0  0  0  0  0  0  0
    4.5691   -0.7299    0.0000 C   0  0  0  0  0  0  0  0  0  0  0  0
    2.8217   -2.6750    0.0000 C   0  0  0  0  0  0  0  0  0  0  0  0
    2.1187   -1.4433    0.0000 C   0  0  0  0  0  0  0  0  0  0  0  0
    1.4056   -1.0285    0.0000 C   0  0  0  0  0  0  0  0  0  0  0  0
    1.7038   -2.1564    0.0000 C   0  0  0  0  0  0  0  0  0  0  0  0
    2.5301   -0.7268    0.0000 C   0  0  0  0  0  0  0  0  0  0  0  0
    3.5345   -3.9117    0.0000 C   0  0  0  0  0  0  0  0  0  0  0  0
  3  6  2  0  0  0  0
  3  7  1  0  0  0  0
  4  8  1  0  0  0  0
  4  9  1  0  0  0  0
  4 10  1  0  0  0  0
  5 11  2  0  0  0  0
  6 11  1  0  0  0  0
  6 12  1  0  0  0  0
  1  2  2  0  0  0  0
 12 13  1  0  0  0  0
  1  3  1  0  0  0  0
 12 14  1  0  0  0  0
  1  4  1  0  0  0  0
 12 15  1  0  0  0  0
  2  5  1  0  0  0  0
  5 16  1  0  0  0  0
M  END