86
  Mrv0541 04071411322D          

 19 19  0  0  0  0            999 V2000
    0.7103    0.3161    0.0000 C   0  0  0  0  0  0  0  0  0  0  0  0
   -0.0041    0.7287    0.0000 C   0  0  0  0  0  0  0  0  0  0  0  0
    0.7103   -0.5029    0.0000 C   0  0  0  0  0  0  0  0  0  0  0  0
    1.4492    0.7472    0.0000 C   0  0  0  0  0  0  0  0  0  0  0  0
   -0.7185    0.3161    0.0000 C   0  0  0  0  0  0  0  0  0  0  0  0
   -0.0041    1.5519    0.0000 O   0  0  0  0  0  0  0  0  0  0  0  0
   -0.0041   -0.9155    0.0000 C   0  0  0  0  0  0  0  0  0  0  0  0
    1.0140    1.4616    0.0000 C   0  0  0  0  0  0  0  0  0  0  0  0
    2.1636    1.1742    0.0000 C   0  0  0  0  0  0  0  0  0  0  0  0
    1.8578    0.0329    0.0000 C   0  0  0  0  0  0  0  0  0  0  0  0
   -0.7185   -0.5029    0.0000 C   0  0  0  0  0  0  0  0  0  0  0  0
   -1.4389    0.7472    0.0000 C   0  0  0  0  0  0  0  0  0  0  0  0
   -0.0041   -1.7428    0.0000 C   0  0  0  0  0  0  0  0  0  0  0  0
   -1.0223    1.4616    0.0000 C   0  0  0  0  0  0  0  0  0  0  0  0
   -1.8701    0.0144    0.0000 C   0  0  0  0  0  0  0  0  0  0  0  0
   -2.1698    1.1577    0.0000 C   0  0  0  0  0  0  0  0  0  0  0  0
   -0.8006   -1.7428    0.0000 C   0  0  0  0  0  0  0  0  0  0  0  0
    0.8581   -1.7428    0.0000 C   0  0  0  0  0  0  0  0  0  0  0  0
   -0.0041   -2.5639    0.0000 C   0  0  0  0  0  0  0  0  0  0  0  0
  1  2  1  0  0  0  0
  1  3  2  0  0  0  0
  1  4  1  0  0  0  0
  2  5  2  0  0  0  0
  2  6  1  0  0  0  0
  3  7  1  0  0  0  0
  4  8  1  0  0  0  0
  4  9  1  0  0  0  0
  4 10  1  0  0  0  0
  5 11  1  0  0  0  0
  5 12  1  0  0  0  0
  7 13  1  0  0  0  0
 12 14  1  0  0  0  0
 12 15  1  0  0  0  0
 12 16  1  0  0  0  0
 13 17  1  0  0  0  0
 13 18  1  0  0  0  0
 13 19  1  0  0  0  0
  7 11  2  0  0  0  0
M  END