87
  Mrv0541 04071411322D          

 17 17  0  0  0  0            999 V2000
    0.6703    0.0907    0.0000 C   0  0  0  0  0  0  0  0  0  0  0  0
   -0.0370    0.5092    0.0000 C   0  0  0  0  0  0  0  0  0  0  0  0
    0.6703   -0.7462    0.0000 C   0  0  0  0  0  0  0  0  0  0  0  0
    1.3925    0.4999    0.0000 C   0  0  0  0  0  0  0  0  0  0  0  0
   -0.7555    0.1037    0.0000 C   0  0  0  0  0  0  0  0  0  0  0  0
   -0.0370    1.3258    0.0000 O   0  0  0  0  0  0  0  0  0  0  0  0
   -0.0370   -1.1369    0.0000 C   0  0  0  0  0  0  0  0  0  0  0  0
    2.1109    0.9092    0.0000 C   0  0  0  0  0  0  0  0  0  0  0  0
    1.7980   -0.2185    0.0000 C   0  0  0  0  0  0  0  0  0  0  0  0
    0.9832    1.2184    0.0000 C   0  0  0  0  0  0  0  0  0  0  0  0
   -0.7555   -0.7352    0.0000 C   0  0  0  0  0  0  0  0  0  0  0  0
   -1.4776    0.5204    0.0000 C   0  0  0  0  0  0  0  0  0  0  0  0
   -0.0370   -1.9554    0.0000 C   0  0  0  0  0  0  0  0  0  0  0  0
   -1.0573    1.2443    0.0000 C   0  0  0  0  0  0  0  0  0  0  0  0
   -1.8943   -0.1888    0.0000 C   0  0  0  0  0  0  0  0  0  0  0  0
   -2.1887    0.9389    0.0000 C   0  0  0  0  0  0  0  0  0  0  0  0
    0.6500   -2.3795    0.0000 C   0  0  0  0  0  0  0  0  0  0  0  0
  1  2  1  0  0  0  0
  1  3  2  0  0  0  0
  1  4  1  0  0  0  0
  2  5  2  0  0  0  0
  2  6  1  0  0  0  0
  3  7  1  0  0  0  0
  4  8  1  0  0  0  0
  4  9  1  0  0  0  0
  4 10  1  0  0  0  0
  5 11  1  0  0  0  0
  5 12  1  0  0  0  0
  7 13  1  0  0  0  0
 12 14  1  0  0  0  0
 12 15  1  0  0  0  0
 12 16  1  0  0  0  0
 13 17  1  0  0  0  0
  7 11  2  0  0  0  0
M  END