88
  Mrv0541 04071411322D          

 14 15  0  0  0  0            999 V2000
   -0.5090   -0.4039    0.0000 C   0  0  0  0  0  0  0  0  0  0  0  0
    0.1905   -0.8278    0.0000 C   0  0  0  0  0  0  0  0  0  0  0  0
   -1.2515   -0.8108    0.0000 C   0  0  0  0  0  0  0  0  0  0  0  0
   -0.5090    0.4096    0.0000 C   0  0  0  0  0  0  0  0  0  0  0  0
    0.9188   -0.4152    0.0000 C   0  0  0  0  0  0  0  0  0  0  0  0
   -1.9541   -0.3725    0.0000 C   0  0  0  0  0  0  0  0  0  0  0  0
   -1.2118    0.8335    0.0000 C   0  0  0  0  0  0  0  0  0  0  0  0
    1.6241   -0.8306    0.0000 C   0  0  0  0  0  0  0  0  0  0  0  0
    0.9188    0.4067    0.0000 C   0  0  0  0  0  0  0  0  0  0  0  0
   -1.9370    0.4266    0.0000 C   0  0  0  0  0  0  0  0  0  0  0  0
    2.3467   -0.4550    0.0000 C   0  0  0  0  0  0  0  0  0  0  0  0
    1.6440    0.8079    0.0000 C   0  0  0  0  0  0  0  0  0  0  0  0
   -2.6368    0.8648    0.0000 O   0  0  0  0  0  0  0  0  0  0  0  0
    2.3666    0.3697    0.0000 C   0  0  0  0  0  0  0  0  0  0  0  0
  1  2  1  0  0  0  0
  1  3  2  0  0  0  0
  1  4  1  0  0  0  0
  2  5  1  0  0  0  0
  3  6  1  0  0  0  0
  4  7  2  0  0  0  0
  5  8  2  0  0  0  0
  5  9  1  0  0  0  0
  6 10  2  0  0  0  0
  8 11  1  0  0  0  0
  9 12  2  0  0  0  0
 10 13  1  0  0  0  0
 11 14  2  0  0  0  0
  7 10  1  0  0  0  0
 12 14  1  0  0  0  0
M  END