97
  Mrv0541 04071411322D          

  9  9  0  0  0  0            999 V2000
    0.0025    0.6430    0.0000 C   0  0  0  0  0  0  0  0  0  0  0  0
    0.7062    0.2334    0.0000 C   0  0  0  0  0  0  0  0  0  0  0  0
   -0.7161    0.2334    0.0000 C   0  0  0  0  0  0  0  0  0  0  0  0
    0.0025    1.4634    0.0000 O   0  0  0  0  0  0  0  0  0  0  0  0
    0.7062   -0.5995    0.0000 C   0  0  0  0  0  0  0  0  0  0  0  0
    1.4423    0.6430    0.0000 Cl  0  0  0  0  0  0  0  0  0  0  0  0
   -0.7161   -0.5995    0.0000 C   0  0  0  0  0  0  0  0  0  0  0  0
   -0.0099   -1.0091    0.0000 C   0  0  0  0  0  0  0  0  0  0  0  0
   -1.4187   -1.0091    0.0000 C   0  0  0  0  0  0  0  0  0  0  0  0
  1  2  1  0  0  0  0
  1  3  2  0  0  0  0
  1  4  1  0  0  0  0
  2  5  2  0  0  0  0
  2  6  1  0  0  0  0
  3  7  1  0  0  0  0
  5  8  1  0  0  0  0
  7  9  1  0  0  0  0
  7  8  2  0  0  0  0
M  END