10
  Mrv0541 04071411322D          

 11 10  0  0  0  0            999 V2000
   -0.1121    0.3050    0.0000 C   0  0  0  0  0  0  0  0  0  0  0  0
    0.5741   -0.1345    0.0000 C   0  0  0  0  0  0  0  0  0  0  0  0
   -0.8432   -0.0852    0.0000 C   0  0  0  0  0  0  0  0  0  0  0  0
    1.3051    0.2556    0.0000 C   0  0  0  0  0  0  0  0  0  0  0  0
   -1.5428    0.3521    0.0000 C   0  0  0  0  0  0  0  0  0  0  0  0
    2.0047   -0.1839    0.0000 C   0  0  0  0  0  0  0  0  0  0  0  0
   -2.2716   -0.0291    0.0000 C   0  0  0  0  0  0  0  0  0  0  0  0
    2.7335    0.2018    0.0000 C   0  0  0  0  0  0  0  0  0  0  0  0
   -2.9779    0.4014    0.0000 C   0  0  0  0  0  0  0  0  0  0  0  0
   -2.2962   -0.8499    0.0000 C   0  0  0  0  0  0  0  0  0  0  0  0
    3.4264   -0.2287    0.0000 O   0  0  0  0  0  0  0  0  0  0  0  0
  1  2  1  0  0  0  0
  1  3  1  0  0  0  0
  2  4  1  0  0  0  0
  3  5  1  0  0  0  0
  4  6  1  0  0  0  0
  5  7  1  0  0  0  0
  6  8  1  0  0  0  0
  7  9  1  0  0  0  0
  7 10  1  0  0  0  0
  8 11  1  0  0  0  0
M  END