100
  Mrv0541 04071411322D          

  9  9  0  0  0  0            999 V2000
    0.5574   -0.3270    0.0000 C   0  0  0  0  0  0  0  0  0  0  0  0
   -0.1561   -0.7376    0.0000 C   0  0  0  0  0  0  0  0  0  0  0  0
    0.5574    0.5091    0.0000 C   0  0  0  0  0  0  0  0  0  0  0  0
    1.2689   -0.7488    0.0000 Cl  0  0  0  0  0  0  0  0  0  0  0  0
   -0.8769   -0.3177    0.0000 C   0  0  0  0  0  0  0  0  0  0  0  0
   -0.1561   -1.5569    0.0000 Cl  0  0  0  0  0  0  0  0  0  0  0  0
   -0.1561    0.9215    0.0000 C   0  0  0  0  0  0  0  0  0  0  0  0
   -0.8769    0.5202    0.0000 C   0  0  0  0  0  0  0  0  0  0  0  0
   -0.1561    1.7408    0.0000 O   0  0  0  0  0  0  0  0  0  0  0  0
  1  2  2  0  0  0  0
  1  3  1  0  0  0  0
  1  4  1  0  0  0  0
  2  5  1  0  0  0  0
  2  6  1  0  0  0  0
  3  7  2  0  0  0  0
  5  8  2  0  0  0  0
  7  9  1  0  0  0  0
  7  8  1  0  0  0  0
M  END