102
  Mrv0541 04071411322D          

  9  9  0  0  0  0            999 V2000
    0.0018   -0.4551    0.0000 C   0  0  0  0  0  0  0  0  0  0  0  0
   -0.7170   -0.0502    0.0000 C   0  0  0  0  0  0  0  0  0  0  0  0
    0.7170   -0.0502    0.0000 C   0  0  0  0  0  0  0  0  0  0  0  0
    0.0018   -1.2947    0.0000 Cl  0  0  0  0  0  0  0  0  0  0  0  0
   -0.7170    0.7839    0.0000 C   0  0  0  0  0  0  0  0  0  0  0  0
   -1.4340   -0.4551    0.0000 O   0  0  0  0  0  0  0  0  0  0  0  0
    0.7170    0.7839    0.0000 C   0  0  0  0  0  0  0  0  0  0  0  0
    1.4302   -0.4551    0.0000 Cl  0  0  0  0  0  0  0  0  0  0  0  0
    0.0018    1.1943    0.0000 C   0  0  0  0  0  0  0  0  0  0  0  0
  1  2  2  0  0  0  0
  1  3  1  0  0  0  0
  1  4  1  0  0  0  0
  2  5  1  0  0  0  0
  2  6  1  0  0  0  0
  3  7  2  0  0  0  0
  3  8  1  0  0  0  0
  5  9  2  0  0  0  0
  7  9  1  0  0  0  0
M  END