103
  Mrv0541 04071411322D          

  9  9  0  0  0  0            999 V2000
   -0.3210    0.5507    0.0000 C   0  0  0  0  0  0  0  0  0  0  0  0
   -0.7354   -0.1531    0.0000 C   0  0  0  0  0  0  0  0  0  0  0  0
    0.5040    0.5507    0.0000 C   0  0  0  0  0  0  0  0  0  0  0  0
   -0.7354    1.2750    0.0000 O   0  0  0  0  0  0  0  0  0  0  0  0
   -0.3210   -0.8773    0.0000 C   0  0  0  0  0  0  0  0  0  0  0  0
   -1.5680   -0.1531    0.0000 Cl  0  0  0  0  0  0  0  0  0  0  0  0
    0.9221   -0.1531    0.0000 C   0  0  0  0  0  0  0  0  0  0  0  0
    0.5040   -0.8773    0.0000 C   0  0  0  0  0  0  0  0  0  0  0  0
    1.7491   -0.1606    0.0000 Cl  0  0  0  0  0  0  0  0  0  0  0  0
  1  2  2  0  0  0  0
  1  3  1  0  0  0  0
  1  4  1  0  0  0  0
  2  5  1  0  0  0  0
  2  6  1  0  0  0  0
  3  7  2  0  0  0  0
  5  8  2  0  0  0  0
  7  9  1  0  0  0  0
  7  8  1  0  0  0  0
M  END