104
  Mrv0541 04071411322D          

  9  9  0  0  0  0            999 V2000
   -0.7153   -0.4076    0.0000 C   0  0  0  0  0  0  0  0  0  0  0  0
   -0.0055   -0.8282    0.0000 C   0  0  0  0  0  0  0  0  0  0  0  0
   -0.7153    0.4261    0.0000 C   0  0  0  0  0  0  0  0  0  0  0  0
   -1.4323   -0.8172    0.0000 O   0  0  0  0  0  0  0  0  0  0  0  0
    0.7171   -0.4225    0.0000 C   0  0  0  0  0  0  0  0  0  0  0  0
    0.0037    0.8282    0.0000 C   0  0  0  0  0  0  0  0  0  0  0  0
    0.7171    0.4188    0.0000 C   0  0  0  0  0  0  0  0  0  0  0  0
    1.4268   -0.8375    0.0000 Cl  0  0  0  0  0  0  0  0  0  0  0  0
    0.0037    1.6437    0.0000 Cl  0  0  0  0  0  0  0  0  0  0  0  0
  1  2  2  0  0  0  0
  1  3  1  0  0  0  0
  1  4  1  0  0  0  0
  2  5  1  0  0  0  0
  3  6  2  0  0  0  0
  5  7  2  0  0  0  0
  5  8  1  0  0  0  0
  6  9  1  0  0  0  0
  6  7  1  0  0  0  0
M  END