106
  Mrv0541 04071411322D          

 11 11  0  0  0  0            999 V2000
    0.5810    0.3422    0.0000 C   0  0  0  0  0  0  0  0  0  0  0  0
   -0.1313    0.7475    0.0000 C   0  0  0  0  0  0  0  0  0  0  0  0
    0.5865   -0.4865    0.0000 C   0  0  0  0  0  0  0  0  0  0  0  0
    1.2839    0.7715    0.0000 Cl  0  0  0  0  0  0  0  0  0  0  0  0
   -0.8474    0.3292    0.0000 C   0  0  0  0  0  0  0  0  0  0  0  0
   -0.1313    1.5763    0.0000 O   0  0  0  0  0  0  0  0  0  0  0  0
   -0.1184   -0.8917    0.0000 C   0  0  0  0  0  0  0  0  0  0  0  0
    1.3042   -0.9158    0.0000 Cl  0  0  0  0  0  0  0  0  0  0  0  0
   -0.8419   -0.4957    0.0000 C   0  0  0  0  0  0  0  0  0  0  0  0
   -1.5671    0.7382    0.0000 Cl  0  0  0  0  0  0  0  0  0  0  0  0
   -0.1184   -1.7206    0.0000 Cl  0  0  0  0  0  0  0  0  0  0  0  0
  1  2  2  0  0  0  0
  1  3  1  0  0  0  0
  1  4  1  0  0  0  0
  2  5  1  0  0  0  0
  2  6  1  0  0  0  0
  3  7  2  0  0  0  0
  3  8  1  0  0  0  0
  5  9  2  0  0  0  0
  5 10  1  0  0  0  0
  7 11  1  0  0  0  0
  7  9  1  0  0  0  0
M  END