107
  Mrv0541 04071411322D          

 13 13  0  0  0  0            999 V2000
    0.7012    0.0000    0.0000 C   0  0  0  0  0  0  0  0  0  0  0  0
    0.2917   -0.7143    0.0000 C   0  0  0  0  0  0  0  0  0  0  0  0
    0.2917    0.7162    0.0000 C   0  0  0  0  0  0  0  0  0  0  0  0
    1.5278    0.0000    0.0000 C   0  0  0  0  0  0  0  0  0  0  0  0
   -0.5460   -0.7143    0.0000 C   0  0  0  0  0  0  0  0  0  0  0  0
   -0.5460    0.7162    0.0000 C   0  0  0  0  0  0  0  0  0  0  0  0
    2.3524    0.0000    0.0000 C   0  0  0  0  0  0  0  0  0  0  0  0
    1.5278    0.8247    0.0000 C   0  0  0  0  0  0  0  0  0  0  0  0
    1.5278   -0.8340    0.0000 C   0  0  0  0  0  0  0  0  0  0  0  0
   -0.9556    0.0000    0.0000 C   0  0  0  0  0  0  0  0  0  0  0  0
   -1.7802    0.0000    0.0000 C   0  0  0  0  0  0  0  0  0  0  0  0
   -2.1934   -0.7143    0.0000 O   0  0  0  0  0  0  0  0  0  0  0  0
   -2.2028    0.7162    0.0000 O   0  0  0  0  0  0  0  0  0  0  0  0
  1  2  2  0  0  0  0
  1  3  1  0  0  0  0
  1  4  1  0  0  0  0
  2  5  1  0  0  0  0
  3  6  2  0  0  0  0
  4  7  1  0  0  0  0
  4  8  1  0  0  0  0
  4  9  1  0  0  0  0
  5 10  2  0  0  0  0
 10 11  1  0  0  0  0
 11 12  1  0  0  0  0
 11 13  2  0  0  0  0
  6 10  1  0  0  0  0
M  END