108
  Mrv0541 04071411322D          

 10 10  0  0  0  0            999 V2000
   -0.1577    0.1392    0.0000 C   0  0  0  0  0  0  0  0  0  0  0  0
    0.2375   -0.5677    0.0000 C   0  0  0  0  0  0  0  0  0  0  0  0
    0.2468    0.8497    0.0000 C   0  0  0  0  0  0  0  0  0  0  0  0
   -0.9852    0.1466    0.0000 C   0  0  0  0  0  0  0  0  0  0  0  0
    1.0668   -0.5677    0.0000 C   0  0  0  0  0  0  0  0  0  0  0  0
   -0.1670   -1.2820    0.0000 Cl  0  0  0  0  0  0  0  0  0  0  0  0
    1.0779    0.8497    0.0000 C   0  0  0  0  0  0  0  0  0  0  0  0
   -1.4044   -0.5603    0.0000 O   0  0  0  0  0  0  0  0  0  0  0  0
   -1.3971    0.8591    0.0000 O   0  0  0  0  0  0  0  0  0  0  0  0
    1.4842    0.1317    0.0000 C   0  0  0  0  0  0  0  0  0  0  0  0
  1  2  2  0  0  0  0
  1  3  1  0  0  0  0
  1  4  1  0  0  0  0
  2  5  1  0  0  0  0
  2  6  1  0  0  0  0
  3  7  2  0  0  0  0
  4  8  1  0  0  0  0
  4  9  2  0  0  0  0
  5 10  2  0  0  0  0
  7 10  1  0  0  0  0
M  END