11
  Mrv0541 04071411322D          

 14 13  0  0  0  0            999 V2000
   -1.1650   -0.2594    0.0000 C   0  0  0  0  0  0  0  0  0  0  0  0
   -0.4468    0.1465    0.0000 C   0  0  0  0  0  0  0  0  0  0  0  0
   -1.8833    0.1465    0.0000 C   0  0  0  0  0  0  0  0  0  0  0  0
    0.2715   -0.2594    0.0000 C   0  0  0  0  0  0  0  0  0  0  0  0
   -2.5895   -0.2594    0.0000 C   0  0  0  0  0  0  0  0  0  0  0  0
    0.9537    0.1465    0.0000 C   0  0  0  0  0  0  0  0  0  0  0  0
   -3.3150    0.1465    0.0000 C   0  0  0  0  0  0  0  0  0  0  0  0
    1.6743   -0.2594    0.0000 C   0  0  0  0  0  0  0  0  0  0  0  0
   -4.0260   -0.2594    0.0000 C   0  0  0  0  0  0  0  0  0  0  0  0
   -3.3150    0.9368    0.0000 C   0  0  0  0  0  0  0  0  0  0  0  0
    2.3830    0.1465    0.0000 C   0  0  0  0  0  0  0  0  0  0  0  0
    3.1036   -0.2594    0.0000 C   0  0  0  0  0  0  0  0  0  0  0  0
    3.8219    0.1465    0.0000 C   0  0  0  0  0  0  0  0  0  0  0  0
    4.5257   -0.2594    0.0000 O   0  0  0  0  0  0  0  0  0  0  0  0
  1  2  1  0  0  0  0
  1  3  1  0  0  0  0
  2  4  1  0  0  0  0
  3  5  1  0  0  0  0
  4  6  1  0  0  0  0
  5  7  1  0  0  0  0
  6  8  1  0  0  0  0
  7  9  1  0  0  0  0
  7 10  1  0  0  0  0
  8 11  1  0  0  0  0
 11 12  1  0  0  0  0
 12 13  1  0  0  0  0
 13 14  1  0  0  0  0
M  END