111
  Mrv0541 04071411322D          

  7  7  0  0  0  0            999 V2000
   -0.5873    0.0000    0.0000 C   0  0  0  0  0  0  0  0  0  0  0  0
   -0.1760   -0.7152    0.0000 C   0  0  0  0  0  0  0  0  0  0  0  0
   -0.1760    0.7152    0.0000 C   0  0  0  0  0  0  0  0  0  0  0  0
   -1.4193    0.0000    0.0000 C   0  0  0  0  0  0  0  0  0  0  0  0
    0.6466   -0.7152    0.0000 C   0  0  0  0  0  0  0  0  0  0  0  0
    0.6466    0.7152    0.0000 C   0  0  0  0  0  0  0  0  0  0  0  0
    1.0654    0.0000    0.0000 C   0  0  0  0  0  0  0  0  0  0  0  0
  1  2  1  0  0  0  0
  1  3  1  0  0  0  0
  1  4  1  0  0  0  0
  2  5  1  0  0  0  0
  3  6  1  0  0  0  0
  5  7  1  0  0  0  0
  6  7  1  0  0  0  0
M  END