113
  Mrv0541 04071411322D          

 12 12  0  0  0  0            999 V2000
    1.3110    0.9382    0.0000 C   0  0  0  0  0  0  0  0  0  0  0  0
    1.5812    0.1569    0.0000 C   0  0  0  0  0  0  0  0  0  0  0  0
    0.6664    1.4570    0.0000 C   0  0  0  0  0  0  0  0  0  0  0  0
    1.4384   -0.6539    0.0000 C   0  0  0  0  0  0  0  0  0  0  0  0
   -0.1382    1.6029    0.0000 C   0  0  0  0  0  0  0  0  0  0  0  0
    0.8916   -1.3202    0.0000 C   0  0  0  0  0  0  0  0  0  0  0  0
   -0.9196    1.3094    0.0000 C   0  0  0  0  0  0  0  0  0  0  0  0
    0.1103   -1.6123    0.0000 C   0  0  0  0  0  0  0  0  0  0  0  0
   -1.4430    0.6757    0.0000 C   0  0  0  0  0  0  0  0  0  0  0  0
   -0.6881   -1.4709    0.0000 C   0  0  0  0  0  0  0  0  0  0  0  0
   -1.5564   -0.1352    0.0000 C   0  0  0  0  0  0  0  0  0  0  0  0
   -1.2519   -0.9459    0.0000 C   0  0  0  0  0  0  0  0  0  0  0  0
  1  2  1  0  0  0  0
  1  3  1  0  0  0  0
  2  4  1  0  0  0  0
  3  5  2  0  0  0  0
  4  6  2  0  0  0  0
  5  7  1  0  0  0  0
  6  8  1  0  0  0  0
  7  9  1  0  0  0  0
  8 10  1  0  0  0  0
  9 11  1  0  0  0  0
 10 12  1  0  0  0  0
 11 12  2  0  0  0  0
M  END