114
  Mrv0541 04071411322D          

 12 12  0  0  0  0            999 V2000
   -0.3970   -1.4082    0.0000 C   0  0  0  0  0  0  0  0  0  0  0  0
    0.4280   -1.4082    0.0000 C   0  0  0  0  0  0  0  0  0  0  0  0
   -0.5937   -0.5937    0.0000 C   0  0  0  0  0  0  0  0  0  0  0  0
    0.6075   -0.6040    0.0000 C   0  0  0  0  0  0  0  0  0  0  0  0
   -1.4048   -0.4142    0.0000 C   0  0  0  0  0  0  0  0  0  0  0  0
    1.4082   -0.4073    0.0000 C   0  0  0  0  0  0  0  0  0  0  0  0
   -1.4186    0.4107    0.0000 C   0  0  0  0  0  0  0  0  0  0  0  0
    1.4082    0.4176    0.0000 C   0  0  0  0  0  0  0  0  0  0  0  0
   -0.6178    0.5972    0.0000 C   0  0  0  0  0  0  0  0  0  0  0  0
    0.5972    0.5972    0.0000 C   0  0  0  0  0  0  0  0  0  0  0  0
   -0.4280    1.3980    0.0000 C   0  0  0  0  0  0  0  0  0  0  0  0
    0.4038    1.4082    0.0000 C   0  0  0  0  0  0  0  0  0  0  0  0
  1  2  1  0  0  0  0
  1  3  1  0  0  0  0
  2  4  1  0  0  0  0
  3  5  1  0  0  0  0
  4  6  1  0  0  0  0
  5  7  1  0  0  0  0
  6  8  1  0  0  0  0
  7  9  1  0  0  0  0
  8 10  1  0  0  0  0
  9 11  1  0  0  0  0
 10 12  1  0  0  0  0
 11 12  1  0  0  0  0
M  END