116
  Mrv0541 04071411322D          

 12 12  0  0  0  0            999 V2000
   -0.1186    0.2747    0.0000 C   0  0  0  0  0  0  0  0  0  0  0  0
    0.5944   -0.1396    0.0000 C   0  0  0  0  0  0  0  0  0  0  0  0
   -0.8346   -0.1336    0.0000 C   0  0  0  0  0  0  0  0  0  0  0  0
   -0.1186    1.1018    0.0000 C   0  0  0  0  0  0  0  0  0  0  0  0
    0.5944   -0.9668    0.0000 C   0  0  0  0  0  0  0  0  0  0  0  0
    1.3180    0.2747    0.0000 Cl  0  0  0  0  0  0  0  0  0  0  0  0
   -0.8346   -0.9607    0.0000 C   0  0  0  0  0  0  0  0  0  0  0  0
   -1.5552    0.2837    0.0000 Cl  0  0  0  0  0  0  0  0  0  0  0  0
    0.5944    1.5146    0.0000 O   0  0  0  0  0  0  0  0  0  0  0  0
   -0.8346    1.5146    0.0000 O   0  0  0  0  0  0  0  0  0  0  0  0
   -0.1186   -1.3706    0.0000 C   0  0  0  0  0  0  0  0  0  0  0  0
    1.3090   -1.3960    0.0000 Cl  0  0  0  0  0  0  0  0  0  0  0  0
  1  2  1  0  0  0  0
  1  3  2  0  0  0  0
  1  4  1  0  0  0  0
  2  5  2  0  0  0  0
  2  6  1  0  0  0  0
  3  7  1  0  0  0  0
  3  8  1  0  0  0  0
  4  9  1  0  0  0  0
  4 10  2  0  0  0  0
  5 11  1  0  0  0  0
  5 12  1  0  0  0  0
  7 11  2  0  0  0  0
M  END