117
  Mrv0541 04071411322D          

 12 12  0  0  0  0            999 V2000
    4.2147   -2.8931    0.0000 C   0  0  0  0  0  0  0  0  0  0  0  0
    3.5141   -2.4901    0.0000 C   0  0  0  0  0  0  0  0  0  0  0  0
    4.2147   -3.7444    0.0000 C   0  0  0  0  0  0  0  0  0  0  0  0
    4.9365   -2.4901    0.0000 C   0  0  0  0  0  0  0  0  0  0  0  0
    2.7819   -2.9210    0.0000 C   0  0  0  0  0  0  0  0  0  0  0  0
    3.5141   -1.6773    0.0000 C   0  0  0  0  0  0  0  0  0  0  0  0
    3.5141   -4.1401    0.0000 C   0  0  0  0  0  0  0  0  0  0  0  0
    4.9365   -1.6528    0.0000 O   0  0  0  0  0  0  0  0  0  0  0  0
    5.6477   -2.8931    0.0000 O   0  0  0  0  0  0  0  0  0  0  0  0
    2.7819   -3.7444    0.0000 C   0  0  0  0  0  0  0  0  0  0  0  0
    4.2357   -1.2534    0.0000 O   0  0  0  0  0  0  0  0  0  0  0  0
    2.8029   -1.2850    0.0000 O   0  0  0  0  0  0  0  0  0  0  0  0
  1  2  1  0  0  0  0
  1  3  1  0  0  0  0
  1  4  1  0  0  0  0
  2  5  1  0  0  0  0
  2  6  1  0  0  0  0
  3  7  1  0  0  0  0
  4  8  1  0  0  0  0
  4  9  2  0  0  0  0
  5 10  1  0  0  0  0
  6 11  1  0  0  0  0
  6 12  2  0  0  0  0
  7 10  2  0  0  0  0
M  END