118
  Mrv0541 04071411322D          

 19 21  0  0  0  0            999 V2000
    7.8592    6.2698    0.0000 C   0  0  0  0  0  0  0  0  0  0  0  0
    8.5703    6.6881    0.0000 C   0  0  0  0  0  0  0  0  0  0  0  0
    7.1482    6.6881    0.0000 C   0  0  0  0  0  0  0  0  0  0  0  0
    9.2813    6.2698    0.0000 C   0  0  0  0  0  0  0  0  0  0  0  0
    6.4371    6.2698    0.0000 C   0  0  0  0  0  0  0  0  0  0  0  0
    7.8592    5.4333    0.0000 O   0  0  0  0  0  0  0  0  0  0  0  0
    7.1482    7.5246    0.0000 C   0  0  0  0  0  0  0  0  0  0  0  0
    8.5703    7.5246    0.0000 C   0  0  0  0  0  0  0  0  0  0  0  0
    7.8592    7.9429    0.0000 C   0  0  0  0  0  0  0  0  0  0  0  0
    5.7261    6.6881    0.0000 C   0  0  0  0  0  0  0  0  0  0  0  0
    6.4371    5.4333    0.0000 C   0  0  0  0  0  0  0  0  0  0  0  0
    9.9925    6.6881    0.0000 C   0  0  0  0  0  0  0  0  0  0  0  0
    9.2813    5.4333    0.0000 C   0  0  0  0  0  0  0  0  0  0  0  0
    5.7261    5.0192    0.0000 C   0  0  0  0  0  0  0  0  0  0  0  0
   10.6992    6.2698    0.0000 C   0  0  0  0  0  0  0  0  0  0  0  0
    9.9925    5.0192    0.0000 C   0  0  0  0  0  0  0  0  0  0  0  0
    5.0192    6.2698    0.0000 C   0  0  0  0  0  0  0  0  0  0  0  0
    5.0192    5.4333    0.0000 C   0  0  0  0  0  0  0  0  0  0  0  0
   10.6992    5.4333    0.0000 C   0  0  0  0  0  0  0  0  0  0  0  0
  2  1  2  0  0  0  0
  3  1  1  0  0  0  0
  4  2  1  0  0  0  0
  5  3  1  0  0  0  0
  6  1  1  0  0  0  0
  7  3  2  0  0  0  0
  8  2  1  0  0  0  0
  9  7  1  0  0  0  0
 10  5  1  0  0  0  0
 11  5  1  0  0  0  0
 12  4  1  0  0  0  0
 13  4  1  0  0  0  0
 14 11  1  0  0  0  0
 15 12  1  0  0  0  0
 16 13  1  0  0  0  0
 17 10  1  0  0  0  0
 18 14  1  0  0  0  0
 19 16  1  0  0  0  0
  8  9  2  0  0  0  0
 18 17  1  0  0  0  0
 19 15  1  0  0  0  0
M  END