121
  Mrv0541 04071411322D          

 21 22  0  0  0  0            999 V2000
   -0.8091   -0.0240    0.0000 C   0  0  0  0  0  0  0  0  0  0  0  0
   -0.0962    0.5207    0.0000 C   0  0  0  0  0  0  0  0  0  0  0  0
   -1.5300    0.3885    0.0000 C   0  0  0  0  0  0  0  0  0  0  0  0
   -0.8091   -0.8490    0.0000 C   0  0  0  0  0  0  0  0  0  0  0  0
    0.7209    0.3966    0.0000 C   0  0  0  0  0  0  0  0  0  0  0  0
   -2.2309   -0.0240    0.0000 C   0  0  0  0  0  0  0  0  0  0  0  0
   -1.5300    1.2095    0.0000 O   0  0  0  0  0  0  0  0  0  0  0  0
   -1.5219   -1.2577    0.0000 C   0  0  0  0  0  0  0  0  0  0  0  0
   -0.2523   -1.4258    0.0000 Cl  0  0  0  0  0  0  0  0  0  0  0  0
    1.1215    1.1094    0.0000 C   0  0  0  0  0  0  0  0  0  0  0  0
    1.1255   -0.3124    0.0000 C   0  0  0  0  0  0  0  0  0  0  0  0
   -2.2309   -0.8490    0.0000 C   0  0  0  0  0  0  0  0  0  0  0  0
   -2.9518    0.3885    0.0000 Cl  0  0  0  0  0  0  0  0  0  0  0  0
   -1.5219   -2.0827    0.0000 Cl  0  0  0  0  0  0  0  0  0  0  0  0
    1.9386    1.1134    0.0000 C   0  0  0  0  0  0  0  0  0  0  0  0
    0.7049    1.8224    0.0000 O   0  0  0  0  0  0  0  0  0  0  0  0
    1.9546   -0.3124    0.0000 C   0  0  0  0  0  0  0  0  0  0  0  0
    0.8371   -1.0254    0.0000 Cl  0  0  0  0  0  0  0  0  0  0  0  0
    2.3590    0.3966    0.0000 C   0  0  0  0  0  0  0  0  0  0  0  0
    2.3471    1.8343    0.0000 Cl  0  0  0  0  0  0  0  0  0  0  0  0
    2.3711   -1.0254    0.0000 Cl  0  0  0  0  0  0  0  0  0  0  0  0
  1  2  1  0  0  0  0
  1  3  2  0  0  0  0
  1  4  1  0  0  0  0
  2  5  1  0  0  0  0
  3  6  1  0  0  0  0
  3  7  1  0  0  0  0
  4  8  2  0  0  0  0
  4  9  1  0  0  0  0
  5 10  1  0  0  0  0
  5 11  2  0  0  0  0
  6 12  2  0  0  0  0
  6 13  1  0  0  0  0
  8 14  1  0  0  0  0
 10 15  2  0  0  0  0
 10 16  1  0  0  0  0
 11 17  1  0  0  0  0
 11 18  1  0  0  0  0
 15 19  1  0  0  0  0
 15 20  1  0  0  0  0
 17 21  1  0  0  0  0
  8 12  1  0  0  0  0
 17 19  2  0  0  0  0
M  END