122
  Mrv0541 04071411322D          

 17 18  0  0  0  0            999 V2000
    0.0026    0.0026    0.0000 C   0  0  0  0  0  0  0  0  0  0  0  0
   -0.8223    0.0026    0.0000 C   0  0  0  0  0  0  0  0  0  0  0  0
    0.8274    0.0026    0.0000 C   0  0  0  0  0  0  0  0  0  0  0  0
    0.0026   -0.8223    0.0000 C   0  0  0  0  0  0  0  0  0  0  0  0
    0.0026    0.8274    0.0000 C   0  0  0  0  0  0  0  0  0  0  0  0
   -1.2438   -0.7188    0.0000 C   0  0  0  0  0  0  0  0  0  0  0  0
   -1.2438    0.7188    0.0000 C   0  0  0  0  0  0  0  0  0  0  0  0
    1.2412   -0.7188    0.0000 C   0  0  0  0  0  0  0  0  0  0  0  0
    1.2412    0.7188    0.0000 C   0  0  0  0  0  0  0  0  0  0  0  0
   -2.0686   -0.7370    0.0000 C   0  0  0  0  0  0  0  0  0  0  0  0
   -2.0686    0.7188    0.0000 C   0  0  0  0  0  0  0  0  0  0  0  0
    2.0660   -0.7370    0.0000 C   0  0  0  0  0  0  0  0  0  0  0  0
    2.0660    0.7188    0.0000 C   0  0  0  0  0  0  0  0  0  0  0  0
   -2.4874    0.0026    0.0000 C   0  0  0  0  0  0  0  0  0  0  0  0
    2.4901    0.0026    0.0000 C   0  0  0  0  0  0  0  0  0  0  0  0
   -3.3123    0.0026    0.0000 O   0  0  0  0  0  0  0  0  0  0  0  0
    3.3149    0.0026    0.0000 O   0  0  0  0  0  0  0  0  0  0  0  0
  1  2  1  0  0  0  0
  1  3  1  0  0  0  0
  1  4  1  0  0  0  0
  1  5  1  0  0  0  0
  2  6  2  0  0  0  0
  2  7  1  0  0  0  0
  3  8  2  0  0  0  0
  3  9  1  0  0  0  0
  6 10  1  0  0  0  0
  7 11  2  0  0  0  0
  8 12  1  0  0  0  0
  9 13  2  0  0  0  0
 10 14  2  0  0  0  0
 12 15  2  0  0  0  0
 14 16  1  0  0  0  0
 15 17  1  0  0  0  0
 11 14  1  0  0  0  0
 13 15  1  0  0  0  0
M  END