123
  Mrv0541 04071411322D          

 24 25  0  0  0  0            999 V2000
    1.7423    0.0301    0.0000 C   0  0  0  0  0  0  0  0  0  0  0  0
    2.4693    0.4456    0.0000 C   0  0  0  0  0  0  0  0  0  0  0  0
    1.7423   -0.7974    0.0000 C   0  0  0  0  0  0  0  0  0  0  0  0
    1.0387    0.4289    0.0000 C   0  0  0  0  0  0  0  0  0  0  0  0
    2.4559    1.2564    0.0000 C   0  0  0  0  0  0  0  0  0  0  0  0
    3.1830    0.0301    0.0000 O   0  0  0  0  0  0  0  0  0  0  0  0
    1.0454   -1.2095    0.0000 C   0  0  0  0  0  0  0  0  0  0  0  0
    2.4693   -1.2062    0.0000 O   0  0  0  0  0  0  0  0  0  0  0  0
    0.3183    0.0201    0.0000 C   0  0  0  0  0  0  0  0  0  0  0  0
    3.1763    1.6719    0.0000 C   0  0  0  0  0  0  0  0  0  0  0  0
    1.7423    1.6685    0.0000 C   0  0  0  0  0  0  0  0  0  0  0  0
    0.3183   -0.7974    0.0000 C   0  0  0  0  0  0  0  0  0  0  0  0
    3.1763    2.5061    0.0000 C   0  0  0  0  0  0  0  0  0  0  0  0
    1.7423    2.4860    0.0000 C   0  0  0  0  0  0  0  0  0  0  0  0
   -0.3820   -1.2229    0.0000 O   0  0  0  0  0  0  0  0  0  0  0  0
    2.4559    2.9082    0.0000 C   0  0  0  0  0  0  0  0  0  0  0  0
   -1.0922   -0.8042    0.0000 C   0  0  0  0  0  0  0  0  0  0  0  0
   -1.8025   -1.2229    0.0000 C   0  0  0  0  0  0  0  0  0  0  0  0
   -2.5061   -0.8208    0.0000 C   0  0  0  0  0  0  0  0  0  0  0  0
   -3.2366   -1.2330    0.0000 C   0  0  0  0  0  0  0  0  0  0  0  0
   -3.9402   -0.8208    0.0000 C   0  0  0  0  0  0  0  0  0  0  0  0
   -4.6571   -1.2430    0.0000 C   0  0  0  0  0  0  0  0  0  0  0  0
   -5.3741   -0.8342    0.0000 C   0  0  0  0  0  0  0  0  0  0  0  0
   -6.0878   -1.2464    0.0000 C   0  0  0  0  0  0  0  0  0  0  0  0
  1  2  1  0  0  0  0
  1  3  2  0  0  0  0
  1  4  1  0  0  0  0
  2  5  1  0  0  0  0
  2  6  2  0  0  0  0
  3  7  1  0  0  0  0
  3  8  1  0  0  0  0
  4  9  2  0  0  0  0
  5 10  2  0  0  0  0
  5 11  1  0  0  0  0
  7 12  2  0  0  0  0
 10 13  1  0  0  0  0
 11 14  2  0  0  0  0
 12 15  1  0  0  0  0
 13 16  2  0  0  0  0
 15 17  1  0  0  0  0
 17 18  1  0  0  0  0
 18 19  1  0  0  0  0
 19 20  1  0  0  0  0
 20 21  1  0  0  0  0
 21 22  1  0  0  0  0
 22 23  1  0  0  0  0
 23 24  1  0  0  0  0
  9 12  1  0  0  0  0
 14 16  1  0  0  0  0
M  END