124
  Mrv0541 04071411322D          

 17 18  0  0  0  0            999 V2000
   -0.0028   -0.1500    0.0000 C   0  0  0  0  0  0  0  0  0  0  0  0
   -0.8250   -0.1500    0.0000 C   0  0  0  0  0  0  0  0  0  0  0  0
    0.8236   -0.1500    0.0000 C   0  0  0  0  0  0  0  0  0  0  0  0
   -0.0028    0.6792    0.0000 C   0  0  0  0  0  0  0  0  0  0  0  0
   -0.0028   -0.9666    0.0000 O   0  0  0  0  0  0  0  0  0  0  0  0
   -1.2402    0.5736    0.0000 C   0  0  0  0  0  0  0  0  0  0  0  0
   -1.2402   -0.8569    0.0000 C   0  0  0  0  0  0  0  0  0  0  0  0
    1.2374    0.5736    0.0000 C   0  0  0  0  0  0  0  0  0  0  0  0
    1.2374   -0.8569    0.0000 C   0  0  0  0  0  0  0  0  0  0  0  0
    0.7208    1.0930    0.0000 O   0  0  0  0  0  0  0  0  0  0  0  0
   -0.7097    1.0930    0.0000 O   0  0  0  0  0  0  0  0  0  0  0  0
   -2.0652    0.5653    0.0000 C   0  0  0  0  0  0  0  0  0  0  0  0
   -2.0652   -0.8569    0.0000 C   0  0  0  0  0  0  0  0  0  0  0  0
    2.0666    0.5653    0.0000 C   0  0  0  0  0  0  0  0  0  0  0  0
    2.0666   -0.8569    0.0000 C   0  0  0  0  0  0  0  0  0  0  0  0
   -2.4708   -0.1500    0.0000 C   0  0  0  0  0  0  0  0  0  0  0  0
    2.4735   -0.1500    0.0000 C   0  0  0  0  0  0  0  0  0  0  0  0
  1  2  1  0  0  0  0
  1  3  1  0  0  0  0
  1  4  1  0  0  0  0
  1  5  1  0  0  0  0
  2  6  2  0  0  0  0
  2  7  1  0  0  0  0
  3  8  1  0  0  0  0
  3  9  2  0  0  0  0
  4 10  1  0  0  0  0
  4 11  2  0  0  0  0
  6 12  1  0  0  0  0
  7 13  2  0  0  0  0
  8 14  2  0  0  0  0
  9 15  1  0  0  0  0
 12 16  2  0  0  0  0
 14 17  1  0  0  0  0
 13 16  1  0  0  0  0
 15 17  2  0  0  0  0
M  END