125
  Mrv0541 04071411322D          

 14 15  0  0  0  0            999 V2000
    2.7684   -2.8124    0.0000 C   0  0  0  0  0  0  0  0  0  0  0  0
    3.4887   -3.2291    0.0000 C   0  0  0  0  0  0  0  0  0  0  0  0
    2.4040   -2.0920    0.0000 C   0  0  0  0  0  0  0  0  0  0  0  0
    2.0481   -3.2291    0.0000 C   0  0  0  0  0  0  0  0  0  0  0  0
    3.4887   -4.0541    0.0000 C   0  0  0  0  0  0  0  0  0  0  0  0
    4.2950   -2.7600    0.0000 C   0  0  0  0  0  0  0  0  0  0  0  0
    2.7684   -3.6605    0.0000 C   0  0  0  0  0  0  0  0  0  0  0  0
    2.0481   -4.0541    0.0000 C   0  0  0  0  0  0  0  0  0  0  0  0
    1.3210   -2.8075    0.0000 C   0  0  0  0  0  0  0  0  0  0  0  0
    4.7600   -1.9486    0.0000 O   0  0  0  0  0  0  0  0  0  0  0  0
    5.1027   -3.2234    0.0000 O   0  0  0  0  0  0  0  0  0  0  0  0
    4.1977   -4.4635    0.0000 C   0  0  0  0  0  0  0  0  0  0  0  0
    4.9063   -4.0513    0.0000 O   0  0  0  0  0  0  0  0  0  0  0  0
    4.7754   -5.0411    0.0000 O   0  0  0  0  0  0  0  0  0  0  0  0
  3  7  1  0  0  0  0
  4  8  2  0  0  0  0
  5  7  1  0  0  0  0
  7  8  1  0  0  0  0
  4  9  1  0  0  0  0
  1  2  1  0  0  0  0
  6 10  2  0  0  0  0
  1  3  1  0  0  0  0
  6 11  1  0  0  0  0
  1  4  1  0  0  0  0
  5 12  1  0  0  0  0
  2  5  1  0  0  0  0
 12 13  2  0  0  0  0
  2  6  1  0  0  0  0
 12 14  1  0  0  0  0
M  END