126
  Mrv0541 04071411322D          

 13 14  0  0  0  0            999 V2000
   -0.2512    0.3745    0.0000 C   0  0  0  0  0  0  0  0  0  0  0  0
   -0.2512   -0.4978    0.0000 C   0  0  0  0  0  0  0  0  0  0  0  0
    0.4552    0.7894    0.0000 C   0  0  0  0  0  0  0  0  0  0  0  0
   -1.0315    0.7894    0.0000 C   0  0  0  0  0  0  0  0  0  0  0  0
    0.4552   -0.8925    0.0000 C   0  0  0  0  0  0  0  0  0  0  0  0
   -1.0315   -0.8925    0.0000 C   0  0  0  0  0  0  0  0  0  0  0  0
    1.1683    0.3745    0.0000 C   0  0  0  0  0  0  0  0  0  0  0  0
    0.4552    1.5675    0.0000 O   0  0  0  0  0  0  0  0  0  0  0  0
   -1.7065    0.3745    0.0000 C   0  0  0  0  0  0  0  0  0  0  0  0
    1.1683   -0.4978    0.0000 C   0  0  0  0  0  0  0  0  0  0  0  0
    0.4552   -1.7648    0.0000 Cl  0  0  0  0  0  0  0  0  0  0  0  0
   -1.7065   -0.4978    0.0000 C   0  0  0  0  0  0  0  0  0  0  0  0
    1.8209    0.7714    0.0000 Cl  0  0  0  0  0  0  0  0  0  0  0  0
  1  2  2  0  0  0  0
  1  3  1  0  0  0  0
  1  4  1  0  0  0  0
  2  5  1  0  0  0  0
  2  6  1  0  0  0  0
  3  7  2  0  0  0  0
  3  8  1  0  0  0  0
  4  9  2  0  0  0  0
  5 10  2  0  0  0  0
  5 11  1  0  0  0  0
  6 12  2  0  0  0  0
  7 13  1  0  0  0  0
  7 10  1  0  0  0  0
  9 12  1  0  0  0  0
M  END