127
  Mrv0541 04071411322D          

 14 15  0  0  0  0            999 V2000
    0.6571    0.2584    0.0000 C   0  0  0  0  0  0  0  0  0  0  0  0
    0.6571   -0.5555    0.0000 C   0  0  0  0  0  0  0  0  0  0  0  0
   -0.0498    0.6755    0.0000 C   0  0  0  0  0  0  0  0  0  0  0  0
    1.3750    0.6718    0.0000 C   0  0  0  0  0  0  0  0  0  0  0  0
   -0.0590   -0.9652    0.0000 C   0  0  0  0  0  0  0  0  0  0  0  0
    1.3750   -0.9726    0.0000 C   0  0  0  0  0  0  0  0  0  0  0  0
   -0.7585    0.2640    0.0000 C   0  0  0  0  0  0  0  0  0  0  0  0
    2.0911    0.2584    0.0000 C   0  0  0  0  0  0  0  0  0  0  0  0
   -0.7585   -0.5555    0.0000 C   0  0  0  0  0  0  0  0  0  0  0  0
    2.0911   -0.5592    0.0000 C   0  0  0  0  0  0  0  0  0  0  0  0
   -1.4765    0.6755    0.0000 C   0  0  0  0  0  0  0  0  0  0  0  0
   -1.4765   -0.9652    0.0000 O   0  0  0  0  0  0  0  0  0  0  0  0
   -2.1908    0.2658    0.0000 O   0  0  0  0  0  0  0  0  0  0  0  0
   -1.4747    1.5042    0.0000 O   0  0  0  0  0  0  0  0  0  0  0  0
  1  2  1  0  0  0  0
  1  3  2  0  0  0  0
  1  4  1  0  0  0  0
  2  5  2  0  0  0  0
  2  6  1  0  0  0  0
  3  7  1  0  0  0  0
  4  8  2  0  0  0  0
  5  9  1  0  0  0  0
  6 10  2  0  0  0  0
  7 11  1  0  0  0  0
  9 12  1  0  0  0  0
 11 13  1  0  0  0  0
 11 14  2  0  0  0  0
  7  9  2  0  0  0  0
  8 10  1  0  0  0  0
M  END