128
  Mrv0541 04071411322D          

 16 17  0  0  0  0            999 V2000
    0.0016   -0.4149    0.0000 C   0  0  0  0  0  0  0  0  0  0  0  0
    0.0016    0.4101    0.0000 C   0  0  0  0  0  0  0  0  0  0  0  0
   -0.7156   -0.8282    0.0000 C   0  0  0  0  0  0  0  0  0  0  0  0
    0.7139   -0.8282    0.0000 C   0  0  0  0  0  0  0  0  0  0  0  0
    0.7139    0.8233    0.0000 C   0  0  0  0  0  0  0  0  0  0  0  0
   -0.7156    0.8233    0.0000 C   0  0  0  0  0  0  0  0  0  0  0  0
   -1.4296   -0.4149    0.0000 C   0  0  0  0  0  0  0  0  0  0  0  0
    1.4312   -0.4149    0.0000 C   0  0  0  0  0  0  0  0  0  0  0  0
    1.4312    0.4101    0.0000 C   0  0  0  0  0  0  0  0  0  0  0  0
   -1.4296    0.4101    0.0000 C   0  0  0  0  0  0  0  0  0  0  0  0
   -2.1468   -0.8282    0.0000 C   0  0  0  0  0  0  0  0  0  0  0  0
    2.1468    0.8347    0.0000 C   0  0  0  0  0  0  0  0  0  0  0  0
   -2.8624   -0.4149    0.0000 O   0  0  0  0  0  0  0  0  0  0  0  0
   -2.1468   -1.6531    0.0000 O   0  0  0  0  0  0  0  0  0  0  0  0
    2.8624    0.4213    0.0000 O   0  0  0  0  0  0  0  0  0  0  0  0
    2.1468    1.6596    0.0000 O   0  0  0  0  0  0  0  0  0  0  0  0
  1  2  1  0  0  0  0
  1  3  1  0  0  0  0
  1  4  2  0  0  0  0
  2  5  2  0  0  0  0
  2  6  1  0  0  0  0
  3  7  2  0  0  0  0
  4  8  1  0  0  0  0
  5  9  1  0  0  0  0
  6 10  2  0  0  0  0
  7 11  1  0  0  0  0
  9 12  1  0  0  0  0
 11 13  1  0  0  0  0
 11 14  2  0  0  0  0
 12 15  1  0  0  0  0
 12 16  2  0  0  0  0
  7 10  1  0  0  0  0
  8  9  2  0  0  0  0
M  END