129
  Mrv0541 04071411322D          

 18 19  0  0  0  0            999 V2000
    2.6826   -2.5508    0.0000 C   0  0  0  0  0  0  0  0  0  0  0  0
    1.9681   -2.1383    0.0000 C   0  0  0  0  0  0  0  0  0  0  0  0
    1.9681   -1.3133    0.0000 C   0  0  0  0  0  0  0  0  0  0  0  0
    2.6826   -0.9008    0.0000 C   0  0  0  0  0  0  0  0  0  0  0  0
    3.3971   -1.3133    0.0000 C   0  0  0  0  0  0  0  0  0  0  0  0
    4.1115   -0.9008    0.0000 C   0  0  0  0  0  0  0  0  0  0  0  0
    4.8261   -1.3133    0.0000 C   0  0  0  0  0  0  0  0  0  0  0  0
    4.8261   -2.1383    0.0000 C   0  0  0  0  0  0  0  0  0  0  0  0
    4.1115   -2.5508    0.0000 C   0  0  0  0  0  0  0  0  0  0  0  0
    3.3971   -2.1383    0.0000 C   0  0  0  0  0  0  0  0  0  0  0  0
    2.4964   -3.6070    0.0000 C   0  0  0  0  0  0  0  0  0  0  0  0
    3.1284   -4.1373    0.0000 O   0  0  0  0  0  0  0  0  0  0  0  0
    1.7211   -3.8891    0.0000 O   0  0  0  0  0  0  0  0  0  0  0  0
    4.2548   -3.3632    0.0000 C   0  0  0  0  0  0  0  0  0  0  0  0
    3.6228   -3.8935    0.0000 O   0  0  0  0  0  0  0  0  0  0  0  0
    5.0301   -3.6454    0.0000 O   0  0  0  0  0  0  0  0  0  0  0  0
    2.6826   -0.0758    0.0000 Cl  0  0  0  0  0  0  0  0  0  0  0  0
    4.1085   -0.0743    0.0000 Cl  0  0  0  0  0  0  0  0  0  0  0  0
  1  2  1  0  0  0  0
  2  3  2  0  0  0  0
  3  4  1  0  0  0  0
  4  5  2  0  0  0  0
  5  6  1  0  0  0  0
  6  7  2  0  0  0  0
  7  8  1  0  0  0  0
  8  9  2  0  0  0  0
  9 10  1  0  0  0  0
  1 10  2  0  0  0  0
  5 10  1  0  0  0  0
 11 12  2  0  0  0  0
 11 13  1  0  0  0  0
  1 11  1  0  0  0  0
 14 15  2  0  0  0  0
 14 16  1  0  0  0  0
  9 14  1  0  0  0  0
  4 17  1  0  0  0  0
  6 18  1  0  0  0  0
M  END