130
  Mrv0541 04071411322D          

 15 16  0  0  0  0            999 V2000
    2.2084   -0.5146    0.0000 C   0  0  0  0  0  0  0  0  0  0  0  0
    1.4907   -0.1021    0.0000 C   0  0  0  0  0  0  0  0  0  0  0  0
    1.4884    0.8054    0.0000 S   0  0  0  0  0  0  0  0  0  0  0  0
    0.6634    0.8034    0.0000 O   0  0  0  0  0  0  0  0  0  0  0  0
    2.3134    0.8075    0.0000 O   0  0  0  0  0  0  0  0  0  0  0  0
    1.4863    1.6304    0.0000 O   0  0  0  0  0  0  0  0  0  0  0  0
    0.7812   -0.5146    0.0000 C   0  0  0  0  0  0  0  0  0  0  0  0
    0.7812   -1.3396    0.0000 C   0  0  0  0  0  0  0  0  0  0  0  0
    1.4907   -1.7521    0.0000 C   0  0  0  0  0  0  0  0  0  0  0  0
    1.4885   -2.5771    0.0000 O   0  0  0  0  0  0  0  0  0  0  0  0
    2.2084   -1.3396    0.0000 C   0  0  0  0  0  0  0  0  0  0  0  0
    2.9258   -1.7506    0.0000 C   0  0  0  0  0  0  0  0  0  0  0  0
    3.6390   -1.3359    0.0000 C   0  0  0  0  0  0  0  0  0  0  0  0
    3.6349   -0.5080    0.0000 C   0  0  0  0  0  0  0  0  0  0  0  0
    2.9217   -0.1021    0.0000 C   0  0  0  0  0  0  0  0  0  0  0  0
  1  2  1  0  0  0  0
  2  3  1  0  0  0  0
  3  4  2  0  0  0  0
  3  5  2  0  0  0  0
  3  6  1  0  0  0  0
  2  7  2  0  0  0  0
  7  8  1  0  0  0  0
  8  9  2  0  0  0  0
  9 10  1  0  0  0  0
  9 11  1  0  0  0  0
 11  1  2  0  0  0  0
 11 12  1  0  0  0  0
 12 13  2  0  0  0  0
 13 14  1  0  0  0  0
 14 15  2  0  0  0  0
 15  1  1  0  0  0  0
M  END