131
  Mrv0541 04071411322D          

 19 20  0  0  0  0            999 V2000
    3.2088   -0.5334    0.0000 C   0  0  0  0  0  0  0  0  0  0  0  0
    2.4911   -0.1209    0.0000 C   0  0  0  0  0  0  0  0  0  0  0  0
    2.4888    0.7866    0.0000 S   0  0  0  0  0  0  0  0  0  0  0  0
    1.6638    0.7845    0.0000 O   0  0  0  0  0  0  0  0  0  0  0  0
    3.3138    0.7886    0.0000 O   0  0  0  0  0  0  0  0  0  0  0  0
    2.4867    1.6116    0.0000 O   0  0  0  0  0  0  0  0  0  0  0  0
    1.7816   -0.5334    0.0000 C   0  0  0  0  0  0  0  0  0  0  0  0
    1.7816   -1.3584    0.0000 C   0  0  0  0  0  0  0  0  0  0  0  0
    1.0665   -1.7698    0.0000 S   0  0  0  0  0  0  0  0  0  0  0  0
    1.4779   -2.4849    0.0000 O   0  0  0  0  0  0  0  0  0  0  0  0
    0.6551   -1.0548    0.0000 O   0  0  0  0  0  0  0  0  0  0  0  0
    0.3514   -2.1812    0.0000 O   0  0  0  0  0  0  0  0  0  0  0  0
    2.4911   -1.7709    0.0000 C   0  0  0  0  0  0  0  0  0  0  0  0
    3.2088   -1.3584    0.0000 C   0  0  0  0  0  0  0  0  0  0  0  0
    3.9262   -1.7695    0.0000 C   0  0  0  0  0  0  0  0  0  0  0  0
    4.6394   -1.3547    0.0000 C   0  0  0  0  0  0  0  0  0  0  0  0
    4.6353   -0.5269    0.0000 C   0  0  0  0  0  0  0  0  0  0  0  0
    5.3474   -0.1105    0.0000 O   0  0  0  0  0  0  0  0  0  0  0  0
    3.9221   -0.1209    0.0000 C   0  0  0  0  0  0  0  0  0  0  0  0
  1  2  1  0  0  0  0
  2  3  1  0  0  0  0
  3  4  2  0  0  0  0
  3  5  2  0  0  0  0
  3  6  1  0  0  0  0
  2  7  2  0  0  0  0
  7  8  1  0  0  0  0
  8  9  1  0  0  0  0
  9 10  2  0  0  0  0
  9 11  2  0  0  0  0
  9 12  1  0  0  0  0
  8 13  2  0  0  0  0
 13 14  1  0  0  0  0
 14  1  2  0  0  0  0
 14 15  1  0  0  0  0
 15 16  2  0  0  0  0
 16 17  1  0  0  0  0
 17 18  1  0  0  0  0
 17 19  2  0  0  0  0
 19  1  1  0  0  0  0
M  END