132
  Mrv0541 04071411322D          

 19 20  0  0  0  0            999 V2000
    4.8282   -0.7096    0.0000 S   0  0  0  0  0  0  0  0  0  0  0  0
    0.5104   -0.7180    0.0000 S   0  0  0  0  0  0  0  0  0  0  0  0
    4.1144   -1.1233    0.0000 C   0  0  0  0  0  0  0  0  0  0  0  0
    3.3895   -0.7143    0.0000 C   0  0  0  0  0  0  0  0  0  0  0  0
    4.1313   -1.9446    0.0000 C   0  0  0  0  0  0  0  0  0  0  0  0
    1.2390   -1.1291    0.0000 C   0  0  0  0  0  0  0  0  0  0  0  0
    2.6777   -1.1244    0.0000 C   0  0  0  0  0  0  0  0  0  0  0  0
    4.4143    0.0042    0.0000 O   0  0  0  0  0  0  0  0  0  0  0  0
    0.9215    0.0106    0.0000 O   0  0  0  0  0  0  0  0  0  0  0  0
    1.9492   -0.7133    0.0000 C   0  0  0  0  0  0  0  0  0  0  0  0
    3.4176   -2.3583    0.0000 C   0  0  0  0  0  0  0  0  0  0  0  0
    2.6926   -1.9493    0.0000 C   0  0  0  0  0  0  0  0  0  0  0  0
    5.5398   -0.2994    0.0000 O   0  0  0  0  0  0  0  0  0  0  0  0
    5.2419   -1.4232    0.0000 O   0  0  0  0  0  0  0  0  0  0  0  0
   -0.2145   -0.3089    0.0000 O   0  0  0  0  0  0  0  0  0  0  0  0
    0.1014   -1.4429    0.0000 O   0  0  0  0  0  0  0  0  0  0  0  0
    1.2503   -1.9519    0.0000 C   0  0  0  0  0  0  0  0  0  0  0  0
    1.9789   -2.3630    0.0000 C   0  0  0  0  0  0  0  0  0  0  0  0
    4.8563   -2.3535    0.0000 O   0  0  0  0  0  0  0  0  0  0  0  0
  2  6  1  0  0  0  0
  3  1  1  0  0  0  0
  4  3  1  0  0  0  0
  5  3  2  0  0  0  0
  6 10  2  0  0  0  0
  7  4  2  0  0  0  0
  8  1  1  0  0  0  0
  9  2  1  0  0  0  0
 10  7  1  0  0  0  0
 11  5  1  0  0  0  0
 12 11  2  0  0  0  0
 13  1  2  0  0  0  0
 14  1  2  0  0  0  0
 15  2  2  0  0  0  0
 16  2  2  0  0  0  0
 17 18  2  0  0  0  0
 18 12  1  0  0  0  0
 19  5  1  0  0  0  0
  7 12  1  0  0  0  0
 17  6  1  0  0  0  0
M  END