134
  Mrv0541 04071411322D          

 13 14  0  0  0  0            999 V2000
   28.1953  -22.7233    0.0000 C   0  0  0  0  0  0  0  0  0  0  0  0
   29.0203  -22.7233    0.0000 C   0  0  0  0  0  0  0  0  0  0  0  0
   27.7853  -22.0207    0.0000 C   0  0  0  0  0  0  0  0  0  0  0  0
   29.4301  -23.4259    0.0000 C   0  0  0  0  0  0  0  0  0  0  0  0
   29.4301  -22.0207    0.0000 C   0  0  0  0  0  0  0  0  0  0  0  0
   27.7853  -23.4259    0.0000 C   0  0  0  0  0  0  0  0  0  0  0  0
   29.0203  -21.2809    0.0000 C   0  0  0  0  0  0  0  0  0  0  0  0
   28.1953  -21.2809    0.0000 C   0  0  0  0  0  0  0  0  0  0  0  0
   26.9603  -22.0207    0.0000 C   0  0  0  0  0  0  0  0  0  0  0  0
   29.0203  -24.1658    0.0000 C   0  0  0  0  0  0  0  0  0  0  0  0
   30.2552  -23.4259    0.0000 C   0  0  0  0  0  0  0  0  0  0  0  0
   26.9603  -23.4259    0.0000 C   0  0  0  0  0  0  0  0  0  0  0  0
   26.5505  -22.7233    0.0000 C   0  0  0  0  0  0  0  0  0  0  0  0
  2  1  1  0  0  0  0
  3  1  1  0  0  0  0
  4  2  1  0  0  0  0
  5  2  1  0  0  0  0
  6  1  1  0  0  0  0
  7  8  1  0  0  0  0
  8  3  1  0  0  0  0
  9  3  1  0  0  0  0
 10  4  1  0  0  0  0
 11  4  1  0  0  0  0
 12  6  1  0  0  0  0
 13 12  1  0  0  0  0
 13  9  1  0  0  0  0
  7  5  1  0  0  0  0
M  END