135
  Mrv0541 04071411322D          

  9 10  0  0  0  0            999 V2000
   -0.3885    0.4177    0.0000 C   0  0  0  0  0  0  0  0  0  0  0  0
    0.3300    0.0084    0.0000 C   0  0  0  0  0  0  0  0  0  0  0  0
   -0.7519    1.1382    0.0000 C   0  0  0  0  0  0  0  0  0  0  0  0
   -1.1006    0.0084    0.0000 C   0  0  0  0  0  0  0  0  0  0  0  0
    0.3300   -0.8166    0.0000 C   0  0  0  0  0  0  0  0  0  0  0  0
    1.1320    0.4720    0.0000 C   0  0  0  0  0  0  0  0  0  0  0  0
   -0.3885   -0.4219    0.0000 C   0  0  0  0  0  0  0  0  0  0  0  0
   -1.1006   -0.8166    0.0000 C   0  0  0  0  0  0  0  0  0  0  0  0
    1.9401    0.0084    0.0000 C   0  0  0  0  0  0  0  0  0  0  0  0
  1  2  1  0  0  0  0
  1  3  1  0  0  0  0
  1  4  1  0  0  0  0
  2  5  1  0  0  0  0
  2  6  2  0  0  0  0
  3  7  1  0  0  0  0
  4  8  2  0  0  0  0
  6  9  1  0  0  0  0
  5  7  1  0  0  0  0
  7  8  1  0  0  0  0
M  END