136
  Mrv0541 04071411322D          

 10 11  0  0  0  0            999 V2000
   -0.3603    0.5497    0.0000 C   0  0  0  0  0  0  0  0  0  0  0  0
    0.3519    0.1333    0.0000 C   0  0  0  0  0  0  0  0  0  0  0  0
   -0.7350    1.2806    0.0000 C   0  0  0  0  0  0  0  0  0  0  0  0
   -1.0889    0.1333    0.0000 C   0  0  0  0  0  0  0  0  0  0  0  0
    0.3519   -0.6912    0.0000 C   0  0  0  0  0  0  0  0  0  0  0  0
    1.2806    0.1333    0.0000 C   0  0  0  0  0  0  0  0  0  0  0  0
    0.8203    0.9432    0.0000 C   0  0  0  0  0  0  0  0  0  0  0  0
   -0.3643   -0.2978    0.0000 C   0  0  0  0  0  0  0  0  0  0  0  0
   -1.0889   -0.6912    0.0000 C   0  0  0  0  0  0  0  0  0  0  0  0
    0.8329   -1.4909    0.0000 C   0  0  0  0  0  0  0  0  0  0  0  0
  1  2  1  0  0  0  0
  1  3  1  0  0  0  0
  1  4  1  0  0  0  0
  2  5  1  0  0  0  0
  2  6  1  0  0  0  0
  2  7  1  0  0  0  0
  3  8  1  0  0  0  0
  4  9  1  0  0  0  0
  5 10  2  0  0  0  0
  5  8  1  0  0  0  0
  8  9  1  0  0  0  0
M  END