137
  Mrv0541 04071411322D          

 10 12  0  0  0  0            999 V2000
    0.3226   -0.4087    0.0000 C   0  0  0  0  0  0  0  0  0  0  0  0
    0.3226    0.4160    0.0000 C   0  0  0  0  0  0  0  0  0  0  0  0
   -0.4599   -0.6652    0.0000 C   0  0  0  0  0  0  0  0  0  0  0  0
    1.1142   -0.6652    0.0000 C   0  0  0  0  0  0  0  0  0  0  0  0
   -0.4599    0.6744    0.0000 C   0  0  0  0  0  0  0  0  0  0  0  0
    1.1142    0.6744    0.0000 C   0  0  0  0  0  0  0  0  0  0  0  0
   -0.9382    0.0018    0.0000 C   0  0  0  0  0  0  0  0  0  0  0  0
   -1.3066   -0.3885    0.0000 C   0  0  0  0  0  0  0  0  0  0  0  0
    1.5980    0.0018    0.0000 C   0  0  0  0  0  0  0  0  0  0  0  0
   -1.3066    0.3610    0.0000 C   0  0  0  0  0  0  0  0  0  0  0  0
  1  2  1  0  0  0  0
  1  3  1  0  0  0  0
  1  4  1  0  0  0  0
  2  5  1  0  0  0  0
  2  6  1  0  0  0  0
  3  7  1  0  0  0  0
  3  8  1  0  0  0  0
  4  9  1  0  0  0  0
  5 10  1  0  0  0  0
  5  7  1  0  0  0  0
  6  9  2  0  0  0  0
  8 10  2  0  0  0  0
M  END