138
  Mrv0541 04071411322D          

 12 14  0  0  0  0            999 V2000
    0.0019    0.1607    0.0000 C   0  0  0  0  0  0  0  0  0  0  0  0
   -0.7127    0.5790    0.0000 C   0  0  0  0  0  0  0  0  0  0  0  0
    0.7127    0.5790    0.0000 C   0  0  0  0  0  0  0  0  0  0  0  0
    0.0019   -0.6643    0.0000 C   0  0  0  0  0  0  0  0  0  0  0  0
   -0.7068    1.2530    0.0000 C   0  0  0  0  0  0  0  0  0  0  0  0
   -1.4350    0.1607    0.0000 C   0  0  0  0  0  0  0  0  0  0  0  0
    0.7068    1.2530    0.0000 C   0  0  0  0  0  0  0  0  0  0  0  0
    1.4330    0.1607    0.0000 C   0  0  0  0  0  0  0  0  0  0  0  0
   -0.7127   -1.0748    0.0000 C   0  0  0  0  0  0  0  0  0  0  0  0
    0.7127   -1.0748    0.0000 C   0  0  0  0  0  0  0  0  0  0  0  0
   -1.4350   -0.6643    0.0000 C   0  0  0  0  0  0  0  0  0  0  0  0
    1.4330   -0.6643    0.0000 C   0  0  0  0  0  0  0  0  0  0  0  0
  1  2  1  0  0  0  0
  1  3  1  0  0  0  0
  1  4  2  0  0  0  0
  2  5  1  0  0  0  0
  2  6  2  0  0  0  0
  3  7  1  0  0  0  0
  3  8  2  0  0  0  0
  4  9  1  0  0  0  0
  4 10  1  0  0  0  0
  6 11  1  0  0  0  0
  8 12  1  0  0  0  0
  5  7  1  0  0  0  0
  9 11  2  0  0  0  0
 10 12  2  0  0  0  0
M  END