139
  Mrv0541 04071411322D          

 18 20  0  0  0  0            999 V2000
    0.3657    0.3558    0.0000 C   0  0  0  0  0  0  0  0  0  0  0  0
    0.3657   -0.5136    0.0000 C   0  0  0  0  0  0  0  0  0  0  0  0
   -0.3598    0.7434    0.0000 C   0  0  0  0  0  0  0  0  0  0  0  0
    1.0731    0.7614    0.0000 C   0  0  0  0  0  0  0  0  0  0  0  0
   -0.3598   -0.9073    0.0000 C   0  0  0  0  0  0  0  0  0  0  0  0
    1.0731   -0.9192    0.0000 C   0  0  0  0  0  0  0  0  0  0  0  0
   -1.0712    0.3258    0.0000 C   0  0  0  0  0  0  0  0  0  0  0  0
   -0.3598    1.5728    0.0000 O   0  0  0  0  0  0  0  0  0  0  0  0
    1.7846    0.3677    0.0000 C   0  0  0  0  0  0  0  0  0  0  0  0
   -1.0712   -0.4856    0.0000 C   0  0  0  0  0  0  0  0  0  0  0  0
   -0.3598   -1.7307    0.0000 O   0  0  0  0  0  0  0  0  0  0  0  0
    1.7846   -0.5136    0.0000 C   0  0  0  0  0  0  0  0  0  0  0  0
   -1.7867    0.7434    0.0000 C   0  0  0  0  0  0  0  0  0  0  0  0
    2.4940    0.8194    0.0000 C   0  0  0  0  0  0  0  0  0  0  0  0
   -1.7867   -0.9073    0.0000 C   0  0  0  0  0  0  0  0  0  0  0  0
   -2.5101    0.3558    0.0000 C   0  0  0  0  0  0  0  0  0  0  0  0
    3.2275    0.4417    0.0000 C   0  0  0  0  0  0  0  0  0  0  0  0
   -2.5101   -0.5136    0.0000 C   0  0  0  0  0  0  0  0  0  0  0  0
  1  2  2  0  0  0  0
  1  3  1  0  0  0  0
  1  4  1  0  0  0  0
  2  5  1  0  0  0  0
  2  6  1  0  0  0  0
  3  7  1  0  0  0  0
  3  8  2  0  0  0  0
  4  9  2  0  0  0  0
  5 10  1  0  0  0  0
  5 11  2  0  0  0  0
  6 12  2  0  0  0  0
  7 13  1  0  0  0  0
  9 14  1  0  0  0  0
 10 15  1  0  0  0  0
 13 16  2  0  0  0  0
 14 17  1  0  0  0  0
 15 18  2  0  0  0  0
  7 10  2  0  0  0  0
  9 12  1  0  0  0  0
 16 18  1  0  0  0  0
M  END