140
  Mrv0541 04071411322D          

 21 23  0  0  0  0            999 V2000
   -0.3063    0.2863    0.0000 C   0  0  0  0  0  0  0  0  0  0  0  0
   -0.3063   -0.5482    0.0000 C   0  0  0  0  0  0  0  0  0  0  0  0
   -1.0253    0.7013    0.0000 C   0  0  0  0  0  0  0  0  0  0  0  0
    0.4106    0.7013    0.0000 C   0  0  0  0  0  0  0  0  0  0  0  0
   -1.0253   -0.9565    0.0000 C   0  0  0  0  0  0  0  0  0  0  0  0
    0.4106   -0.9565    0.0000 C   0  0  0  0  0  0  0  0  0  0  0  0
   -1.7421    0.2664    0.0000 C   0  0  0  0  0  0  0  0  0  0  0  0
   -1.0253    1.5180    0.0000 O   0  0  0  0  0  0  0  0  0  0  0  0
    1.1096    0.2664    0.0000 C   0  0  0  0  0  0  0  0  0  0  0  0
   -1.7421   -0.5482    0.0000 C   0  0  0  0  0  0  0  0  0  0  0  0
   -1.0253   -1.7999    0.0000 O   0  0  0  0  0  0  0  0  0  0  0  0
    1.1096   -0.5482    0.0000 C   0  0  0  0  0  0  0  0  0  0  0  0
   -2.4545    0.6725    0.0000 C   0  0  0  0  0  0  0  0  0  0  0  0
    1.8531    0.6725    0.0000 C   0  0  0  0  0  0  0  0  0  0  0  0
   -2.4545   -0.9565    0.0000 C   0  0  0  0  0  0  0  0  0  0  0  0
   -3.1758    0.2664    0.0000 C   0  0  0  0  0  0  0  0  0  0  0  0
    2.5722    0.2086    0.0000 C   0  0  0  0  0  0  0  0  0  0  0  0
   -3.1758   -0.5193    0.0000 C   0  0  0  0  0  0  0  0  0  0  0  0
    3.2868    0.5926    0.0000 C   0  0  0  0  0  0  0  0  0  0  0  0
    3.9770    0.1620    0.0000 C   0  0  0  0  0  0  0  0  0  0  0  0
    4.7249    0.5170    0.0000 C   0  0  0  0  0  0  0  0  0  0  0  0
  1  2  2  0  0  0  0
  1  3  1  0  0  0  0
  1  4  1  0  0  0  0
  2  5  1  0  0  0  0
  2  6  1  0  0  0  0
  3  7  1  0  0  0  0
  3  8  2  0  0  0  0
  4  9  2  0  0  0  0
  5 10  1  0  0  0  0
  5 11  2  0  0  0  0
  6 12  2  0  0  0  0
  7 13  1  0  0  0  0
  9 14  1  0  0  0  0
 10 15  1  0  0  0  0
 13 16  2  0  0  0  0
 14 17  1  0  0  0  0
 15 18  2  0  0  0  0
 17 19  1  0  0  0  0
 19 20  1  0  0  0  0
 20 21  1  0  0  0  0
  7 10  2  0  0  0  0
  9 12  1  0  0  0  0
 16 18  1  0  0  0  0
M  END