144
  Mrv0541 04071411322D          

 21 22  0  0  0  0            999 V2000
    0.0000   -0.5513    0.0000 C   0  0  0  0  0  0  0  0  0  0  0  0
    0.0000   -1.3614    0.0000 C   0  0  0  0  0  0  0  0  0  0  0  0
    0.7074   -0.1439    0.0000 C   0  0  0  0  0  0  0  0  0  0  0  0
   -0.7074   -0.1610    0.0000 C   0  0  0  0  0  0  0  0  0  0  0  0
   -0.7074   -1.7858    0.0000 C   0  0  0  0  0  0  0  0  0  0  0  0
    0.7074   -1.7711    0.0000 C   0  0  0  0  0  0  0  0  0  0  0  0
    0.7074    0.6879    0.0000 C   0  0  0  0  0  0  0  0  0  0  0  0
   -0.7074    0.6879    0.0000 C   0  0  0  0  0  0  0  0  0  0  0  0
   -0.7074   -2.6105    0.0000 C   0  0  0  0  0  0  0  0  0  0  0  0
    0.7074   -2.5983    0.0000 C   0  0  0  0  0  0  0  0  0  0  0  0
    0.0000    1.0881    0.0000 C   0  0  0  0  0  0  0  0  0  0  0  0
    1.4248    1.1126    0.0000 C   0  0  0  0  0  0  0  0  0  0  0  0
   -1.4297    1.0881    0.0000 C   0  0  0  0  0  0  0  0  0  0  0  0
    0.0000   -3.0008    0.0000 C   0  0  0  0  0  0  0  0  0  0  0  0
    0.0000    1.9175    0.0000 O   0  0  0  0  0  0  0  0  0  0  0  0
    1.8492    0.3805    0.0000 C   0  0  0  0  0  0  0  0  0  0  0  0
    1.0247    1.8371    0.0000 C   0  0  0  0  0  0  0  0  0  0  0  0
    2.1517    1.5125    0.0000 C   0  0  0  0  0  0  0  0  0  0  0  0
   -1.0271    1.8102    0.0000 C   0  0  0  0  0  0  0  0  0  0  0  0
   -1.8322    0.3683    0.0000 C   0  0  0  0  0  0  0  0  0  0  0  0
   -2.1492    1.4930    0.0000 C   0  0  0  0  0  0  0  0  0  0  0  0
  1  2  1  0  0  0  0
  1  3  1  0  0  0  0
  1  4  2  0  0  0  0
  2  5  1  0  0  0  0
  2  6  2  0  0  0  0
  3  7  2  0  0  0  0
  4  8  1  0  0  0  0
  5  9  2  0  0  0  0
  6 10  1  0  0  0  0
  7 11  1  0  0  0  0
  7 12  1  0  0  0  0
  8 13  1  0  0  0  0
  9 14  1  0  0  0  0
 11 15  1  0  0  0  0
 12 16  1  0  0  0  0
 12 17  1  0  0  0  0
 12 18  1  0  0  0  0
 13 19  1  0  0  0  0
 13 20  1  0  0  0  0
 13 21  1  0  0  0  0
  8 11  2  0  0  0  0
 10 14  2  0  0  0  0
M  END