146
  Mrv0541 04071411322D          

 14 15  0  0  0  0            999 V2000
    0.0018   -0.1702    0.0000 C   0  0  0  0  0  0  0  0  0  0  0  0
    0.0018   -0.9952    0.0000 C   0  0  0  0  0  0  0  0  0  0  0  0
    0.7140    0.2238    0.0000 C   0  0  0  0  0  0  0  0  0  0  0  0
   -0.7140    0.2386    0.0000 C   0  0  0  0  0  0  0  0  0  0  0  0
    0.7085   -1.4242    0.0000 C   0  0  0  0  0  0  0  0  0  0  0  0
   -0.7232   -1.4039    0.0000 C   0  0  0  0  0  0  0  0  0  0  0  0
    1.4224   -0.1776    0.0000 C   0  0  0  0  0  0  0  0  0  0  0  0
    0.7195    1.0488    0.0000 C   0  0  0  0  0  0  0  0  0  0  0  0
   -1.4317   -0.1628    0.0000 C   0  0  0  0  0  0  0  0  0  0  0  0
    1.4224   -1.0063    0.0000 C   0  0  0  0  0  0  0  0  0  0  0  0
   -1.4317   -0.9952    0.0000 C   0  0  0  0  0  0  0  0  0  0  0  0
    0.0074    1.4668    0.0000 C   0  0  0  0  0  0  0  0  0  0  0  0
   -0.7066    1.0654    0.0000 O   0  0  0  0  0  0  0  0  0  0  0  0
    0.0074    2.2936    0.0000 O   0  0  0  0  0  0  0  0  0  0  0  0
  1  2  1  0  0  0  0
  1  3  2  0  0  0  0
  1  4  1  0  0  0  0
  2  5  2  0  0  0  0
  2  6  1  0  0  0  0
  3  7  1  0  0  0  0
  3  8  1  0  0  0  0
  4  9  2  0  0  0  0
  5 10  1  0  0  0  0
  6 11  2  0  0  0  0
  8 12  1  0  0  0  0
 12 13  1  0  0  0  0
 12 14  2  0  0  0  0
  7 10  2  0  0  0  0
  9 11  1  0  0  0  0
M  END