147
  Mrv0541 04071411322D          

 10 10  0  0  0  0            999 V2000
   -0.6559    0.0000    0.0000 C   0  0  0  0  0  0  0  0  0  0  0  0
   -0.2446   -0.7152    0.0000 C   0  0  0  0  0  0  0  0  0  0  0  0
   -0.2446    0.7152    0.0000 C   0  0  0  0  0  0  0  0  0  0  0  0
   -1.4897    0.0000    0.0000 O   0  0  0  0  0  0  0  0  0  0  0  0
    0.5725   -0.7152    0.0000 C   0  0  0  0  0  0  0  0  0  0  0  0
   -0.6559   -1.4266    0.0000 C   0  0  0  0  0  0  0  0  0  0  0  0
    0.5725    0.7152    0.0000 C   0  0  0  0  0  0  0  0  0  0  0  0
   -0.6559    1.4303    0.0000 C   0  0  0  0  0  0  0  0  0  0  0  0
    0.9838    0.0000    0.0000 C   0  0  0  0  0  0  0  0  0  0  0  0
    1.8176    0.0000    0.0000 C   0  0  0  0  0  0  0  0  0  0  0  0
  1  2  2  0  0  0  0
  1  3  1  0  0  0  0
  1  4  1  0  0  0  0
  2  5  1  0  0  0  0
  2  6  1  0  0  0  0
  3  7  2  0  0  0  0
  3  8  1  0  0  0  0
  5  9  2  0  0  0  0
  9 10  1  0  0  0  0
  7  9  1  0  0  0  0
M  END