148
  Mrv0541 04071411322D          

 13 15  0  0  0  0            999 V2000
   -0.4065   -0.2568    0.0000 C   0  0  0  0  0  0  0  0  0  0  0  0
    0.4065   -0.2568    0.0000 C   0  0  0  0  0  0  0  0  0  0  0  0
   -0.6652    0.5266    0.0000 C   0  0  0  0  0  0  0  0  0  0  0  0
   -0.9608   -0.8665    0.0000 C   0  0  0  0  0  0  0  0  0  0  0  0
    0.6652    0.5266    0.0000 C   0  0  0  0  0  0  0  0  0  0  0  0
    0.9626   -0.8665    0.0000 C   0  0  0  0  0  0  0  0  0  0  0  0
   -0.0018    1.0143    0.0000 O   0  0  0  0  0  0  0  0  0  0  0  0
   -1.4688    0.6984    0.0000 C   0  0  0  0  0  0  0  0  0  0  0  0
   -1.7699   -0.6947    0.0000 C   0  0  0  0  0  0  0  0  0  0  0  0
    1.4706    0.6984    0.0000 C   0  0  0  0  0  0  0  0  0  0  0  0
    1.7718   -0.6947    0.0000 C   0  0  0  0  0  0  0  0  0  0  0  0
   -2.0249    0.0831    0.0000 C   0  0  0  0  0  0  0  0  0  0  0  0
    2.0268    0.0831    0.0000 C   0  0  0  0  0  0  0  0  0  0  0  0
  1  2  1  0  0  0  0
  1  3  2  0  0  0  0
  1  4  1  0  0  0  0
  2  5  1  0  0  0  0
  2  6  2  0  0  0  0
  3  7  1  0  0  0  0
  3  8  1  0  0  0  0
  4  9  2  0  0  0  0
  5 10  2  0  0  0  0
  6 11  1  0  0  0  0
  8 12  2  0  0  0  0
 10 13  1  0  0  0  0
  5  7  1  0  0  0  0
  9 12  1  0  0  0  0
 11 13  2  0  0  0  0
M  END