149
  Mrv0541 04071411322D          

 11 10  0  0  0  0            999 V2000
   -2.7925   -2.2241    0.0000 C   0  0  0  0  0  0  0  0  0  0  0  0
   -2.0777   -2.6337    0.0000 C   0  0  0  0  0  0  0  0  0  0  0  0
   -1.3628   -2.2198    0.0000 C   0  0  0  0  0  0  0  0  0  0  0  0
   -0.6479   -2.6295    0.0000 C   0  0  0  0  0  0  0  0  0  0  0  0
    0.0669   -2.2156    0.0000 C   0  0  0  0  0  0  0  0  0  0  0  0
    0.7818   -2.6254    0.0000 C   0  0  0  0  0  0  0  0  0  0  0  0
    1.4967   -2.2115    0.0000 C   0  0  0  0  0  0  0  0  0  0  0  0
    2.2115   -2.6212    0.0000 C   0  0  0  0  0  0  0  0  0  0  0  0
    2.9264   -2.2073    0.0000 C   0  0  0  0  0  0  0  0  0  0  0  0
   -1.7767   -1.5050    0.0000 C   0  0  0  0  0  0  0  0  0  0  0  0
   -1.3670   -0.7901    0.0000 C   0  0  0  0  0  0  0  0  0  0  0  0
  5  6  1  0  0  0  0
  1  2  1  0  0  0  0
  6  7  1  0  0  0  0
  3  4  1  0  0  0  0
  7  8  1  0  0  0  0
  8  9  1  0  0  0  0
  4  5  1  0  0  0  0
  3 10  1  0  0  0  0
  2  3  1  0  0  0  0
 10 11  1  0  0  0  0
M  END