15
  Mrv0541 04071411322D          

  9  9  0  0  0  0            999 V2000
    1.9388    0.0000    0.0000 C   0  0  0  0  0  0  0  0  0  0  0  0
    0.7425    0.7013    0.0000 C   0  0  0  0  0  0  0  0  0  0  0  0
    2.3513    0.7013    0.0000 C   0  0  0  0  0  0  0  0  0  0  0  0
    1.1550    1.4438    0.0000 C   0  0  0  0  0  0  0  0  0  0  0  0
    1.9800    1.4438    0.0000 C   0  0  0  0  0  0  0  0  0  0  0  0
    1.1550    0.0000    0.0000 C   0  0  0  0  0  0  0  0  0  0  0  0
    0.0000    0.2888    0.0000 C   0  0  0  0  0  0  0  0  0  0  0  0
    0.0000    1.1138    0.0000 C   0  0  0  0  0  0  0  0  0  0  0  0
    2.3925    2.1450    0.0000 C   0  0  0  0  0  0  0  0  0  0  0  0
  2  6  1  0  0  0  0
  3  1  2  0  0  0  0
  4  2  1  0  0  0  0
  5  3  1  0  0  0  0
  6  1  1  0  0  0  0
  7  2  1  0  0  0  0
  8  2  1  0  0  0  0
  9  5  1  0  0  0  0
  5  4  1  0  0  0  0
M  END