150
  Mrv0541 04071411322D          

 13 12  0  0  0  0            999 V2000
   -1.9793   -2.0670    0.0000 C   0  0  0  0  0  0  0  0  0  0  0  0
   -1.2652   -1.6535    0.0000 C   0  0  0  0  0  0  0  0  0  0  0  0
   -0.5511   -2.0628    0.0000 C   0  0  0  0  0  0  0  0  0  0  0  0
    0.1628   -1.6493    0.0000 C   0  0  0  0  0  0  0  0  0  0  0  0
    0.8769   -2.0587    0.0000 C   0  0  0  0  0  0  0  0  0  0  0  0
    1.5909   -1.6452    0.0000 C   0  0  0  0  0  0  0  0  0  0  0  0
    2.3050   -2.0544    0.0000 C   0  0  0  0  0  0  0  0  0  0  0  0
    3.0190   -1.6410    0.0000 C   0  0  0  0  0  0  0  0  0  0  0  0
    3.7330   -2.0502    0.0000 C   0  0  0  0  0  0  0  0  0  0  0  0
    4.4471   -1.6368    0.0000 C   0  0  0  0  0  0  0  0  0  0  0  0
    3.3155   -2.7642    0.0000 C   0  0  0  0  0  0  0  0  0  0  0  0
    4.1422   -2.7642    0.0000 C   0  0  0  0  0  0  0  0  0  0  0  0
    3.0148   -0.8143    0.0000 C   0  0  0  0  0  0  0  0  0  0  0  0
  6  7  1  0  0  0  0
  3  4  1  0  0  0  0
  7  8  1  0  0  0  0
  8  9  1  0  0  0  0
  4  5  1  0  0  0  0
  9 10  1  0  0  0  0
  2  3  1  0  0  0  0
  9 11  1  0  0  0  0
  5  6  1  0  0  0  0
  9 12  1  0  0  0  0
  1  2  1  0  0  0  0
  8 13  1  0  0  0  0
M  END