151
  Mrv0541 04071411322D          

 13 14  0  0  0  0            999 V2000
    1.5282    0.0241    0.0000 C   0  0  0  0  0  0  0  0  0  0  0  0
    0.8105    0.4366    0.0000 C   0  0  0  0  0  0  0  0  0  0  0  0
    0.1010    0.0241    0.0000 C   0  0  0  0  0  0  0  0  0  0  0  0
    0.1010   -0.8009    0.0000 C   0  0  0  0  0  0  0  0  0  0  0  0
    0.8105   -1.2134    0.0000 C   0  0  0  0  0  0  0  0  0  0  0  0
    0.8084   -2.0384    0.0000 C   0  0  0  0  0  0  0  0  0  0  0  0
    1.5282   -0.8009    0.0000 C   0  0  0  0  0  0  0  0  0  0  0  0
    0.8128    1.2627    0.0000 C   0  0  0  0  0  0  0  0  0  0  0  0
    1.5277    1.6744    0.0000 C   0  0  0  0  0  0  0  0  0  0  0  0
    2.2433    1.2584    0.0000 C   0  0  0  0  0  0  0  0  0  0  0  0
    2.2400    0.4377    0.0000 C   0  0  0  0  0  0  0  0  0  0  0  0
    0.0000    1.1213    0.0000 C   0  0  0  0  0  0  0  0  0  0  0  0
    0.5319    2.0384    0.0000 C   0  0  0  0  0  0  0  0  0  0  0  0
  1  2  1  0  0  0  0
  2  3  2  0  0  0  0
  3  4  1  0  0  0  0
  4  5  2  0  0  0  0
  5  6  1  0  0  0  0
  5  7  1  0  0  0  0
  7  1  2  0  0  0  0
  2  8  1  0  0  0  0
  8  9  1  0  0  0  0
  9 10  1  0  0  0  0
 10 11  1  0  0  0  0
 11  1  1  0  0  0  0
  8 12  1  0  0  0  0
  8 13  1  0  0  0  0
M  END