154
  Mrv0541 04071411322D          

 12 12  0  0  0  0            999 V2000
   -0.9125    0.1045    0.0000 C   0  0  0  0  0  0  0  0  0  0  0  0
   -0.1665    0.5305    0.0000 C   0  0  0  0  0  0  0  0  0  0  0  0
   -0.9125   -0.7084    0.0000 C   0  0  0  0  0  0  0  0  0  0  0  0
   -1.6242    0.5159    0.0000 C   0  0  0  0  0  0  0  0  0  0  0  0
    0.5435    0.1045    0.0000 C   0  0  0  0  0  0  0  0  0  0  0  0
   -1.6242   -1.1345    0.0000 C   0  0  0  0  0  0  0  0  0  0  0  0
   -2.3359    0.1045    0.0000 C   0  0  0  0  0  0  0  0  0  0  0  0
    1.2716    0.5159    0.0000 C   0  0  0  0  0  0  0  0  0  0  0  0
   -2.3244   -0.7247    0.0000 C   0  0  0  0  0  0  0  0  0  0  0  0
    1.9751    0.0962    0.0000 C   0  0  0  0  0  0  0  0  0  0  0  0
    2.7064    0.5011    0.0000 C   0  0  0  0  0  0  0  0  0  0  0  0
    3.4067    0.0962    0.0000 C   0  0  0  0  0  0  0  0  0  0  0  0
  1  2  1  0  0  0  0
  1  3  1  0  0  0  0
  1  4  1  0  0  0  0
  2  5  1  0  0  0  0
  3  6  1  0  0  0  0
  4  7  1  0  0  0  0
  5  8  1  0  0  0  0
  6  9  1  0  0  0  0
  8 10  1  0  0  0  0
 10 11  1  0  0  0  0
 11 12  1  0  0  0  0
  7  9  1  0  0  0  0
M  END