155
  Mrv0541 04071411322D          

 11 10  0  0  0  0            999 V2000
    0.8696   -3.6036    0.0000 C   0  0  0  0  0  0  0  0  0  0  0  0
    1.5844   -3.1898    0.0000 C   0  0  0  0  0  0  0  0  0  0  0  0
    2.2993   -3.5994    0.0000 C   0  0  0  0  0  0  0  0  0  0  0  0
    3.0142   -3.1855    0.0000 C   0  0  0  0  0  0  0  0  0  0  0  0
    3.7290   -3.5952    0.0000 C   0  0  0  0  0  0  0  0  0  0  0  0
    4.4439   -3.1813    0.0000 C   0  0  0  0  0  0  0  0  0  0  0  0
    5.1588   -3.5911    0.0000 C   0  0  0  0  0  0  0  0  0  0  0  0
    5.8736   -3.1772    0.0000 C   0  0  0  0  0  0  0  0  0  0  0  0
    6.5885   -3.5869    0.0000 C   0  0  0  0  0  0  0  0  0  0  0  0
    3.3193   -4.3101    0.0000 C   0  0  0  0  0  0  0  0  0  0  0  0
    3.7332   -5.0249    0.0000 C   0  0  0  0  0  0  0  0  0  0  0  0
  5  6  1  0  0  0  0
  1  2  1  0  0  0  0
  6  7  1  0  0  0  0
  3  4  1  0  0  0  0
  7  8  1  0  0  0  0
  8  9  2  0  0  0  0
  4  5  1  0  0  0  0
  5 10  1  0  0  0  0
  2  3  1  0  0  0  0
 10 11  1  0  0  0  0
M  END