156
  Mrv0541 04071411322D          

  9  9  0  0  0  0            999 V2000
    0.7147   -0.4065    0.0000 C   0  0  0  0  0  0  0  0  0  0  0  0
    0.7147    0.4118    0.0000 C   0  0  0  0  0  0  0  0  0  0  0  0
    0.0013   -0.8209    0.0000 C   0  0  0  0  0  0  0  0  0  0  0  0
    1.4307   -0.8356    0.0000 Br  0  0  0  0  0  0  0  0  0  0  0  0
    0.0013    0.8262    0.0000 C   0  0  0  0  0  0  0  0  0  0  0  0
   -0.7107   -0.4065    0.0000 C   0  0  0  0  0  0  0  0  0  0  0  0
   -0.7107    0.4224    0.0000 C   0  0  0  0  0  0  0  0  0  0  0  0
    0.0013    1.6446    0.0000 Br  0  0  0  0  0  0  0  0  0  0  0  0
   -1.4427   -0.8356    0.0000 Br  0  0  0  0  0  0  0  0  0  0  0  0
  1  2  2  0  0  0  0
  1  3  1  0  0  0  0
  1  4  1  0  0  0  0
  2  5  1  0  0  0  0
  3  6  2  0  0  0  0
  5  7  2  0  0  0  0
  5  8  1  0  0  0  0
  6  9  1  0  0  0  0
  6  7  1  0  0  0  0
M  END