16
  Mrv0541 04071411322D          

  9  9  0  0  0  0            999 V2000
    2.1424    0.0003    0.0000 C   0  0  0  0  0  0  0  0  0  0  0  0
    1.4246    0.4128    0.0000 C   0  0  0  0  0  0  0  0  0  0  0  0
    0.7151    0.0003    0.0000 C   0  0  0  0  0  0  0  0  0  0  0  0
    0.7151   -0.8247    0.0000 C   0  0  0  0  0  0  0  0  0  0  0  0
    0.0000   -1.2361    0.0000 C   0  0  0  0  0  0  0  0  0  0  0  0
    1.4246   -1.2372    0.0000 C   0  0  0  0  0  0  0  0  0  0  0  0
    2.1424   -0.8247    0.0000 C   0  0  0  0  0  0  0  0  0  0  0  0
    2.8564   -1.2378    0.0000 C   0  0  0  0  0  0  0  0  0  0  0  0
    1.4225    1.2378    0.0000 C   0  0  0  0  0  0  0  0  0  0  0  0
  1  2  1  0  0  0  0
  2  3  1  0  0  0  0
  3  4  1  0  0  0  0
  4  5  1  0  0  0  0
  4  6  1  0  0  0  0
  6  7  1  0  0  0  0
  7  1  1  0  0  0  0
  7  8  1  0  0  0  0
  2  9  1  0  0  0  0
M  END