160
  Mrv0541 04071411322D          

 12 12  0  0  0  0            999 V2000
    0.0000    0.8186    0.0000 C   0  0  0  0  0  0  0  0  0  0  0  0
    0.7170    0.4102    0.0000 C   0  0  0  0  0  0  0  0  0  0  0  0
   -0.7207    0.4102    0.0000 C   0  0  0  0  0  0  0  0  0  0  0  0
    0.0000    1.6370    0.0000 C   0  0  0  0  0  0  0  0  0  0  0  0
    0.7170   -0.4008    0.0000 C   0  0  0  0  0  0  0  0  0  0  0  0
    1.4338    0.8186    0.0000 Cl  0  0  0  0  0  0  0  0  0  0  0  0
   -0.7207   -0.4008    0.0000 C   0  0  0  0  0  0  0  0  0  0  0  0
   -1.4376    0.8186    0.0000 Br  0  0  0  0  0  0  0  0  0  0  0  0
    0.0019   -0.8017    0.0000 C   0  0  0  0  0  0  0  0  0  0  0  0
    1.4470   -0.8299    0.0000 Br  0  0  0  0  0  0  0  0  0  0  0  0
   -1.4376   -0.8110    0.0000 Br  0  0  0  0  0  0  0  0  0  0  0  0
    0.0019   -1.6709    0.0000 Br  0  0  0  0  0  0  0  0  0  0  0  0
  1  2  1  0  0  0  0
  1  3  2  0  0  0  0
  1  4  1  0  0  0  0
  2  5  2  0  0  0  0
  2  6  1  0  0  0  0
  3  7  1  0  0  0  0
  3  8  1  0  0  0  0
  5  9  1  0  0  0  0
  5 10  1  0  0  0  0
  7 11  1  0  0  0  0
  9 12  1  0  0  0  0
  7  9  2  0  0  0  0
M  END