161
  Mrv0541 04071411322D          

 12 12  0  0  0  0            999 V2000
   -0.7214    0.4073    0.0000 C   0  0  0  0  0  0  0  0  0  0  0  0
   -0.7041   -0.4211    0.0000 C   0  0  0  0  0  0  0  0  0  0  0  0
   -0.0172    0.8215    0.0000 C   0  0  0  0  0  0  0  0  0  0  0  0
   -1.4428    0.7974    0.0000 C   0  0  0  0  0  0  0  0  0  0  0  0
    0.0172   -0.8215    0.0000 C   0  0  0  0  0  0  0  0  0  0  0  0
   -1.4186   -0.8456    0.0000 Br  0  0  0  0  0  0  0  0  0  0  0  0
    0.7076    0.4211    0.0000 C   0  0  0  0  0  0  0  0  0  0  0  0
   -0.0208    1.6568    0.0000 Br  0  0  0  0  0  0  0  0  0  0  0  0
    0.7214   -0.4038    0.0000 C   0  0  0  0  0  0  0  0  0  0  0  0
    0.0208   -1.6603    0.0000 Br  0  0  0  0  0  0  0  0  0  0  0  0
    1.4221    0.8491    0.0000 Br  0  0  0  0  0  0  0  0  0  0  0  0
    1.4428   -0.8042    0.0000 Br  0  0  0  0  0  0  0  0  0  0  0  0
  1  2  1  0  0  0  0
  1  3  2  0  0  0  0
  1  4  1  0  0  0  0
  2  5  2  0  0  0  0
  2  6  1  0  0  0  0
  3  7  1  0  0  0  0
  3  8  1  0  0  0  0
  5  9  1  0  0  0  0
  5 10  1  0  0  0  0
  7 11  1  0  0  0  0
  9 12  1  0  0  0  0
  7  9  2  0  0  0  0
M  END