162
  Mrv0541 04071411322D          

 14 15  0  0  0  0            999 V2000
   -0.4131   -0.2030    0.0000 C   0  0  0  0  0  0  0  0  0  0  0  0
    0.4131   -0.2030    0.0000 C   0  0  0  0  0  0  0  0  0  0  0  0
   -0.8274    0.5071    0.0000 C   0  0  0  0  0  0  0  0  0  0  0  0
   -0.8332   -0.9167    0.0000 C   0  0  0  0  0  0  0  0  0  0  0  0
    0.8274    0.5071    0.0000 C   0  0  0  0  0  0  0  0  0  0  0  0
    0.8320   -0.9167    0.0000 C   0  0  0  0  0  0  0  0  0  0  0  0
   -1.6524    0.5071    0.0000 C   0  0  0  0  0  0  0  0  0  0  0  0
   -0.4027    1.2254    0.0000 Cl  0  0  0  0  0  0  0  0  0  0  0  0
   -1.6594   -0.9167    0.0000 C   0  0  0  0  0  0  0  0  0  0  0  0
    1.6524    0.5071    0.0000 C   0  0  0  0  0  0  0  0  0  0  0  0
    0.4015    1.2254    0.0000 Cl  0  0  0  0  0  0  0  0  0  0  0  0
    1.6594   -0.9167    0.0000 C   0  0  0  0  0  0  0  0  0  0  0  0
   -2.0644   -0.2030    0.0000 C   0  0  0  0  0  0  0  0  0  0  0  0
    2.0667   -0.2030    0.0000 C   0  0  0  0  0  0  0  0  0  0  0  0
  1  2  1  0  0  0  0
  1  3  2  0  0  0  0
  1  4  1  0  0  0  0
  2  5  2  0  0  0  0
  2  6  1  0  0  0  0
  3  7  1  0  0  0  0
  3  8  1  0  0  0  0
  4  9  2  0  0  0  0
  5 10  1  0  0  0  0
  5 11  1  0  0  0  0
  6 12  2  0  0  0  0
  7 13  2  0  0  0  0
 10 14  2  0  0  0  0
  9 13  1  0  0  0  0
 12 14  1  0  0  0  0
M  END