163
  Mrv0541 04071411322D          

 14 15  0  0  0  0            999 V2000
    0.2352   -0.2062    0.0000 C   0  0  0  0  0  0  0  0  0  0  0  0
   -0.5982   -0.2062    0.0000 C   0  0  0  0  0  0  0  0  0  0  0  0
    0.6505    0.5125    0.0000 C   0  0  0  0  0  0  0  0  0  0  0  0
    0.6446   -0.9147    0.0000 C   0  0  0  0  0  0  0  0  0  0  0  0
   -1.0061   -0.9219    0.0000 C   0  0  0  0  0  0  0  0  0  0  0  0
   -1.0119    0.5096    0.0000 C   0  0  0  0  0  0  0  0  0  0  0  0
    1.4708    0.5096    0.0000 C   0  0  0  0  0  0  0  0  0  0  0  0
    0.2308    1.2283    0.0000 Cl  0  0  0  0  0  0  0  0  0  0  0  0
    1.4824   -0.9147    0.0000 C   0  0  0  0  0  0  0  0  0  0  0  0
   -1.7975   -0.9219    0.0000 C   0  0  0  0  0  0  0  0  0  0  0  0
   -1.8221    0.5096    0.0000 C   0  0  0  0  0  0  0  0  0  0  0  0
    1.8860   -0.2033    0.0000 C   0  0  0  0  0  0  0  0  0  0  0  0
    1.8831    1.2254    0.0000 Cl  0  0  0  0  0  0  0  0  0  0  0  0
   -2.2490   -0.2105    0.0000 C   0  0  0  0  0  0  0  0  0  0  0  0
  1  2  1  0  0  0  0
  1  3  2  0  0  0  0
  1  4  1  0  0  0  0
  2  5  1  0  0  0  0
  2  6  2  0  0  0  0
  3  7  1  0  0  0  0
  3  8  1  0  0  0  0
  4  9  2  0  0  0  0
  5 10  2  0  0  0  0
  6 11  1  0  0  0  0
  7 12  2  0  0  0  0
  7 13  1  0  0  0  0
 10 14  1  0  0  0  0
  9 12  1  0  0  0  0
 11 14  2  0  0  0  0
M  END