164
  Mrv0541 04071411322D          

 14 15  0  0  0  0            999 V2000
    0.2378   -0.0046    0.0000 C   0  0  0  0  0  0  0  0  0  0  0  0
   -0.5723   -0.0046    0.0000 C   0  0  0  0  0  0  0  0  0  0  0  0
    0.6445    0.7196    0.0000 C   0  0  0  0  0  0  0  0  0  0  0  0
    0.6521   -0.7135    0.0000 C   0  0  0  0  0  0  0  0  0  0  0  0
   -0.9943   -0.7135    0.0000 C   0  0  0  0  0  0  0  0  0  0  0  0
   -1.0020    0.7105    0.0000 C   0  0  0  0  0  0  0  0  0  0  0  0
    1.4700    0.7196    0.0000 C   0  0  0  0  0  0  0  0  0  0  0  0
    0.2118    1.4531    0.0000 Cl  0  0  0  0  0  0  0  0  0  0  0  0
    1.4623   -0.7135    0.0000 C   0  0  0  0  0  0  0  0  0  0  0  0
   -1.7953   -0.7135    0.0000 C   0  0  0  0  0  0  0  0  0  0  0  0
   -1.8076    0.7196    0.0000 C   0  0  0  0  0  0  0  0  0  0  0  0
    1.8751   -0.0046    0.0000 C   0  0  0  0  0  0  0  0  0  0  0  0
    1.8475   -1.4500    0.0000 Cl  0  0  0  0  0  0  0  0  0  0  0  0
   -2.2295   -0.0046    0.0000 C   0  0  0  0  0  0  0  0  0  0  0  0
  1  2  1  0  0  0  0
  1  3  2  0  0  0  0
  1  4  1  0  0  0  0
  2  5  1  0  0  0  0
  2  6  2  0  0  0  0
  3  7  1  0  0  0  0
  3  8  1  0  0  0  0
  4  9  2  0  0  0  0
  5 10  2  0  0  0  0
  6 11  1  0  0  0  0
  7 12  2  0  0  0  0
  9 13  1  0  0  0  0
 10 14  1  0  0  0  0
  9 12  1  0  0  0  0
 11 14  2  0  0  0  0
M  END