166
  Mrv0541 04071411322D          

 14 15  0  0  0  0            999 V2000
    0.1140   -0.0015    0.0000 C   0  0  0  0  0  0  0  0  0  0  0  0
   -0.6961   -0.0015    0.0000 C   0  0  0  0  0  0  0  0  0  0  0  0
    0.5228    0.7198    0.0000 C   0  0  0  0  0  0  0  0  0  0  0  0
    0.5436   -0.6946    0.0000 C   0  0  0  0  0  0  0  0  0  0  0  0
   -1.1227   -0.7405    0.0000 C   0  0  0  0  0  0  0  0  0  0  0  0
   -1.1360    0.6932    0.0000 C   0  0  0  0  0  0  0  0  0  0  0  0
    1.3449    0.7198    0.0000 C   0  0  0  0  0  0  0  0  0  0  0  0
    1.3686   -0.6976    0.0000 C   0  0  0  0  0  0  0  0  0  0  0  0
   -1.9418   -0.7405    0.0000 C   0  0  0  0  0  0  0  0  0  0  0  0
   -1.9521    0.6932    0.0000 C   0  0  0  0  0  0  0  0  0  0  0  0
    1.7981    0.0104    0.0000 C   0  0  0  0  0  0  0  0  0  0  0  0
    1.7314    1.4915    0.0000 Cl  0  0  0  0  0  0  0  0  0  0  0  0
    1.7951   -1.4189    0.0000 Cl  0  0  0  0  0  0  0  0  0  0  0  0
   -2.3713   -0.0281    0.0000 C   0  0  0  0  0  0  0  0  0  0  0  0
  1  2  1  0  0  0  0
  1  3  2  0  0  0  0
  1  4  1  0  0  0  0
  2  5  1  0  0  0  0
  2  6  2  0  0  0  0
  3  7  1  0  0  0  0
  4  8  2  0  0  0  0
  5  9  2  0  0  0  0
  6 10  1  0  0  0  0
  7 11  2  0  0  0  0
  7 12  1  0  0  0  0
  8 13  1  0  0  0  0
  9 14  1  0  0  0  0
  8 11  1  0  0  0  0
 10 14  2  0  0  0  0
M  END