167
  Mrv0541 04071411322D          

 15 16  0  0  0  0            999 V2000
   -0.4380   -0.0952    0.0000 C   0  0  0  0  0  0  0  0  0  0  0  0
    0.3855   -0.0952    0.0000 C   0  0  0  0  0  0  0  0  0  0  0  0
   -0.8464   -0.8267    0.0000 C   0  0  0  0  0  0  0  0  0  0  0  0
   -0.8464    0.6169    0.0000 C   0  0  0  0  0  0  0  0  0  0  0  0
    0.8021    0.6169    0.0000 C   0  0  0  0  0  0  0  0  0  0  0  0
    0.8152   -0.8119    0.0000 C   0  0  0  0  0  0  0  0  0  0  0  0
   -1.6748   -0.8267    0.0000 C   0  0  0  0  0  0  0  0  0  0  0  0
   -1.6879    0.6169    0.0000 C   0  0  0  0  0  0  0  0  0  0  0  0
    1.6223    0.6169    0.0000 C   0  0  0  0  0  0  0  0  0  0  0  0
    0.3560    1.3713    0.0000 Cl  0  0  0  0  0  0  0  0  0  0  0  0
    1.6306   -0.8119    0.0000 C   0  0  0  0  0  0  0  0  0  0  0  0
   -2.0898   -0.1033    0.0000 C   0  0  0  0  0  0  0  0  0  0  0  0
    2.0438   -0.0820    0.0000 C   0  0  0  0  0  0  0  0  0  0  0  0
   -2.9559   -0.1033    0.0000 Cl  0  0  0  0  0  0  0  0  0  0  0  0
    2.8837   -0.0820    0.0000 Cl  0  0  0  0  0  0  0  0  0  0  0  0
  1  2  1  0  0  0  0
  1  3  1  0  0  0  0
  1  4  2  0  0  0  0
  2  5  2  0  0  0  0
  2  6  1  0  0  0  0
  3  7  2  0  0  0  0
  4  8  1  0  0  0  0
  5  9  1  0  0  0  0
  5 10  1  0  0  0  0
  6 11  2  0  0  0  0
  7 12  1  0  0  0  0
  9 13  2  0  0  0  0
 12 14  1  0  0  0  0
 13 15  1  0  0  0  0
  8 12  2  0  0  0  0
 11 13  1  0  0  0  0
M  END