168
  Mrv0541 04071411322D          

 15 16  0  0  0  0            999 V2000
    3.9234   -3.0838    0.0000 C   0  0  0  0  0  0  0  0  0  0  0  0
    4.7469   -3.0838    0.0000 C   0  0  0  0  0  0  0  0  0  0  0  0
    3.5150   -3.8155    0.0000 C   0  0  0  0  0  0  0  0  0  0  0  0
    3.5150   -2.3718    0.0000 C   0  0  0  0  0  0  0  0  0  0  0  0
    5.1636   -2.3718    0.0000 C   0  0  0  0  0  0  0  0  0  0  0  0
    5.1767   -3.8007    0.0000 C   0  0  0  0  0  0  0  0  0  0  0  0
    2.6865   -3.8155    0.0000 C   0  0  0  0  0  0  0  0  0  0  0  0
    2.6734   -2.3718    0.0000 C   0  0  0  0  0  0  0  0  0  0  0  0
    5.9838   -2.3718    0.0000 C   0  0  0  0  0  0  0  0  0  0  0  0
    4.7174   -1.6172    0.0000 Cl  0  0  0  0  0  0  0  0  0  0  0  0
    5.9921   -3.8007    0.0000 C   0  0  0  0  0  0  0  0  0  0  0  0
    2.2715   -3.0920    0.0000 C   0  0  0  0  0  0  0  0  0  0  0  0
    6.4055   -3.0707    0.0000 C   0  0  0  0  0  0  0  0  0  0  0  0
    1.4053   -3.0920    0.0000 Cl  0  0  0  0  0  0  0  0  0  0  0  0
    6.4027   -4.5051    0.0000 Cl  0  0  0  0  0  0  0  0  0  0  0  0
  1  2  1  0  0  0  0
  1  3  1  0  0  0  0
  1  4  2  0  0  0  0
  2  5  2  0  0  0  0
  2  6  1  0  0  0  0
  3  7  2  0  0  0  0
  4  8  1  0  0  0  0
  5  9  1  0  0  0  0
  5 10  1  0  0  0  0
  6 11  2  0  0  0  0
  7 12  1  0  0  0  0
  9 13  2  0  0  0  0
 12 14  1  0  0  0  0
  8 12  2  0  0  0  0
 11 13  1  0  0  0  0
 11 15  1  0  0  0  0
M  END