169
  Mrv0541 04071411322D          

 15 16  0  0  0  0            999 V2000
    0.0465    0.0033    0.0000 C   0  0  0  0  0  0  0  0  0  0  0  0
   -0.7712    0.0033    0.0000 C   0  0  0  0  0  0  0  0  0  0  0  0
    0.4710    0.7165    0.0000 C   0  0  0  0  0  0  0  0  0  0  0  0
    0.4710   -0.7182    0.0000 C   0  0  0  0  0  0  0  0  0  0  0  0
   -1.1809    0.7165    0.0000 C   0  0  0  0  0  0  0  0  0  0  0  0
   -1.1809   -0.7182    0.0000 C   0  0  0  0  0  0  0  0  0  0  0  0
    1.2903    0.7165    0.0000 C   0  0  0  0  0  0  0  0  0  0  0  0
    0.0465    1.4263    0.0000 Cl  0  0  0  0  0  0  0  0  0  0  0  0
    1.2903   -0.7182    0.0000 C   0  0  0  0  0  0  0  0  0  0  0  0
   -2.0035    0.7165    0.0000 C   0  0  0  0  0  0  0  0  0  0  0  0
   -2.0035   -0.7182    0.0000 C   0  0  0  0  0  0  0  0  0  0  0  0
    1.7050    0.0033    0.0000 C   0  0  0  0  0  0  0  0  0  0  0  0
    1.7050   -1.4297    0.0000 Cl  0  0  0  0  0  0  0  0  0  0  0  0
   -2.4182    0.0033    0.0000 C   0  0  0  0  0  0  0  0  0  0  0  0
    2.5293    0.0033    0.0000 Cl  0  0  0  0  0  0  0  0  0  0  0  0
  1  2  1  0  0  0  0
  1  3  2  0  0  0  0
  1  4  1  0  0  0  0
  2  5  2  0  0  0  0
  2  6  1  0  0  0  0
  3  7  1  0  0  0  0
  3  8  1  0  0  0  0
  4  9  2  0  0  0  0
  5 10  1  0  0  0  0
  6 11  2  0  0  0  0
  7 12  2  0  0  0  0
  9 13  1  0  0  0  0
 10 14  2  0  0  0  0
 12 15  1  0  0  0  0
  9 12  1  0  0  0  0
 11 14  1  0  0  0  0
M  END