17
  Mrv0541 04071411322D          

 10 10  0  0  0  0            999 V2000
    4.2323   -2.2172    0.0000 C   0  0  0  0  0  0  0  0  0  0  0  0
    3.4991   -2.6247    0.0000 C   0  0  0  0  0  0  0  0  0  0  0  0
    4.9250   -2.6247    0.0000 C   0  0  0  0  0  0  0  0  0  0  0  0
    3.4991   -3.3985    0.0000 C   0  0  0  0  0  0  0  0  0  0  0  0
    4.9250   -3.3985    0.0000 C   0  0  0  0  0  0  0  0  0  0  0  0
    4.2323   -3.8466    0.0000 C   0  0  0  0  0  0  0  0  0  0  0  0
    4.5581   -1.4841    0.0000 C   0  0  0  0  0  0  0  0  0  0  0  0
    3.8248   -1.4841    0.0000 C   0  0  0  0  0  0  0  0  0  0  0  0
    2.7660   -3.8466    0.0000 C   0  0  0  0  0  0  0  0  0  0  0  0
    5.6177   -3.8466    0.0000 C   0  0  0  0  0  0  0  0  0  0  0  0
  2  1  1  0  0  0  0
  3  1  1  0  0  0  0
  4  2  1  0  0  0  0
  5  3  1  0  0  0  0
  6  5  1  0  0  0  0
  7  1  1  0  0  0  0
  8  1  1  0  0  0  0
  9  4  1  1  0  0  0
 10  5  1  1  0  0  0
  4  6  1  0  0  0  0
M  END