171
  Mrv0541 04071411322D          

 16 17  0  0  0  0            999 V2000
   -0.4132   -0.3573    0.0000 C   0  0  0  0  0  0  0  0  0  0  0  0
    0.4161   -0.3573    0.0000 C   0  0  0  0  0  0  0  0  0  0  0  0
   -0.8204    0.3602    0.0000 C   0  0  0  0  0  0  0  0  0  0  0  0
   -0.8292   -1.0733    0.0000 C   0  0  0  0  0  0  0  0  0  0  0  0
    0.8234    0.3602    0.0000 C   0  0  0  0  0  0  0  0  0  0  0  0
    0.8234   -1.0733    0.0000 C   0  0  0  0  0  0  0  0  0  0  0  0
   -1.6497    0.3602    0.0000 C   0  0  0  0  0  0  0  0  0  0  0  0
   -0.4029    1.0762    0.0000 Cl  0  0  0  0  0  0  0  0  0  0  0  0
   -1.6497   -1.0733    0.0000 C   0  0  0  0  0  0  0  0  0  0  0  0
    1.6438    0.3602    0.0000 C   0  0  0  0  0  0  0  0  0  0  0  0
    0.4073    1.0762    0.0000 Cl  0  0  0  0  0  0  0  0  0  0  0  0
    1.6526   -1.0733    0.0000 C   0  0  0  0  0  0  0  0  0  0  0  0
   -2.0569   -0.3573    0.0000 C   0  0  0  0  0  0  0  0  0  0  0  0
   -2.0658    1.0645    0.0000 Cl  0  0  0  0  0  0  0  0  0  0  0  0
    2.0525   -0.3573    0.0000 C   0  0  0  0  0  0  0  0  0  0  0  0
    2.0702    1.0645    0.0000 Cl  0  0  0  0  0  0  0  0  0  0  0  0
  1  2  1  0  0  0  0
  1  3  2  0  0  0  0
  1  4  1  0  0  0  0
  2  5  2  0  0  0  0
  2  6  1  0  0  0  0
  3  7  1  0  0  0  0
  3  8  1  0  0  0  0
  4  9  2  0  0  0  0
  5 10  1  0  0  0  0
  5 11  1  0  0  0  0
  6 12  2  0  0  0  0
  7 13  2  0  0  0  0
  7 14  1  0  0  0  0
 10 15  2  0  0  0  0
 10 16  1  0  0  0  0
  9 13  1  0  0  0  0
 12 15  1  0  0  0  0
M  END