172
  Mrv0541 04071411322D          

 16 17  0  0  0  0            999 V2000
   -0.3041   -0.1717    0.0000 C   0  0  0  0  0  0  0  0  0  0  0  0
    0.5149   -0.1717    0.0000 C   0  0  0  0  0  0  0  0  0  0  0  0
   -0.7258    0.5247    0.0000 C   0  0  0  0  0  0  0  0  0  0  0  0
   -0.7127   -0.9056    0.0000 C   0  0  0  0  0  0  0  0  0  0  0  0
    0.9350    0.5247    0.0000 C   0  0  0  0  0  0  0  0  0  0  0  0
    0.9301   -0.9088    0.0000 C   0  0  0  0  0  0  0  0  0  0  0  0
   -1.5480    0.5280    0.0000 C   0  0  0  0  0  0  0  0  0  0  0  0
   -1.5480   -0.9056    0.0000 C   0  0  0  0  0  0  0  0  0  0  0  0
    1.7556    0.5247    0.0000 C   0  0  0  0  0  0  0  0  0  0  0  0
    0.4871    1.2783    0.0000 Cl  0  0  0  0  0  0  0  0  0  0  0  0
    1.7556   -0.9056    0.0000 C   0  0  0  0  0  0  0  0  0  0  0  0
   -1.9550   -0.1635    0.0000 C   0  0  0  0  0  0  0  0  0  0  0  0
   -1.9861    1.2832    0.0000 Cl  0  0  0  0  0  0  0  0  0  0  0  0
    2.1757   -0.1847    0.0000 C   0  0  0  0  0  0  0  0  0  0  0  0
   -2.7969   -0.1635    0.0000 Cl  0  0  0  0  0  0  0  0  0  0  0  0
    3.0225   -0.1847    0.0000 Cl  0  0  0  0  0  0  0  0  0  0  0  0
  1  2  1  0  0  0  0
  1  3  2  0  0  0  0
  1  4  1  0  0  0  0
  2  5  2  0  0  0  0
  2  6  1  0  0  0  0
  3  7  1  0  0  0  0
  4  8  2  0  0  0  0
  5  9  1  0  0  0  0
  5 10  1  0  0  0  0
  6 11  2  0  0  0  0
  7 12  2  0  0  0  0
  7 13  1  0  0  0  0
  9 14  2  0  0  0  0
 12 15  1  0  0  0  0
 14 16  1  0  0  0  0
  8 12  1  0  0  0  0
 11 14  1  0  0  0  0
M  END