173
  Mrv0541 04071411322D          

 16 17  0  0  0  0            999 V2000
    2.0396    0.6124    0.0000 C   0  0  0  0  0  0  0  0  0  0  0  0
    2.0385   -0.2147    0.0000 C   0  0  0  0  0  0  0  0  0  0  0  0
    2.7531   -0.6275    0.0000 C   0  0  0  0  0  0  0  0  0  0  0  0
    3.4693   -0.2142    0.0000 C   0  0  0  0  0  0  0  0  0  0  0  0
    3.4665    0.6160    0.0000 C   0  0  0  0  0  0  0  0  0  0  0  0
    2.7513    1.0250    0.0000 C   0  0  0  0  0  0  0  0  0  0  0  0
    4.1843   -0.6255    0.0000 C   0  0  0  0  0  0  0  0  0  0  0  0
    4.1807   -1.4507    0.0000 C   0  0  0  0  0  0  0  0  0  0  0  0
    4.8946   -1.8618    0.0000 C   0  0  0  0  0  0  0  0  0  0  0  0
    5.6092   -1.4483    0.0000 C   0  0  0  0  0  0  0  0  0  0  0  0
    5.6053   -0.6192    0.0000 C   0  0  0  0  0  0  0  0  0  0  0  0
    4.8906   -0.2117    0.0000 C   0  0  0  0  0  0  0  0  0  0  0  0
    4.1792    1.0311    0.0000 Cl  0  0  0  0  0  0  0  0  0  0  0  0
    1.3253    1.0246    0.0000 Cl  0  0  0  0  0  0  0  0  0  0  0  0
    3.4657   -1.8618    0.0000 Cl  0  0  0  0  0  0  0  0  0  0  0  0
    4.8955   -2.6865    0.0000 Cl  0  0  0  0  0  0  0  0  0  0  0  0
  7  8  2  0  0  0  0
  8  9  1  0  0  0  0
  4  5  1  0  0  0  0
  9 10  2  0  0  0  0
  2  3  1  0  0  0  0
 10 11  1  0  0  0  0
  5  6  2  0  0  0  0
 11 12  2  0  0  0  0
 12  7  1  0  0  0  0
  6  1  1  0  0  0  0
  5 13  1  0  0  0  0
  1  2  2  0  0  0  0
  1 14  1  0  0  0  0
  4  7  1  0  0  0  0
  8 15  1  0  0  0  0
  3  4  2  0  0  0  0
  9 16  1  0  0  0  0
M  END