175
  Mrv0541 04071411322D          

 16 17  0  0  0  0            999 V2000
    0.3194   -0.0046    0.0000 C   0  0  0  0  0  0  0  0  0  0  0  0
   -0.5076   -0.0046    0.0000 C   0  0  0  0  0  0  0  0  0  0  0  0
    0.7221    0.7159    0.0000 C   0  0  0  0  0  0  0  0  0  0  0  0
    0.7314   -0.7159    0.0000 C   0  0  0  0  0  0  0  0  0  0  0  0
   -0.9273   -0.7360    0.0000 C   0  0  0  0  0  0  0  0  0  0  0  0
   -0.9104    0.7052    0.0000 C   0  0  0  0  0  0  0  0  0  0  0  0
    1.5553    0.7159    0.0000 C   0  0  0  0  0  0  0  0  0  0  0  0
    0.3348    1.3825    0.0000 Cl  0  0  0  0  0  0  0  0  0  0  0  0
    1.5553   -0.7159    0.0000 C   0  0  0  0  0  0  0  0  0  0  0  0
   -1.7513   -0.7360    0.0000 C   0  0  0  0  0  0  0  0  0  0  0  0
   -0.5354   -1.3763    0.0000 Cl  0  0  0  0  0  0  0  0  0  0  0  0
   -1.7513    0.7052    0.0000 C   0  0  0  0  0  0  0  0  0  0  0  0
   -0.5246    1.3717    0.0000 Cl  0  0  0  0  0  0  0  0  0  0  0  0
    1.9673   -0.0046    0.0000 C   0  0  0  0  0  0  0  0  0  0  0  0
    1.8948   -1.2961    0.0000 Cl  0  0  0  0  0  0  0  0  0  0  0  0
   -2.1709   -0.0046    0.0000 C   0  0  0  0  0  0  0  0  0  0  0  0
  1  2  1  0  0  0  0
  1  3  2  0  0  0  0
  1  4  1  0  0  0  0
  2  5  1  0  0  0  0
  2  6  2  0  0  0  0
  3  7  1  0  0  0  0
  3  8  1  0  0  0  0
  4  9  2  0  0  0  0
  5 10  2  0  0  0  0
  5 11  1  0  0  0  0
  6 12  1  0  0  0  0
  6 13  1  0  0  0  0
  7 14  2  0  0  0  0
  9 15  1  0  0  0  0
 10 16  1  0  0  0  0
  9 14  1  0  0  0  0
 12 16  2  0  0  0  0
M  END