176
  Mrv0541 04071411322D          

 16 17  0  0  0  0            999 V2000
   -0.3075    0.0000    0.0000 C   0  0  0  0  0  0  0  0  0  0  0  0
    0.5247    0.0000    0.0000 C   0  0  0  0  0  0  0  0  0  0  0  0
   -0.7253   -0.7119    0.0000 C   0  0  0  0  0  0  0  0  0  0  0  0
   -0.7253    0.7119    0.0000 C   0  0  0  0  0  0  0  0  0  0  0  0
    0.9308    0.7119    0.0000 C   0  0  0  0  0  0  0  0  0  0  0  0
    0.9308   -0.7119    0.0000 C   0  0  0  0  0  0  0  0  0  0  0  0
   -1.5591   -0.7119    0.0000 C   0  0  0  0  0  0  0  0  0  0  0  0
   -1.5491    0.7119    0.0000 C   0  0  0  0  0  0  0  0  0  0  0  0
    1.7663    0.7119    0.0000 C   0  0  0  0  0  0  0  0  0  0  0  0
    0.5164    1.4388    0.0000 Cl  0  0  0  0  0  0  0  0  0  0  0  0
    1.7663   -0.7119    0.0000 C   0  0  0  0  0  0  0  0  0  0  0  0
   -1.9652    0.0000    0.0000 C   0  0  0  0  0  0  0  0  0  0  0  0
   -1.9885   -1.4388    0.0000 Cl  0  0  0  0  0  0  0  0  0  0  0  0
   -1.9769    1.4388    0.0000 Cl  0  0  0  0  0  0  0  0  0  0  0  0
    2.1724    0.0000    0.0000 C   0  0  0  0  0  0  0  0  0  0  0  0
    2.1908   -1.4388    0.0000 Cl  0  0  0  0  0  0  0  0  0  0  0  0
  1  2  1  0  0  0  0
  1  3  2  0  0  0  0
  1  4  1  0  0  0  0
  2  5  2  0  0  0  0
  2  6  1  0  0  0  0
  3  7  1  0  0  0  0
  4  8  2  0  0  0  0
  5  9  1  0  0  0  0
  5 10  1  0  0  0  0
  6 11  2  0  0  0  0
  7 12  2  0  0  0  0
  7 13  1  0  0  0  0
  8 14  1  0  0  0  0
  9 15  2  0  0  0  0
 11 16  1  0  0  0  0
  8 12  1  0  0  0  0
 11 15  1  0  0  0  0
M  END