177
  Mrv0541 04071411322D          

 16 17  0  0  0  0            999 V2000
    0.0986    0.0027    0.0000 C   0  0  0  0  0  0  0  0  0  0  0  0
   -0.7206    0.0027    0.0000 C   0  0  0  0  0  0  0  0  0  0  0  0
    0.5194    0.7179    0.0000 C   0  0  0  0  0  0  0  0  0  0  0  0
    0.5194   -0.7166    0.0000 C   0  0  0  0  0  0  0  0  0  0  0  0
   -1.1374   -0.7259    0.0000 C   0  0  0  0  0  0  0  0  0  0  0  0
   -1.1374    0.7099    0.0000 C   0  0  0  0  0  0  0  0  0  0  0  0
    1.3398    0.7179    0.0000 C   0  0  0  0  0  0  0  0  0  0  0  0
    0.0986    1.4410    0.0000 Cl  0  0  0  0  0  0  0  0  0  0  0  0
    1.3398   -0.7166    0.0000 C   0  0  0  0  0  0  0  0  0  0  0  0
    0.0852   -1.4344    0.0000 Cl  0  0  0  0  0  0  0  0  0  0  0  0
   -1.9565   -0.7259    0.0000 C   0  0  0  0  0  0  0  0  0  0  0  0
   -1.9565    0.7099    0.0000 C   0  0  0  0  0  0  0  0  0  0  0  0
    1.7593    0.0027    0.0000 C   0  0  0  0  0  0  0  0  0  0  0  0
    1.7593    1.4464    0.0000 Cl  0  0  0  0  0  0  0  0  0  0  0  0
    1.7633   -1.4344    0.0000 Cl  0  0  0  0  0  0  0  0  0  0  0  0
   -2.3720    0.0027    0.0000 C   0  0  0  0  0  0  0  0  0  0  0  0
  1  2  1  0  0  0  0
  1  3  2  0  0  0  0
  1  4  1  0  0  0  0
  2  5  1  0  0  0  0
  2  6  2  0  0  0  0
  3  7  1  0  0  0  0
  3  8  1  0  0  0  0
  4  9  2  0  0  0  0
  4 10  1  0  0  0  0
  5 11  2  0  0  0  0
  6 12  1  0  0  0  0
  7 13  2  0  0  0  0
  7 14  1  0  0  0  0
  9 15  1  0  0  0  0
 11 16  1  0  0  0  0
  9 13  1  0  0  0  0
 12 16  2  0  0  0  0
M  END