178
  Mrv0541 04071411322D          

 16 17  0  0  0  0            999 V2000
   -0.0570   -0.0987    0.0000 C   0  0  0  0  0  0  0  0  0  0  0  0
   -0.8692   -0.0987    0.0000 C   0  0  0  0  0  0  0  0  0  0  0  0
    0.3407    0.6245    0.0000 C   0  0  0  0  0  0  0  0  0  0  0  0
    0.3741   -0.7969    0.0000 C   0  0  0  0  0  0  0  0  0  0  0  0
   -1.2809   -0.8247    0.0000 C   0  0  0  0  0  0  0  0  0  0  0  0
   -1.3045    0.6064    0.0000 C   0  0  0  0  0  0  0  0  0  0  0  0
    1.1835    0.6245    0.0000 C   0  0  0  0  0  0  0  0  0  0  0  0
   -0.0598    1.2809    0.0000 Cl  0  0  0  0  0  0  0  0  0  0  0  0
    1.1988   -0.7969    0.0000 C   0  0  0  0  0  0  0  0  0  0  0  0
   -2.1180   -0.8247    0.0000 C   0  0  0  0  0  0  0  0  0  0  0  0
   -2.1180    0.6064    0.0000 C   0  0  0  0  0  0  0  0  0  0  0  0
    1.6104   -0.0612    0.0000 C   0  0  0  0  0  0  0  0  0  0  0  0
    1.5576    1.3503    0.0000 Cl  0  0  0  0  0  0  0  0  0  0  0  0
    1.7050   -1.4004    0.0000 Cl  0  0  0  0  0  0  0  0  0  0  0  0
   -2.5561   -0.1307    0.0000 C   0  0  0  0  0  0  0  0  0  0  0  0
    2.3947   -0.0612    0.0000 Cl  0  0  0  0  0  0  0  0  0  0  0  0
  1  2  1  0  0  0  0
  1  3  2  0  0  0  0
  1  4  1  0  0  0  0
  2  5  1  0  0  0  0
  2  6  2  0  0  0  0
  3  7  1  0  0  0  0
  3  8  1  0  0  0  0
  4  9  2  0  0  0  0
  5 10  2  0  0  0  0
  6 11  1  0  0  0  0
  7 12  2  0  0  0  0
  7 13  1  0  0  0  0
  9 14  1  0  0  0  0
 10 15  1  0  0  0  0
 12 16  1  0  0  0  0
  9 12  1  0  0  0  0
 11 15  2  0  0  0  0
M  END