18
  Mrv0541 04071411322D          

 10 10  0  0  0  0            999 V2000
   -0.2839    0.0090    0.0000 C   0  0  0  0  0  0  0  0  0  0  0  0
   -0.9955   -0.4133    0.0000 C   0  0  0  0  0  0  0  0  0  0  0  0
    0.4259   -0.4133    0.0000 C   0  0  0  0  0  0  0  0  0  0  0  0
   -0.2839    0.8302    0.0000 C   0  0  0  0  0  0  0  0  0  0  0  0
   -0.9955   -1.2525    0.0000 C   0  0  0  0  0  0  0  0  0  0  0  0
    0.4259   -1.2525    0.0000 C   0  0  0  0  0  0  0  0  0  0  0  0
    0.4259    1.2489    0.0000 C   0  0  0  0  0  0  0  0  0  0  0  0
   -0.2839   -1.6533    0.0000 C   0  0  0  0  0  0  0  0  0  0  0  0
    0.4259    2.0665    0.0000 C   0  0  0  0  0  0  0  0  0  0  0  0
    1.1411    0.8302    0.0000 C   0  0  0  0  0  0  0  0  0  0  0  0
  1  2  1  0  0  0  0
  1  3  1  0  0  0  0
  1  4  1  0  0  0  0
  2  5  1  0  0  0  0
  3  6  1  0  0  0  0
  4  7  1  0  0  0  0
  5  8  1  0  0  0  0
  7  9  1  0  0  0  0
  7 10  1  0  0  0  0
  6  8  1  0  0  0  0
M  END