180
  Mrv0541 04071411322D          

 17 18  0  0  0  0            999 V2000
   -0.0520   -0.0138    0.0000 C   0  0  0  0  0  0  0  0  0  0  0  0
   -0.8633   -0.0138    0.0000 C   0  0  0  0  0  0  0  0  0  0  0  0
    0.3627    0.7178    0.0000 C   0  0  0  0  0  0  0  0  0  0  0  0
    0.3627   -0.7087    0.0000 C   0  0  0  0  0  0  0  0  0  0  0  0
   -1.2796    0.7178    0.0000 C   0  0  0  0  0  0  0  0  0  0  0  0
   -1.2796   -0.7087    0.0000 C   0  0  0  0  0  0  0  0  0  0  0  0
    1.1786    0.7178    0.0000 C   0  0  0  0  0  0  0  0  0  0  0  0
   -0.0520    1.4174    0.0000 Cl  0  0  0  0  0  0  0  0  0  0  0  0
    1.1970   -0.7087    0.0000 C   0  0  0  0  0  0  0  0  0  0  0  0
   -0.0520   -1.4189    0.0000 Cl  0  0  0  0  0  0  0  0  0  0  0  0
   -2.1046    0.7178    0.0000 C   0  0  0  0  0  0  0  0  0  0  0  0
   -2.1046   -0.7087    0.0000 C   0  0  0  0  0  0  0  0  0  0  0  0
    1.5995   -0.0138    0.0000 C   0  0  0  0  0  0  0  0  0  0  0  0
    1.5827    1.4511    0.0000 Cl  0  0  0  0  0  0  0  0  0  0  0  0
    1.6133   -1.4189    0.0000 Cl  0  0  0  0  0  0  0  0  0  0  0  0
   -2.5148   -0.0138    0.0000 C   0  0  0  0  0  0  0  0  0  0  0  0
    2.4123   -0.0138    0.0000 Cl  0  0  0  0  0  0  0  0  0  0  0  0
  1  2  1  0  0  0  0
  1  3  1  0  0  0  0
  1  4  2  0  0  0  0
  2  5  1  0  0  0  0
  2  6  2  0  0  0  0
  3  7  2  0  0  0  0
  3  8  1  0  0  0  0
  4  9  1  0  0  0  0
  4 10  1  0  0  0  0
  5 11  2  0  0  0  0
  6 12  1  0  0  0  0
  7 13  1  0  0  0  0
  7 14  1  0  0  0  0
  9 15  1  0  0  0  0
 11 16  1  0  0  0  0
 13 17  1  0  0  0  0
  9 13  2  0  0  0  0
 12 16  2  0  0  0  0
M  END