181
  Mrv0541 04071411322D          

 17 18  0  0  0  0            999 V2000
   -0.4141   -0.2325    0.0000 C   0  0  0  0  0  0  0  0  0  0  0  0
    0.3699   -0.2325    0.0000 C   0  0  0  0  0  0  0  0  0  0  0  0
   -0.8332    0.4452    0.0000 C   0  0  0  0  0  0  0  0  0  0  0  0
   -0.8463   -0.9560    0.0000 C   0  0  0  0  0  0  0  0  0  0  0  0
    0.8021    0.4452    0.0000 C   0  0  0  0  0  0  0  0  0  0  0  0
    0.7825   -0.9560    0.0000 C   0  0  0  0  0  0  0  0  0  0  0  0
   -1.6582    0.4452    0.0000 C   0  0  0  0  0  0  0  0  0  0  0  0
   -1.6729   -0.9510    0.0000 C   0  0  0  0  0  0  0  0  0  0  0  0
    1.6173    0.4452    0.0000 C   0  0  0  0  0  0  0  0  0  0  0  0
    0.3388    1.1721    0.0000 Cl  0  0  0  0  0  0  0  0  0  0  0  0
    1.6173   -0.9510    0.0000 C   0  0  0  0  0  0  0  0  0  0  0  0
   -2.0871   -0.2325    0.0000 C   0  0  0  0  0  0  0  0  0  0  0  0
   -2.1198    1.1721    0.0000 Cl  0  0  0  0  0  0  0  0  0  0  0  0
    2.0494   -0.2325    0.0000 C   0  0  0  0  0  0  0  0  0  0  0  0
    2.0052    1.0967    0.0000 Cl  0  0  0  0  0  0  0  0  0  0  0  0
   -2.8892   -0.2374    0.0000 Cl  0  0  0  0  0  0  0  0  0  0  0  0
    2.9383   -0.2374    0.0000 Cl  0  0  0  0  0  0  0  0  0  0  0  0
  1  2  1  0  0  0  0
  1  3  2  0  0  0  0
  1  4  1  0  0  0  0
  2  5  1  0  0  0  0
  2  6  2  0  0  0  0
  3  7  1  0  0  0  0
  4  8  2  0  0  0  0
  5  9  2  0  0  0  0
  5 10  1  0  0  0  0
  6 11  1  0  0  0  0
  7 12  2  0  0  0  0
  7 13  1  0  0  0  0
  9 14  1  0  0  0  0
  9 15  1  0  0  0  0
 12 16  1  0  0  0  0
 14 17  1  0  0  0  0
  8 12  1  0  0  0  0
 11 14  2  0  0  0  0
M  END