182
  Mrv0541 04071411322D          

 17 18  0  0  0  0            999 V2000
    0.2429   -0.0017    0.0000 C   0  0  0  0  0  0  0  0  0  0  0  0
   -0.5861   -0.0017    0.0000 C   0  0  0  0  0  0  0  0  0  0  0  0
    0.6583    0.7111    0.0000 C   0  0  0  0  0  0  0  0  0  0  0  0
    0.6583   -0.7093    0.0000 C   0  0  0  0  0  0  0  0  0  0  0  0
   -1.0015   -0.7093    0.0000 C   0  0  0  0  0  0  0  0  0  0  0  0
   -1.0015    0.7111    0.0000 C   0  0  0  0  0  0  0  0  0  0  0  0
    1.4925    0.7111    0.0000 C   0  0  0  0  0  0  0  0  0  0  0  0
    0.2429    1.4450    0.0000 Cl  0  0  0  0  0  0  0  0  0  0  0  0
    1.4925   -0.7093    0.0000 C   0  0  0  0  0  0  0  0  0  0  0  0
   -1.8375   -0.7093    0.0000 C   0  0  0  0  0  0  0  0  0  0  0  0
   -0.5861   -1.4204    0.0000 Cl  0  0  0  0  0  0  0  0  0  0  0  0
   -1.8375    0.7111    0.0000 C   0  0  0  0  0  0  0  0  0  0  0  0
    1.9026   -0.0017    0.0000 C   0  0  0  0  0  0  0  0  0  0  0  0
    1.9255   -1.4450    0.0000 Cl  0  0  0  0  0  0  0  0  0  0  0  0
   -2.2511   -0.0017    0.0000 C   0  0  0  0  0  0  0  0  0  0  0  0
   -2.2511    1.4186    0.0000 Cl  0  0  0  0  0  0  0  0  0  0  0  0
    2.7351   -0.0017    0.0000 Cl  0  0  0  0  0  0  0  0  0  0  0  0
  1  2  1  0  0  0  0
  1  3  2  0  0  0  0
  1  4  1  0  0  0  0
  2  5  1  0  0  0  0
  2  6  2  0  0  0  0
  3  7  1  0  0  0  0
  3  8  1  0  0  0  0
  4  9  2  0  0  0  0
  5 10  2  0  0  0  0
  5 11  1  0  0  0  0
  6 12  1  0  0  0  0
  7 13  2  0  0  0  0
  9 14  1  0  0  0  0
 10 15  1  0  0  0  0
 12 16  1  0  0  0  0
 13 17  1  0  0  0  0
  9 13  1  0  0  0  0
 12 15  2  0  0  0  0
M  END