184
  Mrv0541 04071411322D          

 17 18  0  0  0  0            999 V2000
    3.7690   -4.3704    0.0000 C   0  0  0  0  0  0  0  0  0  0  0  0
    3.7679   -5.1977    0.0000 C   0  0  0  0  0  0  0  0  0  0  0  0
    4.4827   -5.6105    0.0000 C   0  0  0  0  0  0  0  0  0  0  0  0
    5.1990   -5.1972    0.0000 C   0  0  0  0  0  0  0  0  0  0  0  0
    5.1962   -4.3668    0.0000 C   0  0  0  0  0  0  0  0  0  0  0  0
    4.4809   -3.9577    0.0000 C   0  0  0  0  0  0  0  0  0  0  0  0
    5.9141   -5.6085    0.0000 C   0  0  0  0  0  0  0  0  0  0  0  0
    5.9105   -6.4339    0.0000 C   0  0  0  0  0  0  0  0  0  0  0  0
    6.6246   -6.8451    0.0000 C   0  0  0  0  0  0  0  0  0  0  0  0
    7.3394   -6.4315    0.0000 C   0  0  0  0  0  0  0  0  0  0  0  0
    7.3355   -5.6022    0.0000 C   0  0  0  0  0  0  0  0  0  0  0  0
    6.6206   -5.1947    0.0000 C   0  0  0  0  0  0  0  0  0  0  0  0
    4.4784   -3.1328    0.0000 Cl  0  0  0  0  0  0  0  0  0  0  0  0
    4.4825   -6.4355    0.0000 Cl  0  0  0  0  0  0  0  0  0  0  0  0
    6.6158   -4.3699    0.0000 Cl  0  0  0  0  0  0  0  0  0  0  0  0
    5.1954   -6.8451    0.0000 Cl  0  0  0  0  0  0  0  0  0  0  0  0
    8.0550   -6.8418    0.0000 Cl  0  0  0  0  0  0  0  0  0  0  0  0
  8  9  1  0  0  0  0
  4  5  1  0  0  0  0
  9 10  2  0  0  0  0
  2  3  1  0  0  0  0
 10 11  1  0  0  0  0
  5  6  2  0  0  0  0
 11 12  2  0  0  0  0
 12  7  1  0  0  0  0
  6  1  1  0  0  0  0
  6 13  1  0  0  0  0
  1  2  2  0  0  0  0
  3 14  1  0  0  0  0
  4  7  1  0  0  0  0
 12 15  1  0  0  0  0
  3  4  2  0  0  0  0
  8 16  1  0  0  0  0
  7  8  2  0  0  0  0
 10 17  1  0  0  0  0
M  END