185
  Mrv0541 04071411322D          

 17 18  0  0  0  0            999 V2000
    4.7700   -1.9972    0.0000 Cl  0  0  0  0  0  0  0  0  0  0  0  0
    5.2051   -2.6033    0.0000 C   0  0  0  0  0  0  0  0  0  0  0  0
    4.7944   -3.3221    0.0000 C   0  0  0  0  0  0  0  0  0  0  0  0
    5.2087   -4.0305    0.0000 C   0  0  0  0  0  0  0  0  0  0  0  0
    6.0337   -4.0285    0.0000 C   0  0  0  0  0  0  0  0  0  0  0  0
    6.4444   -3.3179    0.0000 C   0  0  0  0  0  0  0  0  0  0  0  0
    6.0301   -2.6012    0.0000 C   0  0  0  0  0  0  0  0  0  0  0  0
    7.2694   -3.3179    0.0000 Cl  0  0  0  0  0  0  0  0  0  0  0  0
    4.7781   -4.7530    0.0000 Cl  0  0  0  0  0  0  0  0  0  0  0  0
    3.8044   -3.3272    0.0000 C   0  0  0  0  0  0  0  0  0  0  0  0
    3.3862   -2.6128    0.0000 C   0  0  0  0  0  0  0  0  0  0  0  0
    2.5655   -2.6185    0.0000 C   0  0  0  0  0  0  0  0  0  0  0  0
    2.1560   -3.3347    0.0000 C   0  0  0  0  0  0  0  0  0  0  0  0
    2.5671   -4.0451    0.0000 C   0  0  0  0  0  0  0  0  0  0  0  0
    3.3949   -4.0433    0.0000 C   0  0  0  0  0  0  0  0  0  0  0  0
    3.8096   -4.7565    0.0000 Cl  0  0  0  0  0  0  0  0  0  0  0  0
    3.7940   -1.8956    0.0000 Cl  0  0  0  0  0  0  0  0  0  0  0  0
  1  2  1  0  0  0  0
  2  3  1  0  0  0  0
  3  4  2  0  0  0  0
  4  5  1  0  0  0  0
  5  6  2  0  0  0  0
  6  7  1  0  0  0  0
  7  2  2  0  0  0  0
  6  8  1  0  0  0  0
  4  9  1  0  0  0  0
  3 10  1  0  0  0  0
 10 11  1  0  0  0  0
 11 12  2  0  0  0  0
 12 13  1  0  0  0  0
 13 14  2  0  0  0  0
 14 15  1  0  0  0  0
 15 10  2  0  0  0  0
 15 16  1  0  0  0  0
 11 17  1  0  0  0  0
M  END