188
  Mrv0541 04071411322D          

 17 18  0  0  0  0            999 V2000
   -0.4422   -0.0827    0.0000 C   0  0  0  0  0  0  0  0  0  0  0  0
    0.3770   -0.0827    0.0000 C   0  0  0  0  0  0  0  0  0  0  0  0
   -0.8638    0.6284    0.0000 C   0  0  0  0  0  0  0  0  0  0  0  0
   -0.8495   -0.8002    0.0000 C   0  0  0  0  0  0  0  0  0  0  0  0
    0.7827    0.6331    0.0000 C   0  0  0  0  0  0  0  0  0  0  0  0
    0.7986   -0.8002    0.0000 C   0  0  0  0  0  0  0  0  0  0  0  0
   -1.6847    0.6268    0.0000 C   0  0  0  0  0  0  0  0  0  0  0  0
   -1.6751   -0.8002    0.0000 C   0  0  0  0  0  0  0  0  0  0  0  0
    1.6242    0.6331    0.0000 C   0  0  0  0  0  0  0  0  0  0  0  0
    0.4073    1.2726    0.0000 Cl  0  0  0  0  0  0  0  0  0  0  0  0
    1.6242   -0.8002    0.0000 C   0  0  0  0  0  0  0  0  0  0  0  0
   -2.0967   -0.0827    0.0000 C   0  0  0  0  0  0  0  0  0  0  0  0
   -2.0967    1.3268    0.0000 Cl  0  0  0  0  0  0  0  0  0  0  0  0
    2.0410   -0.0780    0.0000 C   0  0  0  0  0  0  0  0  0  0  0  0
    2.0028   -1.4444    0.0000 Cl  0  0  0  0  0  0  0  0  0  0  0  0
   -2.8062   -0.0780    0.0000 Cl  0  0  0  0  0  0  0  0  0  0  0  0
    2.8571   -0.0780    0.0000 Cl  0  0  0  0  0  0  0  0  0  0  0  0
  1  2  1  0  0  0  0
  1  3  1  0  0  0  0
  1  4  2  0  0  0  0
  2  5  2  0  0  0  0
  2  6  1  0  0  0  0
  3  7  2  0  0  0  0
  4  8  1  0  0  0  0
  5  9  1  0  0  0  0
  5 10  1  0  0  0  0
  6 11  2  0  0  0  0
  7 12  1  0  0  0  0
  7 13  1  0  0  0  0
  9 14  2  0  0  0  0
 11 15  1  0  0  0  0
 12 16  1  0  0  0  0
 14 17  1  0  0  0  0
  8 12  2  0  0  0  0
 11 14  1  0  0  0  0
M  END