19
  Mrv0541 04071411322D          

 10 11  0  0  0  0            999 V2000
    0.0018    0.4075    0.0000 C   0  0  0  0  0  0  0  0  0  0  0  0
    0.0018   -0.4075    0.0000 C   0  0  0  0  0  0  0  0  0  0  0  0
   -0.7149    0.8223    0.0000 C   0  0  0  0  0  0  0  0  0  0  0  0
    0.7149    0.8223    0.0000 C   0  0  0  0  0  0  0  0  0  0  0  0
   -0.7149   -0.8223    0.0000 C   0  0  0  0  0  0  0  0  0  0  0  0
    0.7149   -0.8223    0.0000 C   0  0  0  0  0  0  0  0  0  0  0  0
   -1.4280    0.4075    0.0000 C   0  0  0  0  0  0  0  0  0  0  0  0
    1.4262    0.4075    0.0000 C   0  0  0  0  0  0  0  0  0  0  0  0
   -1.4280   -0.4075    0.0000 C   0  0  0  0  0  0  0  0  0  0  0  0
    1.4262   -0.4075    0.0000 C   0  0  0  0  0  0  0  0  0  0  0  0
  1  2  1  0  0  0  0
  1  3  2  0  0  0  0
  1  4  1  0  0  0  0
  2  5  2  0  0  0  0
  2  6  1  0  0  0  0
  3  7  1  0  0  0  0
  4  8  2  0  0  0  0
  5  9  1  0  0  0  0
  6 10  2  0  0  0  0
  7  9  2  0  0  0  0
  8 10  1  0  0  0  0
M  END