192
  Mrv0541 04071411322D          

  8  8  0  0  0  0            999 V2000
   -0.0055    0.8269    0.0000 C   0  0  0  0  0  0  0  0  0  0  0  0
    0.7133    0.4079    0.0000 C   0  0  0  0  0  0  0  0  0  0  0  0
   -0.7114    0.4079    0.0000 C   0  0  0  0  0  0  0  0  0  0  0  0
   -0.0055    1.6631    0.0000 C   0  0  0  0  0  0  0  0  0  0  0  0
    0.7133   -0.4060    0.0000 C   0  0  0  0  0  0  0  0  0  0  0  0
   -0.7114   -0.4060    0.0000 C   0  0  0  0  0  0  0  0  0  0  0  0
    0.0037   -0.8269    0.0000 C   0  0  0  0  0  0  0  0  0  0  0  0
    0.0037   -1.6650    0.0000 Cl  0  0  0  0  0  0  0  0  0  0  0  0
  1  2  2  0  0  0  0
  1  3  1  0  0  0  0
  1  4  1  0  0  0  0
  2  5  1  0  0  0  0
  3  6  2  0  0  0  0
  5  7  2  0  0  0  0
  7  8  1  0  0  0  0
  6  7  1  0  0  0  0
M  END