193
  Mrv0541 04071411322D          

  8  8  0  0  0  0            999 V2000
   -0.3564    0.4084    0.0000 C   0  0  0  0  0  0  0  0  0  0  0  0
   -0.3564   -0.4084    0.0000 C   0  0  0  0  0  0  0  0  0  0  0  0
    0.3528    0.8298    0.0000 C   0  0  0  0  0  0  0  0  0  0  0  0
   -1.0749    0.8298    0.0000 Cl  0  0  0  0  0  0  0  0  0  0  0  0
    0.3528   -0.8298    0.0000 C   0  0  0  0  0  0  0  0  0  0  0  0
   -1.0749   -0.8298    0.0000 Cl  0  0  0  0  0  0  0  0  0  0  0  0
    1.0786    0.4084    0.0000 C   0  0  0  0  0  0  0  0  0  0  0  0
    1.0786   -0.4084    0.0000 C   0  0  0  0  0  0  0  0  0  0  0  0
  1  2  2  0  0  0  0
  1  3  1  0  0  0  0
  1  4  1  0  0  0  0
  2  5  1  0  0  0  0
  2  6  1  0  0  0  0
  3  7  2  0  0  0  0
  5  8  2  0  0  0  0
  7  8  1  0  0  0  0
M  END