195
  Mrv0541 04071411322D          

  8  8  0  0  0  0            999 V2000
   -0.8235    0.0000    0.0000 C   0  0  0  0  0  0  0  0  0  0  0  0
   -0.4053   -0.7111    0.0000 C   0  0  0  0  0  0  0  0  0  0  0  0
   -0.4053    0.7111    0.0000 C   0  0  0  0  0  0  0  0  0  0  0  0
   -1.6452    0.0000    0.0000 Br  0  0  0  0  0  0  0  0  0  0  0  0
    0.4053   -0.7111    0.0000 C   0  0  0  0  0  0  0  0  0  0  0  0
    0.4053    0.7111    0.0000 C   0  0  0  0  0  0  0  0  0  0  0  0
    0.8235    0.0000    0.0000 C   0  0  0  0  0  0  0  0  0  0  0  0
    1.6470    0.0000    0.0000 Br  0  0  0  0  0  0  0  0  0  0  0  0
  1  2  2  0  0  0  0
  1  3  1  0  0  0  0
  1  4  1  0  0  0  0
  2  5  1  0  0  0  0
  3  6  2  0  0  0  0
  5  7  2  0  0  0  0
  7  8  1  0  0  0  0
  6  7  1  0  0  0  0
M  END