196
  Mrv0541 04071411322D          

 11 11  0  0  0  0            999 V2000
   -0.1301    0.2256    0.0000 C   0  0  0  0  0  0  0  0  0  0  0  0
    0.5832   -0.1857    0.0000 C   0  0  0  0  0  0  0  0  0  0  0  0
   -0.8453   -0.1857    0.0000 C   0  0  0  0  0  0  0  0  0  0  0  0
   -0.1301    1.0501    0.0000 C   0  0  0  0  0  0  0  0  0  0  0  0
    0.5832   -1.0136    0.0000 C   0  0  0  0  0  0  0  0  0  0  0  0
   -0.8453   -1.0136    0.0000 C   0  0  0  0  0  0  0  0  0  0  0  0
   -0.9581    1.0501    0.0000 F   0  0  0  0  0  0  0  0  0  0  0  0
   -0.1301    1.8780    0.0000 F   0  0  0  0  0  0  0  0  0  0  0  0
    0.6943    1.0501    0.0000 F   0  0  0  0  0  0  0  0  0  0  0  0
   -0.1301   -1.4250    0.0000 C   0  0  0  0  0  0  0  0  0  0  0  0
    1.3070   -1.4354    0.0000 Cl  0  0  0  0  0  0  0  0  0  0  0  0
  1  2  2  0  0  0  0
  1  3  1  0  0  0  0
  1  4  1  0  0  0  0
  2  5  1  0  0  0  0
  3  6  2  0  0  0  0
  4  7  1  0  0  0  0
  4  8  1  0  0  0  0
  4  9  1  0  0  0  0
  5 10  2  0  0  0  0
  5 11  1  0  0  0  0
  6 10  1  0  0  0  0
M  END