197
  Mrv0541 04071411322D          

  9  9  0  0  0  0            999 V2000
    0.3877    0.2337    0.0000 C   0  0  0  0  0  0  0  0  0  0  0  0
    0.4006   -0.5824    0.0000 C   0  0  0  0  0  0  0  0  0  0  0  0
   -0.3116    0.6343    0.0000 C   0  0  0  0  0  0  0  0  0  0  0  0
    1.1109    0.6547    0.0000 Cl  0  0  0  0  0  0  0  0  0  0  0  0
   -0.2987   -1.0201    0.0000 C   0  0  0  0  0  0  0  0  0  0  0  0
    1.1277   -1.0108    0.0000 Cl  0  0  0  0  0  0  0  0  0  0  0  0
   -1.0405    0.2170    0.0000 C   0  0  0  0  0  0  0  0  0  0  0  0
   -0.3338    1.4745    0.0000 Cl  0  0  0  0  0  0  0  0  0  0  0  0
   -1.0405   -0.6028    0.0000 C   0  0  0  0  0  0  0  0  0  0  0  0
  1  2  2  0  0  0  0
  1  3  1  0  0  0  0
  1  4  1  0  0  0  0
  2  5  1  0  0  0  0
  2  6  1  0  0  0  0
  3  7  2  0  0  0  0
  3  8  1  0  0  0  0
  5  9  2  0  0  0  0
  7  9  1  0  0  0  0
M  END