198
  Mrv0541 04071411322D          

  9  9  0  0  0  0            999 V2000
   -0.7139   -0.4061    0.0000 C   0  0  0  0  0  0  0  0  0  0  0  0
    0.0018   -0.8289    0.0000 C   0  0  0  0  0  0  0  0  0  0  0  0
   -0.7139    0.4079    0.0000 C   0  0  0  0  0  0  0  0  0  0  0  0
   -1.4334   -0.8289    0.0000 Cl  0  0  0  0  0  0  0  0  0  0  0  0
    0.7102   -0.4061    0.0000 C   0  0  0  0  0  0  0  0  0  0  0  0
    0.0055    0.8233    0.0000 C   0  0  0  0  0  0  0  0  0  0  0  0
    0.7102    0.4079    0.0000 C   0  0  0  0  0  0  0  0  0  0  0  0
    1.4297   -0.8289    0.0000 Cl  0  0  0  0  0  0  0  0  0  0  0  0
    0.0055    1.6560    0.0000 Cl  0  0  0  0  0  0  0  0  0  0  0  0
  1  2  2  0  0  0  0
  1  3  1  0  0  0  0
  1  4  1  0  0  0  0
  2  5  1  0  0  0  0
  3  6  2  0  0  0  0
  5  7  2  0  0  0  0
  5  8  1  0  0  0  0
  6  9  1  0  0  0  0
  6  7  1  0  0  0  0
M  END