20
  Mrv0541 04071411322D          

 11 12  0  0  0  0            999 V2000
    0.1824    0.3407    0.0000 C   0  0  0  0  0  0  0  0  0  0  0  0
    0.2065   -0.4784    0.0000 C   0  0  0  0  0  0  0  0  0  0  0  0
   -0.5404    0.7330    0.0000 C   0  0  0  0  0  0  0  0  0  0  0  0
    0.8811    0.7778    0.0000 C   0  0  0  0  0  0  0  0  0  0  0  0
   -0.4922   -0.9189    0.0000 C   0  0  0  0  0  0  0  0  0  0  0  0
    0.9395   -0.8673    0.0000 C   0  0  0  0  0  0  0  0  0  0  0  0
   -1.2390    0.2925    0.0000 C   0  0  0  0  0  0  0  0  0  0  0  0
    1.6175    0.3923    0.0000 C   0  0  0  0  0  0  0  0  0  0  0  0
   -1.2148   -0.5266    0.0000 C   0  0  0  0  0  0  0  0  0  0  0  0
    1.6416   -0.4302    0.0000 C   0  0  0  0  0  0  0  0  0  0  0  0
   -1.9754    0.6848    0.0000 C   0  0  0  0  0  0  0  0  0  0  0  0
  1  2  1  0  0  0  0
  1  3  2  0  0  0  0
  1  4  1  0  0  0  0
  2  5  2  0  0  0  0
  2  6  1  0  0  0  0
  3  7  1  0  0  0  0
  4  8  2  0  0  0  0
  5  9  1  0  0  0  0
  6 10  2  0  0  0  0
  7 11  1  0  0  0  0
  7  9  2  0  0  0  0
  8 10  1  0  0  0  0
M  END