201
  Mrv0541 04071411322D          

 11 11  0  0  0  0            999 V2000
    0.0018   -0.6728    0.0000 C   0  0  0  0  0  0  0  0  0  0  0  0
   -0.7154   -0.2651    0.0000 C   0  0  0  0  0  0  0  0  0  0  0  0
    0.7154   -0.2651    0.0000 C   0  0  0  0  0  0  0  0  0  0  0  0
    0.0018   -1.5069    0.0000 Cl  0  0  0  0  0  0  0  0  0  0  0  0
   -0.7154    0.5635    0.0000 C   0  0  0  0  0  0  0  0  0  0  0  0
   -1.4291   -0.6728    0.0000 Cl  0  0  0  0  0  0  0  0  0  0  0  0
    0.7154    0.5635    0.0000 C   0  0  0  0  0  0  0  0  0  0  0  0
    1.4272   -0.6728    0.0000 Cl  0  0  0  0  0  0  0  0  0  0  0  0
    0.0018    0.9768    0.0000 C   0  0  0  0  0  0  0  0  0  0  0  0
   -1.4291    0.9768    0.0000 Cl  0  0  0  0  0  0  0  0  0  0  0  0
    1.4272    0.9768    0.0000 Cl  0  0  0  0  0  0  0  0  0  0  0  0
  1  2  1  0  0  0  0
  1  3  2  0  0  0  0
  1  4  1  0  0  0  0
  2  5  2  0  0  0  0
  2  6  1  0  0  0  0
  3  7  1  0  0  0  0
  3  8  1  0  0  0  0
  5  9  1  0  0  0  0
  5 10  1  0  0  0  0
  7 11  1  0  0  0  0
  7  9  2  0  0  0  0
M  END