202
  Mrv0541 04071411322D          

 10 10  0  0  0  0            999 V2000
   -0.4074   -0.4278    0.0000 C   0  0  0  0  0  0  0  0  0  0  0  0
    0.4074   -0.4278    0.0000 C   0  0  0  0  0  0  0  0  0  0  0  0
   -0.8223    0.2853    0.0000 C   0  0  0  0  0  0  0  0  0  0  0  0
   -0.8223   -1.1447    0.0000 Cl  0  0  0  0  0  0  0  0  0  0  0  0
    0.8223    0.2853    0.0000 C   0  0  0  0  0  0  0  0  0  0  0  0
    0.8223   -1.1447    0.0000 Cl  0  0  0  0  0  0  0  0  0  0  0  0
   -0.4074    1.0039    0.0000 C   0  0  0  0  0  0  0  0  0  0  0  0
   -1.6540    0.2853    0.0000 Cl  0  0  0  0  0  0  0  0  0  0  0  0
    0.4074    1.0039    0.0000 C   0  0  0  0  0  0  0  0  0  0  0  0
    1.6559    0.2853    0.0000 Cl  0  0  0  0  0  0  0  0  0  0  0  0
  1  2  1  0  0  0  0
  1  3  2  0  0  0  0
  1  4  1  0  0  0  0
  2  5  2  0  0  0  0
  2  6  1  0  0  0  0
  3  7  1  0  0  0  0
  3  8  1  0  0  0  0
  5  9  1  0  0  0  0
  5 10  1  0  0  0  0
  7  9  2  0  0  0  0
M  END