203
  Mrv0541 04071411322D          

 14 15  0  0  0  0            999 V2000
    0.4182   -0.0081    0.0000 C   0  0  0  0  0  0  0  0  0  0  0  0
   -0.4117   -0.0081    0.0000 C   0  0  0  0  0  0  0  0  0  0  0  0
    0.8251   -0.7018    0.0000 C   0  0  0  0  0  0  0  0  0  0  0  0
    0.8251    0.7148    0.0000 C   0  0  0  0  0  0  0  0  0  0  0  0
   -0.8331   -0.7018    0.0000 C   0  0  0  0  0  0  0  0  0  0  0  0
   -0.8202    0.7148    0.0000 C   0  0  0  0  0  0  0  0  0  0  0  0
    1.6501   -0.7018    0.0000 C   0  0  0  0  0  0  0  0  0  0  0  0
    1.6501    0.7148    0.0000 C   0  0  0  0  0  0  0  0  0  0  0  0
   -1.6550   -0.7018    0.0000 C   0  0  0  0  0  0  0  0  0  0  0  0
   -1.6550    0.7148    0.0000 C   0  0  0  0  0  0  0  0  0  0  0  0
    2.0619   -0.0081    0.0000 C   0  0  0  0  0  0  0  0  0  0  0  0
   -2.0635   -0.0081    0.0000 C   0  0  0  0  0  0  0  0  0  0  0  0
    2.8902   -0.0081    0.0000 Br  0  0  0  0  0  0  0  0  0  0  0  0
   -2.8805   -0.0081    0.0000 Br  0  0  0  0  0  0  0  0  0  0  0  0
  1  2  1  0  0  0  0
  1  3  2  0  0  0  0
  1  4  1  0  0  0  0
  2  5  1  0  0  0  0
  2  6  2  0  0  0  0
  3  7  1  0  0  0  0
  4  8  2  0  0  0  0
  5  9  2  0  0  0  0
  6 10  1  0  0  0  0
  7 11  2  0  0  0  0
  9 12  1  0  0  0  0
 11 13  1  0  0  0  0
 12 14  1  0  0  0  0
  8 11  1  0  0  0  0
 10 12  2  0  0  0  0
M  END