207
  Mrv0541 04071411322D          

 17 18  0  0  0  0            999 V2000
    0.6383   -0.4019    0.0000 C   0  0  0  0  0  0  0  0  0  0  0  0
   -0.0763   -0.8336    0.0000 O   0  0  0  0  0  0  0  0  0  0  0  0
    1.3510   -0.8113    0.0000 C   0  0  0  0  0  0  0  0  0  0  0  0
    0.6383    0.4299    0.0000 C   0  0  0  0  0  0  0  0  0  0  0  0
   -0.7983   -0.4224    0.0000 C   0  0  0  0  0  0  0  0  0  0  0  0
    2.0730   -0.3889    0.0000 C   0  0  0  0  0  0  0  0  0  0  0  0
    1.3510   -1.6431    0.0000 Cl  0  0  0  0  0  0  0  0  0  0  0  0
    1.3510    0.8393    0.0000 C   0  0  0  0  0  0  0  0  0  0  0  0
   -0.7983    0.4001    0.0000 C   0  0  0  0  0  0  0  0  0  0  0  0
   -1.5092   -0.8411    0.0000 C   0  0  0  0  0  0  0  0  0  0  0  0
    2.0730    0.4410    0.0000 C   0  0  0  0  0  0  0  0  0  0  0  0
   -1.5334    0.8076    0.0000 C   0  0  0  0  0  0  0  0  0  0  0  0
   -0.0968    0.8393    0.0000 Cl  0  0  0  0  0  0  0  0  0  0  0  0
   -2.2349   -0.4336    0.0000 C   0  0  0  0  0  0  0  0  0  0  0  0
    2.7745    0.8727    0.0000 Cl  0  0  0  0  0  0  0  0  0  0  0  0
   -2.2349    0.3759    0.0000 C   0  0  0  0  0  0  0  0  0  0  0  0
   -2.9773    0.7778    0.0000 Cl  0  0  0  0  0  0  0  0  0  0  0  0
  1  2  1  0  0  0  0
  1  3  2  0  0  0  0
  1  4  1  0  0  0  0
  2  5  1  0  0  0  0
  3  6  1  0  0  0  0
  3  7  1  0  0  0  0
  4  8  2  0  0  0  0
  5  9  2  0  0  0  0
  5 10  1  0  0  0  0
  6 11  2  0  0  0  0
  9 12  1  0  0  0  0
  9 13  1  0  0  0  0
 10 14  2  0  0  0  0
 11 15  1  0  0  0  0
 12 16  2  0  0  0  0
 16 17  1  0  0  0  0
  8 11  1  0  0  0  0
 14 16  1  0  0  0  0
M  END