209
  Mrv0541 04071411322D          

 18 19  0  0  0  0            999 V2000
    3.5322   -2.1356    0.0000 C   0  0  0  0  0  0  0  0  0  0  0  0
    2.8176   -2.5673    0.0000 O   0  0  0  0  0  0  0  0  0  0  0  0
    4.2448   -2.5449    0.0000 C   0  0  0  0  0  0  0  0  0  0  0  0
    3.5322   -1.3037    0.0000 C   0  0  0  0  0  0  0  0  0  0  0  0
    2.0956   -2.1561    0.0000 C   0  0  0  0  0  0  0  0  0  0  0  0
    4.9669   -2.1225    0.0000 C   0  0  0  0  0  0  0  0  0  0  0  0
    4.2448   -3.3767    0.0000 Cl  0  0  0  0  0  0  0  0  0  0  0  0
    4.2448   -0.8944    0.0000 C   0  0  0  0  0  0  0  0  0  0  0  0
    2.0956   -1.3335    0.0000 C   0  0  0  0  0  0  0  0  0  0  0  0
    1.3847   -2.5747    0.0000 C   0  0  0  0  0  0  0  0  0  0  0  0
    4.9669   -1.2926    0.0000 C   0  0  0  0  0  0  0  0  0  0  0  0
    1.3605   -0.9260    0.0000 C   0  0  0  0  0  0  0  0  0  0  0  0
    0.6590   -2.1672    0.0000 C   0  0  0  0  0  0  0  0  0  0  0  0
    5.6684   -0.8609    0.0000 Cl  0  0  0  0  0  0  0  0  0  0  0  0
    0.6590   -1.3577    0.0000 C   0  0  0  0  0  0  0  0  0  0  0  0
   -0.0835   -0.9558    0.0000 Cl  0  0  0  0  0  0  0  0  0  0  0  0
    2.8123   -0.8870    0.0000 Cl  0  0  0  0  0  0  0  0  0  0  0  0
    1.3932   -3.3997    0.0000 Cl  0  0  0  0  0  0  0  0  0  0  0  0
  1  3  2  0  0  0  0
  1  4  1  0  0  0  0
  2  5  1  0  0  0  0
  3  6  1  0  0  0  0
  3  7  1  0  0  0  0
  4  8  2  0  0  0  0
  5  9  2  0  0  0  0
  5 10  1  0  0  0  0
  6 11  2  0  0  0  0
  9 12  1  0  0  0  0
 10 13  2  0  0  0  0
 11 14  1  0  0  0  0
 12 15  2  0  0  0  0
 15 16  1  0  0  0  0
  8 11  1  0  0  0  0
 13 15  1  0  0  0  0
  4 17  1  0  0  0  0
  1  2  1  0  0  0  0
 10 18  1  0  0  0  0
M  END