210
  Mrv0541 04071411322D          

 17 18  0  0  0  0            999 V2000
   -0.1665   -2.5788    0.0000 Cl  0  0  0  0  0  0  0  0  0  0  0  0
    0.6657   -2.1649    0.0000 C   0  0  0  0  0  0  0  0  0  0  0  0
    3.5389   -2.1333    0.0000 C   0  0  0  0  0  0  0  0  0  0  0  0
    2.8243   -2.5650    0.0000 O   0  0  0  0  0  0  0  0  0  0  0  0
    4.2516   -2.5427    0.0000 C   0  0  0  0  0  0  0  0  0  0  0  0
    3.5389   -1.3015    0.0000 C   0  0  0  0  0  0  0  0  0  0  0  0
    2.1023   -2.1538    0.0000 C   0  0  0  0  0  0  0  0  0  0  0  0
    4.9736   -2.1203    0.0000 C   0  0  0  0  0  0  0  0  0  0  0  0
    4.2516   -3.3745    0.0000 Cl  0  0  0  0  0  0  0  0  0  0  0  0
    4.2516   -0.8921    0.0000 C   0  0  0  0  0  0  0  0  0  0  0  0
    2.1023   -1.3313    0.0000 C   0  0  0  0  0  0  0  0  0  0  0  0
    1.3914   -2.5725    0.0000 C   0  0  0  0  0  0  0  0  0  0  0  0
    4.9736   -1.2904    0.0000 C   0  0  0  0  0  0  0  0  0  0  0  0
    1.3673   -0.9237    0.0000 C   0  0  0  0  0  0  0  0  0  0  0  0
    5.6752   -0.8586    0.0000 Cl  0  0  0  0  0  0  0  0  0  0  0  0
    0.6657   -1.3554    0.0000 C   0  0  0  0  0  0  0  0  0  0  0  0
   -0.0767   -0.9535    0.0000 Cl  0  0  0  0  0  0  0  0  0  0  0  0
  2  1  1  0  0  0  0
  3  4  1  0  0  0  0
  3  5  2  0  0  0  0
  3  6  1  0  0  0  0
  4  7  1  0  0  0  0
  5  8  1  0  0  0  0
  5  9  1  0  0  0  0
  6 10  2  0  0  0  0
  7 11  2  0  0  0  0
  7 12  1  0  0  0  0
  8 13  2  0  0  0  0
 11 14  1  0  0  0  0
 12  2  2  0  0  0  0
 13 15  1  0  0  0  0
 14 16  2  0  0  0  0
 16 17  1  0  0  0  0
 10 13  1  0  0  0  0
  2 16  1  0  0  0  0
M  END