213
  Mrv0541 04071411322D          

 18 19  0  0  0  0            999 V2000
    0.6524   -2.5983    0.0000 C   0  0  0  0  0  0  0  0  0  0  0  0
   -0.0175   -2.9902    0.0000 Cl  0  0  0  0  0  0  0  0  0  0  0  0
    3.5339   -2.5190    0.0000 C   0  0  0  0  0  0  0  0  0  0  0  0
    2.8189   -2.9509    0.0000 O   0  0  0  0  0  0  0  0  0  0  0  0
    4.2469   -2.9286    0.0000 C   0  0  0  0  0  0  0  0  0  0  0  0
    3.5339   -1.6868    0.0000 C   0  0  0  0  0  0  0  0  0  0  0  0
    2.0966   -2.5395    0.0000 C   0  0  0  0  0  0  0  0  0  0  0  0
    4.9693   -2.5060    0.0000 C   0  0  0  0  0  0  0  0  0  0  0  0
    4.2469   -1.2772    0.0000 C   0  0  0  0  0  0  0  0  0  0  0  0
    2.0966   -1.7166    0.0000 C   0  0  0  0  0  0  0  0  0  0  0  0
    1.3854   -2.9584    0.0000 C   0  0  0  0  0  0  0  0  0  0  0  0
    4.9693   -1.6757    0.0000 C   0  0  0  0  0  0  0  0  0  0  0  0
    1.3612   -1.3088    0.0000 C   0  0  0  0  0  0  0  0  0  0  0  0
    5.6712   -1.2437    0.0000 Cl  0  0  0  0  0  0  0  0  0  0  0  0
    0.6593   -1.7408    0.0000 C   0  0  0  0  0  0  0  0  0  0  0  0
   -0.0835   -1.3387    0.0000 Cl  0  0  0  0  0  0  0  0  0  0  0  0
    4.2397   -0.4550    0.0000 Cl  0  0  0  0  0  0  0  0  0  0  0  0
    4.2501   -3.7509    0.0000 Cl  0  0  0  0  0  0  0  0  0  0  0  0
  3  4  1  0  0  0  0
  3  5  2  0  0  0  0
  3  6  1  0  0  0  0
  4  7  1  0  0  0  0
  5  8  1  0  0  0  0
  6  9  2  0  0  0  0
  7 10  2  0  0  0  0
  7 11  1  0  0  0  0
  8 12  2  0  0  0  0
 10 13  1  0  0  0  0
 11  1  2  0  0  0  0
 12 14  1  0  0  0  0
 13 15  2  0  0  0  0
 15 16  1  0  0  0  0
  9 12  1  0  0  0  0
  1 15  1  0  0  0  0
  9 17  1  0  0  0  0
  1  2  1  0  0  0  0
  5 18  1  0  0  0  0
M  END