214
  Mrv0541 04071411322D          

 10  9  0  0  0  0            999 V2000
   -0.2065    0.3534    0.0000 C   0  0  0  0  0  0  0  0  0  0  0  0
    0.2065   -0.3590    0.0000 C   0  0  0  0  0  0  0  0  0  0  0  0
   -1.0156    0.3534    0.0000 C   0  0  0  0  0  0  0  0  0  0  0  0
    0.1971    1.0751    0.0000 Cl  0  0  0  0  0  0  0  0  0  0  0  0
    1.0361   -0.3590    0.0000 C   0  0  0  0  0  0  0  0  0  0  0  0
   -0.2046   -1.0696    0.0000 Cl  0  0  0  0  0  0  0  0  0  0  0  0
   -1.4657    1.0751    0.0000 Cl  0  0  0  0  0  0  0  0  0  0  0  0
   -1.4546   -0.3590    0.0000 Cl  0  0  0  0  0  0  0  0  0  0  0  0
    1.4583   -1.0696    0.0000 Cl  0  0  0  0  0  0  0  0  0  0  0  0
    1.4472    0.3627    0.0000 Cl  0  0  0  0  0  0  0  0  0  0  0  0
  1  2  1  0  0  0  0
  1  3  2  0  0  0  0
  1  4  1  0  0  0  0
  2  5  2  0  0  0  0
  2  6  1  0  0  0  0
  3  7  1  0  0  0  0
  3  8  1  0  0  0  0
  5  9  1  0  0  0  0
  5 10  1  0  0  0  0
M  END