215
  Mrv0541 04071411322D          

 18 20  0  0  0  0            999 V2000
    0.3811   -0.8764    0.0000 C   0  0  0  0  0  0  0  0  0  0  0  0
    0.3811   -0.0461    0.0000 C   0  0  0  0  0  0  0  0  0  0  0  0
   -0.3390   -0.4894    0.0000 C   0  0  0  0  0  0  0  0  0  0  0  0
    1.1653   -1.1311    0.0000 C   0  0  0  0  0  0  0  0  0  0  0  0
   -0.3390    0.3589    0.0000 C   0  0  0  0  0  0  0  0  0  0  0  0
    1.1653    0.1986    0.0000 C   0  0  0  0  0  0  0  0  0  0  0  0
   -0.7040    1.0791    0.0000 C   0  0  0  0  0  0  0  0  0  0  0  0
   -1.0529   -0.8764    0.0000 C   0  0  0  0  0  0  0  0  0  0  0  0
   -0.3390   -1.4079    0.0000 Cl  0  0  0  0  0  0  0  0  0  0  0  0
    1.6506   -0.4634    0.0000 C   0  0  0  0  0  0  0  0  0  0  0  0
   -1.0529   -0.0461    0.0000 C   0  0  0  0  0  0  0  0  0  0  0  0
    0.3309    0.9907    0.0000 Cl  0  0  0  0  0  0  0  0  0  0  0  0
    1.4360    1.0489    0.0000 Cl  0  0  0  0  0  0  0  0  0  0  0  0
   -1.5383    1.4661    0.0000 Cl  0  0  0  0  0  0  0  0  0  0  0  0
   -0.3168    1.9154    0.0000 Cl  0  0  0  0  0  0  0  0  0  0  0  0
   -1.5222   -1.6747    0.0000 Cl  0  0  0  0  0  0  0  0  0  0  0  0
    2.5411   -0.4634    0.0000 Cl  0  0  0  0  0  0  0  0  0  0  0  0
   -1.8512    0.4091    0.0000 Cl  0  0  0  0  0  0  0  0  0  0  0  0
  1  2  1  0  0  0  0
  1  3  1  0  0  0  0
  1  4  1  0  0  0  0
  2  5  1  0  0  0  0
  2  6  1  0  0  0  0
  3  7  1  0  0  0  0
  3  8  1  0  0  0  0
  3  9  1  0  0  0  0
  4 10  1  0  0  0  0
  5 11  1  0  0  0  0
  5 12  1  0  0  0  0
  6 13  1  0  0  0  0
  7 14  1  0  0  0  0
  7 15  1  0  0  0  0
  8 16  1  0  0  0  0
 10 17  1  0  0  0  0
 11 18  1  0  0  0  0
  5  7  1  0  0  0  0
  6 10  1  0  0  0  0
  8 11  2  0  0  0  0
M  END