216
  Mrv0541 04071411322D          

 18 19  0  0  0  0            999 V2000
    0.0018    0.5463    0.0000 C   0  0  0  0  0  0  0  0  0  0  0  0
    0.7124    0.1403    0.0000 C   0  0  0  0  0  0  0  0  0  0  0  0
   -0.7124    0.1403    0.0000 C   0  0  0  0  0  0  0  0  0  0  0  0
    0.0018    1.3713    0.0000 C   0  0  0  0  0  0  0  0  0  0  0  0
    0.7124   -0.6847    0.0000 C   0  0  0  0  0  0  0  0  0  0  0  0
    1.4211    0.5463    0.0000 C   0  0  0  0  0  0  0  0  0  0  0  0
   -1.4248    0.5463    0.0000 C   0  0  0  0  0  0  0  0  0  0  0  0
   -0.7124   -0.6847    0.0000 C   0  0  0  0  0  0  0  0  0  0  0  0
   -0.7124    1.7828    0.0000 Cl  0  0  0  0  0  0  0  0  0  0  0  0
    0.7124    1.7828    0.0000 Cl  0  0  0  0  0  0  0  0  0  0  0  0
    1.4211   -1.0981    0.0000 C   0  0  0  0  0  0  0  0  0  0  0  0
    2.1427    0.1403    0.0000 C   0  0  0  0  0  0  0  0  0  0  0  0
   -2.1391    0.1403    0.0000 C   0  0  0  0  0  0  0  0  0  0  0  0
   -1.4248   -1.0981    0.0000 C   0  0  0  0  0  0  0  0  0  0  0  0
    2.1427   -0.6847    0.0000 C   0  0  0  0  0  0  0  0  0  0  0  0
   -2.1391   -0.6847    0.0000 C   0  0  0  0  0  0  0  0  0  0  0  0
    2.8533   -1.0981    0.0000 Cl  0  0  0  0  0  0  0  0  0  0  0  0
   -2.8533   -1.0981    0.0000 Cl  0  0  0  0  0  0  0  0  0  0  0  0
  1  2  1  0  0  0  0
  1  3  1  0  0  0  0
  1  4  2  0  0  0  0
  2  5  2  0  0  0  0
  2  6  1  0  0  0  0
  3  7  2  0  0  0  0
  3  8  1  0  0  0  0
  4  9  1  0  0  0  0
  4 10  1  0  0  0  0
  5 11  1  0  0  0  0
  6 12  2  0  0  0  0
  7 13  1  0  0  0  0
  8 14  2  0  0  0  0
 11 15  2  0  0  0  0
 13 16  2  0  0  0  0
 15 17  1  0  0  0  0
 16 18  1  0  0  0  0
 12 15  1  0  0  0  0
 14 16  1  0  0  0  0
M  END