218
  Mrv0541 04071411322D          

  3  2  0  0  0  0            999 V2000
    0.1835   -0.2595    0.0000 C   0  0  0  0  0  0  0  0  0  0  0  0
   -0.6412   -0.2595    0.0000 Cl  0  0  0  0  0  0  0  0  0  0  0  0
    0.4577    0.5189    0.0000 Cl  0  0  0  0  0  0  0  0  0  0  0  0
  1  2  1  0  0  0  0
  1  3  1  0  0  0  0
M  END