219
  Mrv0541 04071411322D          

  4  3  0  0  0  0            999 V2000
    0.0167   -0.0241    0.0000 C   0  0  0  0  0  0  0  0  0  0  0  0
   -0.8074   -0.0241    0.0000 Cl  0  0  0  0  0  0  0  0  0  0  0  0
    0.2970    0.7518    0.0000 Cl  0  0  0  0  0  0  0  0  0  0  0  0
    0.4937   -0.7016    0.0000 Cl  0  0  0  0  0  0  0  0  0  0  0  0
  1  2  1  0  0  0  0
  1  3  1  0  0  0  0
  1  4  1  0  0  0  0
M  END