22
  Mrv0541 04071411322D          

 12 13  0  0  0  0            999 V2000
   -0.2371    0.3433    0.0000 C   0  0  0  0  0  0  0  0  0  0  0  0
   -0.2371   -0.4804    0.0000 C   0  0  0  0  0  0  0  0  0  0  0  0
    0.4692    0.7545    0.0000 C   0  0  0  0  0  0  0  0  0  0  0  0
   -0.9446    0.7545    0.0000 C   0  0  0  0  0  0  0  0  0  0  0  0
    0.4692   -0.8928    0.0000 C   0  0  0  0  0  0  0  0  0  0  0  0
   -0.9446   -0.8928    0.0000 C   0  0  0  0  0  0  0  0  0  0  0  0
    1.1904    0.3606    0.0000 C   0  0  0  0  0  0  0  0  0  0  0  0
    0.4692    1.6040    0.0000 C   0  0  0  0  0  0  0  0  0  0  0  0
   -1.6695    0.3606    0.0000 C   0  0  0  0  0  0  0  0  0  0  0  0
    1.1904   -0.4804    0.0000 C   0  0  0  0  0  0  0  0  0  0  0  0
   -1.6695   -0.4804    0.0000 C   0  0  0  0  0  0  0  0  0  0  0  0
    1.9140   -0.9520    0.0000 C   0  0  0  0  0  0  0  0  0  0  0  0
  1  2  2  0  0  0  0
  1  3  1  0  0  0  0
  1  4  1  0  0  0  0
  2  5  1  0  0  0  0
  2  6  1  0  0  0  0
  3  7  2  0  0  0  0
  3  8  1  0  0  0  0
  4  9  2  0  0  0  0
  5 10  2  0  0  0  0
  6 11  2  0  0  0  0
 10 12  1  0  0  0  0
  7 10  1  0  0  0  0
  9 11  1  0  0  0  0
M  END