221
  Mrv0541 04071411322D          

  4  3  0  0  0  0            999 V2000
    0.0058   -0.0028    0.0000 C   0  0  0  0  0  0  0  0  0  0  0  0
    0.0058    0.8281    0.0000 Br  0  0  0  0  0  0  0  0  0  0  0  0
   -0.7159   -0.4026    0.0000 Br  0  0  0  0  0  0  0  0  0  0  0  0
    0.7044   -0.4227    0.0000 Br  0  0  0  0  0  0  0  0  0  0  0  0
  1  2  1  0  0  0  0
  1  3  1  0  0  0  0
  1  4  1  0  0  0  0
M  END