222
  Mrv0541 04071411322D          

  5  4  0  0  0  0            999 V2000
   -0.0018   -0.0038    0.0000 C   0  0  0  0  0  0  0  0  0  0  0  0
    0.8231    0.0056    0.0000 C   0  0  0  0  0  0  0  0  0  0  0  0
   -0.0018    0.8307    0.0000 Cl  0  0  0  0  0  0  0  0  0  0  0  0
   -0.8288   -0.0038    0.0000 Cl  0  0  0  0  0  0  0  0  0  0  0  0
    0.0113   -0.8288    0.0000 Cl  0  0  0  0  0  0  0  0  0  0  0  0
  1  2  1  0  0  0  0
  1  3  1  0  0  0  0
  1  4  1  0  0  0  0
  1  5  1  0  0  0  0
M  END