225
  Mrv0541 04071411322D          

  8  7  0  0  0  0            999 V2000
   -0.4116   -0.0037    0.0000 C   0  0  0  0  0  0  0  0  0  0  0  0
    0.4134   -0.0037    0.0000 C   0  0  0  0  0  0  0  0  0  0  0  0
   -0.4116    0.8231    0.0000 Cl  0  0  0  0  0  0  0  0  0  0  0  0
   -1.2384   -0.0037    0.0000 Cl  0  0  0  0  0  0  0  0  0  0  0  0
   -0.4116   -0.8176    0.0000 Cl  0  0  0  0  0  0  0  0  0  0  0  0
    0.4134   -0.8176    0.0000 Cl  0  0  0  0  0  0  0  0  0  0  0  0
    1.2347   -0.0037    0.0000 Cl  0  0  0  0  0  0  0  0  0  0  0  0
    0.4134    0.8231    0.0000 Cl  0  0  0  0  0  0  0  0  0  0  0  0
  1  2  1  0  0  0  0
  1  3  1  0  0  0  0
  1  4  1  0  0  0  0
  1  5  1  0  0  0  0
  2  6  1  0  0  0  0
  2  7  1  0  0  0  0
  2  8  1  0  0  0  0
M  END