226
  Mrv0541 04071411322D          

  3  2  0  0  0  0            999 V2000
    0.0000   -0.2727    0.0000 C   0  0  0  0  0  0  0  0  0  0  0  0
    0.7159    0.1373    0.0000 Cl  0  0  0  0  0  0  0  0  0  0  0  0
   -0.7159    0.1373    0.0000 Br  0  0  0  0  0  0  0  0  0  0  0  0
  1  2  1  0  0  0  0
  1  3  1  0  0  0  0
M  END