227
  Mrv0541 04071411322D          

  4  3  0  0  0  0            999 V2000
   -0.3303   -0.2483    0.0000 C   0  0  0  0  0  0  0  0  0  0  0  0
    0.3285    0.2483    0.0000 C   0  0  0  0  0  0  0  0  0  0  0  0
   -1.0994    0.0709    0.0000 Br  0  0  0  0  0  0  0  0  0  0  0  0
    1.0994   -0.0709    0.0000 Br  0  0  0  0  0  0  0  0  0  0  0  0
  1  2  1  0  0  0  0
  1  3  1  0  0  0  0
  2  4  1  0  0  0  0
M  END