229
  Mrv0541 04071411322D          

 12 11  0  0  0  0            999 V2000
    0.9568   -0.0816    0.0000 C   0  0  0  0  0  0  0  0  0  0  0  0
    1.7114    0.2521    0.0000 C   0  0  0  0  0  0  0  0  0  0  0  0
    0.2906    0.4050    0.0000 C   0  0  0  0  0  0  0  0  0  0  0  0
    2.3776   -0.2345    0.0000 C   0  0  0  0  0  0  0  0  0  0  0  0
   -0.4639    0.0713    0.0000 C   0  0  0  0  0  0  0  0  0  0  0  0
    3.1321    0.0991    0.0000 C   0  0  0  0  0  0  0  0  0  0  0  0
   -1.1301    0.5579    0.0000 C   0  0  0  0  0  0  0  0  0  0  0  0
    3.7983   -0.3874    0.0000 C   0  0  0  0  0  0  0  0  0  0  0  0
   -1.8846    0.2242    0.0000 C   0  0  0  0  0  0  0  0  0  0  0  0
    4.5528   -0.0538    0.0000 Br  0  0  0  0  0  0  0  0  0  0  0  0
   -2.5509    0.7108    0.0000 C   0  0  0  0  0  0  0  0  0  0  0  0
   -3.3054    0.3771    0.0000 Br  0  0  0  0  0  0  0  0  0  0  0  0
  1  2  1  0  0  0  0
  1  3  1  0  0  0  0
  2  4  1  0  0  0  0
  3  5  1  0  0  0  0
  4  6  1  0  0  0  0
  5  7  1  0  0  0  0
  6  8  1  0  0  0  0
  7  9  1  0  0  0  0
  8 10  1  0  0  0  0
  9 11  1  0  0  0  0
 11 12  1  0  0  0  0
M  END