230
  Mrv0541 04071411322D          

  6  5  0  0  0  0            999 V2000
   -0.3567    0.2042    0.0000 C   0  0  0  0  0  0  0  0  0  0  0  0
    0.3601   -0.2042    0.0000 C   0  0  0  0  0  0  0  0  0  0  0  0
   -1.0734   -0.2078    0.0000 Br  0  0  0  0  0  0  0  0  0  0  0  0
   -0.3601    1.0353    0.0000 Br  0  0  0  0  0  0  0  0  0  0  0  0
    1.0734    0.2042    0.0000 Br  0  0  0  0  0  0  0  0  0  0  0  0
    0.3601   -1.0319    0.0000 Br  0  0  0  0  0  0  0  0  0  0  0  0
  1  2  1  0  0  0  0
  1  3  1  0  0  0  0
  1  4  1  0  0  0  0
  2  5  1  0  0  0  0
  2  6  1  0  0  0  0
M  END