231
  Mrv0541 04071411322D          

  9  8  0  0  0  0            999 V2000
    0.6380    1.3241    0.0000 Br  0  0  0  0  0  0  0  0  0  0  0  0
    0.6346    0.4962    0.0000 C   0  0  0  0  0  0  0  0  0  0  0  0
    1.3441    0.0837    0.0000 C   0  0  0  0  0  0  0  0  0  0  0  0
    2.0619    0.4962    0.0000 C   0  0  0  0  0  0  0  0  0  0  0  0
    2.7714    0.0837    0.0000 Br  0  0  0  0  0  0  0  0  0  0  0  0
    0.8121   -0.5468    0.0000 C   0  0  0  0  0  0  0  0  0  0  0  0
    0.0000   -0.4014    0.0000 Br  0  0  0  0  0  0  0  0  0  0  0  0
    1.8729   -0.5495    0.0000 C   0  0  0  0  0  0  0  0  0  0  0  0
    1.5890   -1.3241    0.0000 Br  0  0  0  0  0  0  0  0  0  0  0  0
  1  2  1  0  0  0  0
  2  3  1  0  0  0  0
  3  4  1  0  0  0  0
  4  5  1  0  0  0  0
  3  6  1  0  0  0  0
  6  7  1  0  0  0  0
  3  8  1  0  0  0  0
  8  9  1  0  0  0  0
M  END