232
  Mrv0541 04071411322D          

  5  4  0  0  0  0            999 V2000
   -0.2872   -0.0034    0.0000 C   0  0  0  0  0  0  0  0  0  0  0  0
    0.4291   -0.4083    0.0000 C   0  0  0  0  0  0  0  0  0  0  0  0
   -1.0001   -0.4187    0.0000 C   0  0  0  0  0  0  0  0  0  0  0  0
   -0.2872    0.8235    0.0000 Cl  0  0  0  0  0  0  0  0  0  0  0  0
    1.1454    0.0034    0.0000 Cl  0  0  0  0  0  0  0  0  0  0  0  0
  1  2  1  0  0  0  0
  1  3  1  0  0  0  0
  1  4  1  0  0  0  0
  2  5  1  0  0  0  0
M  END