233
  Mrv0541 04071411322D          

  6  5  0  0  0  0            999 V2000
    0.0018   -0.0018    0.0000 C   0  0  0  0  0  0  0  0  0  0  0  0
    0.7149    0.4130    0.0000 C   0  0  0  0  0  0  0  0  0  0  0  0
   -0.7149    0.4130    0.0000 C   0  0  0  0  0  0  0  0  0  0  0  0
    0.0018   -0.8224    0.0000 Cl  0  0  0  0  0  0  0  0  0  0  0  0
    1.4262   -0.0018    0.0000 Cl  0  0  0  0  0  0  0  0  0  0  0  0
   -1.4299   -0.0018    0.0000 Cl  0  0  0  0  0  0  0  0  0  0  0  0
  1  2  1  0  0  0  0
  1  3  1  0  0  0  0
  1  4  1  0  0  0  0
  2  5  1  0  0  0  0
  3  6  1  0  0  0  0
M  END