234
  Mrv0541 04071411322D          

  7  6  0  0  0  0            999 V2000
   -0.0026    0.2026    0.0000 C   0  0  0  0  0  0  0  0  0  0  0  0
   -0.8215    0.2026    0.0000 C   0  0  0  0  0  0  0  0  0  0  0  0
    0.8233    0.2026    0.0000 C   0  0  0  0  0  0  0  0  0  0  0  0
   -0.0026    1.0308    0.0000 Cl  0  0  0  0  0  0  0  0  0  0  0  0
   -0.0026   -0.6216    0.0000 Cl  0  0  0  0  0  0  0  0  0  0  0  0
   -1.2317   -0.5039    0.0000 Cl  0  0  0  0  0  0  0  0  0  0  0  0
    1.2369   -0.5125    0.0000 Cl  0  0  0  0  0  0  0  0  0  0  0  0
  1  2  1  0  0  0  0
  1  3  1  0  0  0  0
  1  4  1  0  0  0  0
  1  5  1  0  0  0  0
  2  6  1  0  0  0  0
  3  7  1  0  0  0  0
M  END