235
  Mrv0541 04071411322D          

  8  7  0  0  0  0            999 V2000
    0.4181   -0.0018    0.0000 C   0  0  0  0  0  0  0  0  0  0  0  0
   -0.4181   -0.0018    0.0000 C   0  0  0  0  0  0  0  0  0  0  0  0
    1.2374   -0.0018    0.0000 F   0  0  0  0  0  0  0  0  0  0  0  0
    0.4107    0.8231    0.0000 F   0  0  0  0  0  0  0  0  0  0  0  0
    0.4033   -0.8194    0.0000 Cl  0  0  0  0  0  0  0  0  0  0  0  0
   -0.4125   -0.8249    0.0000 F   0  0  0  0  0  0  0  0  0  0  0  0
   -0.4070    0.8231    0.0000 Cl  0  0  0  0  0  0  0  0  0  0  0  0
   -1.2337    0.0018    0.0000 Cl  0  0  0  0  0  0  0  0  0  0  0  0
  1  2  1  0  0  0  0
  1  3  1  0  0  0  0
  1  4  1  0  0  0  0
  1  5  1  0  0  0  0
  2  6  1  0  0  0  0
  2  7  1  0  0  0  0
  2  8  1  0  0  0  0
M  END