236
  Mrv0541 04071411322D          

  8  7  0  0  0  0            999 V2000
   -0.4097    0.0018    0.0000 C   0  0  0  0  0  0  0  0  0  0  0  0
    0.4153    0.0018    0.0000 C   0  0  0  0  0  0  0  0  0  0  0  0
   -0.4097   -0.8287    0.0000 F   0  0  0  0  0  0  0  0  0  0  0  0
   -0.4209    0.8250    0.0000 Cl  0  0  0  0  0  0  0  0  0  0  0  0
   -1.2402    0.0018    0.0000 Cl  0  0  0  0  0  0  0  0  0  0  0  0
    0.4153    0.8325    0.0000 F   0  0  0  0  0  0  0  0  0  0  0  0
    0.4153   -0.8343    0.0000 Cl  0  0  0  0  0  0  0  0  0  0  0  0
    1.2365   -0.0018    0.0000 Cl  0  0  0  0  0  0  0  0  0  0  0  0
  1  2  1  0  0  0  0
  1  3  1  0  0  0  0
  1  4  1  0  0  0  0
  1  5  1  0  0  0  0
  2  6  1  0  0  0  0
  2  7  1  0  0  0  0
  2  8  1  0  0  0  0
M  END