239
  Mrv0541 04071411322D          

  6  5  0  0  0  0            999 V2000
   -0.4096    0.0000    0.0000 C   0  0  0  0  0  0  0  0  0  0  0  0
    0.4096    0.0000    0.0000 C   0  0  0  0  0  0  0  0  0  0  0  0
   -0.8267    0.7186    0.0000 Cl  0  0  0  0  0  0  0  0  0  0  0  0
   -0.8267   -0.7186    0.0000 Cl  0  0  0  0  0  0  0  0  0  0  0  0
    0.8267   -0.7186    0.0000 Cl  0  0  0  0  0  0  0  0  0  0  0  0
    0.8267    0.7186    0.0000 Cl  0  0  0  0  0  0  0  0  0  0  0  0
  1  2  2  0  0  0  0
  1  3  1  0  0  0  0
  1  4  1  0  0  0  0
  2  5  1  0  0  0  0
  2  6  1  0  0  0  0
M  END