24
  Mrv0541 04071411322D          

  9  9  0  0  0  0            999 V2000
   -0.7179   -0.4073    0.0000 C   0  0  0  0  0  0  0  0  0  0  0  0
   -0.0069   -0.8319    0.0000 C   0  0  0  0  0  0  0  0  0  0  0  0
   -0.7179    0.4176    0.0000 C   0  0  0  0  0  0  0  0  0  0  0  0
   -1.4428   -0.8077    0.0000 C   0  0  0  0  0  0  0  0  0  0  0  0
    0.7076   -0.4211    0.0000 C   0  0  0  0  0  0  0  0  0  0  0  0
    0.0172    0.8319    0.0000 C   0  0  0  0  0  0  0  0  0  0  0  0
    0.7179    0.4038    0.0000 C   0  0  0  0  0  0  0  0  0  0  0  0
    1.4221   -0.8422    0.0000 C   0  0  0  0  0  0  0  0  0  0  0  0
    0.0207    1.6569    0.0000 C   0  0  0  0  0  0  0  0  0  0  0  0
  1  2  2  0  0  0  0
  1  3  1  0  0  0  0
  1  4  1  0  0  0  0
  2  5  1  0  0  0  0
  3  6  2  0  0  0  0
  5  7  2  0  0  0  0
  5  8  1  0  0  0  0
  6  9  1  0  0  0  0
  6  7  1  0  0  0  0
M  END