240
  Mrv0541 04071411322D          

  4  3  0  0  0  0            999 V2000
    0.3255    0.2460    0.0000 C   0  0  0  0  0  0  0  0  0  0  0  0
   -0.3273   -0.2460    0.0000 C   0  0  0  0  0  0  0  0  0  0  0  0
    1.0893   -0.0703    0.0000 C   0  0  0  0  0  0  0  0  0  0  0  0
   -1.0893    0.0703    0.0000 Cl  0  0  0  0  0  0  0  0  0  0  0  0
  1  2  1  0  0  0  0
  1  3  2  0  0  0  0
  2  4  1  0  0  0  0
M  END