244
  Mrv0541 04071411322D          

 10 10  0  0  0  0            999 V2000
    2.1424    0.8268    0.0000 C   0  0  0  0  0  0  0  0  0  0  0  0
    1.4246    1.2393    0.0000 C   0  0  0  0  0  0  0  0  0  0  0  0
    0.7151    0.8268    0.0000 C   0  0  0  0  0  0  0  0  0  0  0  0
    0.0000    1.2382    0.0000 Cl  0  0  0  0  0  0  0  0  0  0  0  0
    0.7151    0.0018    0.0000 C   0  0  0  0  0  0  0  0  0  0  0  0
    1.4246   -0.4107    0.0000 C   0  0  0  0  0  0  0  0  0  0  0  0
    2.1424    0.0018    0.0000 C   0  0  0  0  0  0  0  0  0  0  0  0
    2.8564   -0.4114    0.0000 C   0  0  0  0  0  0  0  0  0  0  0  0
    2.8560   -1.2393    0.0000 C   0  0  0  0  0  0  0  0  0  0  0  0
    3.5678   -0.0021    0.0000 C   0  0  0  0  0  0  0  0  0  0  0  0
  1  2  1  0  0  0  0
  2  3  2  0  0  0  0
  3  4  1  0  0  0  0
  3  5  1  0  0  0  0
  5  6  2  0  0  0  0
  6  7  1  0  0  0  0
  7  1  2  0  0  0  0
  7  8  1  0  0  0  0
  8  9  1  0  0  0  0
  8 10  2  0  0  0  0
M  END