245
  Mrv0541 04071411322D          

 10 10  0  0  0  0            999 V2000
   -0.0833   -0.0074    0.0000 C   0  0  0  0  0  0  0  0  0  0  0  0
    0.3366   -0.7048    0.0000 C   0  0  0  0  0  0  0  0  0  0  0  0
    0.3256    0.7159    0.0000 C   0  0  0  0  0  0  0  0  0  0  0  0
   -0.9082   -0.0074    0.0000 C   0  0  0  0  0  0  0  0  0  0  0  0
    1.1616   -0.7048    0.0000 C   0  0  0  0  0  0  0  0  0  0  0  0
    1.1506    0.7159    0.0000 C   0  0  0  0  0  0  0  0  0  0  0  0
   -0.9082    0.8232    0.0000 F   0  0  0  0  0  0  0  0  0  0  0  0
   -1.7258   -0.0074    0.0000 F   0  0  0  0  0  0  0  0  0  0  0  0
   -0.9082   -0.8120    0.0000 F   0  0  0  0  0  0  0  0  0  0  0  0
    1.5594   -0.0074    0.0000 C   0  0  0  0  0  0  0  0  0  0  0  0
  1  2  2  0  0  0  0
  1  3  1  0  0  0  0
  1  4  1  0  0  0  0
  2  5  1  0  0  0  0
  3  6  2  0  0  0  0
  4  7  1  0  0  0  0
  4  8  1  0  0  0  0
  4  9  1  0  0  0  0
  5 10  2  0  0  0  0
  6 10  1  0  0  0  0
M  END