248
  Mrv0541 04071411322D          

 12 12  0  0  0  0            999 V2000
   -0.7241    0.4105    0.0000 C   0  0  0  0  0  0  0  0  0  0  0  0
    0.0046    0.8255    0.0000 C   0  0  0  0  0  0  0  0  0  0  0  0
   -0.7241   -0.4105    0.0000 C   0  0  0  0  0  0  0  0  0  0  0  0
   -1.4344    0.8255    0.0000 Cl  0  0  0  0  0  0  0  0  0  0  0  0
    0.7148    0.4105    0.0000 C   0  0  0  0  0  0  0  0  0  0  0  0
    0.0046    1.6650    0.0000 Cl  0  0  0  0  0  0  0  0  0  0  0  0
    0.0046   -0.8303    0.0000 C   0  0  0  0  0  0  0  0  0  0  0  0
   -1.4344   -0.8303    0.0000 Cl  0  0  0  0  0  0  0  0  0  0  0  0
    0.7148   -0.4105    0.0000 C   0  0  0  0  0  0  0  0  0  0  0  0
    1.4344    0.8255    0.0000 Cl  0  0  0  0  0  0  0  0  0  0  0  0
    0.0046   -1.6604    0.0000 Cl  0  0  0  0  0  0  0  0  0  0  0  0
    1.4344   -0.8303    0.0000 Cl  0  0  0  0  0  0  0  0  0  0  0  0
  1  2  1  0  0  0  0
  1  3  1  0  0  0  0
  1  4  1  0  0  0  0
  2  5  1  0  0  0  0
  2  6  1  0  0  0  0
  3  7  1  0  0  0  0
  3  8  1  0  0  0  0
  5  9  1  0  0  0  0
  5 10  1  0  0  0  0
  7 11  1  0  0  0  0
  9 12  1  0  0  0  0
  7  9  1  0  0  0  0
M  END