251
  Mrv0541 04071411322D          

 21 22  0  0  0  0            999 V2000
   -0.0970   -0.3429    0.0000 C   0  0  0  0  0  0  0  0  0  0  0  0
    0.7204   -0.3429    0.0000 C   0  0  0  0  0  0  0  0  0  0  0  0
   -0.9352   -0.3429    0.0000 C   0  0  0  0  0  0  0  0  0  0  0  0
   -0.0970    0.4952    0.0000 C   0  0  0  0  0  0  0  0  0  0  0  0
   -0.0970   -1.1637    0.0000 O   0  0  0  0  0  0  0  0  0  0  0  0
    1.1465    0.3948    0.0000 C   0  0  0  0  0  0  0  0  0  0  0  0
    1.1465   -1.0494    0.0000 C   0  0  0  0  0  0  0  0  0  0  0  0
   -1.3543   -1.0494    0.0000 C   0  0  0  0  0  0  0  0  0  0  0  0
   -1.3543    0.3948    0.0000 C   0  0  0  0  0  0  0  0  0  0  0  0
    0.6199    0.9074    0.0000 O   0  0  0  0  0  0  0  0  0  0  0  0
   -0.8209    0.9074    0.0000 O   0  0  0  0  0  0  0  0  0  0  0  0
    1.9639    0.3948    0.0000 C   0  0  0  0  0  0  0  0  0  0  0  0
    1.9639   -1.0494    0.0000 C   0  0  0  0  0  0  0  0  0  0  0  0
   -2.1682   -1.0494    0.0000 C   0  0  0  0  0  0  0  0  0  0  0  0
   -2.1682    0.3948    0.0000 C   0  0  0  0  0  0  0  0  0  0  0  0
    0.6199    1.7353    0.0000 C   0  0  0  0  0  0  0  0  0  0  0  0
    2.3795   -0.3429    0.0000 C   0  0  0  0  0  0  0  0  0  0  0  0
   -2.5942   -0.3429    0.0000 C   0  0  0  0  0  0  0  0  0  0  0  0
    1.3369    2.1510    0.0000 C   0  0  0  0  0  0  0  0  0  0  0  0
    3.2038   -0.3429    0.0000 Cl  0  0  0  0  0  0  0  0  0  0  0  0
   -3.4117   -0.3429    0.0000 Cl  0  0  0  0  0  0  0  0  0  0  0  0
  1  2  1  0  0  0  0
  1  3  1  0  0  0  0
  1  4  1  0  0  0  0
  1  5  1  0  0  0  0
  2  6  2  0  0  0  0
  2  7  1  0  0  0  0
  3  8  2  0  0  0  0
  3  9  1  0  0  0  0
  4 10  1  0  0  0  0
  4 11  2  0  0  0  0
  6 12  1  0  0  0  0
  7 13  2  0  0  0  0
  8 14  1  0  0  0  0
  9 15  2  0  0  0  0
 10 16  1  0  0  0  0
 12 17  2  0  0  0  0
 14 18  2  0  0  0  0
 16 19  1  0  0  0  0
 17 20  1  0  0  0  0
 18 21  1  0  0  0  0
 13 17  1  0  0  0  0
 15 18  1  0  0  0  0
M  END