252
  Mrv0541 04071411322D          

 20 21  0  0  0  0            999 V2000
    0.0034    0.4928    0.0000 C   0  0  0  0  0  0  0  0  0  0  0  0
    0.7203    0.0793    0.0000 C   0  0  0  0  0  0  0  0  0  0  0  0
   -0.7065    0.0724    0.0000 C   0  0  0  0  0  0  0  0  0  0  0  0
    0.0034    1.3164    0.0000 C   0  0  0  0  0  0  0  0  0  0  0  0
   -0.0793   -0.2895    0.0000 O   0  0  0  0  0  0  0  0  0  0  0  0
    1.4268    0.5066    0.0000 C   0  0  0  0  0  0  0  0  0  0  0  0
    0.7203   -0.7410    0.0000 C   0  0  0  0  0  0  0  0  0  0  0  0
   -0.7065   -0.7547    0.0000 C   0  0  0  0  0  0  0  0  0  0  0  0
   -1.4232    0.4790    0.0000 C   0  0  0  0  0  0  0  0  0  0  0  0
    0.8202    1.3164    0.0000 Cl  0  0  0  0  0  0  0  0  0  0  0  0
   -0.8305    1.3164    0.0000 Cl  0  0  0  0  0  0  0  0  0  0  0  0
   -0.0069    2.1435    0.0000 Cl  0  0  0  0  0  0  0  0  0  0  0  0
    2.1435    0.0966    0.0000 C   0  0  0  0  0  0  0  0  0  0  0  0
    1.4405   -1.1441    0.0000 C   0  0  0  0  0  0  0  0  0  0  0  0
   -1.4163   -1.1683    0.0000 C   0  0  0  0  0  0  0  0  0  0  0  0
   -2.1332    0.0690    0.0000 C   0  0  0  0  0  0  0  0  0  0  0  0
    2.1504   -0.7306    0.0000 C   0  0  0  0  0  0  0  0  0  0  0  0
   -2.1332   -0.7547    0.0000 C   0  0  0  0  0  0  0  0  0  0  0  0
    2.8673   -1.1407    0.0000 Cl  0  0  0  0  0  0  0  0  0  0  0  0
   -2.8535   -1.1683    0.0000 Cl  0  0  0  0  0  0  0  0  0  0  0  0
  1  2  1  0  0  0  0
  1  3  1  0  0  0  0
  1  4  1  0  0  0  0
  1  5  1  0  0  0  0
  2  6  1  0  0  0  0
  2  7  2  0  0  0  0
  3  8  1  0  0  0  0
  3  9  2  0  0  0  0
  4 10  1  0  0  0  0
  4 11  1  0  0  0  0
  4 12  1  0  0  0  0
  6 13  2  0  0  0  0
  7 14  1  0  0  0  0
  8 15  2  0  0  0  0
  9 16  1  0  0  0  0
 13 17  1  0  0  0  0
 15 18  1  0  0  0  0
 17 19  1  0  0  0  0
 18 20  1  0  0  0  0
 14 17  2  0  0  0  0
 16 18  2  0  0  0  0
M  END