253
  Mrv0541 04071411322D          

 18 19  0  0  0  0            999 V2000
    0.0499    0.4640    0.0000 C   0  0  0  0  0  0  0  0  0  0  0  0
    0.7536    0.8687    0.0000 C   0  0  0  0  0  0  0  0  0  0  0  0
    0.0499   -0.3605    0.0000 C   0  0  0  0  0  0  0  0  0  0  0  0
   -0.6712    0.8802    0.0000 C   0  0  0  0  0  0  0  0  0  0  0  0
    0.7536    1.6933    0.0000 C   0  0  0  0  0  0  0  0  0  0  0  0
    1.4708    0.4526    0.0000 C   0  0  0  0  0  0  0  0  0  0  0  0
   -0.6635   -0.7805    0.0000 C   0  0  0  0  0  0  0  0  0  0  0  0
    0.7325   -0.7709    0.0000 O   0  0  0  0  0  0  0  0  0  0  0  0
   -0.6712    1.6971    0.0000 C   0  0  0  0  0  0  0  0  0  0  0  0
    0.0499    2.0979    0.0000 C   0  0  0  0  0  0  0  0  0  0  0  0
    1.4708   -0.3644    0.0000 O   0  0  0  0  0  0  0  0  0  0  0  0
    2.1842    0.8687    0.0000 O   0  0  0  0  0  0  0  0  0  0  0  0
   -0.6635   -1.4670    0.0000 C   0  0  0  0  0  0  0  0  0  0  0  0
   -1.3941   -0.3778    0.0000 C   0  0  0  0  0  0  0  0  0  0  0  0
    2.1784   -0.7709    0.0000 C   0  0  0  0  0  0  0  0  0  0  0  0
   -1.3941   -1.8716    0.0000 C   0  0  0  0  0  0  0  0  0  0  0  0
   -2.1094   -0.7997    0.0000 C   0  0  0  0  0  0  0  0  0  0  0  0
   -2.1266   -1.4554    0.0000 C   0  0  0  0  0  0  0  0  0  0  0  0
  1  2  1  0  0  0  0
  1  3  1  0  0  0  0
  1  4  2  0  0  0  0
  2  5  2  0  0  0  0
  2  6  1  0  0  0  0
  3  7  1  0  0  0  0
  3  8  2  0  0  0  0
  4  9  1  0  0  0  0
  5 10  1  0  0  0  0
  6 11  1  0  0  0  0
  6 12  2  0  0  0  0
  7 13  1  0  0  0  0
  7 14  2  0  0  0  0
 11 15  1  0  0  0  0
 13 16  2  0  0  0  0
 14 17  1  0  0  0  0
 16 18  1  0  0  0  0
  9 10  2  0  0  0  0
 17 18  2  0  0  0  0
M  END