256
  Mrv0541 04071411322D          

 12 13  0  0  0  0            999 V2000
   -0.1837    0.0482    0.0000 C   0  0  0  0  0  0  0  0  0  0  0  0
   -0.1837   -0.6095    0.0000 C   0  0  0  0  0  0  0  0  0  0  0  0
    0.5283    0.4638    0.0000 C   0  0  0  0  0  0  0  0  0  0  0  0
   -0.8971    0.4638    0.0000 C   0  0  0  0  0  0  0  0  0  0  0  0
    0.5283   -1.0238    0.0000 C   0  0  0  0  0  0  0  0  0  0  0  0
   -0.8971   -1.0238    0.0000 C   0  0  0  0  0  0  0  0  0  0  0  0
    1.2582    0.0482    0.0000 C   0  0  0  0  0  0  0  0  0  0  0  0
    0.5283    1.2038    0.0000 O   0  0  0  0  0  0  0  0  0  0  0  0
   -1.6117    0.0482    0.0000 C   0  0  0  0  0  0  0  0  0  0  0  0
    1.2582   -0.6095    0.0000 C   0  0  0  0  0  0  0  0  0  0  0  0
   -1.6117   -0.6095    0.0000 C   0  0  0  0  0  0  0  0  0  0  0  0
    1.2861    1.5991    0.0000 C   0  0  0  0  0  0  0  0  0  0  0  0
  1  2  2  0  0  0  0
  1  3  1  0  0  0  0
  1  4  1  0  0  0  0
  2  5  1  0  0  0  0
  2  6  1  0  0  0  0
  3  7  2  0  0  0  0
  3  8  1  0  0  0  0
  4  9  2  0  0  0  0
  5 10  2  0  0  0  0
  6 11  2  0  0  0  0
  8 12  1  0  0  0  0
  7 10  1  0  0  0  0
  9 11  1  0  0  0  0
M  END