257
  Mrv0541 04071411322D          

 15 16  0  0  0  0            999 V2000
   -1.0976    0.1525    0.0000 C   0  0  0  0  0  0  0  0  0  0  0  0
   -1.0976   -0.6836    0.0000 C   0  0  0  0  0  0  0  0  0  0  0  0
   -0.3867    0.5649    0.0000 C   0  0  0  0  0  0  0  0  0  0  0  0
   -1.8150    0.5649    0.0000 C   0  0  0  0  0  0  0  0  0  0  0  0
   -0.3867   -1.0929    0.0000 C   0  0  0  0  0  0  0  0  0  0  0  0
   -1.8150   -1.0929    0.0000 C   0  0  0  0  0  0  0  0  0  0  0  0
    0.3258    0.1396    0.0000 C   0  0  0  0  0  0  0  0  0  0  0  0
   -2.5211    0.1332    0.0000 C   0  0  0  0  0  0  0  0  0  0  0  0
    0.3258   -0.6709    0.0000 C   0  0  0  0  0  0  0  0  0  0  0  0
   -2.5211   -0.6724    0.0000 C   0  0  0  0  0  0  0  0  0  0  0  0
    1.0495    0.5504    0.0000 O   0  0  0  0  0  0  0  0  0  0  0  0
    1.7621    0.1396    0.0000 C   0  0  0  0  0  0  0  0  0  0  0  0
    2.4906    0.5280    0.0000 C   0  0  0  0  0  0  0  0  0  0  0  0
    2.4906    1.3480    0.0000 C   0  0  0  0  0  0  0  0  0  0  0  0
    3.1919    0.0946    0.0000 C   0  0  0  0  0  0  0  0  0  0  0  0
  1  2  1  0  0  0  0
  1  3  2  0  0  0  0
  1  4  1  0  0  0  0
  2  5  2  0  0  0  0
  2  6  1  0  0  0  0
  3  7  1  0  0  0  0
  4  8  2  0  0  0  0
  5  9  1  0  0  0  0
  6 10  2  0  0  0  0
  7 11  1  0  0  0  0
 11 12  1  0  0  0  0
 12 13  1  0  0  0  0
 13 14  1  0  0  0  0
 13 15  1  0  0  0  0
  7  9  2  0  0  0  0
  8 10  1  0  0  0  0
M  END