259
  Mrv0541 04071411322D          

 17 18  0  0  0  0            999 V2000
    1.7770   -2.1300    0.0000 C   0  0  0  0  0  0  0  0  0  0  0  0
    2.5201   -2.5762    0.0000 C   0  0  0  0  0  0  0  0  0  0  0  0
    1.0831   -2.5762    0.0000 C   0  0  0  0  0  0  0  0  0  0  0  0
    1.7770   -1.2880    0.0000 O   0  0  0  0  0  0  0  0  0  0  0  0
    3.2143    0.3476    0.0000 Cl  0  0  0  0  0  0  0  0  0  0  0  0
    2.5201   -3.3695    0.0000 C   0  0  0  0  0  0  0  0  0  0  0  0
    3.2143   -2.1300    0.0000 C   0  0  0  0  0  0  0  0  0  0  0  0
    0.3889   -2.1300    0.0000 C   0  0  0  0  0  0  0  0  0  0  0  0
    1.0831   -3.3695    0.0000 C   0  0  0  0  0  0  0  0  0  0  0  0
    2.5201   -0.0983    0.0000 C   0  0  0  0  0  0  0  0  0  0  0  0
    2.5201   -0.8914    0.0000 C   0  0  0  0  0  0  0  0  0  0  0  0
    0.3889   -3.8154    0.0000 C   0  0  0  0  0  0  0  0  0  0  0  0
    3.2143   -3.8154    0.0000 C   0  0  0  0  0  0  0  0  0  0  0  0
   -0.3543   -2.5762    0.0000 C   0  0  0  0  0  0  0  0  0  0  0  0
    3.9082   -2.5762    0.0000 C   0  0  0  0  0  0  0  0  0  0  0  0
    3.9082   -3.3695    0.0000 C   0  0  0  0  0  0  0  0  0  0  0  0
   -0.3543   -3.3695    0.0000 C   0  0  0  0  0  0  0  0  0  0  0  0
  2  1  1  0  0  0  0
  3  1  1  0  0  0  0
  4  1  1  0  0  0  0
  5 10  1  0  0  0  0
  6  2  1  0  0  0  0
  7  2  2  0  0  0  0
  8  3  1  0  0  0  0
  9  3  2  0  0  0  0
 10 11  1  0  0  0  0
 11  4  1  0  0  0  0
 12  9  1  0  0  0  0
 13  6  2  0  0  0  0
 14  8  2  0  0  0  0
 15  7  1  0  0  0  0
 16 15  2  0  0  0  0
 17 12  2  0  0  0  0
 17 14  1  0  0  0  0
 16 13  1  0  0  0  0
M  END