262
  Mrv0541 04071411322D          

 20 22  0  0  0  0            999 V2000
   -0.0037   -0.4560    0.0000 C   0  0  0  0  0  0  0  0  0  0  0  0
   -0.8286   -0.4560    0.0000 C   0  0  0  0  0  0  0  0  0  0  0  0
    0.8286   -0.4560    0.0000 C   0  0  0  0  0  0  0  0  0  0  0  0
   -0.0037    0.3708    0.0000 C   0  0  0  0  0  0  0  0  0  0  0  0
   -0.0037   -1.2753    0.0000 Cl  0  0  0  0  0  0  0  0  0  0  0  0
   -1.2457    0.2633    0.0000 C   0  0  0  0  0  0  0  0  0  0  0  0
   -1.2401   -1.1678    0.0000 C   0  0  0  0  0  0  0  0  0  0  0  0
    1.2475   -1.1678    0.0000 C   0  0  0  0  0  0  0  0  0  0  0  0
    1.2327    0.2633    0.0000 C   0  0  0  0  0  0  0  0  0  0  0  0
    0.7211    0.7878    0.0000 C   0  0  0  0  0  0  0  0  0  0  0  0
   -0.7081    0.7804    0.0000 C   0  0  0  0  0  0  0  0  0  0  0  0
   -2.0743    0.2633    0.0000 C   0  0  0  0  0  0  0  0  0  0  0  0
   -2.0650   -1.1678    0.0000 C   0  0  0  0  0  0  0  0  0  0  0  0
    2.0743   -1.1678    0.0000 C   0  0  0  0  0  0  0  0  0  0  0  0
    2.0650    0.2633    0.0000 C   0  0  0  0  0  0  0  0  0  0  0  0
    0.7211    1.5941    0.0000 C   0  0  0  0  0  0  0  0  0  0  0  0
   -0.7081    1.6071    0.0000 C   0  0  0  0  0  0  0  0  0  0  0  0
   -2.4765   -0.4560    0.0000 C   0  0  0  0  0  0  0  0  0  0  0  0
    2.4691   -0.4486    0.0000 C   0  0  0  0  0  0  0  0  0  0  0  0
   -0.0037    2.0168    0.0000 C   0  0  0  0  0  0  0  0  0  0  0  0
  1  2  1  0  0  0  0
  1  3  1  0  0  0  0
  1  4  1  0  0  0  0
  1  5  1  0  0  0  0
  2  6  2  0  0  0  0
  2  7  1  0  0  0  0
  3  8  1  0  0  0  0
  3  9  2  0  0  0  0
  4 10  1  0  0  0  0
  4 11  2  0  0  0  0
  6 12  1  0  0  0  0
  7 13  2  0  0  0  0
  8 14  2  0  0  0  0
  9 15  1  0  0  0  0
 10 16  2  0  0  0  0
 11 17  1  0  0  0  0
 12 18  2  0  0  0  0
 14 19  1  0  0  0  0
 16 20  1  0  0  0  0
 13 18  1  0  0  0  0
 15 19  2  0  0  0  0
 17 20  2  0  0  0  0
M  END