263
  Mrv0541 04071411322D          

 17 19  0  0  0  0            999 V2000
   -0.2386    0.5771    0.0000 C   0  0  0  0  0  0  0  0  0  0  0  0
    0.5320    0.3224    0.0000 C   0  0  0  0  0  0  0  0  0  0  0  0
   -0.4836   -0.1096    0.0000 C   0  0  0  0  0  0  0  0  0  0  0  0
   -1.0317    0.3192    0.0000 C   0  0  0  0  0  0  0  0  0  0  0  0
   -0.2386    1.3703    0.0000 Cl  0  0  0  0  0  0  0  0  0  0  0  0
    0.5449   -0.4997    0.0000 C   0  0  0  0  0  0  0  0  0  0  0  0
    1.3283    0.5900    0.0000 C   0  0  0  0  0  0  0  0  0  0  0  0
   -0.2386   -0.7544    0.0000 C   0  0  0  0  0  0  0  0  0  0  0  0
   -0.0774    0.1806    0.0000 Cl  0  0  0  0  0  0  0  0  0  0  0  0
   -0.1580   -0.2644    0.0000 Cl  0  0  0  0  0  0  0  0  0  0  0  0
   -1.0317   -0.5094    0.0000 C   0  0  0  0  0  0  0  0  0  0  0  0
   -1.7120    0.7996    0.0000 Cl  0  0  0  0  0  0  0  0  0  0  0  0
    1.3348   -0.7448    0.0000 C   0  0  0  0  0  0  0  0  0  0  0  0
    1.8152   -0.0741    0.0000 C   0  0  0  0  0  0  0  0  0  0  0  0
    1.5863    1.3832    0.0000 Cl  0  0  0  0  0  0  0  0  0  0  0  0
   -0.2321   -1.5927    0.0000 Cl  0  0  0  0  0  0  0  0  0  0  0  0
   -1.6991   -0.9962    0.0000 Cl  0  0  0  0  0  0  0  0  0  0  0  0
  1  2  1  0  0  0  0
  1  3  1  0  0  0  0
  1  4  1  0  0  0  0
  1  5  1  0  0  0  0
  2  6  1  0  0  0  0
  2  7  1  0  0  0  0
  3  8  1  0  0  0  0
  3  9  1  0  0  0  0
  3 10  1  0  0  0  0
  4 11  2  0  0  0  0
  4 12  1  0  0  0  0
  6 13  1  0  0  0  0
  7 14  1  0  0  0  0
  7 15  1  0  0  0  0
  8 16  1  0  0  0  0
 11 17  1  0  0  0  0
  6  8  1  0  0  0  0
  8 11  1  0  0  0  0
 13 14  2  0  0  0  0
M  END