266
  Mrv0541 04071411322D          

 26 25  0  0  0  0            999 V2000
   -0.3918   -6.6056    0.0000 C   0  0  0  0  0  0  0  0  0  0  0  0
    1.0752   -8.2393    0.0000 C   0  0  0  0  0  0  0  0  0  0  0  0
    0.3376   -7.0140    0.0000 C   0  0  0  0  0  0  0  0  0  0  0  0
    0.3543   -7.8350    0.0000 C   0  0  0  0  0  0  0  0  0  0  0  0
   -0.4043   -5.7846    0.0000 O   0  0  0  0  0  0  0  0  0  0  0  0
    1.7879   -7.8267    0.0000 O   0  0  0  0  0  0  0  0  0  0  0  0
    7.5016   -6.9848    0.0000 C   0  0  0  0  0  0  0  0  0  0  0  0
    6.7807   -6.5806    0.0000 C   0  0  0  0  0  0  0  0  0  0  0  0
   -1.0960   -7.0182    0.0000 O   0  0  0  0  0  0  0  0  0  0  0  0
    1.0919   -9.0603    0.0000 O   0  0  0  0  0  0  0  0  0  0  0  0
    1.0460   -6.6014    0.0000 C   0  0  0  0  0  0  0  0  0  0  0  0
    6.0680   -6.9932    0.0000 C   0  0  0  0  0  0  0  0  0  0  0  0
    8.2143   -6.5722    0.0000 C   0  0  0  0  0  0  0  0  0  0  0  0
    5.3470   -6.5889    0.0000 C   0  0  0  0  0  0  0  0  0  0  0  0
    8.9394   -6.9807    0.0000 C   0  0  0  0  0  0  0  0  0  0  0  0
    1.7712   -7.0057    0.0000 C   0  0  0  0  0  0  0  0  0  0  0  0
   12.5152   -6.5597    0.0000 C   0  0  0  0  0  0  0  0  0  0  0  0
   11.8068   -6.9723    0.0000 C   0  0  0  0  0  0  0  0  0  0  0  0
   11.0816   -6.5639    0.0000 C   0  0  0  0  0  0  0  0  0  0  0  0
    3.9134   -6.5889    0.0000 C   0  0  0  0  0  0  0  0  0  0  0  0
    4.6385   -6.9973    0.0000 C   0  0  0  0  0  0  0  0  0  0  0  0
    2.4797   -6.5972    0.0000 C   0  0  0  0  0  0  0  0  0  0  0  0
    3.2007   -7.0015    0.0000 C   0  0  0  0  0  0  0  0  0  0  0  0
    9.6479   -6.5722    0.0000 C   0  0  0  0  0  0  0  0  0  0  0  0
   10.3731   -6.9765    0.0000 C   0  0  0  0  0  0  0  0  0  0  0  0
   13.2404   -6.9682    0.0000 C   0  0  0  0  0  0  0  0  0  0  0  0
  2  4  1  0  0  0  0
  3  1  1  0  0  0  0
  4  3  1  0  0  0  0
  5  1  2  0  0  0  0
  6  2  2  0  0  0  0
  7  8  2  0  0  0  0
  8 12  1  0  0  0  0
  9  1  1  0  0  0  0
 10  2  1  0  0  0  0
 11  3  1  0  0  0  0
 12 14  1  0  0  0  0
 13  7  1  0  0  0  0
 14 21  1  0  0  0  0
 15 13  1  0  0  0  0
 16 11  1  0  0  0  0
 17 18  1  0  0  0  0
 18 19  1  0  0  0  0
 19 25  1  0  0  0  0
 20 23  1  0  0  0  0
 21 20  1  0  0  0  0
 22 16  1  0  0  0  0
 23 22  1  0  0  0  0
 24 15  1  0  0  0  0
 25 24  1  0  0  0  0
 26 17  1  0  0  0  0
M  END