268
  Mrv0541 04071411322D          

 25 26  0  0  0  0            999 V2000
   -0.7033   -0.0580    0.0000 C   0  0  0  0  0  0  0  0  0  0  0  0
   -1.4203   -0.4780    0.0000 C   0  0  0  0  0  0  0  0  0  0  0  0
    0.0068   -0.4780    0.0000 C   0  0  0  0  0  0  0  0  0  0  0  0
   -0.7033    0.7511    0.0000 C   0  0  0  0  0  0  0  0  0  0  0  0
   -2.1372   -0.0580    0.0000 C   0  0  0  0  0  0  0  0  0  0  0  0
   -1.4203   -1.3042    0.0000 O   0  0  0  0  0  0  0  0  0  0  0  0
    0.7204   -0.0580    0.0000 C   0  0  0  0  0  0  0  0  0  0  0  0
   -1.4203    1.1574    0.0000 C   0  0  0  0  0  0  0  0  0  0  0  0
   -2.1372    0.7511    0.0000 C   0  0  0  0  0  0  0  0  0  0  0  0
   -2.8439   -0.4780    0.0000 C   0  0  0  0  0  0  0  0  0  0  0  0
    1.4304   -0.4780    0.0000 C   0  0  0  0  0  0  0  0  0  0  0  0
    0.7204    0.7511    0.0000 C   0  0  0  0  0  0  0  0  0  0  0  0
   -1.4203    1.9836    0.0000 C   0  0  0  0  0  0  0  0  0  0  0  0
   -3.7043   -0.7818    0.0000 C   0  0  0  0  0  0  0  0  0  0  0  0
   -2.9634   -1.2769    0.0000 C   0  0  0  0  0  0  0  0  0  0  0  0
   -3.4243    0.1024    0.0000 C   0  0  0  0  0  0  0  0  0  0  0  0
    2.1475   -0.0580    0.0000 C   0  0  0  0  0  0  0  0  0  0  0  0
    1.4304   -1.3042    0.0000 O   0  0  0  0  0  0  0  0  0  0  0  0
    1.4304    1.1574    0.0000 C   0  0  0  0  0  0  0  0  0  0  0  0
    2.1475    0.7511    0.0000 C   0  0  0  0  0  0  0  0  0  0  0  0
    2.8610   -0.4780    0.0000 C   0  0  0  0  0  0  0  0  0  0  0  0
    1.4304    1.9836    0.0000 C   0  0  0  0  0  0  0  0  0  0  0  0
    3.4482    0.1024    0.0000 C   0  0  0  0  0  0  0  0  0  0  0  0
    2.8166   -1.3076    0.0000 C   0  0  0  0  0  0  0  0  0  0  0  0
    3.7077   -0.9081    0.0000 C   0  0  0  0  0  0  0  0  0  0  0  0
  1  2  1  0  0  0  0
  1  3  1  0  0  0  0
  1  4  2  0  0  0  0
  2  5  2  0  0  0  0
  2  6  1  0  0  0  0
  3  7  1  0  0  0  0
  4  8  1  0  0  0  0
  5  9  1  0  0  0  0
  5 10  1  0  0  0  0
  7 11  2  0  0  0  0
  7 12  1  0  0  0  0
  8 13  1  0  0  0  0
 10 14  1  0  0  0  0
 10 15  1  0  0  0  0
 10 16  1  0  0  0  0
 11 17  1  0  0  0  0
 11 18  1  0  0  0  0
 12 19  2  0  0  0  0
 17 20  2  0  0  0  0
 17 21  1  0  0  0  0
 19 22  1  0  0  0  0
 21 23  1  0  0  0  0
 21 24  1  0  0  0  0
 21 25  1  0  0  0  0
  8  9  2  0  0  0  0
 19 20  1  0  0  0  0
M  END