269
  Mrv0541 04071411322D          

 21 22  0  0  0  0            999 V2000
    0.0037   -0.0018    0.0000 C   0  0  0  0  0  0  0  0  0  0  0  0
   -0.8299   -0.0018    0.0000 C   0  0  0  0  0  0  0  0  0  0  0  0
    0.8281   -0.0018    0.0000 C   0  0  0  0  0  0  0  0  0  0  0  0
    0.0037    0.8355    0.0000 C   0  0  0  0  0  0  0  0  0  0  0  0
    0.0037   -0.8243    0.0000 C   0  0  0  0  0  0  0  0  0  0  0  0
   -1.2430   -0.7159    0.0000 C   0  0  0  0  0  0  0  0  0  0  0  0
   -1.2430    0.7140    0.0000 C   0  0  0  0  0  0  0  0  0  0  0  0
    1.2412   -0.7159    0.0000 C   0  0  0  0  0  0  0  0  0  0  0  0
    1.2412    0.7140    0.0000 C   0  0  0  0  0  0  0  0  0  0  0  0
   -2.0654   -0.7159    0.0000 C   0  0  0  0  0  0  0  0  0  0  0  0
   -2.0654    0.7140    0.0000 C   0  0  0  0  0  0  0  0  0  0  0  0
    2.0636   -0.7159    0.0000 C   0  0  0  0  0  0  0  0  0  0  0  0
    2.0636    0.7140    0.0000 C   0  0  0  0  0  0  0  0  0  0  0  0
   -2.4823   -0.0018    0.0000 C   0  0  0  0  0  0  0  0  0  0  0  0
   -2.4897   -1.4318    0.0000 Br  0  0  0  0  0  0  0  0  0  0  0  0
   -2.4991    1.4411    0.0000 Br  0  0  0  0  0  0  0  0  0  0  0  0
    2.4767   -0.0018    0.0000 C   0  0  0  0  0  0  0  0  0  0  0  0
    2.4879   -1.4318    0.0000 Br  0  0  0  0  0  0  0  0  0  0  0  0
    2.4972    1.4411    0.0000 Br  0  0  0  0  0  0  0  0  0  0  0  0
   -3.3010   -0.0018    0.0000 O   0  0  0  0  0  0  0  0  0  0  0  0
    3.3010   -0.0018    0.0000 O   0  0  0  0  0  0  0  0  0  0  0  0
  1  2  1  0  0  0  0
  1  3  1  0  0  0  0
  1  4  1  0  0  0  0
  1  5  1  0  0  0  0
  2  6  2  0  0  0  0
  2  7  1  0  0  0  0
  3  8  2  0  0  0  0
  3  9  1  0  0  0  0
  6 10  1  0  0  0  0
  7 11  2  0  0  0  0
  8 12  1  0  0  0  0
  9 13  2  0  0  0  0
 10 14  2  0  0  0  0
 10 15  1  0  0  0  0
 11 16  1  0  0  0  0
 12 17  2  0  0  0  0
 12 18  1  0  0  0  0
 13 19  1  0  0  0  0
 14 20  1  0  0  0  0
 17 21  1  0  0  0  0
 11 14  1  0  0  0  0
 13 17  1  0  0  0  0
M  END