27
  Mrv0541 04071411322D          

 12 12  0  0  0  0            999 V2000
    3.1415    0.0121    0.0000 C   0  0  0  0  0  0  0  0  0  0  0  0
    3.1415   -0.8128    0.0000 C   0  0  0  0  0  0  0  0  0  0  0  0
    2.4271   -1.2254    0.0000 C   0  0  0  0  0  0  0  0  0  0  0  0
    1.7127   -0.8129    0.0000 C   0  0  0  0  0  0  0  0  0  0  0  0
    1.7127    0.0121    0.0000 C   0  0  0  0  0  0  0  0  0  0  0  0
    2.4271    0.4246    0.0000 C   0  0  0  0  0  0  0  0  0  0  0  0
    0.9982   -1.2253    0.0000 C   0  0  0  0  0  0  0  0  0  0  0  0
    3.8560    0.4246    0.0000 O   0  0  0  0  0  0  0  0  0  0  0  0
    3.8560   -1.2254    0.0000 C   0  0  0  0  0  0  0  0  0  0  0  0
    4.2685   -0.5109    0.0000 C   0  0  0  0  0  0  0  0  0  0  0  0
    4.5705   -1.6379    0.0000 C   0  0  0  0  0  0  0  0  0  0  0  0
    3.4435   -1.9398    0.0000 C   0  0  0  0  0  0  0  0  0  0  0  0
  1  2  1  0  0  0  0
  2  3  2  0  0  0  0
  3  4  1  0  0  0  0
  4  5  2  0  0  0  0
  5  6  1  0  0  0  0
  1  6  2  0  0  0  0
  4  7  1  0  0  0  0
  1  8  1  0  0  0  0
  9 10  1  0  0  0  0
  9 11  1  0  0  0  0
  9 12  1  0  0  0  0
  2  9  1  0  0  0  0
M  END