271
  Mrv0541 04071411322D          

 28 28  0  0  0  0            999 V2000
    0.4162   -1.0168    0.0000 C   0  0  0  0  0  0  0  0  0  0  0  0
   -0.3980   -1.0168    0.0000 C   0  0  0  0  0  0  0  0  0  0  0  0
    0.8214   -0.2967    0.0000 C   0  0  0  0  0  0  0  0  0  0  0  0
    0.8467   -1.7223    0.0000 C   0  0  0  0  0  0  0  0  0  0  0  0
   -0.8322   -0.3183    0.0000 C   0  0  0  0  0  0  0  0  0  0  0  0
   -0.8178   -1.7114    0.0000 C   0  0  0  0  0  0  0  0  0  0  0  0
    1.6354   -0.2967    0.0000 O   0  0  0  0  0  0  0  0  0  0  0  0
    0.4017    0.4305    0.0000 O   0  0  0  0  0  0  0  0  0  0  0  0
    0.4414   -2.4206    0.0000 C   0  0  0  0  0  0  0  0  0  0  0  0
   -1.6427   -0.3183    0.0000 O   0  0  0  0  0  0  0  0  0  0  0  0
   -0.4233    0.4125    0.0000 O   0  0  0  0  0  0  0  0  0  0  0  0
   -0.3980   -2.4351    0.0000 C   0  0  0  0  0  0  0  0  0  0  0  0
    2.0624    0.4305    0.0000 C   0  0  0  0  0  0  0  0  0  0  0  0
   -2.0769    0.3872    0.0000 C   0  0  0  0  0  0  0  0  0  0  0  0
    2.8801    0.4377    0.0000 C   0  0  0  0  0  0  0  0  0  0  0  0
   -2.9019    0.3872    0.0000 C   0  0  0  0  0  0  0  0  0  0  0  0
    3.3143    1.1470    0.0000 C   0  0  0  0  0  0  0  0  0  0  0  0
    3.2998   -0.2822    0.0000 C   0  0  0  0  0  0  0  0  0  0  0  0
   -3.2963    1.0928    0.0000 C   0  0  0  0  0  0  0  0  0  0  0  0
   -3.3108   -0.3365    0.0000 C   0  0  0  0  0  0  0  0  0  0  0  0
    4.1140    1.1507    0.0000 C   0  0  0  0  0  0  0  0  0  0  0  0
    2.8693   -1.0059    0.0000 C   0  0  0  0  0  0  0  0  0  0  0  0
   -4.1140    1.0674    0.0000 C   0  0  0  0  0  0  0  0  0  0  0  0
   -2.8766   -1.0385    0.0000 C   0  0  0  0  0  0  0  0  0  0  0  0
    4.5338    1.8453    0.0000 C   0  0  0  0  0  0  0  0  0  0  0  0
   -4.5445    1.7946    0.0000 C   0  0  0  0  0  0  0  0  0  0  0  0
    5.3479    1.8453    0.0000 C   0  0  0  0  0  0  0  0  0  0  0  0
   -5.3443    1.7802    0.0000 C   0  0  0  0  0  0  0  0  0  0  0  0
  1  2  2  0  0  0  0
  1  3  1  0  0  0  0
  1  4  1  0  0  0  0
  2  5  1  0  0  0  0
  2  6  1  0  0  0  0
  3  7  1  0  0  0  0
  3  8  2  0  0  0  0
  4  9  2  0  0  0  0
  5 10  1  0  0  0  0
  5 11  2  0  0  0  0
  6 12  2  0  0  0  0
  7 13  1  0  0  0  0
 10 14  1  0  0  0  0
 13 15  1  0  0  0  0
 14 16  1  0  0  0  0
 15 17  1  0  0  0  0
 15 18  1  0  0  0  0
 16 19  1  0  0  0  0
 16 20  1  0  0  0  0
 17 21  1  0  0  0  0
 18 22  1  0  0  0  0
 19 23  1  0  0  0  0
 20 24  1  0  0  0  0
 21 25  1  0  0  0  0
 23 26  1  0  0  0  0
 25 27  1  0  0  0  0
 26 28  1  0  0  0  0
  9 12  1  0  0  0  0
M  END