272
  Mrv0541 04071411322D          

 26 26  0  0  0  0            999 V2000
    0.4098    0.2118    0.0000 C   0  0  0  0  0  0  0  0  0  0  0  0
   -0.4063    0.2118    0.0000 C   0  0  0  0  0  0  0  0  0  0  0  0
    0.8266    0.9377    0.0000 C   0  0  0  0  0  0  0  0  0  0  0  0
    0.8266   -0.5105    0.0000 C   0  0  0  0  0  0  0  0  0  0  0  0
   -0.8230    0.9377    0.0000 C   0  0  0  0  0  0  0  0  0  0  0  0
   -0.8230   -0.5105    0.0000 C   0  0  0  0  0  0  0  0  0  0  0  0
    1.6635    0.9377    0.0000 O   0  0  0  0  0  0  0  0  0  0  0  0
    0.4098    1.6427    0.0000 O   0  0  0  0  0  0  0  0  0  0  0  0
    0.4098   -1.2295    0.0000 C   0  0  0  0  0  0  0  0  0  0  0  0
   -1.6532    0.9377    0.0000 O   0  0  0  0  0  0  0  0  0  0  0  0
   -0.4063    1.6427    0.0000 O   0  0  0  0  0  0  0  0  0  0  0  0
   -0.4063   -1.2295    0.0000 C   0  0  0  0  0  0  0  0  0  0  0  0
    2.4832    0.9377    0.0000 C   0  0  0  0  0  0  0  0  0  0  0  0
   -2.4762    0.9377    0.0000 C   0  0  0  0  0  0  0  0  0  0  0  0
    2.8896    0.2257    0.0000 C   0  0  0  0  0  0  0  0  0  0  0  0
   -2.8929    0.2257    0.0000 C   0  0  0  0  0  0  0  0  0  0  0  0
    3.7161    0.2257    0.0000 C   0  0  0  0  0  0  0  0  0  0  0  0
   -3.7195    0.2257    0.0000 C   0  0  0  0  0  0  0  0  0  0  0  0
    4.1259   -0.4863    0.0000 C   0  0  0  0  0  0  0  0  0  0  0  0
   -4.1259   -0.4863    0.0000 C   0  0  0  0  0  0  0  0  0  0  0  0
    4.9420   -0.4863    0.0000 C   0  0  0  0  0  0  0  0  0  0  0  0
   -4.9459   -0.4863    0.0000 C   0  0  0  0  0  0  0  0  0  0  0  0
    5.3588   -1.2017    0.0000 C   0  0  0  0  0  0  0  0  0  0  0  0
   -5.3692   -1.2017    0.0000 C   0  0  0  0  0  0  0  0  0  0  0  0
    6.1749   -1.2017    0.0000 C   0  0  0  0  0  0  0  0  0  0  0  0
   -6.1784   -1.2017    0.0000 C   0  0  0  0  0  0  0  0  0  0  0  0
  1  2  2  0  0  0  0
  1  3  1  0  0  0  0
  1  4  1  0  0  0  0
  2  5  1  0  0  0  0
  2  6  1  0  0  0  0
  3  7  1  0  0  0  0
  3  8  2  0  0  0  0
  4  9  2  0  0  0  0
  5 10  1  0  0  0  0
  5 11  2  0  0  0  0
  6 12  2  0  0  0  0
  7 13  1  0  0  0  0
 10 14  1  0  0  0  0
 13 15  1  0  0  0  0
 14 16  1  0  0  0  0
 15 17  1  0  0  0  0
 16 18  1  0  0  0  0
 17 19  1  0  0  0  0
 18 20  1  0  0  0  0
 19 21  1  0  0  0  0
 20 22  1  0  0  0  0
 21 23  1  0  0  0  0
 22 24  1  0  0  0  0
 23 25  1  0  0  0  0
 24 26  1  0  0  0  0
  9 12  1  0  0  0  0
M  END