273
  Mrv0541 04071411322D          

 32 32  0  0  0  0            999 V2000
    0.3730   -1.4249    0.0000 C   0  0  0  0  0  0  0  0  0  0  0  0
   -0.4302   -1.4249    0.0000 C   0  0  0  0  0  0  0  0  0  0  0  0
    0.7890   -2.1373    0.0000 C   0  0  0  0  0  0  0  0  0  0  0  0
    0.7890   -0.7029    0.0000 C   0  0  0  0  0  0  0  0  0  0  0  0
   -0.8463   -2.1373    0.0000 C   0  0  0  0  0  0  0  0  0  0  0  0
   -0.8463   -0.7029    0.0000 C   0  0  0  0  0  0  0  0  0  0  0  0
    0.3730   -2.8544    0.0000 C   0  0  0  0  0  0  0  0  0  0  0  0
    1.6210   -0.7029    0.0000 O   0  0  0  0  0  0  0  0  0  0  0  0
    0.3730    0.0047    0.0000 O   0  0  0  0  0  0  0  0  0  0  0  0
   -0.4302   -2.8544    0.0000 C   0  0  0  0  0  0  0  0  0  0  0  0
   -1.6783   -0.7029    0.0000 O   0  0  0  0  0  0  0  0  0  0  0  0
   -0.4302    0.0047    0.0000 O   0  0  0  0  0  0  0  0  0  0  0  0
    2.0178    0.0047    0.0000 C   0  0  0  0  0  0  0  0  0  0  0  0
   -2.0752    0.0047    0.0000 C   0  0  0  0  0  0  0  0  0  0  0  0
    2.8498    0.0047    0.0000 C   0  0  0  0  0  0  0  0  0  0  0  0
   -2.9072    0.0047    0.0000 C   0  0  0  0  0  0  0  0  0  0  0  0
    3.2658   -0.7220    0.0000 C   0  0  0  0  0  0  0  0  0  0  0  0
   -3.3232   -0.7220    0.0000 C   0  0  0  0  0  0  0  0  0  0  0  0
    4.0833   -0.7220    0.0000 C   0  0  0  0  0  0  0  0  0  0  0  0
   -4.1168   -0.6886    0.0000 C   0  0  0  0  0  0  0  0  0  0  0  0
    4.4993   -0.0095    0.0000 C   0  0  0  0  0  0  0  0  0  0  0  0
   -4.4801    0.0143    0.0000 C   0  0  0  0  0  0  0  0  0  0  0  0
    4.0977    0.6837    0.0000 C   0  0  0  0  0  0  0  0  0  0  0  0
   -4.0450    0.7076    0.0000 C   0  0  0  0  0  0  0  0  0  0  0  0
    4.5137    1.3913    0.0000 C   0  0  0  0  0  0  0  0  0  0  0  0
   -4.4325    1.4440    0.0000 C   0  0  0  0  0  0  0  0  0  0  0  0
    4.0977    2.1373    0.0000 C   0  0  0  0  0  0  0  0  0  0  0  0
   -3.9925    2.1373    0.0000 C   0  0  0  0  0  0  0  0  0  0  0  0
    4.5520    2.8306    0.0000 C   0  0  0  0  0  0  0  0  0  0  0  0
    3.3040    2.1565    0.0000 C   0  0  0  0  0  0  0  0  0  0  0  0
   -4.3798    2.8832    0.0000 C   0  0  0  0  0  0  0  0  0  0  0  0
   -3.1845    2.0942    0.0000 C   0  0  0  0  0  0  0  0  0  0  0  0
  1  2  2  0  0  0  0
  1  3  1  0  0  0  0
  1  4  1  0  0  0  0
  2  5  1  0  0  0  0
  2  6  1  0  0  0  0
  3  7  2  0  0  0  0
  4  8  1  0  0  0  0
  4  9  2  0  0  0  0
  5 10  2  0  0  0  0
  6 11  1  0  0  0  0
  6 12  2  0  0  0  0
  8 13  1  0  0  0  0
 11 14  1  0  0  0  0
 13 15  1  0  0  0  0
 14 16  1  0  0  0  0
 15 17  1  0  0  0  0
 16 18  1  0  0  0  0
 17 19  1  0  0  0  0
 18 20  1  0  0  0  0
 19 21  1  0  0  0  0
 20 22  1  0  0  0  0
 21 23  1  0  0  0  0
 22 24  1  0  0  0  0
 23 25  1  0  0  0  0
 24 26  1  0  0  0  0
 25 27  1  0  0  0  0
 26 28  1  0  0  0  0
 27 29  1  0  0  0  0
 27 30  1  0  0  0  0
 28 31  1  0  0  0  0
 28 32  1  0  0  0  0
  7 10  1  0  0  0  0
M  END