274
  Mrv0541 04071411322D          

 39 39  0  0  0  0            999 V2000
   -0.0213   -0.5981    0.0000 C   0  0  0  0  0  0  0  0  0  0  0  0
   -0.0213    0.2435    0.0000 C   0  0  0  0  0  0  0  0  0  0  0  0
    0.6877   -0.9995    0.0000 C   0  0  0  0  0  0  0  0  0  0  0  0
   -0.7390   -0.9952    0.0000 C   0  0  0  0  0  0  0  0  0  0  0  0
    0.7048    0.6577    0.0000 C   0  0  0  0  0  0  0  0  0  0  0  0
   -0.7347    0.6577    0.0000 C   0  0  0  0  0  0  0  0  0  0  0  0
    1.3968   -0.5981    0.0000 C   0  0  0  0  0  0  0  0  0  0  0  0
   -1.4181   -0.5468    0.0000 O   0  0  0  0  0  0  0  0  0  0  0  0
   -0.7390   -1.8026    0.0000 O   0  0  0  0  0  0  0  0  0  0  0  0
    1.3968    0.2435    0.0000 C   0  0  0  0  0  0  0  0  0  0  0  0
   -0.7347    1.4822    0.0000 O   0  0  0  0  0  0  0  0  0  0  0  0
   -1.4522    0.2435    0.0000 O   0  0  0  0  0  0  0  0  0  0  0  0
    2.1143   -0.9995    0.0000 C   0  0  0  0  0  0  0  0  0  0  0  0
   -2.1613   -0.9355    0.0000 C   0  0  0  0  0  0  0  0  0  0  0  0
   -1.4522    1.9093    0.0000 C   0  0  0  0  0  0  0  0  0  0  0  0
    2.8277   -0.5981    0.0000 O   0  0  0  0  0  0  0  0  0  0  0  0
    2.1314   -1.8197    0.0000 O   0  0  0  0  0  0  0  0  0  0  0  0
   -2.8618   -0.4997    0.0000 C   0  0  0  0  0  0  0  0  0  0  0  0
   -1.4352    2.7294    0.0000 C   0  0  0  0  0  0  0  0  0  0  0  0
    3.5538   -1.0166    0.0000 C   0  0  0  0  0  0  0  0  0  0  0  0
   -3.6051   -0.8927    0.0000 C   0  0  0  0  0  0  0  0  0  0  0  0
   -2.8448    0.3332    0.0000 C   0  0  0  0  0  0  0  0  0  0  0  0
   -2.1613    3.1523    0.0000 C   0  0  0  0  0  0  0  0  0  0  0  0
   -0.7176    3.1480    0.0000 C   0  0  0  0  0  0  0  0  0  0  0  0
    4.2630   -0.6152    0.0000 C   0  0  0  0  0  0  0  0  0  0  0  0
   -3.6051   -1.7129    0.0000 C   0  0  0  0  0  0  0  0  0  0  0  0
   -3.5368    0.7645    0.0000 C   0  0  0  0  0  0  0  0  0  0  0  0
   -2.8704    2.7294    0.0000 C   0  0  0  0  0  0  0  0  0  0  0  0
    0.0042    2.7294    0.0000 C   0  0  0  0  0  0  0  0  0  0  0  0
    4.9805   -1.0166    0.0000 C   0  0  0  0  0  0  0  0  0  0  0  0
    4.2672    0.2221    0.0000 C   0  0  0  0  0  0  0  0  0  0  0  0
   -4.3483   -2.1100    0.0000 C   0  0  0  0  0  0  0  0  0  0  0  0
   -3.5880    3.1523    0.0000 C   0  0  0  0  0  0  0  0  0  0  0  0
    4.9805   -1.8197    0.0000 C   0  0  0  0  0  0  0  0  0  0  0  0
    4.9891    0.6235    0.0000 C   0  0  0  0  0  0  0  0  0  0  0  0
   -4.3568   -2.9216    0.0000 C   0  0  0  0  0  0  0  0  0  0  0  0
   -4.3099    2.7465    0.0000 C   0  0  0  0  0  0  0  0  0  0  0  0
    5.7238   -2.2382    0.0000 C   0  0  0  0  0  0  0  0  0  0  0  0
    5.7238   -3.0455    0.0000 C   0  0  0  0  0  0  0  0  0  0  0  0
  1  2  2  0  0  0  0
  1  3  1  0  0  0  0
  1  4  1  0  0  0  0
  2  5  1  0  0  0  0
  2  6  1  0  0  0  0
  3  7  2  0  0  0  0
  4  8  1  0  0  0  0
  4  9  2  0  0  0  0
  5 10  2  0  0  0  0
  6 11  1  0  0  0  0
  6 12  2  0  0  0  0
  7 13  1  0  0  0  0
  8 14  1  0  0  0  0
 11 15  1  0  0  0  0
 13 16  1  0  0  0  0
 13 17  2  0  0  0  0
 14 18  1  0  0  0  0
 15 19  1  0  0  0  0
 16 20  1  0  0  0  0
 18 21  1  0  0  0  0
 18 22  1  0  0  0  0
 19 23  1  0  0  0  0
 19 24  1  0  0  0  0
 20 25  1  0  0  0  0
 21 26  1  0  0  0  0
 22 27  1  0  0  0  0
 23 28  1  0  0  0  0
 24 29  1  0  0  0  0
 25 30  1  0  0  0  0
 25 31  1  0  0  0  0
 26 32  1  0  0  0  0
 28 33  1  0  0  0  0
 30 34  1  0  0  0  0
 31 35  1  0  0  0  0
 32 36  1  0  0  0  0
 33 37  1  0  0  0  0
 34 38  1  0  0  0  0
 38 39  1  0  0  0  0
  7 10  1  0  0  0  0
M  END