276
  Mrv0541 04071411322D          

 25 24  0  0  0  0            999 V2000
    0.6288    0.4976    0.0000 N   0  0  0  0  0  0  0  0  0  0  0  0
   -0.0794    0.9087    0.0000 C   0  0  0  0  0  0  0  0  0  0  0  0
    1.3441    0.9087    0.0000 C   0  0  0  0  0  0  0  0  0  0  0  0
    0.6323   -0.3316    0.0000 C   0  0  0  0  0  0  0  0  0  0  0  0
   -0.7982    0.4941    0.0000 C   0  0  0  0  0  0  0  0  0  0  0  0
    2.0558    0.4976    0.0000 C   0  0  0  0  0  0  0  0  0  0  0  0
   -0.0794   -0.7463    0.0000 C   0  0  0  0  0  0  0  0  0  0  0  0
   -1.5133    0.8984    0.0000 C   0  0  0  0  0  0  0  0  0  0  0  0
    2.7711    0.9122    0.0000 C   0  0  0  0  0  0  0  0  0  0  0  0
   -0.0794   -1.5722    0.0000 C   0  0  0  0  0  0  0  0  0  0  0  0
   -2.2217    0.4872    0.0000 C   0  0  0  0  0  0  0  0  0  0  0  0
    3.4898    0.5079    0.0000 C   0  0  0  0  0  0  0  0  0  0  0  0
   -0.7982   -1.9868    0.0000 C   0  0  0  0  0  0  0  0  0  0  0  0
   -2.9404    0.8984    0.0000 C   0  0  0  0  0  0  0  0  0  0  0  0
    4.1980    0.9190    0.0000 C   0  0  0  0  0  0  0  0  0  0  0  0
   -1.5203   -1.5722    0.0000 C   0  0  0  0  0  0  0  0  0  0  0  0
   -3.6556    0.4802    0.0000 C   0  0  0  0  0  0  0  0  0  0  0  0
    4.9133    0.5079    0.0000 C   0  0  0  0  0  0  0  0  0  0  0  0
   -2.2355   -1.9833    0.0000 C   0  0  0  0  0  0  0  0  0  0  0  0
   -4.3674    0.8949    0.0000 C   0  0  0  0  0  0  0  0  0  0  0  0
    5.6320    0.9190    0.0000 C   0  0  0  0  0  0  0  0  0  0  0  0
   -2.9543   -1.5583    0.0000 C   0  0  0  0  0  0  0  0  0  0  0  0
   -5.0895    0.4802    0.0000 C   0  0  0  0  0  0  0  0  0  0  0  0
    6.3404    0.5113    0.0000 C   0  0  0  0  0  0  0  0  0  0  0  0
   -3.6660   -1.9730    0.0000 C   0  0  0  0  0  0  0  0  0  0  0  0
  1  2  1  0  0  0  0
  1  3  1  0  0  0  0
  1  4  1  0  0  0  0
  2  5  1  0  0  0  0
  3  6  1  0  0  0  0
  4  7  1  0  0  0  0
  5  8  1  0  0  0  0
  6  9  1  0  0  0  0
  7 10  1  0  0  0  0
  8 11  1  0  0  0  0
  9 12  1  0  0  0  0
 10 13  1  0  0  0  0
 11 14  1  0  0  0  0
 12 15  1  0  0  0  0
 13 16  1  0  0  0  0
 14 17  1  0  0  0  0
 15 18  1  0  0  0  0
 16 19  1  0  0  0  0
 17 20  1  0  0  0  0
 18 21  1  0  0  0  0
 19 22  1  0  0  0  0
 20 23  1  0  0  0  0
 21 24  1  0  0  0  0
 22 25  1  0  0  0  0
M  END