28
  Mrv0541 04071411322D          

 12 14  0  0  0  0            999 V2000
    0.0019    0.1263    0.0000 C   0  0  0  0  0  0  0  0  0  0  0  0
    0.7121    0.5321    0.0000 C   0  0  0  0  0  0  0  0  0  0  0  0
   -0.7121    0.5321    0.0000 C   0  0  0  0  0  0  0  0  0  0  0  0
    0.0019   -0.6987    0.0000 C   0  0  0  0  0  0  0  0  0  0  0  0
    0.4651    1.4394    0.0000 C   0  0  0  0  0  0  0  0  0  0  0  0
    1.4260    0.1263    0.0000 C   0  0  0  0  0  0  0  0  0  0  0  0
   -0.4690    1.4394    0.0000 C   0  0  0  0  0  0  0  0  0  0  0  0
   -1.4260    0.1263    0.0000 C   0  0  0  0  0  0  0  0  0  0  0  0
    0.7121   -1.1140    0.0000 C   0  0  0  0  0  0  0  0  0  0  0  0
   -0.7121   -1.1140    0.0000 C   0  0  0  0  0  0  0  0  0  0  0  0
    1.4260   -0.6987    0.0000 C   0  0  0  0  0  0  0  0  0  0  0  0
   -1.4260   -0.6987    0.0000 C   0  0  0  0  0  0  0  0  0  0  0  0
  1  2  2  0  0  0  0
  1  3  1  0  0  0  0
  1  4  1  0  0  0  0
  2  5  1  0  0  0  0
  2  6  1  0  0  0  0
  3  7  1  0  0  0  0
  3  8  2  0  0  0  0
  4  9  2  0  0  0  0
  4 10  1  0  0  0  0
  6 11  2  0  0  0  0
  8 12  1  0  0  0  0
  5  7  2  0  0  0  0
  9 11  1  0  0  0  0
 10 12  2  0  0  0  0
M  END