281
  Mrv0541 04071411322D          

 13 12  0  0  0  0            999 V2000
   -0.0036   -0.0091    0.0000 N   0  0  0  0  0  0  0  0  0  0  0  0
   -0.7084    0.4124    0.0000 C   0  0  0  0  0  0  0  0  0  0  0  0
    0.7211    0.4105    0.0000 C   0  0  0  0  0  0  0  0  0  0  0  0
   -0.0036   -0.8319    0.0000 C   0  0  0  0  0  0  0  0  0  0  0  0
   -0.7084    1.2533    0.0000 C   0  0  0  0  0  0  0  0  0  0  0  0
    1.4295   -0.0109    0.0000 C   0  0  0  0  0  0  0  0  0  0  0  0
   -0.7301   -1.2351    0.0000 C   0  0  0  0  0  0  0  0  0  0  0  0
   -1.4149    1.6674    0.0000 C   0  0  0  0  0  0  0  0  0  0  0  0
    0.0073    1.6546    0.0000 O   0  0  0  0  0  0  0  0  0  0  0  0
    1.4295   -0.8337    0.0000 C   0  0  0  0  0  0  0  0  0  0  0  0
    2.1505    0.3978    0.0000 O   0  0  0  0  0  0  0  0  0  0  0  0
   -0.7301   -2.0633    0.0000 C   0  0  0  0  0  0  0  0  0  0  0  0
   -1.4403   -0.8137    0.0000 O   0  0  0  0  0  0  0  0  0  0  0  0
  1  2  1  0  0  0  0
  1  3  1  0  0  0  0
  1  4  1  0  0  0  0
  2  5  1  0  0  0  0
  3  6  1  0  0  0  0
  4  7  1  0  0  0  0
  5  8  1  0  0  0  0
  5  9  1  0  0  0  0
  6 10  1  0  0  0  0
  6 11  1  0  0  0  0
  7 12  1  0  0  0  0
  7 13  1  0  0  0  0
M  END