282
  Mrv0541 04071411322D          

  6  5  0  0  0  0            999 V2000
    0.3464    0.1871    0.0000 C   0  0  0  0  0  0  0  0  0  0  0  0
   -0.3464    0.6296    0.0000 C   0  0  0  0  0  0  0  0  0  0  0  0
    0.3464   -0.6138    0.0000 N   0  0  0  0  0  0  0  0  0  0  0  0
    1.0888    0.5861    0.0000 C   0  0  0  0  0  0  0  0  0  0  0  0
   -1.0641    0.2228    0.0000 C   0  0  0  0  0  0  0  0  0  0  0  0
   -0.3712   -1.0116    0.0000 O   0  0  0  0  0  0  0  0  0  0  0  0
  1  2  1  0  0  0  0
  1  3  2  0  0  0  0
  1  4  1  0  0  0  0
  2  5  1  0  0  0  0
  3  6  1  0  0  0  0
M  END