284
  Mrv0541 04071411322D          

  9  8  0  0  0  0            999 V2000
    0.0018    0.3636    0.0000 N   0  0  0  0  0  0  0  0  0  0  0  0
   -0.7068   -0.0461    0.0000 C   0  0  0  0  0  0  0  0  0  0  0  0
    0.7049   -0.0461    0.0000 C   0  0  0  0  0  0  0  0  0  0  0  0
   -1.4247    0.3636    0.0000 C   0  0  0  0  0  0  0  0  0  0  0  0
    1.4210    0.3636    0.0000 C   0  0  0  0  0  0  0  0  0  0  0  0
   -2.1388   -0.0461    0.0000 C   0  0  0  0  0  0  0  0  0  0  0  0
    2.1425   -0.0461    0.0000 C   0  0  0  0  0  0  0  0  0  0  0  0
   -2.8529   -0.4540    0.0000 N   0  0  0  0  0  0  0  0  0  0  0  0
    2.8529   -0.4540    0.0000 N   0  0  0  0  0  0  0  0  0  0  0  0
  1  2  1  0  0  0  0
  1  3  1  0  0  0  0
  2  4  1  0  0  0  0
  3  5  1  0  0  0  0
  4  6  1  0  0  0  0
  5  7  1  0  0  0  0
  6  8  3  0  0  0  0
  7  9  3  0  0  0  0
M  END