286
  Mrv0541 04071411322D          

  8  8  0  0  0  0            999 V2000
   -0.0961    0.3589    0.0000 C   0  0  0  0  0  0  0  0  0  0  0  0
   -0.8027   -0.0591    0.0000 C   0  0  0  0  0  0  0  0  0  0  0  0
    0.6251   -0.0463    0.0000 C   0  0  0  0  0  0  0  0  0  0  0  0
   -0.0961    1.1875    0.0000 N   0  0  0  0  0  0  0  0  0  0  0  0
   -0.8027   -0.8841    0.0000 C   0  0  0  0  0  0  0  0  0  0  0  0
    0.6251   -0.8749    0.0000 C   0  0  0  0  0  0  0  0  0  0  0  0
    0.6251    1.5962    0.0000 C   0  0  0  0  0  0  0  0  0  0  0  0
   -0.0833   -1.2799    0.0000 C   0  0  0  0  0  0  0  0  0  0  0  0
  1  2  2  0  0  0  0
  1  3  1  0  0  0  0
  1  4  1  0  0  0  0
  2  5  1  0  0  0  0
  3  6  2  0  0  0  0
  4  7  1  0  0  0  0
  5  8  2  0  0  0  0
  6  8  1  0  0  0  0
M  END