287
  Mrv0541 04071411322D          

 11 11  0  0  0  0            999 V2000
    0.2120    0.1068    0.0000 C   0  0  0  0  0  0  0  0  0  0  0  0
   -0.5279    0.5309    0.0000 N   0  0  0  0  0  0  0  0  0  0  0  0
    0.2120   -0.7088    0.0000 C   0  0  0  0  0  0  0  0  0  0  0  0
    0.9209    0.5309    0.0000 C   0  0  0  0  0  0  0  0  0  0  0  0
   -1.2382    0.1068    0.0000 C   0  0  0  0  0  0  0  0  0  0  0  0
   -0.5339    1.3435    0.0000 C   0  0  0  0  0  0  0  0  0  0  0  0
    0.9342   -1.1077    0.0000 C   0  0  0  0  0  0  0  0  0  0  0  0
    1.6164    0.1290    0.0000 C   0  0  0  0  0  0  0  0  0  0  0  0
   -1.2485   -0.7207    0.0000 C   0  0  0  0  0  0  0  0  0  0  0  0
   -1.9604    0.5101    0.0000 O   0  0  0  0  0  0  0  0  0  0  0  0
    1.6119   -0.7207    0.0000 C   0  0  0  0  0  0  0  0  0  0  0  0
  1  2  1  0  0  0  0
  1  3  1  0  0  0  0
  1  4  2  0  0  0  0
  2  5  1  0  0  0  0
  2  6  1  0  0  0  0
  3  7  2  0  0  0  0
  4  8  1  0  0  0  0
  5  9  1  0  0  0  0
  5 10  2  0  0  0  0
  7 11  1  0  0  0  0
  8 11  2  0  0  0  0
M  END