288
  Mrv0541 04071411322D          

 11 11  0  0  0  0            999 V2000
   -0.1096   -0.0631    0.0000 C   0  0  0  0  0  0  0  0  0  0  0  0
    0.7116   -0.0631    0.0000 N   0  0  0  0  0  0  0  0  0  0  0  0
   -0.5276    0.6578    0.0000 C   0  0  0  0  0  0  0  0  0  0  0  0
   -0.5370   -0.7655    0.0000 C   0  0  0  0  0  0  0  0  0  0  0  0
    1.1092   -0.7990    0.0000 C   0  0  0  0  0  0  0  0  0  0  0  0
    1.1408    0.6355    0.0000 C   0  0  0  0  0  0  0  0  0  0  0  0
   -1.3489    0.6559    0.0000 C   0  0  0  0  0  0  0  0  0  0  0  0
   -1.3620   -0.7655    0.0000 C   0  0  0  0  0  0  0  0  0  0  0  0
    1.9490   -0.8064    0.0000 C   0  0  0  0  0  0  0  0  0  0  0  0
    0.7395    1.3583    0.0000 C   0  0  0  0  0  0  0  0  0  0  0  0
   -1.7670   -0.0446    0.0000 C   0  0  0  0  0  0  0  0  0  0  0  0
  1  2  1  0  0  0  0
  1  3  2  0  0  0  0
  1  4  1  0  0  0  0
  2  5  1  0  0  0  0
  2  6  1  0  0  0  0
  3  7  1  0  0  0  0
  4  8  2  0  0  0  0
  5  9  1  0  0  0  0
  6 10  1  0  0  0  0
  7 11  2  0  0  0  0
  8 11  1  0  0  0  0
M  END