289
  Mrv0541 04071411322D          

  9  9  0  0  0  0            999 V2000
   -0.0018    0.1831    0.0000 C   0  0  0  0  0  0  0  0  0  0  0  0
   -0.7122   -0.2256    0.0000 C   0  0  0  0  0  0  0  0  0  0  0  0
    0.7158   -0.2368    0.0000 C   0  0  0  0  0  0  0  0  0  0  0  0
   -0.0018    1.0081    0.0000 N   0  0  0  0  0  0  0  0  0  0  0  0
   -0.7122   -1.0506    0.0000 C   0  0  0  0  0  0  0  0  0  0  0  0
    0.7158   -1.0636    0.0000 C   0  0  0  0  0  0  0  0  0  0  0  0
    0.7158    1.4261    0.0000 C   0  0  0  0  0  0  0  0  0  0  0  0
   -0.7122    1.4169    0.0000 C   0  0  0  0  0  0  0  0  0  0  0  0
   -0.0018   -1.4594    0.0000 C   0  0  0  0  0  0  0  0  0  0  0  0
  1  2  2  0  0  0  0
  1  3  1  0  0  0  0
  1  4  1  0  0  0  0
  2  5  1  0  0  0  0
  3  6  2  0  0  0  0
  4  7  1  0  0  0  0
  4  8  1  0  0  0  0
  5  9  2  0  0  0  0
  6  9  1  0  0  0  0
M  END