29
  Mrv0541 04071411322D          

 13 15  0  0  0  0            999 V2000
   -0.4069   -0.2571    0.0000 C   0  0  0  0  0  0  0  0  0  0  0  0
    0.4051   -0.2571    0.0000 C   0  0  0  0  0  0  0  0  0  0  0  0
   -0.6678    0.5272    0.0000 C   0  0  0  0  0  0  0  0  0  0  0  0
   -0.9619   -0.8675    0.0000 C   0  0  0  0  0  0  0  0  0  0  0  0
    0.6659    0.5272    0.0000 C   0  0  0  0  0  0  0  0  0  0  0  0
    0.9674   -0.8675    0.0000 C   0  0  0  0  0  0  0  0  0  0  0  0
    0.0018    1.0155    0.0000 C   0  0  0  0  0  0  0  0  0  0  0  0
   -1.4780    0.6992    0.0000 C   0  0  0  0  0  0  0  0  0  0  0  0
   -1.7685   -0.6955    0.0000 C   0  0  0  0  0  0  0  0  0  0  0  0
    1.4724    0.6992    0.0000 C   0  0  0  0  0  0  0  0  0  0  0  0
    1.7739   -0.6955    0.0000 C   0  0  0  0  0  0  0  0  0  0  0  0
   -2.0292    0.0832    0.0000 C   0  0  0  0  0  0  0  0  0  0  0  0
    2.0292    0.0832    0.0000 C   0  0  0  0  0  0  0  0  0  0  0  0
  1  2  1  0  0  0  0
  1  3  2  0  0  0  0
  1  4  1  0  0  0  0
  2  5  1  0  0  0  0
  2  6  2  0  0  0  0
  3  7  1  0  0  0  0
  3  8  1  0  0  0  0
  4  9  2  0  0  0  0
  5 10  2  0  0  0  0
  6 11  1  0  0  0  0
  8 12  2  0  0  0  0
 10 13  1  0  0  0  0
  5  7  1  0  0  0  0
  9 12  1  0  0  0  0
 11 13  2  0  0  0  0
M  END