290
  Mrv0541 04071411322D          

  9  9  0  0  0  0            999 V2000
    0.0034   -0.1822    0.0000 C   0  0  0  0  0  0  0  0  0  0  0  0
    0.7284   -0.5773    0.0000 C   0  0  0  0  0  0  0  0  0  0  0  0
   -0.0171    0.6392    0.0000 C   0  0  0  0  0  0  0  0  0  0  0  0
   -0.6941   -0.6116    0.0000 N   0  0  0  0  0  0  0  0  0  0  0  0
    1.4260   -0.1443    0.0000 C   0  0  0  0  0  0  0  0  0  0  0  0
    0.6873    1.0686    0.0000 C   0  0  0  0  0  0  0  0  0  0  0  0
   -1.4190   -0.2199    0.0000 C   0  0  0  0  0  0  0  0  0  0  0  0
    1.4157    0.6769    0.0000 C   0  0  0  0  0  0  0  0  0  0  0  0
   -2.1269   -0.6563    0.0000 C   0  0  0  0  0  0  0  0  0  0  0  0
  1  2  2  0  0  0  0
  1  3  1  0  0  0  0
  1  4  1  0  0  0  0
  2  5  1  0  0  0  0
  3  6  2  0  0  0  0
  4  7  1  0  0  0  0
  5  8  2  0  0  0  0
  7  9  1  0  0  0  0
  6  8  1  0  0  0  0
M  END