291
  Mrv0541 04071411322D          

  9  9  0  0  0  0            999 V2000
    0.5533    0.3235    0.0000 C   0  0  0  0  0  0  0  0  0  0  0  0
   -0.1608    0.7366    0.0000 C   0  0  0  0  0  0  0  0  0  0  0  0
    0.5533   -0.5104    0.0000 C   0  0  0  0  0  0  0  0  0  0  0  0
    1.2844    0.7478    0.0000 N   0  0  0  0  0  0  0  0  0  0  0  0
   -0.8768    0.3141    0.0000 C   0  0  0  0  0  0  0  0  0  0  0  0
   -0.1608    1.5610    0.0000 C   0  0  0  0  0  0  0  0  0  0  0  0
   -0.1608   -0.9235    0.0000 C   0  0  0  0  0  0  0  0  0  0  0  0
   -0.8768   -0.5104    0.0000 C   0  0  0  0  0  0  0  0  0  0  0  0
   -0.1608   -1.7461    0.0000 N   0  0  0  0  0  0  0  0  0  0  0  0
  1  2  2  0  0  0  0
  1  3  1  0  0  0  0
  1  4  1  0  0  0  0
  2  5  1  0  0  0  0
  2  6  1  0  0  0  0
  3  7  2  0  0  0  0
  5  8  2  0  0  0  0
  7  9  1  0  0  0  0
  7  8  1  0  0  0  0
M  END