293
  Mrv0541 04071411322D          

  9  9  0  0  0  0            999 V2000
    0.0018    0.6456    0.0000 C   0  0  0  0  0  0  0  0  0  0  0  0
    0.7146    0.2332    0.0000 C   0  0  0  0  0  0  0  0  0  0  0  0
   -0.7127    0.2220    0.0000 C   0  0  0  0  0  0  0  0  0  0  0  0
    0.0018    1.4666    0.0000 N   0  0  0  0  0  0  0  0  0  0  0  0
    0.7146   -0.5989    0.0000 C   0  0  0  0  0  0  0  0  0  0  0  0
    1.4293    0.6549    0.0000 C   0  0  0  0  0  0  0  0  0  0  0  0
   -0.7127   -0.5989    0.0000 C   0  0  0  0  0  0  0  0  0  0  0  0
    0.0018   -1.0113    0.0000 C   0  0  0  0  0  0  0  0  0  0  0  0
   -1.4386   -1.0113    0.0000 C   0  0  0  0  0  0  0  0  0  0  0  0
  1  2  2  0  0  0  0
  1  3  1  0  0  0  0
  1  4  1  0  0  0  0
  2  5  1  0  0  0  0
  2  6  1  0  0  0  0
  3  7  2  0  0  0  0
  5  8  2  0  0  0  0
  7  9  1  0  0  0  0
  7  8  1  0  0  0  0
M  END