295
  Mrv0541 04071411322D          

 20 22  0  0  0  0            999 V2000
    0.7137   -0.4033    0.0000 C   0  0  0  0  0  0  0  0  0  0  0  0
    1.4354   -0.8205    0.0000 N   0  0  0  0  0  0  0  0  0  0  0  0
    0.7137    0.4072    0.0000 C   0  0  0  0  0  0  0  0  0  0  0  0
    0.0020   -0.8225    0.0000 C   0  0  0  0  0  0  0  0  0  0  0  0
    2.1511   -0.3992    0.0000 C   0  0  0  0  0  0  0  0  0  0  0  0
    0.0020    0.8245    0.0000 C   0  0  0  0  0  0  0  0  0  0  0  0
   -0.7116   -0.4113    0.0000 C   0  0  0  0  0  0  0  0  0  0  0  0
    2.1511    0.4193    0.0000 C   0  0  0  0  0  0  0  0  0  0  0  0
    2.8728   -0.8144    0.0000 C   0  0  0  0  0  0  0  0  0  0  0  0
   -0.7137    0.4052    0.0000 C   0  0  0  0  0  0  0  0  0  0  0  0
    2.8667    0.8286    0.0000 C   0  0  0  0  0  0  0  0  0  0  0  0
    3.5905   -0.3992    0.0000 C   0  0  0  0  0  0  0  0  0  0  0  0
   -1.4374    0.8165    0.0000 N   0  0  0  0  0  0  0  0  0  0  0  0
    3.5905    0.4193    0.0000 C   0  0  0  0  0  0  0  0  0  0  0  0
   -2.1511    0.3992    0.0000 C   0  0  0  0  0  0  0  0  0  0  0  0
   -2.1511   -0.4193    0.0000 C   0  0  0  0  0  0  0  0  0  0  0  0
   -2.8748    0.8144    0.0000 C   0  0  0  0  0  0  0  0  0  0  0  0
   -2.8688   -0.8286    0.0000 C   0  0  0  0  0  0  0  0  0  0  0  0
   -3.5865    0.3992    0.0000 C   0  0  0  0  0  0  0  0  0  0  0  0
   -3.5865   -0.4193    0.0000 C   0  0  0  0  0  0  0  0  0  0  0  0
  1  2  1  0  0  0  0
  1  3  2  0  0  0  0
  1  4  1  0  0  0  0
  2  5  1  0  0  0  0
  3  6  1  0  0  0  0
  4  7  2  0  0  0  0
  5  8  1  0  0  0  0
  5  9  2  0  0  0  0
  6 10  2  0  0  0  0
  8 11  2  0  0  0  0
  9 12  1  0  0  0  0
 10 13  1  0  0  0  0
 11 14  1  0  0  0  0
 13 15  1  0  0  0  0
 15 16  1  0  0  0  0
 15 17  2  0  0  0  0
 16 18  2  0  0  0  0
 17 19  1  0  0  0  0
 18 20  1  0  0  0  0
  7 10  1  0  0  0  0
 12 14  2  0  0  0  0
 19 20  2  0  0  0  0
M  END