296
  Mrv0541 04071411322D          

  8  8  0  0  0  0            999 V2000
    0.0018   -0.6157    0.0000 C   0  0  0  0  0  0  0  0  0  0  0  0
   -0.7158   -0.2040    0.0000 C   0  0  0  0  0  0  0  0  0  0  0  0
    0.7158   -0.2040    0.0000 C   0  0  0  0  0  0  0  0  0  0  0  0
   -0.7158    0.6139    0.0000 C   0  0  0  0  0  0  0  0  0  0  0  0
   -1.4317   -0.6157    0.0000 N   0  0  0  0  0  0  0  0  0  0  0  0
    0.7158    0.6139    0.0000 C   0  0  0  0  0  0  0  0  0  0  0  0
    1.4280   -0.6157    0.0000 N   0  0  0  0  0  0  0  0  0  0  0  0
    0.0018    1.0311    0.0000 C   0  0  0  0  0  0  0  0  0  0  0  0
  1  2  2  0  0  0  0
  1  3  1  0  0  0  0
  2  4  1  0  0  0  0
  2  5  1  0  0  0  0
  3  6  2  0  0  0  0
  3  7  1  0  0  0  0
  4  8  2  0  0  0  0
  6  8  1  0  0  0  0
M  END