297
  Mrv0541 04071411322D          

  9  9  0  0  0  0            999 V2000
    2.1413    0.4132    0.0000 N   0  0  0  0  0  0  0  0  0  0  0  0
    1.4273    0.0000    0.0000 C   0  0  0  0  0  0  0  0  0  0  0  0
    0.7095    0.4125    0.0000 C   0  0  0  0  0  0  0  0  0  0  0  0
    0.0000    0.0000    0.0000 C   0  0  0  0  0  0  0  0  0  0  0  0
    0.0000   -0.8250    0.0000 C   0  0  0  0  0  0  0  0  0  0  0  0
    0.7095   -1.2375    0.0000 C   0  0  0  0  0  0  0  0  0  0  0  0
    1.4273   -0.8250    0.0000 C   0  0  0  0  0  0  0  0  0  0  0  0
    0.7074    1.2375    0.0000 C   0  0  0  0  0  0  0  0  0  0  0  0
    2.8562    0.0014    0.0000 C   0  0  0  0  0  0  0  0  0  0  0  0
  1  2  1  0  0  0  0
  2  3  1  0  0  0  0
  3  4  2  0  0  0  0
  4  5  1  0  0  0  0
  5  6  2  0  0  0  0
  6  7  1  0  0  0  0
  7  2  2  0  0  0  0
  3  8  1  0  0  0  0
  1  9  1  0  0  0  0
M  END