298
  Mrv0541 04071411322D          

 10 10  0  0  0  0            999 V2000
   -0.5009    0.0427    0.0000 C   0  0  0  0  0  0  0  0  0  0  0  0
    0.2134    0.4526    0.0000 C   0  0  0  0  0  0  0  0  0  0  0  0
   -0.5009   -0.7827    0.0000 C   0  0  0  0  0  0  0  0  0  0  0  0
   -1.2153    0.4554    0.0000 N   0  0  0  0  0  0  0  0  0  0  0  0
    0.9278    0.0399    0.0000 C   0  0  0  0  0  0  0  0  0  0  0  0
    0.2134   -1.1954    0.0000 C   0  0  0  0  0  0  0  0  0  0  0  0
   -1.2153    1.2779    0.0000 C   0  0  0  0  0  0  0  0  0  0  0  0
    0.9278   -0.7827    0.0000 C   0  0  0  0  0  0  0  0  0  0  0  0
   -0.5009    1.6906    0.0000 C   0  0  0  0  0  0  0  0  0  0  0  0
    1.6451   -1.1954    0.0000 C   0  0  0  0  0  0  0  0  0  0  0  0
  1  2  2  0  0  0  0
  1  3  1  0  0  0  0
  1  4  1  0  0  0  0
  2  5  1  0  0  0  0
  3  6  2  0  0  0  0
  4  7  1  0  0  0  0
  5  8  2  0  0  0  0
  7  9  1  0  0  0  0
  8 10  1  0  0  0  0
  6  8  1  0  0  0  0
M  END