3
  Mrv0541 04071411322D          

 10  9  0  0  0  0            999 V2000
    2.0692   -3.2852    0.0000 C   0  0  0  0  0  0  0  0  0  0  0  0
    2.7844   -2.8741    0.0000 C   0  0  0  0  0  0  0  0  0  0  0  0
    3.4915   -3.2852    0.0000 C   0  0  0  0  0  0  0  0  0  0  0  0
    4.2067   -2.8741    0.0000 C   0  0  0  0  0  0  0  0  0  0  0  0
    4.9139   -3.2852    0.0000 C   0  0  0  0  0  0  0  0  0  0  0  0
    5.6291   -2.8741    0.0000 C   0  0  0  0  0  0  0  0  0  0  0  0
    6.3444   -3.2852    0.0000 C   0  0  0  0  0  0  0  0  0  0  0  0
    5.6291   -2.0520    0.0000 C   0  0  0  0  0  0  0  0  0  0  0  0
    2.7783   -2.0486    0.0000 C   0  0  0  0  0  0  0  0  0  0  0  0
    4.2032   -2.0486    0.0000 C   0  0  0  0  0  0  0  0  0  0  0  0
  2  3  1  0  0  0  0
  3  4  2  0  0  0  0
  4  5  1  0  0  0  0
  5  6  1  0  0  0  0
  6  7  1  0  0  0  0
  6  8  1  0  0  0  0
  2  9  1  0  0  0  0
  1  2  1  0  0  0  0
  4 10  1  0  0  0  0
M  END