30
  Mrv0541 04071411322D          

 14 16  0  0  0  0            999 V2000
   -0.7142    0.4071    0.0000 C   0  0  0  0  0  0  0  0  0  0  0  0
   -0.7142   -0.4071    0.0000 C   0  0  0  0  0  0  0  0  0  0  0  0
    0.0018    0.8215    0.0000 C   0  0  0  0  0  0  0  0  0  0  0  0
   -1.4285    0.8215    0.0000 C   0  0  0  0  0  0  0  0  0  0  0  0
    0.0018   -0.8215    0.0000 C   0  0  0  0  0  0  0  0  0  0  0  0
   -1.4285   -0.8215    0.0000 C   0  0  0  0  0  0  0  0  0  0  0  0
    0.7142    0.4071    0.0000 C   0  0  0  0  0  0  0  0  0  0  0  0
   -2.1445    0.4071    0.0000 C   0  0  0  0  0  0  0  0  0  0  0  0
    0.7142   -0.4071    0.0000 C   0  0  0  0  0  0  0  0  0  0  0  0
   -2.1445   -0.4071    0.0000 C   0  0  0  0  0  0  0  0  0  0  0  0
    1.4248    0.8215    0.0000 C   0  0  0  0  0  0  0  0  0  0  0  0
    1.4248   -0.8215    0.0000 C   0  0  0  0  0  0  0  0  0  0  0  0
    2.1482    0.4071    0.0000 C   0  0  0  0  0  0  0  0  0  0  0  0
    2.1482   -0.4071    0.0000 C   0  0  0  0  0  0  0  0  0  0  0  0
  1  2  2  0  0  0  0
  1  3  1  0  0  0  0
  1  4  1  0  0  0  0
  2  5  1  0  0  0  0
  2  6  1  0  0  0  0
  3  7  2  0  0  0  0
  4  8  2  0  0  0  0
  5  9  2  0  0  0  0
  6 10  2  0  0  0  0
  7 11  1  0  0  0  0
  9 12  1  0  0  0  0
 11 13  2  0  0  0  0
 12 14  2  0  0  0  0
  7  9  1  0  0  0  0
  8 10  1  0  0  0  0
 13 14  1  0  0  0  0
M  END