300
  Mrv0541 04071411322D          

  8  8  0  0  0  0            999 V2000
   -0.1850    0.5124    0.0000 C   0  0  0  0  0  0  0  0  0  0  0  0
    0.5327    0.1054    0.0000 C   0  0  0  0  0  0  0  0  0  0  0  0
   -0.8894    0.0962    0.0000 C   0  0  0  0  0  0  0  0  0  0  0  0
   -0.1850    1.3390    0.0000 N   0  0  0  0  0  0  0  0  0  0  0  0
    0.5327   -0.7212    0.0000 C   0  0  0  0  0  0  0  0  0  0  0  0
    1.2557    0.5346    0.0000 Cl  0  0  0  0  0  0  0  0  0  0  0  0
   -0.8894   -0.7322    0.0000 C   0  0  0  0  0  0  0  0  0  0  0  0
   -0.1720   -1.1280    0.0000 C   0  0  0  0  0  0  0  0  0  0  0  0
  1  2  2  0  0  0  0
  1  3  1  0  0  0  0
  1  4  1  0  0  0  0
  2  5  1  0  0  0  0
  2  6  1  0  0  0  0
  3  7  2  0  0  0  0
  5  8  2  0  0  0  0
  7  8  1  0  0  0  0
M  END