301
  Mrv0541 04071411322D          

  9  9  0  0  0  0            999 V2000
    0.3199   -0.5537    0.0000 C   0  0  0  0  0  0  0  0  0  0  0  0
    0.7352    0.1553    0.0000 C   0  0  0  0  0  0  0  0  0  0  0  0
   -0.5051   -0.5537    0.0000 C   0  0  0  0  0  0  0  0  0  0  0  0
    0.7352   -1.2759    0.0000 Cl  0  0  0  0  0  0  0  0  0  0  0  0
    0.3199    0.8773    0.0000 C   0  0  0  0  0  0  0  0  0  0  0  0
    1.5751    0.1553    0.0000 Cl  0  0  0  0  0  0  0  0  0  0  0  0
   -0.9205    0.1553    0.0000 C   0  0  0  0  0  0  0  0  0  0  0  0
   -0.5051    0.8773    0.0000 C   0  0  0  0  0  0  0  0  0  0  0  0
   -1.7528    0.1609    0.0000 N   0  0  0  0  0  0  0  0  0  0  0  0
  1  2  2  0  0  0  0
  1  3  1  0  0  0  0
  1  4  1  0  0  0  0
  2  5  1  0  0  0  0
  2  6  1  0  0  0  0
  3  7  2  0  0  0  0
  5  8  2  0  0  0  0
  7  9  1  0  0  0  0
  7  8  1  0  0  0  0
M  END