303
  Mrv0541 04071411322D          

  9  9  0  0  0  0            999 V2000
   -0.5639   -0.3025    0.0000 C   0  0  0  0  0  0  0  0  0  0  0  0
   -0.5399    0.5157    0.0000 C   0  0  0  0  0  0  0  0  0  0  0  0
    0.1341   -0.7393    0.0000 C   0  0  0  0  0  0  0  0  0  0  0  0
   -1.2860   -0.6911    0.0000 Cl  0  0  0  0  0  0  0  0  0  0  0  0
    0.1823    0.9146    0.0000 C   0  0  0  0  0  0  0  0  0  0  0  0
   -1.2413    0.9525    0.0000 N   0  0  0  0  0  0  0  0  0  0  0  0
    0.8562   -0.3507    0.0000 C   0  0  0  0  0  0  0  0  0  0  0  0
    0.8906    0.4779    0.0000 C   0  0  0  0  0  0  0  0  0  0  0  0
    1.5679   -0.7806    0.0000 Cl  0  0  0  0  0  0  0  0  0  0  0  0
  1  2  2  0  0  0  0
  1  3  1  0  0  0  0
  1  4  1  0  0  0  0
  2  5  1  0  0  0  0
  2  6  1  0  0  0  0
  3  7  2  0  0  0  0
  5  8  2  0  0  0  0
  7  9  1  0  0  0  0
  7  8  1  0  0  0  0
M  END