304
  Mrv0541 04071411322D          

  9  9  0  0  0  0            999 V2000
    0.5512    0.3237    0.0000 C   0  0  0  0  0  0  0  0  0  0  0  0
   -0.1591    0.7270    0.0000 C   0  0  0  0  0  0  0  0  0  0  0  0
    0.5567   -0.5013    0.0000 C   0  0  0  0  0  0  0  0  0  0  0  0
    1.2708    0.7325    0.0000 C   0  0  0  0  0  0  0  0  0  0  0  0
   -0.8749    0.3108    0.0000 C   0  0  0  0  0  0  0  0  0  0  0  0
   -0.1591    1.5575    0.0000 N   0  0  0  0  0  0  0  0  0  0  0  0
   -0.1517   -0.9101    0.0000 C   0  0  0  0  0  0  0  0  0  0  0  0
   -0.8749   -0.5068    0.0000 C   0  0  0  0  0  0  0  0  0  0  0  0
   -0.1572   -1.7351    0.0000 Cl  0  0  0  0  0  0  0  0  0  0  0  0
  1  2  2  0  0  0  0
  1  3  1  0  0  0  0
  1  4  1  0  0  0  0
  2  5  1  0  0  0  0
  2  6  1  0  0  0  0
  3  7  2  0  0  0  0
  5  8  2  0  0  0  0
  7  9  1  0  0  0  0
  7  8  1  0  0  0  0
M  END