306
  Mrv0541 04071411322D          

 10 10  0  0  0  0            999 V2000
    0.0018   -0.5745    0.0000 C   0  0  0  0  0  0  0  0  0  0  0  0
   -0.7153   -0.1631    0.0000 C   0  0  0  0  0  0  0  0  0  0  0  0
    0.7153   -0.1631    0.0000 C   0  0  0  0  0  0  0  0  0  0  0  0
   -0.7153    0.6542    0.0000 C   0  0  0  0  0  0  0  0  0  0  0  0
   -1.4344   -0.5745    0.0000 C   0  0  0  0  0  0  0  0  0  0  0  0
    0.7153    0.6542    0.0000 C   0  0  0  0  0  0  0  0  0  0  0  0
    1.4270   -0.5745    0.0000 C   0  0  0  0  0  0  0  0  0  0  0  0
    0.0018    1.0711    0.0000 C   0  0  0  0  0  0  0  0  0  0  0  0
   -2.1479   -0.1631    0.0000 N   0  0  0  0  0  0  0  0  0  0  0  0
    2.1515   -0.1631    0.0000 N   0  0  0  0  0  0  0  0  0  0  0  0
  1  2  2  0  0  0  0
  1  3  1  0  0  0  0
  2  4  1  0  0  0  0
  2  5  1  0  0  0  0
  3  6  2  0  0  0  0
  3  7  1  0  0  0  0
  4  8  2  0  0  0  0
  5  9  1  0  0  0  0
  7 10  1  0  0  0  0
  6  8  1  0  0  0  0
M  END