307
  Mrv0541 04071411322D          

 10 10  0  0  0  0            999 V2000
   -0.2830   -0.0018    0.0000 C   0  0  0  0  0  0  0  0  0  0  0  0
    0.4273   -0.4106    0.0000 C   0  0  0  0  0  0  0  0  0  0  0  0
   -1.0026   -0.4106    0.0000 C   0  0  0  0  0  0  0  0  0  0  0  0
   -0.2830    0.8232    0.0000 C   0  0  0  0  0  0  0  0  0  0  0  0
    0.4273   -1.2356    0.0000 C   0  0  0  0  0  0  0  0  0  0  0  0
   -1.0026   -1.2264    0.0000 C   0  0  0  0  0  0  0  0  0  0  0  0
    0.4273    1.2320    0.0000 N   0  0  0  0  0  0  0  0  0  0  0  0
   -0.2830   -1.6444    0.0000 C   0  0  0  0  0  0  0  0  0  0  0  0
    0.4273    2.0569    0.0000 C   0  0  0  0  0  0  0  0  0  0  0  0
    1.1487    0.8232    0.0000 C   0  0  0  0  0  0  0  0  0  0  0  0
  1  2  1  0  0  0  0
  1  3  2  0  0  0  0
  1  4  1  0  0  0  0
  2  5  2  0  0  0  0
  3  6  1  0  0  0  0
  4  7  1  0  0  0  0
  5  8  1  0  0  0  0
  7  9  1  0  0  0  0
  7 10  1  0  0  0  0
  6  8  2  0  0  0  0
M  END