308
  Mrv0541 04071411322D          

 10 10  0  0  0  0            999 V2000
   -0.2183   -0.0408    0.0000 C   0  0  0  0  0  0  0  0  0  0  0  0
    0.5032    0.3792    0.0000 C   0  0  0  0  0  0  0  0  0  0  0  0
   -0.2183   -0.8694    0.0000 C   0  0  0  0  0  0  0  0  0  0  0  0
   -0.9212    0.3884    0.0000 N   0  3  0  0  0  0  0  0  0  0  0  0
    1.2097   -0.0499    0.0000 C   0  0  0  0  0  0  0  0  0  0  0  0
    0.5032    1.1931    0.0000 N   0  0  0  0  0  0  0  0  0  0  0  0
    0.4920   -1.2745    0.0000 C   0  0  0  0  0  0  0  0  0  0  0  0
   -1.6426   -0.0166    0.0000 O   0  0  0  0  0  0  0  0  0  0  0  0
   -0.9212    1.1691    0.0000 O   0  5  0  0  0  0  0  0  0  0  0  0
    1.2097   -0.8749    0.0000 C   0  0  0  0  0  0  0  0  0  0  0  0
  1  2  2  0  0  0  0
  1  3  1  0  0  0  0
  1  4  1  0  0  0  0
  2  5  1  0  0  0  0
  2  6  1  0  0  0  0
  3  7  2  0  0  0  0
  4  8  2  0  0  0  0
  4  9  1  0  0  0  0
  5 10  2  0  0  0  0
  7 10  1  0  0  0  0
M  CHG  2   4   1   9  -1
M  END