31
  Mrv0541 04071411322D          

 14 16  0  0  0  0            999 V2000
    0.4068    0.2016    0.0000 C   0  0  0  0  0  0  0  0  0  0  0  0
   -0.4068    0.2016    0.0000 C   0  0  0  0  0  0  0  0  0  0  0  0
    0.8212   -0.5087    0.0000 C   0  0  0  0  0  0  0  0  0  0  0  0
    0.8212    0.9192    0.0000 C   0  0  0  0  0  0  0  0  0  0  0  0
   -0.8212   -0.5087    0.0000 C   0  0  0  0  0  0  0  0  0  0  0  0
   -0.8212    0.9192    0.0000 C   0  0  0  0  0  0  0  0  0  0  0  0
    0.4068   -1.2262    0.0000 C   0  0  0  0  0  0  0  0  0  0  0  0
    1.6461   -0.5087    0.0000 C   0  0  0  0  0  0  0  0  0  0  0  0
    1.6461    0.9192    0.0000 C   0  0  0  0  0  0  0  0  0  0  0  0
   -0.4068   -1.2262    0.0000 C   0  0  0  0  0  0  0  0  0  0  0  0
   -1.6461   -0.5087    0.0000 C   0  0  0  0  0  0  0  0  0  0  0  0
   -1.6461    0.9192    0.0000 C   0  0  0  0  0  0  0  0  0  0  0  0
    2.0659    0.2016    0.0000 C   0  0  0  0  0  0  0  0  0  0  0  0
   -2.0677    0.2016    0.0000 C   0  0  0  0  0  0  0  0  0  0  0  0
  1  2  2  0  0  0  0
  1  3  1  0  0  0  0
  1  4  1  0  0  0  0
  2  5  1  0  0  0  0
  2  6  1  0  0  0  0
  3  7  2  0  0  0  0
  3  8  1  0  0  0  0
  4  9  2  0  0  0  0
  5 10  2  0  0  0  0
  5 11  1  0  0  0  0
  6 12  2  0  0  0  0
  8 13  2  0  0  0  0
 11 14  2  0  0  0  0
  7 10  1  0  0  0  0
  9 13  1  0  0  0  0
 12 14  1  0  0  0  0
M  END