312
  Mrv0541 04071411322D          

 15 16  0  0  0  0            999 V2000
    0.0554   -0.5137    0.0000 N   0  0  0  0  0  0  0  0  0  0  0  0
    0.7558   -0.1090    0.0000 C   0  0  0  0  0  0  0  0  0  0  0  0
   -0.6653   -0.1183    0.0000 C   0  0  0  0  0  0  0  0  0  0  0  0
    0.0591   -1.3434    0.0000 N   0  0  0  0  0  0  0  0  0  0  0  0
    1.4765   -0.5063    0.0000 C   0  0  0  0  0  0  0  0  0  0  0  0
    0.7558    0.7133    0.0000 C   0  0  0  0  0  0  0  0  0  0  0  0
   -0.6653    0.7058    0.0000 C   0  0  0  0  0  0  0  0  0  0  0  0
   -1.3823   -0.5193    0.0000 C   0  0  0  0  0  0  0  0  0  0  0  0
   -0.6579   -1.7629    0.0000 O   0  0  0  0  0  0  0  0  0  0  0  0
    2.1953   -0.0980    0.0000 C   0  0  0  0  0  0  0  0  0  0  0  0
    1.4691    1.1309    0.0000 C   0  0  0  0  0  0  0  0  0  0  0  0
   -1.3878    1.1217    0.0000 C   0  0  0  0  0  0  0  0  0  0  0  0
   -2.0992   -0.1238    0.0000 C   0  0  0  0  0  0  0  0  0  0  0  0
    2.1880    0.7189    0.0000 C   0  0  0  0  0  0  0  0  0  0  0  0
   -2.0992    0.7022    0.0000 C   0  0  0  0  0  0  0  0  0  0  0  0
  1  2  1  0  0  0  0
  1  3  1  0  0  0  0
  1  4  1  0  0  0  0
  2  5  2  0  0  0  0
  2  6  1  0  0  0  0
  3  7  2  0  0  0  0
  3  8  1  0  0  0  0
  4  9  2  0  0  0  0
  5 10  1  0  0  0  0
  6 11  2  0  0  0  0
  7 12  1  0  0  0  0
  8 13  2  0  0  0  0
 10 14  2  0  0  0  0
 12 15  2  0  0  0  0
 11 14  1  0  0  0  0
 13 15  1  0  0  0  0
M  END