313
  Mrv0541 04071411322D          

  9  9  0  0  0  0            999 V2000
   -0.1366   -0.0070    0.0000 C   0  0  0  0  0  0  0  0  0  0  0  0
    0.2695   -0.7141    0.0000 C   0  0  0  0  0  0  0  0  0  0  0  0
    0.2695    0.7071    0.0000 C   0  0  0  0  0  0  0  0  0  0  0  0
   -0.9557   -0.0070    0.0000 N   0  3  0  0  0  0  0  0  0  0  0  0
    1.0993   -0.7141    0.0000 C   0  0  0  0  0  0  0  0  0  0  0  0
    1.0993    0.7071    0.0000 C   0  0  0  0  0  0  0  0  0  0  0  0
   -1.5928   -0.7527    0.0000 O   0  0  0  0  0  0  0  0  0  0  0  0
   -1.5648    0.7911    0.0000 O   0  5  0  0  0  0  0  0  0  0  0  0
    1.5124   -0.0070    0.0000 C   0  0  0  0  0  0  0  0  0  0  0  0
  1  2  2  0  0  0  0
  1  3  1  0  0  0  0
  1  4  1  0  0  0  0
  2  5  1  0  0  0  0
  3  6  2  0  0  0  0
  4  7  2  0  0  0  0
  4  8  1  0  0  0  0
  5  9  2  0  0  0  0
  6  9  1  0  0  0  0
M  CHG  2   4   1   8  -1
M  END