314
  Mrv0541 04071411322D          

 10 10  0  0  0  0            999 V2000
    0.2131   -0.0486    0.0000 C   0  0  0  0  0  0  0  0  0  0  0  0
   -0.5046    0.3756    0.0000 C   0  0  0  0  0  0  0  0  0  0  0  0
    0.2131   -0.8710    0.0000 C   0  0  0  0  0  0  0  0  0  0  0  0
    0.9384    0.3850    0.0000 N   0  3  0  0  0  0  0  0  0  0  0  0
   -1.2187   -0.0486    0.0000 C   0  0  0  0  0  0  0  0  0  0  0  0
   -0.5046    1.1981    0.0000 C   0  0  0  0  0  0  0  0  0  0  0  0
   -0.5046   -1.2841    0.0000 C   0  0  0  0  0  0  0  0  0  0  0  0
    1.6430   -0.0374    0.0000 O   0  0  0  0  0  0  0  0  0  0  0  0
    0.9384    1.2018    0.0000 O   0  5  0  0  0  0  0  0  0  0  0  0
   -1.2187   -0.8710    0.0000 C   0  0  0  0  0  0  0  0  0  0  0  0
  1  2  2  0  0  0  0
  1  3  1  0  0  0  0
  1  4  1  0  0  0  0
  2  5  1  0  0  0  0
  2  6  1  0  0  0  0
  3  7  2  0  0  0  0
  4  8  2  0  0  0  0
  4  9  1  0  0  0  0
  5 10  2  0  0  0  0
  7 10  1  0  0  0  0
M  CHG  2   4   1   9  -1
M  END