315
  Mrv0541 04071411322D          

 10 10  0  0  0  0            999 V2000
    0.2886    0.2165    0.0000 C   0  0  0  0  0  0  0  0  0  0  0  0
   -0.5367    0.2165    0.0000 C   0  0  0  0  0  0  0  0  0  0  0  0
    0.7014   -0.4978    0.0000 C   0  0  0  0  0  0  0  0  0  0  0  0
    0.7014    0.9290    0.0000 N   0  3  0  0  0  0  0  0  0  0  0  0
   -0.9457   -0.4978    0.0000 C   0  0  0  0  0  0  0  0  0  0  0  0
    0.2886   -1.2121    0.0000 C   0  0  0  0  0  0  0  0  0  0  0  0
    0.2831    1.6322    0.0000 O   0  0  0  0  0  0  0  0  0  0  0  0
    1.5230    0.9216    0.0000 O   0  5  0  0  0  0  0  0  0  0  0  0
   -0.5367   -1.2121    0.0000 C   0  0  0  0  0  0  0  0  0  0  0  0
   -1.7710   -0.4978    0.0000 C   0  0  0  0  0  0  0  0  0  0  0  0
  1  2  2  0  0  0  0
  1  3  1  0  0  0  0
  1  4  1  0  0  0  0
  2  5  1  0  0  0  0
  3  6  2  0  0  0  0
  4  7  2  0  0  0  0
  4  8  1  0  0  0  0
  5  9  2  0  0  0  0
  5 10  1  0  0  0  0
  6  9  1  0  0  0  0
M  CHG  2   4   1   8  -1
M  END