32
  Mrv0541 04071411322D          

 16 19  0  0  0  0            999 V2000
    0.4069   -0.0018    0.0000 C   0  0  0  0  0  0  0  0  0  0  0  0
   -0.4069   -0.0018    0.0000 C   0  0  0  0  0  0  0  0  0  0  0  0
    0.8212   -0.7139    0.0000 C   0  0  0  0  0  0  0  0  0  0  0  0
    0.8212    0.7139    0.0000 C   0  0  0  0  0  0  0  0  0  0  0  0
   -0.8212   -0.7139    0.0000 C   0  0  0  0  0  0  0  0  0  0  0  0
   -0.8212    0.7139    0.0000 C   0  0  0  0  0  0  0  0  0  0  0  0
    0.4069   -1.4243    0.0000 C   0  0  0  0  0  0  0  0  0  0  0  0
    1.6462   -0.7139    0.0000 C   0  0  0  0  0  0  0  0  0  0  0  0
    0.4069    1.4280    0.0000 C   0  0  0  0  0  0  0  0  0  0  0  0
    1.6462    0.7139    0.0000 C   0  0  0  0  0  0  0  0  0  0  0  0
   -0.4069   -1.4243    0.0000 C   0  0  0  0  0  0  0  0  0  0  0  0
   -1.6462   -0.7139    0.0000 C   0  0  0  0  0  0  0  0  0  0  0  0
   -0.4069    1.4280    0.0000 C   0  0  0  0  0  0  0  0  0  0  0  0
   -1.6462    0.7139    0.0000 C   0  0  0  0  0  0  0  0  0  0  0  0
    2.0660   -0.0018    0.0000 C   0  0  0  0  0  0  0  0  0  0  0  0
   -2.0679   -0.0018    0.0000 C   0  0  0  0  0  0  0  0  0  0  0  0
  1  2  2  0  0  0  0
  1  3  1  0  0  0  0
  1  4  1  0  0  0  0
  2  5  1  0  0  0  0
  2  6  1  0  0  0  0
  3  7  2  0  0  0  0
  3  8  1  0  0  0  0
  4  9  1  0  0  0  0
  4 10  2  0  0  0  0
  5 11  2  0  0  0  0
  5 12  1  0  0  0  0
  6 13  1  0  0  0  0
  6 14  2  0  0  0  0
  8 15  2  0  0  0  0
 12 16  2  0  0  0  0
  7 11  1  0  0  0  0
  9 13  2  0  0  0  0
 10 15  1  0  0  0  0
 14 16  1  0  0  0  0
M  END