323
  Mrv0541 04071411322D          

  8  8  0  0  0  0            999 V2000
    0.5397    0.3179    0.0000 C   0  0  0  0  0  0  0  0  0  0  0  0
    0.5323   -0.5120    0.0000 C   0  0  0  0  0  0  0  0  0  0  0  0
   -0.1830    0.7301    0.0000 C   0  0  0  0  0  0  0  0  0  0  0  0
   -0.1830   -0.9204    0.0000 C   0  0  0  0  0  0  0  0  0  0  0  0
    1.2550   -0.9315    0.0000 N   0  0  0  0  0  0  0  0  0  0  0  0
   -0.8872    0.2976    0.0000 C   0  0  0  0  0  0  0  0  0  0  0  0
   -0.1830    1.5451    0.0000 O   0  0  0  0  0  0  0  0  0  0  0  0
   -0.8890   -0.5230    0.0000 C   0  0  0  0  0  0  0  0  0  0  0  0
  1  2  2  0  0  0  0
  1  3  1  0  0  0  0
  2  4  1  0  0  0  0
  2  5  1  0  0  0  0
  3  6  2  0  0  0  0
  3  7  1  0  0  0  0
  4  8  2  0  0  0  0
  6  8  1  0  0  0  0
M  END