324
  Mrv0541 04071411322D          

 10 10  0  0  0  0            999 V2000
   -0.1468   -0.3358    0.0000 C   0  0  0  0  0  0  0  0  0  0  0  0
    0.5759    0.0912    0.0000 C   0  0  0  0  0  0  0  0  0  0  0  0
   -0.8427    0.0778    0.0000 C   0  0  0  0  0  0  0  0  0  0  0  0
   -0.1468   -1.1473    0.0000 O   0  0  0  0  0  0  0  0  0  0  0  0
    0.5759    0.9050    0.0000 C   0  0  0  0  0  0  0  0  0  0  0  0
   -0.8427    0.9050    0.0000 C   0  0  0  0  0  0  0  0  0  0  0  0
    0.5625   -1.5454    0.0000 C   0  0  0  0  0  0  0  0  0  0  0  0
   -0.1468    1.3030    0.0000 C   0  0  0  0  0  0  0  0  0  0  0  0
    0.5625   -2.3725    0.0000 C   0  0  0  0  0  0  0  0  0  0  0  0
   -0.1468    2.1145    0.0000 N   0  0  0  0  0  0  0  0  0  0  0  0
  1  2  1  0  0  0  0
  1  3  2  0  0  0  0
  1  4  1  0  0  0  0
  2  5  2  0  0  0  0
  3  6  1  0  0  0  0
  4  7  1  0  0  0  0
  5  8  1  0  0  0  0
  7  9  1  0  0  0  0
  8 10  1  0  0  0  0
  6  8  2  0  0  0  0
M  END