328
  Mrv0541 04071411322D          

 11 11  0  0  0  0            999 V2000
   -0.3921    0.2182    0.0000 C   0  0  0  0  0  0  0  0  0  0  0  0
    0.3256   -0.1886    0.0000 C   0  0  0  0  0  0  0  0  0  0  0  0
   -1.0987   -0.1979    0.0000 C   0  0  0  0  0  0  0  0  0  0  0  0
   -0.3921    1.0488    0.0000 O   0  0  0  0  0  0  0  0  0  0  0  0
    0.3256   -1.0154    0.0000 C   0  0  0  0  0  0  0  0  0  0  0  0
    1.0358    0.2405    0.0000 N   0  3  0  0  0  0  0  0  0  0  0  0
   -1.0987   -1.0265    0.0000 C   0  0  0  0  0  0  0  0  0  0  0  0
   -1.0987    1.4520    0.0000 C   0  0  0  0  0  0  0  0  0  0  0  0
   -0.3810   -1.4224    0.0000 C   0  0  0  0  0  0  0  0  0  0  0  0
    1.7442   -0.1683    0.0000 O   0  0  0  0  0  0  0  0  0  0  0  0
    1.0228    1.0654    0.0000 O   0  5  0  0  0  0  0  0  0  0  0  0
  1  2  2  0  0  0  0
  1  3  1  0  0  0  0
  1  4  1  0  0  0  0
  2  5  1  0  0  0  0
  2  6  1  0  0  0  0
  3  7  2  0  0  0  0
  4  8  1  0  0  0  0
  5  9  2  0  0  0  0
  6 10  2  0  0  0  0
  6 11  1  0  0  0  0
  7  9  1  0  0  0  0
M  CHG  2   6   1  11  -1
M  END