33
  Mrv0541 04071411322D          

 16 18  0  0  0  0            999 V2000
    0.4438   -0.0856    0.0000 C   0  0  0  0  0  0  0  0  0  0  0  0
   -0.2647   -0.5115    0.0000 C   0  0  0  0  0  0  0  0  0  0  0  0
    0.4438    0.7105    0.0000 C   0  0  0  0  0  0  0  0  0  0  0  0
    1.1504   -0.5115    0.0000 C   0  0  0  0  0  0  0  0  0  0  0  0
   -0.2647   -1.3335    0.0000 C   0  0  0  0  0  0  0  0  0  0  0  0
   -0.9772   -0.0856    0.0000 C   0  0  0  0  0  0  0  0  0  0  0  0
   -0.2647    1.1365    0.0000 C   0  0  0  0  0  0  0  0  0  0  0  0
    1.1504    1.1365    0.0000 C   0  0  0  0  0  0  0  0  0  0  0  0
    1.1504   -1.3335    0.0000 C   0  0  0  0  0  0  0  0  0  0  0  0
    0.4438   -1.7594    0.0000 C   0  0  0  0  0  0  0  0  0  0  0  0
   -0.9772   -1.7594    0.0000 C   0  0  0  0  0  0  0  0  0  0  0  0
   -1.6838   -0.5115    0.0000 C   0  0  0  0  0  0  0  0  0  0  0  0
   -0.2647    1.9425    0.0000 C   0  0  0  0  0  0  0  0  0  0  0  0
    1.1504    1.9425    0.0000 C   0  0  0  0  0  0  0  0  0  0  0  0
   -1.6838   -1.3335    0.0000 C   0  0  0  0  0  0  0  0  0  0  0  0
    0.4438    2.3605    0.0000 C   0  0  0  0  0  0  0  0  0  0  0  0
  1  2  1  0  0  0  0
  1  3  1  0  0  0  0
  1  4  2  0  0  0  0
  2  5  2  0  0  0  0
  2  6  1  0  0  0  0
  3  7  2  0  0  0  0
  3  8  1  0  0  0  0
  4  9  1  0  0  0  0
  5 10  1  0  0  0  0
  5 11  1  0  0  0  0
  6 12  2  0  0  0  0
  7 13  1  0  0  0  0
  8 14  2  0  0  0  0
 11 15  2  0  0  0  0
 13 16  2  0  0  0  0
  9 10  2  0  0  0  0
 12 15  1  0  0  0  0
 14 16  1  0  0  0  0
M  END