330
  Mrv0541 04071411322D          

 11 11  0  0  0  0            999 V2000
    0.1898   -0.4875    0.0000 C   0  0  0  0  0  0  0  0  0  0  0  0
    0.1898    0.3396    0.0000 C   0  0  0  0  0  0  0  0  0  0  0  0
   -0.5130   -0.8891    0.0000 C   0  0  0  0  0  0  0  0  0  0  0  0
    0.9055   -0.9037    0.0000 N   0  3  0  0  0  0  0  0  0  0  0  0
   -0.5130    0.7576    0.0000 C   0  0  0  0  0  0  0  0  0  0  0  0
   -1.2397   -0.4984    0.0000 C   0  0  0  0  0  0  0  0  0  0  0  0
    1.6193   -0.5002    0.0000 O   0  0  0  0  0  0  0  0  0  0  0  0
    0.9091   -1.7088    0.0000 O   0  5  0  0  0  0  0  0  0  0  0  0
   -1.2397    0.3396    0.0000 C   0  0  0  0  0  0  0  0  0  0  0  0
   -0.5130    1.5737    0.0000 O   0  0  0  0  0  0  0  0  0  0  0  0
    0.2009    1.9753    0.0000 C   0  0  0  0  0  0  0  0  0  0  0  0
  1  2  2  0  0  0  0
  1  3  1  0  0  0  0
  1  4  1  0  0  0  0
  2  5  1  0  0  0  0
  3  6  2  0  0  0  0
  4  7  2  0  0  0  0
  4  8  1  0  0  0  0
  5  9  2  0  0  0  0
  5 10  1  0  0  0  0
 10 11  1  0  0  0  0
  6  9  1  0  0  0  0
M  CHG  2   4   1   8  -1
M  END