331
  Mrv0541 04071411322D          

 11 11  0  0  0  0            999 V2000
    0.2581    0.1492    0.0000 C   0  0  0  0  0  0  0  0  0  0  0  0
   -0.4546    0.5564    0.0000 C   0  0  0  0  0  0  0  0  0  0  0  0
    0.2581   -0.6793    0.0000 C   0  0  0  0  0  0  0  0  0  0  0  0
    0.9708    0.5757    0.0000 N   0  3  0  0  0  0  0  0  0  0  0  0
   -1.1674    0.1351    0.0000 C   0  0  0  0  0  0  0  0  0  0  0  0
   -0.4546    1.3798    0.0000 O   0  0  0  0  0  0  0  0  0  0  0  0
   -0.4546   -1.0867    0.0000 C   0  0  0  0  0  0  0  0  0  0  0  0
    0.9708    1.4027    0.0000 O   0  0  0  0  0  0  0  0  0  0  0  0
    1.6835    0.1685    0.0000 O   0  5  0  0  0  0  0  0  0  0  0  0
   -1.1587   -0.6898    0.0000 C   0  0  0  0  0  0  0  0  0  0  0  0
   -0.4546   -1.9117    0.0000 C   0  0  0  0  0  0  0  0  0  0  0  0
  1  2  1  0  0  0  0
  1  3  2  0  0  0  0
  1  4  1  0  0  0  0
  2  5  2  0  0  0  0
  2  6  1  0  0  0  0
  3  7  1  0  0  0  0
  4  8  2  0  0  0  0
  4  9  1  0  0  0  0
  5 10  1  0  0  0  0
  7 11  1  0  0  0  0
  7 10  2  0  0  0  0
M  CHG  2   4   1   9  -1
M  END