334
  Mrv0541 04071411322D          

 19 20  0  0  0  0            999 V2000
   -0.5784    0.9352    0.0000 C   0  0  0  0  0  0  0  0  0  0  0  0
    0.2332    0.9352    0.0000 O   0  0  0  0  0  0  0  0  0  0  0  0
   -1.0004    1.6512    0.0000 C   0  0  0  0  0  0  0  0  0  0  0  0
   -0.9841    0.2145    0.0000 C   0  0  0  0  0  0  0  0  0  0  0  0
    0.6530    0.2309    0.0000 C   0  0  0  0  0  0  0  0  0  0  0  0
   -1.8121    1.6512    0.0000 C   0  0  0  0  0  0  0  0  0  0  0  0
   -0.5947    2.3881    0.0000 Cl  0  0  0  0  0  0  0  0  0  0  0  0
   -1.8121    0.2169    0.0000 C   0  0  0  0  0  0  0  0  0  0  0  0
   -0.5784   -0.4851    0.0000 Cl  0  0  0  0  0  0  0  0  0  0  0  0
    1.4645    0.2309    0.0000 C   0  0  0  0  0  0  0  0  0  0  0  0
    0.2332   -0.4851    0.0000 C   0  0  0  0  0  0  0  0  0  0  0  0
   -2.2085    0.9072    0.0000 C   0  0  0  0  0  0  0  0  0  0  0  0
    1.8704   -0.4711    0.0000 C   0  0  0  0  0  0  0  0  0  0  0  0
    0.6390   -1.1893    0.0000 C   0  0  0  0  0  0  0  0  0  0  0  0
   -3.0294    0.9072    0.0000 Cl  0  0  0  0  0  0  0  0  0  0  0  0
    1.4645   -1.1893    0.0000 C   0  0  0  0  0  0  0  0  0  0  0  0
    1.8704   -1.9170    0.0000 N   0  3  0  0  0  0  0  0  0  0  0  0
    2.6935   -1.9170    0.0000 O   0  0  0  0  0  0  0  0  0  0  0  0
    1.4645   -2.6235    0.0000 O   0  5  0  0  0  0  0  0  0  0  0  0
  1  2  1  0  0  0  0
  1  3  1  0  0  0  0
  1  4  2  0  0  0  0
  2  5  1  0  0  0  0
  3  6  2  0  0  0  0
  3  7  1  0  0  0  0
  4  8  1  0  0  0  0
  4  9  1  0  0  0  0
  5 10  2  0  0  0  0
  5 11  1  0  0  0  0
  6 12  1  0  0  0  0
 10 13  1  0  0  0  0
 11 14  2  0  0  0  0
 12 15  1  0  0  0  0
 13 16  2  0  0  0  0
 16 17  1  0  0  0  0
 17 18  2  0  0  0  0
 17 19  1  0  0  0  0
  8 12  2  0  0  0  0
 14 16  1  0  0  0  0
M  CHG  2  17   1  19  -1
M  END