335
  Mrv0541 04071411322D          

 10 10  0  0  0  0            999 V2000
    0.0037   -0.4010    0.0000 C   0  0  0  0  0  0  0  0  0  0  0  0
    0.0037    0.4066    0.0000 C   0  0  0  0  0  0  0  0  0  0  0  0
   -0.7240   -0.8298    0.0000 C   0  0  0  0  0  0  0  0  0  0  0  0
    0.7036   -0.8224    0.0000 C   0  0  0  0  0  0  0  0  0  0  0  0
   -0.7054    0.8298    0.0000 C   0  0  0  0  0  0  0  0  0  0  0  0
    0.7092    0.8261    0.0000 C   0  0  0  0  0  0  0  0  0  0  0  0
   -1.4332   -0.4084    0.0000 C   0  0  0  0  0  0  0  0  0  0  0  0
    1.4295   -1.2531    0.0000 N   0  0  0  0  0  0  0  0  0  0  0  0
   -1.4332    0.4066    0.0000 C   0  0  0  0  0  0  0  0  0  0  0  0
    1.4443    1.2476    0.0000 N   0  0  0  0  0  0  0  0  0  0  0  0
  1  2  2  0  0  0  0
  1  3  1  0  0  0  0
  1  4  1  0  0  0  0
  2  5  1  0  0  0  0
  2  6  1  0  0  0  0
  3  7  2  0  0  0  0
  4  8  3  0  0  0  0
  5  9  2  0  0  0  0
  6 10  3  0  0  0  0
  7  9  1  0  0  0  0
M  END