336
  Mrv0541 04071411322D          

 10 10  0  0  0  0            999 V2000
    0.0000    0.8260    0.0000 C   0  0  0  0  0  0  0  0  0  0  0  0
   -0.7080    0.4112    0.0000 C   0  0  0  0  0  0  0  0  0  0  0  0
    0.7044    0.4112    0.0000 C   0  0  0  0  0  0  0  0  0  0  0  0
    0.0000    1.7019    0.0000 C   0  0  0  0  0  0  0  0  0  0  0  0
   -0.7080   -0.4182    0.0000 C   0  0  0  0  0  0  0  0  0  0  0  0
    0.7044   -0.4182    0.0000 C   0  0  0  0  0  0  0  0  0  0  0  0
    0.0000    2.4850    0.0000 N   0  0  0  0  0  0  0  0  0  0  0  0
    0.0000   -0.8330    0.0000 C   0  0  0  0  0  0  0  0  0  0  0  0
    0.0000   -1.6626    0.0000 C   0  0  0  0  0  0  0  0  0  0  0  0
    0.0000   -2.4920    0.0000 N   0  0  0  0  0  0  0  0  0  0  0  0
  1  2  1  0  0  0  0
  1  3  2  0  0  0  0
  1  4  1  0  0  0  0
  2  5  2  0  0  0  0
  3  6  1  0  0  0  0
  4  7  3  0  0  0  0
  5  8  1  0  0  0  0
  8  9  1  0  0  0  0
  9 10  3  0  0  0  0
  6  8  2  0  0  0  0
M  END