339
  Mrv0541 04071411322D          

 14 14  0  0  0  0            999 V2000
   -1.2996   -0.9145    0.0000 C   0  0  0  0  0  0  0  0  0  0  0  0
   -1.7087   -0.1981    0.0000 C   0  0  0  0  0  0  0  0  0  0  0  0
   -0.4720   -0.9145    0.0000 C   0  0  0  0  0  0  0  0  0  0  0  0
   -1.7161   -1.6272    0.0000 Cl  0  0  0  0  0  0  0  0  0  0  0  0
   -1.2902    0.5072    0.0000 C   0  0  0  0  0  0  0  0  0  0  0  0
   -2.5344   -0.1981    0.0000 Cl  0  0  0  0  0  0  0  0  0  0  0  0
   -0.0555   -0.1981    0.0000 C   0  0  0  0  0  0  0  0  0  0  0  0
   -0.4665    0.5072    0.0000 C   0  0  0  0  0  0  0  0  0  0  0  0
    0.7608   -0.1981    0.0000 N   0  0  0  0  0  0  0  0  0  0  0  0
    1.1793    0.5054    0.0000 C   0  0  0  0  0  0  0  0  0  0  0  0
    2.0030    0.5072    0.0000 N   0  0  0  0  0  0  0  0  0  0  0  0
    0.7627    1.2182    0.0000 O   0  0  0  0  0  0  0  0  0  0  0  0
    2.4251    1.2182    0.0000 C   0  0  0  0  0  0  0  0  0  0  0  0
    2.4177   -0.2129    0.0000 C   0  0  0  0  0  0  0  0  0  0  0  0
  1  2  2  0  0  0  0
  1  3  1  0  0  0  0
  1  4  1  0  0  0  0
  2  5  1  0  0  0  0
  2  6  1  0  0  0  0
  3  7  2  0  0  0  0
  5  8  2  0  0  0  0
  7  9  1  0  0  0  0
  9 10  1  0  0  0  0
 10 11  1  0  0  0  0
 10 12  2  0  0  0  0
 11 13  1  0  0  0  0
 11 14  1  0  0  0  0
  7  8  1  0  0  0  0
M  END