340
  Mrv0541 04071411322D          

 15 16  0  0  0  0            999 V2000
    1.4261    0.2728    0.0000 C   0  0  0  0  0  0  0  0  0  0  0  0
    0.7148    0.6838    0.0000 N   0  0  0  0  0  0  0  0  0  0  0  0
    1.4228   -0.5525    0.0000 C   0  0  0  0  0  0  0  0  0  0  0  0
    2.1376    0.6838    0.0000 C   0  0  0  0  0  0  0  0  0  0  0  0
   -0.0034    0.2763    0.0000 C   0  0  0  0  0  0  0  0  0  0  0  0
    2.1341   -0.9669    0.0000 C   0  0  0  0  0  0  0  0  0  0  0  0
    2.8524    0.2659    0.0000 C   0  0  0  0  0  0  0  0  0  0  0  0
   -0.7148    0.6872    0.0000 N   0  0  0  0  0  0  0  0  0  0  0  0
    2.8489   -0.5594    0.0000 C   0  0  0  0  0  0  0  0  0  0  0  0
   -1.4228    0.2797    0.0000 C   0  0  0  0  0  0  0  0  0  0  0  0
   -1.4228   -0.5456    0.0000 C   0  0  0  0  0  0  0  0  0  0  0  0
   -2.1376    0.6976    0.0000 C   0  0  0  0  0  0  0  0  0  0  0  0
   -2.1376   -0.9566    0.0000 C   0  0  0  0  0  0  0  0  0  0  0  0
   -2.8489    0.2797    0.0000 C   0  0  0  0  0  0  0  0  0  0  0  0
   -2.8489   -0.5456    0.0000 C   0  0  0  0  0  0  0  0  0  0  0  0
  1  2  1  0  0  0  0
  1  3  1  0  0  0  0
  1  4  1  0  0  0  0
  2  5  2  0  0  0  0
  3  6  1  0  0  0  0
  4  7  1  0  0  0  0
  5  8  2  0  0  0  0
  6  9  1  0  0  0  0
  8 10  1  0  0  0  0
 10 11  1  0  0  0  0
 10 12  1  0  0  0  0
 11 13  1  0  0  0  0
 12 14  1  0  0  0  0
 13 15  1  0  0  0  0
  7  9  1  0  0  0  0
 14 15  1  0  0  0  0
M  END