342
  Mrv0541 04071411322D          

 16 17  0  0  0  0            999 V2000
    1.2921    0.6966    0.0000 C   0  0  0  0  0  0  0  0  0  0  0  0
    1.6994   -0.0238    0.0000 N   0  0  0  0  0  0  0  0  0  0  0  0
    0.4671    0.7060    0.0000 C   0  0  0  0  0  0  0  0  0  0  0  0
    1.7115    1.4034    0.0000 C   0  0  0  0  0  0  0  0  0  0  0  0
    2.5268   -0.0334    0.0000 N   0  0  0  0  0  0  0  0  0  0  0  0
    0.0654    1.4220    0.0000 C   0  0  0  0  0  0  0  0  0  0  0  0
    0.0366   -0.0048    0.0000 Cl  0  0  0  0  0  0  0  0  0  0  0  0
    1.3083    2.1238    0.0000 C   0  0  0  0  0  0  0  0  0  0  0  0
    2.9277   -0.7517    0.0000 C   0  0  0  0  0  0  0  0  0  0  0  0
    0.4834    2.1332    0.0000 C   0  0  0  0  0  0  0  0  0  0  0  0
    3.7578   -0.7611    0.0000 C   0  0  0  0  0  0  0  0  0  0  0  0
    2.5105   -1.4586    0.0000 C   0  0  0  0  0  0  0  0  0  0  0  0
    4.1601   -1.4773    0.0000 C   0  0  0  0  0  0  0  0  0  0  0  0
    2.9116   -2.1754    0.0000 C   0  0  0  0  0  0  0  0  0  0  0  0
    3.7416   -2.1883    0.0000 C   0  0  0  0  0  0  0  0  0  0  0  0
    4.1898   -0.0460    0.0000 Cl  0  0  0  0  0  0  0  0  0  0  0  0
  1  2  1  0  0  0  0
  1  3  2  0  0  0  0
  1  4  1  0  0  0  0
  2  5  1  0  0  0  0
  3  6  1  0  0  0  0
  3  7  1  0  0  0  0
  4  8  2  0  0  0  0
  5  9  1  0  0  0  0
  6 10  2  0  0  0  0
  9 11  2  0  0  0  0
  9 12  1  0  0  0  0
 11 13  1  0  0  0  0
 12 14  2  0  0  0  0
 13 15  2  0  0  0  0
  8 10  1  0  0  0  0
 14 15  1  0  0  0  0
 11 16  1  0  0  0  0
M  END