344
  Mrv0541 04071411322D          

 17 18  0  0  0  0            999 V2000
   -2.1445   -0.3587    0.0000 C   0  0  0  0  0  0  0  0  0  0  0  0
   -2.1445    0.4585    0.0000 C   0  0  0  0  0  0  0  0  0  0  0  0
   -1.4272   -0.7727    0.0000 C   0  0  0  0  0  0  0  0  0  0  0  0
   -2.8655   -0.7727    0.0000 Cl  0  0  0  0  0  0  0  0  0  0  0  0
   -1.4272    0.8670    0.0000 C   0  0  0  0  0  0  0  0  0  0  0  0
   -2.8655    0.8670    0.0000 N   0  0  0  0  0  0  0  0  0  0  0  0
   -0.7081   -0.3587    0.0000 C   0  0  0  0  0  0  0  0  0  0  0  0
   -0.7081    0.4585    0.0000 C   0  0  0  0  0  0  0  0  0  0  0  0
    0.0000   -0.7727    0.0000 C   0  0  0  0  0  0  0  0  0  0  0  0
    0.7062   -0.3587    0.0000 C   0  0  0  0  0  0  0  0  0  0  0  0
    1.4309   -0.7727    0.0000 C   0  0  0  0  0  0  0  0  0  0  0  0
    0.7062    0.4585    0.0000 C   0  0  0  0  0  0  0  0  0  0  0  0
    2.1445   -0.3587    0.0000 C   0  0  0  0  0  0  0  0  0  0  0  0
    1.4309    0.8670    0.0000 C   0  0  0  0  0  0  0  0  0  0  0  0
    2.1445    0.4585    0.0000 C   0  0  0  0  0  0  0  0  0  0  0  0
    2.8618   -0.7727    0.0000 Cl  0  0  0  0  0  0  0  0  0  0  0  0
    2.8618    0.8670    0.0000 N   0  0  0  0  0  0  0  0  0  0  0  0
  1  2  2  0  0  0  0
  1  3  1  0  0  0  0
  1  4  1  0  0  0  0
  2  5  1  0  0  0  0
  2  6  1  0  0  0  0
  3  7  2  0  0  0  0
  5  8  2  0  0  0  0
  7  9  1  0  0  0  0
  9 10  1  0  0  0  0
 10 11  2  0  0  0  0
 10 12  1  0  0  0  0
 11 13  1  0  0  0  0
 12 14  2  0  0  0  0
 13 15  2  0  0  0  0
 13 16  1  0  0  0  0
 15 17  1  0  0  0  0
  7  8  1  0  0  0  0
 14 15  1  0  0  0  0
M  END