345
  Mrv0541 04071411322D          

 11 12  0  0  0  0            999 V2000
    0.0612   -0.5625    0.0000 C   0  0  0  0  0  0  0  0  0  0  0  0
    0.0612    0.2655    0.0000 C   0  0  0  0  0  0  0  0  0  0  0  0
   -0.6498   -0.9729    0.0000 C   0  0  0  0  0  0  0  0  0  0  0  0
    0.7816   -0.9729    0.0000 C   0  0  0  0  0  0  0  0  0  0  0  0
   -0.6498    0.6758    0.0000 C   0  0  0  0  0  0  0  0  0  0  0  0
    0.7816    0.6758    0.0000 C   0  0  0  0  0  0  0  0  0  0  0  0
   -1.3626   -0.5532    0.0000 C   0  0  0  0  0  0  0  0  0  0  0  0
    1.4908   -0.5532    0.0000 C   0  0  0  0  0  0  0  0  0  0  0  0
   -1.3626    0.2543    0.0000 C   0  0  0  0  0  0  0  0  0  0  0  0
   -0.6498    1.4926    0.0000 N   0  0  0  0  0  0  0  0  0  0  0  0
    1.4908    0.2543    0.0000 C   0  0  0  0  0  0  0  0  0  0  0  0
  1  2  1  0  0  0  0
  1  3  2  0  0  0  0
  1  4  1  0  0  0  0
  2  5  2  0  0  0  0
  2  6  1  0  0  0  0
  3  7  1  0  0  0  0
  4  8  2  0  0  0  0
  5  9  1  0  0  0  0
  5 10  1  0  0  0  0
  6 11  2  0  0  0  0
  7  9  2  0  0  0  0
  8 11  1  0  0  0  0
M  END