346
  Mrv0541 04071411322D          

 12 13  0  0  0  0            999 V2000
    0.0018    0.4094    0.0000 C   0  0  0  0  0  0  0  0  0  0  0  0
    0.0018   -0.4057    0.0000 C   0  0  0  0  0  0  0  0  0  0  0  0
   -0.7149    0.8224    0.0000 C   0  0  0  0  0  0  0  0  0  0  0  0
    0.7094    0.8224    0.0000 C   0  0  0  0  0  0  0  0  0  0  0  0
    0.7149   -0.8205    0.0000 C   0  0  0  0  0  0  0  0  0  0  0  0
   -0.7075   -0.8261    0.0000 C   0  0  0  0  0  0  0  0  0  0  0  0
   -1.4280    0.4149    0.0000 C   0  0  0  0  0  0  0  0  0  0  0  0
   -0.7149    1.6558    0.0000 N   0  0  0  0  0  0  0  0  0  0  0  0
    1.4244    0.4094    0.0000 C   0  0  0  0  0  0  0  0  0  0  0  0
    1.4262   -0.4168    0.0000 C   0  0  0  0  0  0  0  0  0  0  0  0
    0.7149   -1.6485    0.0000 N   0  0  0  0  0  0  0  0  0  0  0  0
   -1.4262   -0.4131    0.0000 C   0  0  0  0  0  0  0  0  0  0  0  0
  1  2  1  0  0  0  0
  1  3  2  0  0  0  0
  1  4  1  0  0  0  0
  2  5  1  0  0  0  0
  2  6  2  0  0  0  0
  3  7  1  0  0  0  0
  3  8  1  0  0  0  0
  4  9  2  0  0  0  0
  5 10  2  0  0  0  0
  5 11  1  0  0  0  0
  6 12  1  0  0  0  0
  7 12  2  0  0  0  0
  9 10  1  0  0  0  0
M  END