349
  Mrv0541 04071411322D          

 17 19  0  0  0  0            999 V2000
    1.3790    0.3734    0.0000 C   0  0  0  0  0  0  0  0  0  0  0  0
    1.3919   -0.4400    0.0000 C   0  0  0  0  0  0  0  0  0  0  0  0
    0.6618    0.7818    0.0000 C   0  0  0  0  0  0  0  0  0  0  0  0
    2.0925    0.8003    0.0000 C   0  0  0  0  0  0  0  0  0  0  0  0
    0.6822   -0.8613    0.0000 C   0  0  0  0  0  0  0  0  0  0  0  0
    2.1127   -0.8484    0.0000 C   0  0  0  0  0  0  0  0  0  0  0  0
   -0.0425    0.3568    0.0000 C   0  0  0  0  0  0  0  0  0  0  0  0
    2.8171    0.3974    0.0000 C   0  0  0  0  0  0  0  0  0  0  0  0
   -0.0425   -0.4585    0.0000 C   0  0  0  0  0  0  0  0  0  0  0  0
    2.8189   -0.4251    0.0000 C   0  0  0  0  0  0  0  0  0  0  0  0
   -0.7653    0.7671    0.0000 N   0  0  0  0  0  0  0  0  0  0  0  0
   -1.4713    0.3438    0.0000 C   0  0  0  0  0  0  0  0  0  0  0  0
   -2.1959    0.7486    0.0000 C   0  0  0  0  0  0  0  0  0  0  0  0
   -1.4622   -0.4733    0.0000 C   0  0  0  0  0  0  0  0  0  0  0  0
   -2.9039    0.3254    0.0000 C   0  0  0  0  0  0  0  0  0  0  0  0
   -2.1755   -0.8946    0.0000 C   0  0  0  0  0  0  0  0  0  0  0  0
   -2.8965   -0.4936    0.0000 C   0  0  0  0  0  0  0  0  0  0  0  0
  1  2  1  0  0  0  0
  1  3  2  0  0  0  0
  1  4  1  0  0  0  0
  2  5  2  0  0  0  0
  2  6  1  0  0  0  0
  3  7  1  0  0  0  0
  4  8  2  0  0  0  0
  5  9  1  0  0  0  0
  6 10  2  0  0  0  0
  7 11  1  0  0  0  0
 11 12  1  0  0  0  0
 12 13  2  0  0  0  0
 12 14  1  0  0  0  0
 13 15  1  0  0  0  0
 14 16  2  0  0  0  0
 15 17  2  0  0  0  0
  7  9  2  0  0  0  0
  8 10  1  0  0  0  0
 16 17  1  0  0  0  0
M  END