35
  Mrv0541 04071411322D          

 15 17  0  0  0  0            999 V2000
   -0.7198   -0.5282    0.0000 C   0  0  0  0  0  0  0  0  0  0  0  0
   -0.7198    0.3085    0.0000 C   0  0  0  0  0  0  0  0  0  0  0  0
   -0.0056   -0.9325    0.0000 C   0  0  0  0  0  0  0  0  0  0  0  0
   -1.4212   -0.9325    0.0000 C   0  0  0  0  0  0  0  0  0  0  0  0
   -0.0056    0.7142    0.0000 C   0  0  0  0  0  0  0  0  0  0  0  0
   -1.4212    0.7142    0.0000 C   0  0  0  0  0  0  0  0  0  0  0  0
    0.7156   -0.5282    0.0000 C   0  0  0  0  0  0  0  0  0  0  0  0
   -2.1438   -0.5282    0.0000 C   0  0  0  0  0  0  0  0  0  0  0  0
    0.7156    0.3085    0.0000 C   0  0  0  0  0  0  0  0  0  0  0  0
   -0.0056    1.5339    0.0000 C   0  0  0  0  0  0  0  0  0  0  0  0
   -2.1438    0.3085    0.0000 C   0  0  0  0  0  0  0  0  0  0  0  0
    1.4297   -0.9325    0.0000 C   0  0  0  0  0  0  0  0  0  0  0  0
    1.4297    0.7142    0.0000 C   0  0  0  0  0  0  0  0  0  0  0  0
    2.1480   -0.5282    0.0000 C   0  0  0  0  0  0  0  0  0  0  0  0
    2.1480    0.3085    0.0000 C   0  0  0  0  0  0  0  0  0  0  0  0
  1  2  1  0  0  0  0
  1  3  2  0  0  0  0
  1  4  1  0  0  0  0
  2  5  2  0  0  0  0
  2  6  1  0  0  0  0
  3  7  1  0  0  0  0
  4  8  2  0  0  0  0
  5  9  1  0  0  0  0
  5 10  1  0  0  0  0
  6 11  2  0  0  0  0
  7 12  1  0  0  0  0
  9 13  1  0  0  0  0
 12 14  2  0  0  0  0
 13 15  2  0  0  0  0
  7  9  2  0  0  0  0
  8 11  1  0  0  0  0
 14 15  1  0  0  0  0
M  END