350
  Mrv0541 04071411322D          

 17 19  0  0  0  0            999 V2000
    0.6288    0.3220    0.0000 C   0  0  0  0  0  0  0  0  0  0  0  0
    0.6288   -0.5135    0.0000 C   0  0  0  0  0  0  0  0  0  0  0  0
   -0.0831    0.7271    0.0000 C   0  0  0  0  0  0  0  0  0  0  0  0
    1.3424    0.7271    0.0000 C   0  0  0  0  0  0  0  0  0  0  0  0
   -0.0831   -0.9305    0.0000 C   0  0  0  0  0  0  0  0  0  0  0  0
    1.3424   -0.9305    0.0000 C   0  0  0  0  0  0  0  0  0  0  0  0
   -0.7966    0.3220    0.0000 C   0  0  0  0  0  0  0  0  0  0  0  0
   -0.0831    1.5576    0.0000 O   0  0  0  0  0  0  0  0  0  0  0  0
    2.0543    0.3220    0.0000 C   0  0  0  0  0  0  0  0  0  0  0  0
    1.3424    1.5576    0.0000 N   0  0  0  0  0  0  0  0  0  0  0  0
   -0.7966   -0.5135    0.0000 C   0  0  0  0  0  0  0  0  0  0  0  0
   -0.0831   -1.7441    0.0000 O   0  0  0  0  0  0  0  0  0  0  0  0
    2.0543   -0.5135    0.0000 C   0  0  0  0  0  0  0  0  0  0  0  0
   -1.5085    0.7271    0.0000 C   0  0  0  0  0  0  0  0  0  0  0  0
   -1.5085   -0.9305    0.0000 C   0  0  0  0  0  0  0  0  0  0  0  0
   -2.2221    0.3220    0.0000 C   0  0  0  0  0  0  0  0  0  0  0  0
   -2.2221   -0.5135    0.0000 C   0  0  0  0  0  0  0  0  0  0  0  0
  1  2  2  0  0  0  0
  1  3  1  0  0  0  0
  1  4  1  0  0  0  0
  2  5  1  0  0  0  0
  2  6  1  0  0  0  0
  3  7  1  0  0  0  0
  3  8  2  0  0  0  0
  4  9  2  0  0  0  0
  4 10  1  0  0  0  0
  5 11  1  0  0  0  0
  5 12  2  0  0  0  0
  6 13  2  0  0  0  0
  7 14  1  0  0  0  0
 11 15  1  0  0  0  0
 14 16  2  0  0  0  0
 15 17  2  0  0  0  0
  7 11  2  0  0  0  0
  9 13  1  0  0  0  0
 16 17  1  0  0  0  0
M  END