351
  Mrv0541 04071411322D          

 17 19  0  0  0  0            999 V2000
    0.5376   -0.3646    0.0000 C   0  0  0  0  0  0  0  0  0  0  0  0
    0.5376    0.4567    0.0000 C   0  0  0  0  0  0  0  0  0  0  0  0
   -0.1657   -0.7715    0.0000 C   0  0  0  0  0  0  0  0  0  0  0  0
    1.2557   -0.7770    0.0000 C   0  0  0  0  0  0  0  0  0  0  0  0
   -0.1584    0.8709    0.0000 C   0  0  0  0  0  0  0  0  0  0  0  0
    1.2594    0.8635    0.0000 C   0  0  0  0  0  0  0  0  0  0  0  0
   -0.8856   -0.3572    0.0000 C   0  0  0  0  0  0  0  0  0  0  0  0
   -0.1584   -1.5927    0.0000 O   0  0  0  0  0  0  0  0  0  0  0  0
    1.9702   -0.3646    0.0000 C   0  0  0  0  0  0  0  0  0  0  0  0
   -0.8801    0.4567    0.0000 C   0  0  0  0  0  0  0  0  0  0  0  0
   -0.1565    1.6995    0.0000 O   0  0  0  0  0  0  0  0  0  0  0  0
    1.9775    0.4438    0.0000 C   0  0  0  0  0  0  0  0  0  0  0  0
   -1.6001   -0.7697    0.0000 C   0  0  0  0  0  0  0  0  0  0  0  0
    2.6864   -0.7844    0.0000 N   0  0  0  0  0  0  0  0  0  0  0  0
   -1.5982    0.8709    0.0000 C   0  0  0  0  0  0  0  0  0  0  0  0
   -2.3126   -0.3443    0.0000 C   0  0  0  0  0  0  0  0  0  0  0  0
   -2.3126    0.4585    0.0000 C   0  0  0  0  0  0  0  0  0  0  0  0
  1  2  1  0  0  0  0
  1  3  1  0  0  0  0
  1  4  2  0  0  0  0
  2  5  1  0  0  0  0
  2  6  2  0  0  0  0
  3  7  1  0  0  0  0
  3  8  2  0  0  0  0
  4  9  1  0  0  0  0
  5 10  1  0  0  0  0
  5 11  2  0  0  0  0
  6 12  1  0  0  0  0
  7 13  1  0  0  0  0
  9 14  1  0  0  0  0
 10 15  1  0  0  0  0
 13 16  2  0  0  0  0
 15 17  2  0  0  0  0
  7 10  2  0  0  0  0
  9 12  2  0  0  0  0
 16 17  1  0  0  0  0
M  END