354
  Mrv0541 04071411322D          

  7  7  0  0  0  0            999 V2000
    0.5079   -0.2865    0.0000 C   0  0  0  0  0  0  0  0  0  0  0  0
    0.5079    0.5321    0.0000 C   0  0  0  0  0  0  0  0  0  0  0  0
   -0.2047   -0.7088    0.0000 N   0  0  0  0  0  0  0  0  0  0  0  0
    1.2372   -0.7088    0.0000 N   0  0  0  0  0  0  0  0  0  0  0  0
   -0.2047    0.9414    0.0000 C   0  0  0  0  0  0  0  0  0  0  0  0
   -0.9210   -0.2996    0.0000 C   0  0  0  0  0  0  0  0  0  0  0  0
   -0.9210    0.5321    0.0000 C   0  0  0  0  0  0  0  0  0  0  0  0
  1  2  1  0  0  0  0
  1  3  2  0  0  0  0
  1  4  1  0  0  0  0
  2  5  2  0  0  0  0
  3  6  1  0  0  0  0
  5  7  1  0  0  0  0
  6  7  2  0  0  0  0
M  END