355
  Mrv0541 04071411322D          

  7  7  0  0  0  0            999 V2000
    0.4920   -0.2618    0.0000 C   0  0  0  0  0  0  0  0  0  0  0  0
   -0.2072   -0.7068    0.0000 C   0  0  0  0  0  0  0  0  0  0  0  0
    0.4920    0.5140    0.0000 C   0  0  0  0  0  0  0  0  0  0  0  0
    1.2486   -0.7451    0.0000 N   0  0  0  0  0  0  0  0  0  0  0  0
   -0.9091   -0.2618    0.0000 C   0  0  0  0  0  0  0  0  0  0  0  0
   -0.2072    0.9475    0.0000 N   0  0  0  0  0  0  0  0  0  0  0  0
   -0.9091    0.5140    0.0000 C   0  0  0  0  0  0  0  0  0  0  0  0
  1  2  1  0  0  0  0
  1  3  2  0  0  0  0
  1  4  1  0  0  0  0
  2  5  2  0  0  0  0
  3  6  1  0  0  0  0
  5  7  1  0  0  0  0
  6  7  2  0  0  0  0
M  END