357
  Mrv0541 04071411322D          

  6  6  0  0  0  0            999 V2000
    0.7114   -0.4153    0.0000 C   0  0  0  0  0  0  0  0  0  0  0  0
    0.7114    0.4097    0.0000 C   0  0  0  0  0  0  0  0  0  0  0  0
   -0.0093   -0.8268    0.0000 O   0  0  0  0  0  0  0  0  0  0  0  0
    0.0093    0.8268    0.0000 O   0  0  0  0  0  0  0  0  0  0  0  0
   -0.7114   -0.4097    0.0000 C   0  0  0  0  0  0  0  0  0  0  0  0
   -0.7114    0.4153    0.0000 C   0  0  0  0  0  0  0  0  0  0  0  0
  1  2  1  0  0  0  0
  1  3  1  0  0  0  0
  2  4  1  0  0  0  0
  3  5  1  0  0  0  0
  4  6  1  0  0  0  0
  5  6  1  0  0  0  0
M  END