358
  Mrv0541 04071411322D          

  6  6  0  0  0  0            999 V2000
    0.4186    0.7244    0.0000 C   0  0  0  0  0  0  0  0  0  0  0  0
   -0.3985    0.7244    0.0000 C   0  0  0  0  0  0  0  0  0  0  0  0
    0.8090    0.0000    0.0000 N   0  0  0  0  0  0  0  0  0  0  0  0
   -0.8251    0.0000    0.0000 N   0  0  0  0  0  0  0  0  0  0  0  0
    0.4186   -0.7203    0.0000 C   0  0  0  0  0  0  0  0  0  0  0  0
   -0.4186   -0.7203    0.0000 C   0  0  0  0  0  0  0  0  0  0  0  0
  1  2  1  0  0  0  0
  1  3  1  0  0  0  0
  2  4  1  0  0  0  0
  3  5  1  0  0  0  0
  4  6  1  0  0  0  0
  5  6  1  0  0  0  0
M  END