359
  Mrv0541 04071411322D          

  9  9  0  0  0  0            999 V2000
   -0.7086   -0.4070    0.0000 C   0  0  0  0  0  0  0  0  0  0  0  0
   -0.7086    0.4070    0.0000 N   0  0  0  0  0  0  0  0  0  0  0  0
    0.0037   -0.8233    0.0000 N   0  0  0  0  0  0  0  0  0  0  0  0
   -1.4246   -0.8270    0.0000 N   0  0  0  0  0  0  0  0  0  0  0  0
   -0.0092    0.8196    0.0000 C   0  0  0  0  0  0  0  0  0  0  0  0
    0.7123   -0.4052    0.0000 C   0  0  0  0  0  0  0  0  0  0  0  0
    0.7123    0.4107    0.0000 N   0  0  0  0  0  0  0  0  0  0  0  0
   -0.0092    1.6447    0.0000 N   0  0  0  0  0  0  0  0  0  0  0  0
    1.4301   -0.8233    0.0000 N   0  0  0  0  0  0  0  0  0  0  0  0
  1  2  2  0  0  0  0
  1  3  1  0  0  0  0
  1  4  1  0  0  0  0
  2  5  1  0  0  0  0
  3  6  2  0  0  0  0
  5  7  2  0  0  0  0
  5  8  1  0  0  0  0
  6  9  1  0  0  0  0
  6  7  1  0  0  0  0
M  END