36
  Mrv0541 04071411322D          

 15 17  0  0  0  0            999 V2000
   -0.3458   -0.5178    0.0000 C   0  0  0  0  0  0  0  0  0  0  0  0
    0.3908   -0.1094    0.0000 C   0  0  0  0  0  0  0  0  0  0  0  0
   -1.0434   -0.0996    0.0000 C   0  0  0  0  0  0  0  0  0  0  0  0
   -0.3458   -1.3501    0.0000 C   0  0  0  0  0  0  0  0  0  0  0  0
    0.3908    0.7113    0.0000 C   0  0  0  0  0  0  0  0  0  0  0  0
    1.0922   -0.5353    0.0000 C   0  0  0  0  0  0  0  0  0  0  0  0
   -1.0434    0.7405    0.0000 C   0  0  0  0  0  0  0  0  0  0  0  0
   -1.7742   -0.5178    0.0000 C   0  0  0  0  0  0  0  0  0  0  0  0
   -1.0610   -1.7605    0.0000 C   0  0  0  0  0  0  0  0  0  0  0  0
   -0.3360    1.1294    0.0000 C   0  0  0  0  0  0  0  0  0  0  0  0
    1.1020    1.1294    0.0000 C   0  0  0  0  0  0  0  0  0  0  0  0
    1.8172   -0.1290    0.0000 C   0  0  0  0  0  0  0  0  0  0  0  0
   -1.7683   -1.3560    0.0000 C   0  0  0  0  0  0  0  0  0  0  0  0
    1.8172    0.7210    0.0000 C   0  0  0  0  0  0  0  0  0  0  0  0
    1.1020    1.9461    0.0000 C   0  0  0  0  0  0  0  0  0  0  0  0
  1  2  1  0  0  0  0
  1  3  2  0  0  0  0
  1  4  1  0  0  0  0
  2  5  2  0  0  0  0
  2  6  1  0  0  0  0
  3  7  1  0  0  0  0
  3  8  1  0  0  0  0
  4  9  2  0  0  0  0
  5 10  1  0  0  0  0
  5 11  1  0  0  0  0
  6 12  2  0  0  0  0
  8 13  2  0  0  0  0
 11 14  2  0  0  0  0
 11 15  1  0  0  0  0
  7 10  2  0  0  0  0
  9 13  1  0  0  0  0
 12 14  1  0  0  0  0
M  END