360
  Mrv0541 04071411322D          

  5  5  0  0  0  0            999 V2000
    0.1718   -0.6780    0.0000 C   0  0  0  0  0  0  0  0  0  0  0  0
    0.6983   -0.0425    0.0000 C   0  0  0  0  0  0  0  0  0  0  0  0
   -0.5875   -0.3732    0.0000 C   0  0  0  0  0  0  0  0  0  0  0  0
    0.2531    0.6521    0.0000 C   0  0  0  0  0  0  0  0  0  0  0  0
   -0.5376    0.4397    0.0000 O   0  0  0  0  0  0  0  0  0  0  0  0
  1  2  1  0  0  0  0
  1  3  2  0  0  0  0
  2  4  2  0  0  0  0
  3  5  1  0  0  0  0
  4  5  1  0  0  0  0
M  END