361
  Mrv0541 04071411322D          

 13 14  0  0  0  0            999 V2000
   -0.4347   -0.1054    0.0000 C   0  0  0  0  0  0  0  0  0  0  0  0
    0.3773   -0.1054    0.0000 C   0  0  0  0  0  0  0  0  0  0  0  0
   -0.8546    0.5993    0.0000 C   0  0  0  0  0  0  0  0  0  0  0  0
   -0.8546   -0.8213    0.0000 C   0  0  0  0  0  0  0  0  0  0  0  0
    0.7955    0.5993    0.0000 C   0  0  0  0  0  0  0  0  0  0  0  0
    0.7881   -0.8213    0.0000 C   0  0  0  0  0  0  0  0  0  0  0  0
   -1.6797    0.5993    0.0000 C   0  0  0  0  0  0  0  0  0  0  0  0
   -1.6797   -0.8213    0.0000 C   0  0  0  0  0  0  0  0  0  0  0  0
    1.6186    0.5993    0.0000 C   0  0  0  0  0  0  0  0  0  0  0  0
    0.3773    1.3098    0.0000 N   0  0  0  0  0  0  0  0  0  0  0  0
    1.6131   -0.8213    0.0000 C   0  0  0  0  0  0  0  0  0  0  0  0
   -2.0903   -0.1054    0.0000 C   0  0  0  0  0  0  0  0  0  0  0  0
    2.0293   -0.1054    0.0000 C   0  0  0  0  0  0  0  0  0  0  0  0
  1  2  1  0  0  0  0
  1  3  2  0  0  0  0
  1  4  1  0  0  0  0
  2  5  2  0  0  0  0
  2  6  1  0  0  0  0
  3  7  1  0  0  0  0
  4  8  2  0  0  0  0
  5  9  1  0  0  0  0
  5 10  1  0  0  0  0
  6 11  2  0  0  0  0
  7 12  2  0  0  0  0
  9 13  2  0  0  0  0
  8 12  1  0  0  0  0
 11 13  1  0  0  0  0
M  END