363
  Mrv0541 04071411322D          

  7  6  0  0  0  0            999 V2000
    0.0018   -0.2324    0.0000 O   0  0  0  0  0  0  0  0  0  0  0  0
   -0.7176    0.1747    0.0000 C   0  0  0  0  0  0  0  0  0  0  0  0
    0.7176    0.1747    0.0000 C   0  0  0  0  0  0  0  0  0  0  0  0
   -1.4389   -0.2324    0.0000 C   0  0  0  0  0  0  0  0  0  0  0  0
    1.4333   -0.2324    0.0000 C   0  0  0  0  0  0  0  0  0  0  0  0
   -2.1547    0.1747    0.0000 Cl  0  0  0  0  0  0  0  0  0  0  0  0
    2.1584    0.1747    0.0000 Cl  0  0  0  0  0  0  0  0  0  0  0  0
  1  2  1  0  0  0  0
  1  3  1  0  0  0  0
  2  4  1  0  0  0  0
  3  5  1  0  0  0  0
  4  6  1  0  0  0  0
  5  7  1  0  0  0  0
M  END