364
  Mrv0541 04071411322D          

  7  6  0  0  0  0            999 V2000
   -0.2038    0.1174    0.0000 C   0  0  0  0  0  0  0  0  0  0  0  0
    0.5114   -0.2937    0.0000 C   0  0  0  0  0  0  0  0  0  0  0  0
   -0.9160   -0.2937    0.0000 Cl  0  0  0  0  0  0  0  0  0  0  0  0
   -0.2038    0.9437    0.0000 Cl  0  0  0  0  0  0  0  0  0  0  0  0
   -0.9230    0.5322    0.0000 Cl  0  0  0  0  0  0  0  0  0  0  0  0
    1.2236    0.1174    0.0000 O   0  0  0  0  0  0  0  0  0  0  0  0
    0.5114   -1.1234    0.0000 O   0  0  0  0  0  0  0  0  0  0  0  0
  1  2  1  0  0  0  0
  1  3  1  0  0  0  0
  1  4  1  0  0  0  0
  1  5  1  0  0  0  0
  2  6  1  0  0  0  0
  2  7  2  0  0  0  0
M  END