366
  Mrv0541 04071411322D          

  4  3  0  0  0  0            999 V2000
   -0.0018    0.0056    0.0000 C   0  0  0  0  0  0  0  0  0  0  0  0
   -0.7138   -0.4111    0.0000 N   0  0  0  0  0  0  0  0  0  0  0  0
    0.7157   -0.4167    0.0000 N   0  0  0  0  0  0  0  0  0  0  0  0
   -0.0018    0.8222    0.0000 S   0  0  0  0  0  0  0  0  0  0  0  0
  1  2  1  0  0  0  0
  1  3  1  0  0  0  0
  1  4  2  0  0  0  0
M  END