368
  Mrv0541 04071411322D          

 14 13  0  0  0  0            999 V2000
    0.0259   -0.4571    0.0000 P   0  0  0  0  0  0  0  0  0  0  0  0
   -0.6922   -0.8754    0.0000 O   0  0  0  0  0  0  0  0  0  0  0  0
    0.7441   -0.0500    0.0000 O   0  0  0  0  0  0  0  0  0  0  0  0
   -0.3831    0.2610    0.0000 O   0  0  0  0  0  0  0  0  0  0  0  0
    0.4461   -1.1772    0.0000 O   0  0  0  0  0  0  0  0  0  0  0  0
   -1.4029   -0.4571    0.0000 C   0  0  0  0  0  0  0  0  0  0  0  0
    1.4547   -0.4664    0.0000 C   0  0  0  0  0  0  0  0  0  0  0  0
    0.0370    0.9828    0.0000 C   0  0  0  0  0  0  0  0  0  0  0  0
   -2.1210   -0.8662    0.0000 C   0  0  0  0  0  0  0  0  0  0  0  0
    2.1728   -0.0611    0.0000 C   0  0  0  0  0  0  0  0  0  0  0  0
   -0.3702    1.6898    0.0000 C   0  0  0  0  0  0  0  0  0  0  0  0
   -2.8336   -0.4461    0.0000 Cl  0  0  0  0  0  0  0  0  0  0  0  0
    2.8818   -0.4794    0.0000 Cl  0  0  0  0  0  0  0  0  0  0  0  0
    0.0463    2.4024    0.0000 Cl  0  0  0  0  0  0  0  0  0  0  0  0
  1  2  1  0  0  0  0
  1  3  1  0  0  0  0
  1  4  1  0  0  0  0
  1  5  2  0  0  0  0
  2  6  1  0  0  0  0
  3  7  1  0  0  0  0
  4  8  1  0  0  0  0
  6  9  1  0  0  0  0
  7 10  1  0  0  0  0
  8 11  1  0  0  0  0
  9 12  1  0  0  0  0
 10 13  1  0  0  0  0
 11 14  1  0  0  0  0
M  END