369
  Mrv0541 04071411322D          

 17 16  0  0  0  0            999 V2000
    0.0124    0.3076    0.0000 P   0  0  0  0  0  0  0  0  0  0  0  0
    0.8627    0.3076    0.0000 O   0  0  0  0  0  0  0  0  0  0  0  0
   -0.8132    0.3076    0.0000 O   0  0  0  0  0  0  0  0  0  0  0  0
    0.0124   -0.5386    0.0000 O   0  0  0  0  0  0  0  0  0  0  0  0
    0.0124    1.1537    0.0000 O   0  0  0  0  0  0  0  0  0  0  0  0
    1.2776   -0.4046    0.0000 C   0  0  0  0  0  0  0  0  0  0  0  0
   -1.2321    1.0423    0.0000 C   0  0  0  0  0  0  0  0  0  0  0  0
   -0.7059   -0.9576    0.0000 C   0  0  0  0  0  0  0  0  0  0  0  0
    2.0991   -0.4046    0.0000 C   0  0  0  0  0  0  0  0  0  0  0  0
    0.8627   -1.1413    0.0000 C   0  0  0  0  0  0  0  0  0  0  0  0
   -0.8132    1.7523    0.0000 C   0  0  0  0  0  0  0  0  0  0  0  0
   -2.0743    1.0423    0.0000 C   0  0  0  0  0  0  0  0  0  0  0  0
   -0.7059   -1.7812    0.0000 C   0  0  0  0  0  0  0  0  0  0  0  0
   -1.4159   -0.5386    0.0000 C   0  0  0  0  0  0  0  0  0  0  0  0
    2.5551    0.3241    0.0000 Cl  0  0  0  0  0  0  0  0  0  0  0  0
    0.0350    1.7440    0.0000 Cl  0  0  0  0  0  0  0  0  0  0  0  0
    0.0330   -2.2147    0.0000 Cl  0  0  0  0  0  0  0  0  0  0  0  0
  1  2  1  0  0  0  0
  1  3  1  0  0  0  0
  1  4  1  0  0  0  0
  1  5  2  0  0  0  0
  2  6  1  0  0  0  0
  3  7  1  0  0  0  0
  4  8  1  0  0  0  0
  6  9  1  0  0  0  0
  6 10  1  0  0  0  0
  7 11  1  0  0  0  0
  7 12  1  0  0  0  0
  8 13  1  0  0  0  0
  8 14  1  0  0  0  0
  9 15  1  0  0  0  0
 11 16  1  0  0  0  0
 13 17  1  0  0  0  0
M  END