37
  Mrv0541 04071411322D          

 16 19  0  0  0  0            999 V2000
    0.5409   -0.0019    0.0000 C   0  0  0  0  0  0  0  0  0  0  0  0
    0.1254    0.7134    0.0000 C   0  0  0  0  0  0  0  0  0  0  0  0
    0.1254   -0.7114    0.0000 C   0  0  0  0  0  0  0  0  0  0  0  0
    1.3659   -0.0019    0.0000 C   0  0  0  0  0  0  0  0  0  0  0  0
   -0.7721    0.4644    0.0000 C   0  0  0  0  0  0  0  0  0  0  0  0
    0.5409    1.4189    0.0000 C   0  0  0  0  0  0  0  0  0  0  0  0
   -0.7721   -0.4644    0.0000 C   0  0  0  0  0  0  0  0  0  0  0  0
    0.5409   -1.4228    0.0000 C   0  0  0  0  0  0  0  0  0  0  0  0
    1.7736    0.7134    0.0000 C   0  0  0  0  0  0  0  0  0  0  0  0
    1.7736   -0.7114    0.0000 C   0  0  0  0  0  0  0  0  0  0  0  0
   -1.5874    0.9407    0.0000 C   0  0  0  0  0  0  0  0  0  0  0  0
    1.3659    1.4189    0.0000 C   0  0  0  0  0  0  0  0  0  0  0  0
   -1.5874   -0.9387    0.0000 C   0  0  0  0  0  0  0  0  0  0  0  0
    1.3659   -1.4228    0.0000 C   0  0  0  0  0  0  0  0  0  0  0  0
   -2.3968    0.4644    0.0000 C   0  0  0  0  0  0  0  0  0  0  0  0
   -2.3968   -0.4644    0.0000 C   0  0  0  0  0  0  0  0  0  0  0  0
  1  2  2  0  0  0  0
  1  3  1  0  0  0  0
  1  4  1  0  0  0  0
  2  5  1  0  0  0  0
  2  6  1  0  0  0  0
  3  7  1  0  0  0  0
  3  8  2  0  0  0  0
  4  9  2  0  0  0  0
  4 10  1  0  0  0  0
  5 11  2  0  0  0  0
  6 12  2  0  0  0  0
  7 13  2  0  0  0  0
  8 14  1  0  0  0  0
 11 15  1  0  0  0  0
 13 16  1  0  0  0  0
  5  7  1  0  0  0  0
  9 12  1  0  0  0  0
 10 14  2  0  0  0  0
 15 16  2  0  0  0  0
M  END