370
  Mrv0541 04071411322D          

 20 19  0  0  0  0            999 V2000
    0.1560   -0.5041    0.0000 P   0  0  0  0  0  0  0  0  0  0  0  0
    0.8861   -0.0880    0.0000 O   0  0  0  0  0  0  0  0  0  0  0  0
   -0.2500    0.2200    0.0000 O   0  0  0  0  0  0  0  0  0  0  0  0
   -0.5621   -0.9141    0.0000 O   0  0  0  0  0  0  0  0  0  0  0  0
    0.5741   -1.2142    0.0000 O   0  0  0  0  0  0  0  0  0  0  0  0
    1.5922   -0.5041    0.0000 C   0  0  0  0  0  0  0  0  0  0  0  0
    0.1680    0.9262    0.0000 C   0  0  0  0  0  0  0  0  0  0  0  0
   -1.2641   -0.4960    0.0000 C   0  0  0  0  0  0  0  0  0  0  0  0
    2.3103   -0.0980    0.0000 C   0  0  0  0  0  0  0  0  0  0  0  0
   -0.2380    1.6482    0.0000 C   0  0  0  0  0  0  0  0  0  0  0  0
   -1.9822   -0.9021    0.0000 C   0  0  0  0  0  0  0  0  0  0  0  0
    3.0164   -0.5041    0.0000 C   0  0  0  0  0  0  0  0  0  0  0  0
    2.3103    0.7241    0.0000 Br  0  0  0  0  0  0  0  0  0  0  0  0
   -1.0681    1.6482    0.0000 C   0  0  0  0  0  0  0  0  0  0  0  0
    0.1680    2.3502    0.0000 Br  0  0  0  0  0  0  0  0  0  0  0  0
   -2.6923   -0.4960    0.0000 C   0  0  0  0  0  0  0  0  0  0  0  0
   -1.9822   -1.7282    0.0000 Br  0  0  0  0  0  0  0  0  0  0  0  0
    3.7224   -0.0880    0.0000 Br  0  0  0  0  0  0  0  0  0  0  0  0
   -1.4702    0.9381    0.0000 Br  0  0  0  0  0  0  0  0  0  0  0  0
   -3.3983   -0.9141    0.0000 Br  0  0  0  0  0  0  0  0  0  0  0  0
  1  2  1  0  0  0  0
  1  3  1  0  0  0  0
  1  4  1  0  0  0  0
  1  5  2  0  0  0  0
  2  6  1  0  0  0  0
  3  7  1  0  0  0  0
  4  8  1  0  0  0  0
  6  9  1  0  0  0  0
  7 10  1  0  0  0  0
  8 11  1  0  0  0  0
  9 12  1  0  0  0  0
  9 13  1  0  0  0  0
 10 14  1  0  0  0  0
 10 15  1  0  0  0  0
 11 16  1  0  0  0  0
 11 17  1  0  0  0  0
 12 18  1  0  0  0  0
 14 19  1  0  0  0  0
 16 20  1  0  0  0  0
M  END