372
  Mrv0541 04071411322D          

 29 28  0  0  0  0            999 V2000
    0.0051   -0.6219    0.0000 P   0  0  0  0  0  0  0  0  0  0  0  0
    0.8224   -0.6296    0.0000 O   0  0  0  0  0  0  0  0  0  0  0  0
    0.0051    0.1980    0.0000 O   0  0  0  0  0  0  0  0  0  0  0  0
   -0.8326   -0.6270    0.0000 O   0  0  0  0  0  0  0  0  0  0  0  0
    0.0025   -1.4596    0.0000 O   0  0  0  0  0  0  0  0  0  0  0  0
    1.2287   -1.3403    0.0000 C   0  0  0  0  0  0  0  0  0  0  0  0
    0.7235    0.6067    0.0000 C   0  0  0  0  0  0  0  0  0  0  0  0
   -1.2363    0.0863    0.0000 C   0  0  0  0  0  0  0  0  0  0  0  0
    2.0537   -1.3403    0.0000 C   0  0  0  0  0  0  0  0  0  0  0  0
    0.7209    1.4418    0.0000 C   0  0  0  0  0  0  0  0  0  0  0  0
   -2.0588    0.0863    0.0000 C   0  0  0  0  0  0  0  0  0  0  0  0
    2.4623   -2.0637    0.0000 C   0  0  0  0  0  0  0  0  0  0  0  0
    2.4724   -0.6296    0.0000 C   0  0  0  0  0  0  0  0  0  0  0  0
    0.0051    1.8531    0.0000 C   0  0  0  0  0  0  0  0  0  0  0  0
    1.4418    1.8353    0.0000 C   0  0  0  0  0  0  0  0  0  0  0  0
   -2.4700    0.8073    0.0000 C   0  0  0  0  0  0  0  0  0  0  0  0
   -2.4801   -0.6194    0.0000 C   0  0  0  0  0  0  0  0  0  0  0  0
    3.2823   -2.0714    0.0000 C   0  0  0  0  0  0  0  0  0  0  0  0
    2.0637    0.0863    0.0000 C   0  0  0  0  0  0  0  0  0  0  0  0
   -0.7057    1.4520    0.0000 C   0  0  0  0  0  0  0  0  0  0  0  0
    1.4418    2.6679    0.0000 C   0  0  0  0  0  0  0  0  0  0  0  0
   -3.2975    0.8073    0.0000 C   0  0  0  0  0  0  0  0  0  0  0  0
   -2.0739   -1.3403    0.0000 C   0  0  0  0  0  0  0  0  0  0  0  0
    3.6934   -2.7924    0.0000 C   0  0  0  0  0  0  0  0  0  0  0  0
   -1.4241    1.8632    0.0000 C   0  0  0  0  0  0  0  0  0  0  0  0
   -3.7037    1.5307    0.0000 C   0  0  0  0  0  0  0  0  0  0  0  0
    4.5134   -2.7924    0.0000 C   0  0  0  0  0  0  0  0  0  0  0  0
   -2.1425    1.4622    0.0000 C   0  0  0  0  0  0  0  0  0  0  0  0
   -4.5160    1.5408    0.0000 C   0  0  0  0  0  0  0  0  0  0  0  0
  1  2  1  0  0  0  0
  1  3  1  0  0  0  0
  1  4  1  0  0  0  0
  1  5  2  0  0  0  0
  2  6  1  0  0  0  0
  3  7  1  0  0  0  0
  4  8  1  0  0  0  0
  6  9  1  0  0  0  0
  7 10  1  0  0  0  0
  8 11  1  0  0  0  0
  9 12  1  0  0  0  0
  9 13  1  0  0  0  0
 10 14  1  0  0  0  0
 10 15  1  0  0  0  0
 11 16  1  0  0  0  0
 11 17  1  0  0  0  0
 12 18  1  0  0  0  0
 13 19  1  0  0  0  0
 14 20  1  0  0  0  0
 15 21  1  0  0  0  0
 16 22  1  0  0  0  0
 17 23  1  0  0  0  0
 18 24  1  0  0  0  0
 20 25  1  0  0  0  0
 22 26  1  0  0  0  0
 24 27  1  0  0  0  0
 25 28  1  0  0  0  0
 26 29  1  0  0  0  0
M  END