373
  Mrv0541 04071411322D          

  8  7  0  0  0  0            999 V2000
    0.0850    0.1589    0.0000 P   0  0  0  0  0  0  0  0  0  0  0  0
    0.9144    0.1497    0.0000 O   0  0  0  0  0  0  0  0  0  0  0  0
   -0.7389    0.1589    0.0000 O   0  0  0  0  0  0  0  0  0  0  0  0
    0.0850   -0.6743    0.0000 O   0  0  0  0  0  0  0  0  0  0  0  0
    0.0979    0.9828    0.0000 O   0  0  0  0  0  0  0  0  0  0  0  0
    1.3339   -0.5598    0.0000 C   0  0  0  0  0  0  0  0  0  0  0  0
   -1.1473    0.8757    0.0000 C   0  0  0  0  0  0  0  0  0  0  0  0
   -0.6280   -1.0900    0.0000 C   0  0  0  0  0  0  0  0  0  0  0  0
  1  2  1  0  0  0  0
  1  3  1  0  0  0  0
  1  4  1  0  0  0  0
  1  5  2  0  0  0  0
  2  6  1  0  0  0  0
  3  7  1  0  0  0  0
  4  8  1  0  0  0  0
M  END