374
  Mrv0541 04071411322D          

 17 16  0  0  0  0            999 V2000
    0.1021   -0.0121    0.0000 P   0  0  0  0  0  0  0  0  0  0  0  0
    0.1021    0.8129    0.0000 O   0  0  0  0  0  0  0  0  0  0  0  0
   -0.7229   -0.0121    0.0000 O   0  0  0  0  0  0  0  0  0  0  0  0
   -1.1354    0.7024    0.0000 C   0  0  0  0  0  0  0  0  0  0  0  0
   -1.9604    0.7024    0.0000 C   0  0  0  0  0  0  0  0  0  0  0  0
   -2.3729    1.4169    0.0000 C   0  0  0  0  0  0  0  0  0  0  0  0
   -3.1979    1.4169    0.0000 C   0  0  0  0  0  0  0  0  0  0  0  0
    0.9271   -0.0121    0.0000 O   0  0  0  0  0  0  0  0  0  0  0  0
    1.3396    0.7024    0.0000 C   0  0  0  0  0  0  0  0  0  0  0  0
    2.1646    0.7024    0.0000 C   0  0  0  0  0  0  0  0  0  0  0  0
    2.5771    1.4169    0.0000 C   0  0  0  0  0  0  0  0  0  0  0  0
    3.4021    1.4169    0.0000 C   0  0  0  0  0  0  0  0  0  0  0  0
    0.1021   -0.8371    0.0000 O   0  0  0  0  0  0  0  0  0  0  0  0
   -0.6124   -1.2496    0.0000 C   0  0  0  0  0  0  0  0  0  0  0  0
   -0.6124   -2.0746    0.0000 C   0  0  0  0  0  0  0  0  0  0  0  0
   -1.3269   -2.4871    0.0000 C   0  0  0  0  0  0  0  0  0  0  0  0
   -1.3269   -3.3121    0.0000 C   0  0  0  0  0  0  0  0  0  0  0  0
  1  8  1  0  0  0  0
  1 13  1  0  0  0  0
  1  3  1  0  0  0  0
  1  2  2  0  0  0  0
  3  4  1  0  0  0  0
  4  5  1  0  0  0  0
  5  6  1  0  0  0  0
  6  7  1  0  0  0  0
  8  9  1  0  0  0  0
  9 10  1  0  0  0  0
 10 11  1  0  0  0  0
 11 12  1  0  0  0  0
 13 14  1  0  0  0  0
 14 15  1  0  0  0  0
 15 16  1  0  0  0  0
 16 17  1  0  0  0  0
M  END