38
  Mrv0541 04071411322D          

 17 20  0  0  0  0            999 V2000
   -0.4218   -0.3367    0.0000 C   0  0  0  0  0  0  0  0  0  0  0  0
    0.2960    0.0702    0.0000 C   0  0  0  0  0  0  0  0  0  0  0  0
   -1.1301    0.0833    0.0000 C   0  0  0  0  0  0  0  0  0  0  0  0
   -0.4218   -1.1634    0.0000 C   0  0  0  0  0  0  0  0  0  0  0  0
    0.2960    0.8970    0.0000 C   0  0  0  0  0  0  0  0  0  0  0  0
    1.0025   -0.3459    0.0000 C   0  0  0  0  0  0  0  0  0  0  0  0
   -1.1301    0.9081    0.0000 C   0  0  0  0  0  0  0  0  0  0  0  0
   -1.8497   -0.3255    0.0000 C   0  0  0  0  0  0  0  0  0  0  0  0
    0.2848   -1.5704    0.0000 C   0  0  0  0  0  0  0  0  0  0  0  0
   -1.1301   -1.5704    0.0000 C   0  0  0  0  0  0  0  0  0  0  0  0
   -0.4125    1.3040    0.0000 C   0  0  0  0  0  0  0  0  0  0  0  0
    1.0025    1.3040    0.0000 C   0  0  0  0  0  0  0  0  0  0  0  0
    1.0025   -1.1764    0.0000 C   0  0  0  0  0  0  0  0  0  0  0  0
    1.7239    0.0574    0.0000 C   0  0  0  0  0  0  0  0  0  0  0  0
   -1.8497   -1.1504    0.0000 C   0  0  0  0  0  0  0  0  0  0  0  0
    1.7239    0.8878    0.0000 C   0  0  0  0  0  0  0  0  0  0  0  0
    1.0025    2.1345    0.0000 C   0  0  0  0  0  0  0  0  0  0  0  0
  1  2  2  0  0  0  0
  1  3  1  0  0  0  0
  1  4  1  0  0  0  0
  2  5  1  0  0  0  0
  2  6  1  0  0  0  0
  3  7  1  0  0  0  0
  3  8  2  0  0  0  0
  4  9  2  0  0  0  0
  4 10  1  0  0  0  0
  5 11  1  0  0  0  0
  5 12  2  0  0  0  0
  6 13  2  0  0  0  0
  6 14  1  0  0  0  0
  8 15  1  0  0  0  0
 12 16  1  0  0  0  0
 12 17  1  0  0  0  0
  7 11  2  0  0  0  0
  9 13  1  0  0  0  0
 10 15  2  0  0  0  0
 14 16  2  0  0  0  0
M  END