380
  Mrv0541 04071411322D          

 10 11  0  0  0  0            999 V2000
   -0.0628    0.4067    0.0000 C   0  0  0  0  0  0  0  0  0  0  0  0
   -0.0628   -0.4067    0.0000 C   0  0  0  0  0  0  0  0  0  0  0  0
    0.7191    0.6655    0.0000 N   0  0  0  0  0  0  0  0  0  0  0  0
   -0.7764    0.8207    0.0000 C   0  0  0  0  0  0  0  0  0  0  0  0
    0.7191   -0.6655    0.0000 S   0  0  0  0  0  0  0  0  0  0  0  0
   -0.7764   -0.8207    0.0000 C   0  0  0  0  0  0  0  0  0  0  0  0
    1.2016   -0.0018    0.0000 C   0  0  0  0  0  0  0  0  0  0  0  0
   -1.4973    0.4067    0.0000 C   0  0  0  0  0  0  0  0  0  0  0  0
   -1.4973   -0.4067    0.0000 C   0  0  0  0  0  0  0  0  0  0  0  0
    2.0315   -0.0018    0.0000 S   0  0  0  0  0  0  0  0  0  0  0  0
  1  2  2  0  0  0  0
  1  3  1  0  0  0  0
  1  4  1  0  0  0  0
  2  5  1  0  0  0  0
  2  6  1  0  0  0  0
  3  7  2  0  0  0  0
  4  8  2  0  0  0  0
  6  9  2  0  0  0  0
  7 10  1  0  0  0  0
  5  7  1  0  0  0  0
  8  9  1  0  0  0  0
M  END