381
  Mrv0541 04071411322D          

 10 11  0  0  0  0            999 V2000
   -0.0658    0.4168    0.0000 C   0  0  0  0  0  0  0  0  0  0  0  0
   -0.0658   -0.4181    0.0000 C   0  0  0  0  0  0  0  0  0  0  0  0
    0.7302    0.6692    0.0000 N   0  0  0  0  0  0  0  0  0  0  0  0
   -0.7813    0.8276    0.0000 C   0  0  0  0  0  0  0  0  0  0  0  0
    0.7302   -0.6680    0.0000 N   0  0  0  0  0  0  0  0  0  0  0  0
   -0.7813   -0.8276    0.0000 C   0  0  0  0  0  0  0  0  0  0  0  0
    1.2067    0.0061    0.0000 C   0  0  0  0  0  0  0  0  0  0  0  0
   -1.4968    0.4034    0.0000 C   0  0  0  0  0  0  0  0  0  0  0  0
   -1.4968   -0.4181    0.0000 C   0  0  0  0  0  0  0  0  0  0  0  0
    2.0197    0.0061    0.0000 S   0  0  0  0  0  0  0  0  0  0  0  0
  1  2  2  0  0  0  0
  1  3  1  0  0  0  0
  1  4  1  0  0  0  0
  2  5  1  0  0  0  0
  2  6  1  0  0  0  0
  3  7  1  0  0  0  0
  4  8  2  0  0  0  0
  6  9  2  0  0  0  0
  7 10  1  0  0  0  0
  5  7  2  0  0  0  0
  8  9  1  0  0  0  0
M  END