383
  Mrv0541 04071411322D          

 13 15  0  0  0  0            999 V2000
    0.3988   -0.2326    0.0000 C   0  0  0  0  0  0  0  0  0  0  0  0
   -0.3905   -0.2326    0.0000 C   0  0  0  0  0  0  0  0  0  0  0  0
    0.6481    0.5096    0.0000 C   0  0  0  0  0  0  0  0  0  0  0  0
    0.9527   -0.8642    0.0000 C   0  0  0  0  0  0  0  0  0  0  0  0
   -0.6537    0.5013    0.0000 C   0  0  0  0  0  0  0  0  0  0  0  0
   -0.9527   -0.8475    0.0000 C   0  0  0  0  0  0  0  0  0  0  0  0
    0.0194    0.9998    0.0000 S   0  0  0  0  0  0  0  0  0  0  0  0
    1.4651    0.6896    0.0000 C   0  0  0  0  0  0  0  0  0  0  0  0
    1.7725   -0.6952    0.0000 C   0  0  0  0  0  0  0  0  0  0  0  0
   -1.4651    0.6785    0.0000 C   0  0  0  0  0  0  0  0  0  0  0  0
   -1.7781   -0.6869    0.0000 C   0  0  0  0  0  0  0  0  0  0  0  0
    2.0079    0.0776    0.0000 C   0  0  0  0  0  0  0  0  0  0  0  0
   -2.0272    0.0996    0.0000 C   0  0  0  0  0  0  0  0  0  0  0  0
  1  2  1  0  0  0  0
  1  3  1  0  0  0  0
  1  4  2  0  0  0  0
  2  5  2  0  0  0  0
  2  6  1  0  0  0  0
  3  7  1  0  0  0  0
  3  8  2  0  0  0  0
  4  9  1  0  0  0  0
  5 10  1  0  0  0  0
  6 11  2  0  0  0  0
  8 12  1  0  0  0  0
 10 13  2  0  0  0  0
  5  7  1  0  0  0  0
  9 12  2  0  0  0  0
 11 13  1  0  0  0  0
M  END