384
  Mrv0541 04071411322D          

  9 10  0  0  0  0            999 V2000
   -0.1572    0.4125    0.0000 C   0  0  0  0  0  0  0  0  0  0  0  0
   -0.1572   -0.4125    0.0000 C   0  0  0  0  0  0  0  0  0  0  0  0
   -0.9453    0.6660    0.0000 N   0  0  0  0  0  0  0  0  0  0  0  0
    0.5513    0.8269    0.0000 C   0  0  0  0  0  0  0  0  0  0  0  0
   -0.9453   -0.6660    0.0000 S   0  0  0  0  0  0  0  0  0  0  0  0
    0.5513   -0.8269    0.0000 C   0  0  0  0  0  0  0  0  0  0  0  0
   -1.4336   -0.0018    0.0000 C   0  0  0  0  0  0  0  0  0  0  0  0
    1.2690    0.4125    0.0000 C   0  0  0  0  0  0  0  0  0  0  0  0
    1.2690   -0.4125    0.0000 C   0  0  0  0  0  0  0  0  0  0  0  0
  1  2  2  0  0  0  0
  1  3  1  0  0  0  0
  1  4  1  0  0  0  0
  2  5  1  0  0  0  0
  2  6  1  0  0  0  0
  3  7  2  0  0  0  0
  4  8  2  0  0  0  0
  6  9  2  0  0  0  0
  5  7  1  0  0  0  0
  8  9  1  0  0  0  0
M  END