385
  Mrv0541 04071411322D          

  5  5  0  0  0  0            999 V2000
    0.4125    0.5663    0.0000 C   0  0  0  0  0  0  0  0  0  0  0  0
   -0.4238    0.5663    0.0000 C   0  0  0  0  0  0  0  0  0  0  0  0
    0.6694   -0.2157    0.0000 C   0  0  0  0  0  0  0  0  0  0  0  0
   -0.6694   -0.2213    0.0000 C   0  0  0  0  0  0  0  0  0  0  0  0
    0.0112   -0.6976    0.0000 S   0  0  0  0  0  0  0  0  0  0  0  0
  1  2  1  0  0  0  0
  1  3  2  0  0  0  0
  2  4  2  0  0  0  0
  3  5  1  0  0  0  0
  4  5  1  0  0  0  0
M  END