386
  Mrv0541 04071411322D          

 40 39  0  0  0  0            999 V2000
    0.0096   -0.0064    0.0000 N   0  0  0  0  0  0  0  0  0  0  0  0
    0.6968    0.4014    0.0000 C   0  0  0  0  0  0  0  0  0  0  0  0
    0.0096   -0.8092    0.0000 C   0  0  0  0  0  0  0  0  0  0  0  0
   -0.7000    0.4014    0.0000 C   0  0  0  0  0  0  0  0  0  0  0  0
    1.4096    0.8188    0.0000 C   0  0  0  0  0  0  0  0  0  0  0  0
    0.2889    1.1270    0.0000 F   0  0  0  0  0  0  0  0  0  0  0  0
    1.0950   -0.3051    0.0000 F   0  0  0  0  0  0  0  0  0  0  0  0
    0.0096   -1.6376    0.0000 C   0  0  0  0  0  0  0  0  0  0  0  0
    0.8156   -0.8092    0.0000 F   0  0  0  0  0  0  0  0  0  0  0  0
   -0.8156   -0.8092    0.0000 F   0  0  0  0  0  0  0  0  0  0  0  0
   -1.4192    0.8188    0.0000 C   0  0  0  0  0  0  0  0  0  0  0  0
   -1.1046   -0.3051    0.0000 F   0  0  0  0  0  0  0  0  0  0  0  0
   -0.2889    1.1270    0.0000 F   0  0  0  0  0  0  0  0  0  0  0  0
    2.1193    1.2394    0.0000 C   0  0  0  0  0  0  0  0  0  0  0  0
    0.9890    1.5284    0.0000 F   0  0  0  0  0  0  0  0  0  0  0  0
    1.8238    0.1027    0.0000 F   0  0  0  0  0  0  0  0  0  0  0  0
    0.0096   -2.4596    0.0000 C   0  0  0  0  0  0  0  0  0  0  0  0
   -0.8156   -1.6376    0.0000 F   0  0  0  0  0  0  0  0  0  0  0  0
    0.8156   -1.6376    0.0000 F   0  0  0  0  0  0  0  0  0  0  0  0
   -2.1289    1.2394    0.0000 C   0  0  0  0  0  0  0  0  0  0  0  0
   -1.8271    0.1027    0.0000 F   0  0  0  0  0  0  0  0  0  0  0  0
   -1.0019    1.5284    0.0000 F   0  0  0  0  0  0  0  0  0  0  0  0
    2.8386    1.6441    0.0000 C   0  0  0  0  0  0  0  0  0  0  0  0
    1.7114    1.9362    0.0000 F   0  0  0  0  0  0  0  0  0  0  0  0
    2.5271    0.5202    0.0000 F   0  0  0  0  0  0  0  0  0  0  0  0
    0.0096   -3.2848    0.0000 C   0  0  0  0  0  0  0  0  0  0  0  0
   -0.8156   -2.4596    0.0000 F   0  0  0  0  0  0  0  0  0  0  0  0
    0.8156   -2.4596    0.0000 F   0  0  0  0  0  0  0  0  0  0  0  0
   -2.8289    1.6441    0.0000 C   0  0  0  0  0  0  0  0  0  0  0  0
   -1.7147    1.9362    0.0000 F   0  0  0  0  0  0  0  0  0  0  0  0
   -2.5367    0.5170    0.0000 F   0  0  0  0  0  0  0  0  0  0  0  0
    2.4307    2.3472    0.0000 F   0  0  0  0  0  0  0  0  0  0  0  0
    3.5514    2.0582    0.0000 F   0  0  0  0  0  0  0  0  0  0  0  0
    3.2560    0.9472    0.0000 F   0  0  0  0  0  0  0  0  0  0  0  0
   -0.8156   -3.2848    0.0000 F   0  0  0  0  0  0  0  0  0  0  0  0
    0.8156   -3.2848    0.0000 F   0  0  0  0  0  0  0  0  0  0  0  0
    0.0096   -4.0940    0.0000 F   0  0  0  0  0  0  0  0  0  0  0  0
   -2.4307    2.3472    0.0000 F   0  0  0  0  0  0  0  0  0  0  0  0
   -3.5610    2.0422    0.0000 F   0  0  0  0  0  0  0  0  0  0  0  0
   -3.2463    0.9247    0.0000 F   0  0  0  0  0  0  0  0  0  0  0  0
  1  2  1  0  0  0  0
  1  3  1  0  0  0  0
  1  4  1  0  0  0  0
  2  5  1  0  0  0  0
  2  6  1  0  0  0  0
  2  7  1  0  0  0  0
  3  8  1  0  0  0  0
  3  9  1  0  0  0  0
  3 10  1  0  0  0  0
  4 11  1  0  0  0  0
  4 12  1  0  0  0  0
  4 13  1  0  0  0  0
  5 14  1  0  0  0  0
  5 15  1  0  0  0  0
  5 16  1  0  0  0  0
  8 17  1  0  0  0  0
  8 18  1  0  0  0  0
  8 19  1  0  0  0  0
 11 20  1  0  0  0  0
 11 21  1  0  0  0  0
 11 22  1  0  0  0  0
 14 23  1  0  0  0  0
 14 24  1  0  0  0  0
 14 25  1  0  0  0  0
 17 26  1  0  0  0  0
 17 27  1  0  0  0  0
 17 28  1  0  0  0  0
 20 29  1  0  0  0  0
 20 30  1  0  0  0  0
 20 31  1  0  0  0  0
 23 32  1  0  0  0  0
 23 33  1  0  0  0  0
 23 34  1  0  0  0  0
 26 35  1  0  0  0  0
 26 36  1  0  0  0  0
 26 37  1  0  0  0  0
 29 38  1  0  0  0  0
 29 39  1  0  0  0  0
 29 40  1  0  0  0  0
M  END