387
  Mrv0541 04071411322D          

 10  9  0  0  0  0            999 V2000
    0.1453    0.2447    0.0000 N   0  0  0  0  0  0  0  0  0  0  0  0
    0.8517    0.6567    0.0000 C   0  0  0  0  0  0  0  0  0  0  0  0
   -0.5684    0.6567    0.0000 C   0  0  0  0  0  0  0  0  0  0  0  0
    0.1453   -0.5647    0.0000 C   0  0  0  0  0  0  0  0  0  0  0  0
    1.5654    0.2373    0.0000 C   0  0  0  0  0  0  0  0  0  0  0  0
   -1.2821    0.2447    0.0000 C   0  0  0  0  0  0  0  0  0  0  0  0
   -0.5684   -0.9786    0.0000 C   0  0  0  0  0  0  0  0  0  0  0  0
    2.2791    0.6494    0.0000 C   0  0  0  0  0  0  0  0  0  0  0  0
   -1.9958    0.6622    0.0000 C   0  0  0  0  0  0  0  0  0  0  0  0
   -0.5684   -1.8082    0.0000 C   0  0  0  0  0  0  0  0  0  0  0  0
  1  2  1  0  0  0  0
  1  3  1  0  0  0  0
  1  4  1  0  0  0  0
  2  5  1  0  0  0  0
  3  6  1  0  0  0  0
  4  7  1  0  0  0  0
  5  8  2  0  0  0  0
  6  9  2  0  0  0  0
  7 10  2  0  0  0  0
M  END