388
  Mrv0541 04071411322D          

 14 14  0  0  0  0            999 V2000
    3.5302    0.1299    0.0000 C   0  0  0  0  0  0  0  0  0  0  0  0
    4.2442    0.5430    0.0000 F   0  0  0  0  0  0  0  0  0  0  0  0
    4.3009   -0.3128    0.0000 F   0  0  0  0  0  0  0  0  0  0  0  0
    3.5054    1.0811    0.0000 F   0  0  0  0  0  0  0  0  0  0  0  0
    2.8161   -0.2834    0.0000 C   0  0  0  0  0  0  0  0  0  0  0  0
    2.0984    0.1291    0.0000 C   0  0  0  0  0  0  0  0  0  0  0  0
    1.3889   -0.2834    0.0000 C   0  0  0  0  0  0  0  0  0  0  0  0
    0.6738    0.1280    0.0000 Cl  0  0  0  0  0  0  0  0  0  0  0  0
    1.3889   -1.1084    0.0000 C   0  0  0  0  0  0  0  0  0  0  0  0
    2.0984   -1.5209    0.0000 C   0  0  0  0  0  0  0  0  0  0  0  0
    2.8161   -1.1084    0.0000 C   0  0  0  0  0  0  0  0  0  0  0  0
    3.8158   -1.6869    0.0000 N   0  3  0  0  0  0  0  0  0  0  0  0
    4.5334   -1.2740    0.0000 O   0  5  0  0  0  0  0  0  0  0  0  0
    3.8155   -2.5076    0.0000 O   0  0  0  0  0  0  0  0  0  0  0  0
  1  2  1  0  0  0  0
  1  3  1  0  0  0  0
  1  4  1  0  0  0  0
  1  5  1  0  0  0  0
  5  6  1  0  0  0  0
  6  7  2  0  0  0  0
  7  8  1  0  0  0  0
  7  9  1  0  0  0  0
  9 10  2  0  0  0  0
 10 11  1  0  0  0  0
 11  5  2  0  0  0  0
 11 12  1  0  0  0  0
 12 13  1  0  0  0  0
 12 14  2  0  0  0  0
M  CHG  2  12   1  13  -1
M  END