389
  Mrv0541 04071411322D          

 11 11  0  0  0  0            999 V2000
    0.2550   -0.1551    0.0000 C   0  0  0  0  0  0  0  0  0  0  0  0
   -0.4618   -0.5584    0.0000 C   0  0  0  0  0  0  0  0  0  0  0  0
    0.2637    0.6756    0.0000 C   0  0  0  0  0  0  0  0  0  0  0  0
    0.9806   -0.5670    0.0000 N   0  3  0  0  0  0  0  0  0  0  0  0
   -1.1737   -0.1414    0.0000 C   0  0  0  0  0  0  0  0  0  0  0  0
   -0.4618   -1.3840    0.0000 C   0  0  0  0  0  0  0  0  0  0  0  0
   -0.4482    1.0824    0.0000 C   0  0  0  0  0  0  0  0  0  0  0  0
    1.6873   -0.1551    0.0000 O   0  0  0  0  0  0  0  0  0  0  0  0
    0.9806   -1.3840    0.0000 O   0  5  0  0  0  0  0  0  0  0  0  0
   -1.1737    0.6756    0.0000 C   0  0  0  0  0  0  0  0  0  0  0  0
   -0.4482    1.9079    0.0000 O   0  0  0  0  0  0  0  0  0  0  0  0
  1  2  1  0  0  0  0
  1  3  2  0  0  0  0
  1  4  1  0  0  0  0
  2  5  2  0  0  0  0
  2  6  1  0  0  0  0
  3  7  1  0  0  0  0
  4  8  2  0  0  0  0
  4  9  1  0  0  0  0
  5 10  1  0  0  0  0
  7 11  1  0  0  0  0
  7 10  2  0  0  0  0
M  CHG  2   4   1   9  -1
M  END