39
  Mrv0541 04071411322D          

 18 21  0  0  0  0            999 V2000
    0.0080    0.8303    0.0000 C   0  0  0  0  0  0  0  0  0  0  0  0
   -0.7146    0.4152    0.0000 C   0  0  0  0  0  0  0  0  0  0  0  0
    0.7125    0.4152    0.0000 C   0  0  0  0  0  0  0  0  0  0  0  0
    0.0080    1.6527    0.0000 C   0  0  0  0  0  0  0  0  0  0  0  0
   -0.7225   -0.4072    0.0000 C   0  0  0  0  0  0  0  0  0  0  0  0
   -1.4291    0.8303    0.0000 C   0  0  0  0  0  0  0  0  0  0  0  0
    0.7125   -0.4172    0.0000 C   0  0  0  0  0  0  0  0  0  0  0  0
    1.4191    0.8303    0.0000 C   0  0  0  0  0  0  0  0  0  0  0  0
   -0.6986    2.0579    0.0000 C   0  0  0  0  0  0  0  0  0  0  0  0
    0.0080   -0.8223    0.0000 C   0  0  0  0  0  0  0  0  0  0  0  0
   -1.4391   -0.8223    0.0000 C   0  0  0  0  0  0  0  0  0  0  0  0
   -1.4172    1.6527    0.0000 C   0  0  0  0  0  0  0  0  0  0  0  0
    1.4191   -0.8223    0.0000 C   0  0  0  0  0  0  0  0  0  0  0  0
    2.1377    0.4152    0.0000 C   0  0  0  0  0  0  0  0  0  0  0  0
    0.0080   -1.6587    0.0000 C   0  0  0  0  0  0  0  0  0  0  0  0
   -1.4391   -1.6587    0.0000 C   0  0  0  0  0  0  0  0  0  0  0  0
    2.1377   -0.4172    0.0000 C   0  0  0  0  0  0  0  0  0  0  0  0
   -0.6986   -2.0739    0.0000 C   0  0  0  0  0  0  0  0  0  0  0  0
  1  2  2  0  0  0  0
  1  3  1  0  0  0  0
  1  4  1  0  0  0  0
  2  5  1  0  0  0  0
  2  6  1  0  0  0  0
  3  7  1  0  0  0  0
  3  8  2  0  0  0  0
  4  9  2  0  0  0  0
  5 10  2  0  0  0  0
  5 11  1  0  0  0  0
  6 12  2  0  0  0  0
  7 13  2  0  0  0  0
  8 14  1  0  0  0  0
 10 15  1  0  0  0  0
 11 16  2  0  0  0  0
 13 17  1  0  0  0  0
 15 18  2  0  0  0  0
  7 10  1  0  0  0  0
  9 12  1  0  0  0  0
 14 17  2  0  0  0  0
 16 18  1  0  0  0  0
M  END