390
  Mrv0541 04071411322D          

 11 11  0  0  0  0            999 V2000
    4.8493    0.4868    0.0000 O   0  0  0  0  0  0  0  0  0  0  0  0
    4.1317    0.8997    0.0000 N   0  3  0  0  0  0  0  0  0  0  0  0
    4.1313    1.7204    0.0000 O   0  5  0  0  0  0  0  0  0  0  0  0
    3.4176    0.4865    0.0000 C   0  0  0  0  0  0  0  0  0  0  0  0
    2.6999    0.8990    0.0000 C   0  0  0  0  0  0  0  0  0  0  0  0
    1.9904    0.4865    0.0000 C   0  0  0  0  0  0  0  0  0  0  0  0
    1.9904   -0.3385    0.0000 C   0  0  0  0  0  0  0  0  0  0  0  0
    2.6999   -0.7510    0.0000 C   0  0  0  0  0  0  0  0  0  0  0  0
    2.6978   -1.5760    0.0000 O   0  0  0  0  0  0  0  0  0  0  0  0
    3.4176   -0.3385    0.0000 C   0  0  0  0  0  0  0  0  0  0  0  0
    1.2753   -0.7499    0.0000 C   0  0  0  0  0  0  0  0  0  0  0  0
  1  2  2  0  0  0  0
  2  3  1  0  0  0  0
  2  4  1  0  0  0  0
  4  5  1  0  0  0  0
  5  6  2  0  0  0  0
  6  7  1  0  0  0  0
  7  8  2  0  0  0  0
  8  9  1  0  0  0  0
  8 10  1  0  0  0  0
 10  4  2  0  0  0  0
  7 11  1  0  0  0  0
M  CHG  2   2   1   3  -1
M  END