391
  Mrv0541 04071411322D          

 12 12  0  0  0  0            999 V2000
    6.1979   -3.1871    0.0000 O   0  5  0  0  0  0  0  0  0  0  0  0
    5.4803   -2.7742    0.0000 N   0  3  0  0  0  0  0  0  0  0  0  0
    5.4799   -1.9535    0.0000 O   0  0  0  0  0  0  0  0  0  0  0  0
    4.7663   -3.1875    0.0000 C   0  0  0  0  0  0  0  0  0  0  0  0
    4.0485   -2.7750    0.0000 C   0  0  0  0  0  0  0  0  0  0  0  0
    4.0465   -1.9500    0.0000 N   0  0  0  0  0  0  0  0  0  0  0  0
    3.3390   -3.1875    0.0000 C   0  0  0  0  0  0  0  0  0  0  0  0
    3.3390   -4.0125    0.0000 C   0  0  0  0  0  0  0  0  0  0  0  0
    4.0485   -4.4250    0.0000 C   0  0  0  0  0  0  0  0  0  0  0  0
    4.0465   -5.2500    0.0000 O   0  0  0  0  0  0  0  0  0  0  0  0
    3.3309   -5.6607    0.0000 C   0  0  0  0  0  0  0  0  0  0  0  0
    4.7663   -4.0125    0.0000 C   0  0  0  0  0  0  0  0  0  0  0  0
  1  2  1  0  0  0  0
  2  3  2  0  0  0  0
  2  4  1  0  0  0  0
  4  5  1  0  0  0  0
  5  6  1  0  0  0  0
  5  7  2  0  0  0  0
  7  8  1  0  0  0  0
  8  9  2  0  0  0  0
  9 10  1  0  0  0  0
 10 11  1  0  0  0  0
  9 12  1  0  0  0  0
 12  4  2  0  0  0  0
M  CHG  2   1  -1   2   1
M  END