392
  Mrv0541 04071411322D          

 12 12  0  0  0  0            999 V2000
   -0.4167    0.1073    0.0000 C   0  0  0  0  0  0  0  0  0  0  0  0
    0.2972    0.5153    0.0000 C   0  0  0  0  0  0  0  0  0  0  0  0
   -0.4167   -0.7281    0.0000 C   0  0  0  0  0  0  0  0  0  0  0  0
   -1.1307    0.5276    0.0000 N   0  3  0  0  0  0  0  0  0  0  0  0
    1.0112    0.0967    0.0000 C   0  0  0  0  0  0  0  0  0  0  0  0
    0.2972    1.3312    0.0000 O   0  0  0  0  0  0  0  0  0  0  0  0
    0.2972   -1.1361    0.0000 C   0  0  0  0  0  0  0  0  0  0  0  0
   -1.8448    0.1196    0.0000 O   0  0  0  0  0  0  0  0  0  0  0  0
   -1.1378    1.3558    0.0000 O   0  5  0  0  0  0  0  0  0  0  0  0
    1.0112   -0.7386    0.0000 C   0  0  0  0  0  0  0  0  0  0  0  0
    1.7357    0.5047    0.0000 Cl  0  0  0  0  0  0  0  0  0  0  0  0
    0.2972   -1.9520    0.0000 Cl  0  0  0  0  0  0  0  0  0  0  0  0
  1  2  2  0  0  0  0
  1  3  1  0  0  0  0
  1  4  1  0  0  0  0
  2  5  1  0  0  0  0
  2  6  1  0  0  0  0
  3  7  2  0  0  0  0
  4  8  2  0  0  0  0
  4  9  1  0  0  0  0
  5 10  2  0  0  0  0
  5 11  1  0  0  0  0
  7 12  1  0  0  0  0
  7 10  1  0  0  0  0
M  CHG  2   4   1   9  -1
M  END