393
  Mrv0541 04071411322D          

 14 14  0  0  0  0            999 V2000
    0.3545   -0.1458    0.0000 C   0  0  0  0  0  0  0  0  0  0  0  0
   -0.3508   -0.5575    0.0000 C   0  0  0  0  0  0  0  0  0  0  0  0
    1.0726   -0.5520    0.0000 C   0  0  0  0  0  0  0  0  0  0  0  0
    0.3508    0.6794    0.0000 C   0  0  0  0  0  0  0  0  0  0  0  0
   -0.3452   -1.3828    0.0000 O   0  0  0  0  0  0  0  0  0  0  0  0
    1.7852   -0.1403    0.0000 C   0  0  0  0  0  0  0  0  0  0  0  0
    1.0615    1.0910    0.0000 C   0  0  0  0  0  0  0  0  0  0  0  0
    1.7796    0.6849    0.0000 C   0  0  0  0  0  0  0  0  0  0  0  0
    2.5015   -0.5409    0.0000 C   0  0  0  0  0  0  0  0  0  0  0  0
   -1.0689   -0.1514    0.0000 N   0  0  0  0  0  0  0  0  0  0  0  0
   -1.7834   -0.5639    0.0000 C   0  0  0  0  0  0  0  0  0  0  0  0
   -1.0689    0.6736    0.0000 C   0  0  0  0  0  0  0  0  0  0  0  0
   -1.7834   -1.3889    0.0000 C   0  0  0  0  0  0  0  0  0  0  0  0
   -1.7834    1.0861    0.0000 C   0  0  0  0  0  0  0  0  0  0  0  0
  4  7  2  0  0  0  0
  6  8  2  0  0  0  0
  6  9  1  0  0  0  0
  7  8  1  0  0  0  0
  1  2  1  0  0  0  0
  1  3  2  0  0  0  0
  1  4  1  0  0  0  0
  2 10  1  0  0  0  0
  2  5  2  0  0  0  0
  3  6  1  0  0  0  0
 10 11  1  0  0  0  0
 10 12  1  0  0  0  0
 11 13  1  0  0  0  0
 12 14  1  0  0  0  0
M  END