394
  Mrv0541 04071411322D          

 12 12  0  0  0  0            999 V2000
   -0.7180   -0.0691    0.0000 C   0  0  0  0  0  0  0  0  0  0  0  0
    0.0034    0.3418    0.0000 C   0  0  0  0  0  0  0  0  0  0  0  0
   -0.7180   -0.8941    0.0000 C   0  0  0  0  0  0  0  0  0  0  0  0
   -1.4327    0.3418    0.0000 C   0  0  0  0  0  0  0  0  0  0  0  0
    0.7077   -0.0691    0.0000 C   0  0  0  0  0  0  0  0  0  0  0  0
    0.0034   -1.3049    0.0000 C   0  0  0  0  0  0  0  0  0  0  0  0
   -1.4327    1.1737    0.0000 O   0  0  0  0  0  0  0  0  0  0  0  0
   -2.1439   -0.0691    0.0000 O   0  0  0  0  0  0  0  0  0  0  0  0
    0.7077   -0.8941    0.0000 C   0  0  0  0  0  0  0  0  0  0  0  0
    1.4361    0.3418    0.0000 N   0  3  0  0  0  0  0  0  0  0  0  0
    2.1473   -0.0691    0.0000 O   0  0  0  0  0  0  0  0  0  0  0  0
    1.4361    1.1737    0.0000 O   0  5  0  0  0  0  0  0  0  0  0  0
  1  2  1  0  0  0  0
  1  3  2  0  0  0  0
  1  4  1  0  0  0  0
  2  5  2  0  0  0  0
  3  6  1  0  0  0  0
  4  7  1  0  0  0  0
  4  8  2  0  0  0  0
  5  9  1  0  0  0  0
  5 10  1  0  0  0  0
 10 11  2  0  0  0  0
 10 12  1  0  0  0  0
  6  9  2  0  0  0  0
M  CHG  2  10   1  12  -1
M  END