398
  Mrv0541 04071411322D          

  9  9  0  0  0  0            999 V2000
   -0.2275    0.3111    0.0000 C   0  0  0  0  0  0  0  0  0  0  0  0
    0.4741   -0.0851    0.0000 C   0  0  0  0  0  0  0  0  0  0  0  0
   -0.9511   -0.0851    0.0000 C   0  0  0  0  0  0  0  0  0  0  0  0
   -0.2275    1.1492    0.0000 C   0  0  0  0  0  0  0  0  0  0  0  0
    0.4741   -0.9188    0.0000 C   0  0  0  0  0  0  0  0  0  0  0  0
    1.1654    0.3405    0.0000 C   0  0  0  0  0  0  0  0  0  0  0  0
   -0.9511   -0.9188    0.0000 C   0  0  0  0  0  0  0  0  0  0  0  0
    0.4741    1.5382    0.0000 N   0  0  0  0  0  0  0  0  0  0  0  0
   -0.2275   -1.3342    0.0000 C   0  0  0  0  0  0  0  0  0  0  0  0
  1  2  1  0  0  0  0
  1  3  2  0  0  0  0
  1  4  1  0  0  0  0
  2  5  2  0  0  0  0
  2  6  1  0  0  0  0
  3  7  1  0  0  0  0
  4  8  1  0  0  0  0
  5  9  1  0  0  0  0
  7  9  2  0  0  0  0
M  END