4
  Mrv0541 04071411322D          

 10  9  0  0  0  0            999 V2000
    0.3606   -0.1989    0.0000 C   0  0  0  0  0  0  0  0  0  0  0  0
   -0.3606    0.1989    0.0000 C   0  0  0  0  0  0  0  0  0  0  0  0
    1.0725    0.2212    0.0000 C   0  0  0  0  0  0  0  0  0  0  0  0
   -1.0744   -0.2193    0.0000 C   0  0  0  0  0  0  0  0  0  0  0  0
    1.8011   -0.1728    0.0000 C   0  0  0  0  0  0  0  0  0  0  0  0
   -1.8011    0.1710    0.0000 C   0  0  0  0  0  0  0  0  0  0  0  0
    2.5112    0.2472    0.0000 C   0  0  0  0  0  0  0  0  0  0  0  0
   -2.5112   -0.2472    0.0000 C   0  0  0  0  0  0  0  0  0  0  0  0
    3.2379   -0.1450    0.0000 C   0  0  0  0  0  0  0  0  0  0  0  0
   -3.2342    0.1450    0.0000 C   0  0  0  0  0  0  0  0  0  0  0  0
  1  2  1  0  0  0  0
  1  3  1  0  0  0  0
  2  4  1  0  0  0  0
  3  5  1  0  0  0  0
  4  6  1  0  0  0  0
  5  7  1  0  0  0  0
  6  8  1  0  0  0  0
  7  9  1  0  0  0  0
  8 10  2  0  0  0  0
M  END