402
  Mrv0541 04071411322D          

 14 15  0  0  0  0            999 V2000
   -0.9894    0.2652    0.0000 C   0  0  0  0  0  0  0  0  0  0  0  0
   -0.9894   -0.5654    0.0000 C   0  0  0  0  0  0  0  0  0  0  0  0
   -0.2065    0.5177    0.0000 N   0  0  0  0  0  0  0  0  0  0  0  0
   -1.7009    0.6829    0.0000 C   0  0  0  0  0  0  0  0  0  0  0  0
   -0.2065   -0.8162    0.0000 N   0  0  0  0  0  0  0  0  0  0  0  0
   -1.7009   -0.9799    0.0000 C   0  0  0  0  0  0  0  0  0  0  0  0
    0.2779   -0.1318    0.0000 C   0  0  0  0  0  0  0  0  0  0  0  0
   -2.4218    0.2477    0.0000 C   0  0  0  0  0  0  0  0  0  0  0  0
   -2.4218   -0.5479    0.0000 C   0  0  0  0  0  0  0  0  0  0  0  0
    1.0624   -0.1318    0.0000 N   0  0  0  0  0  0  0  0  0  0  0  0
    1.7851    0.2477    0.0000 C   0  0  0  0  0  0  0  0  0  0  0  0
    2.4981   -0.1493    0.0000 O   0  0  0  0  0  0  0  0  0  0  0  0
    1.7851    1.0974    0.0000 O   0  0  0  0  0  0  0  0  0  0  0  0
    3.2318    0.2604    0.0000 C   0  0  0  0  0  0  0  0  0  0  0  0
  1  2  2  0  0  0  0
  1  3  1  0  0  0  0
  1  4  1  0  0  0  0
  2  5  1  0  0  0  0
  2  6  1  0  0  0  0
  3  7  1  0  0  0  0
  4  8  2  0  0  0  0
  6  9  2  0  0  0  0
  7 10  1  0  0  0  0
 10 11  1  0  0  0  0
 11 12  1  0  0  0  0
 11 13  2  0  0  0  0
 12 14  1  0  0  0  0
  5  7  2  0  0  0  0
  8  9  1  0  0  0  0
M  END