403
  Mrv0541 04071411322D          

 12 13  0  0  0  0            999 V2000
   -0.7159   -0.1627    0.0000 C   0  0  0  0  0  0  0  0  0  0  0  0
   -0.7159    0.6529    0.0000 C   0  0  0  0  0  0  0  0  0  0  0  0
   -0.0018   -0.5809    0.0000 C   0  0  0  0  0  0  0  0  0  0  0  0
   -1.5039   -0.4181    0.0000 N   0  0  0  0  0  0  0  0  0  0  0  0
    0.0111    1.0637    0.0000 C   0  0  0  0  0  0  0  0  0  0  0  0
   -1.5039    0.9137    0.0000 N   0  0  0  0  0  0  0  0  0  0  0  0
    0.7085   -0.1721    0.0000 C   0  0  0  0  0  0  0  0  0  0  0  0
   -1.9940    0.2497    0.0000 C   0  0  0  0  0  0  0  0  0  0  0  0
    0.7085    0.6529    0.0000 C   0  0  0  0  0  0  0  0  0  0  0  0
    1.4299   -0.5919    0.0000 N   0  3  0  0  0  0  0  0  0  0  0  0
    2.1495   -0.1849    0.0000 O   0  0  0  0  0  0  0  0  0  0  0  0
    1.4262   -1.4188    0.0000 O   0  5  0  0  0  0  0  0  0  0  0  0
  1  2  2  0  0  0  0
  1  3  1  0  0  0  0
  1  4  1  0  0  0  0
  2  5  1  0  0  0  0
  2  6  1  0  0  0  0
  3  7  2  0  0  0  0
  4  8  2  0  0  0  0
  5  9  2  0  0  0  0
  7 10  1  0  0  0  0
 10 11  2  0  0  0  0
 10 12  1  0  0  0  0
  6  8  1  0  0  0  0
  7  9  1  0  0  0  0
M  CHG  2  10   1  12  -1
M  END