404
  Mrv0541 04071411322D          

  6  6  0  0  0  0            999 V2000
    0.4451   -0.0018    0.0000 C   0  0  0  0  0  0  0  0  0  0  0  0
   -0.0334    0.6676    0.0000 N   0  0  0  0  0  0  0  0  0  0  0  0
   -0.0334   -0.6676    0.0000 N   0  0  0  0  0  0  0  0  0  0  0  0
    1.2722   -0.0018    0.0000 N   0  0  0  0  0  0  0  0  0  0  0  0
   -0.8253    0.4080    0.0000 C   0  0  0  0  0  0  0  0  0  0  0  0
   -0.8253   -0.4080    0.0000 N   0  0  0  0  0  0  0  0  0  0  0  0
  1  2  1  0  0  0  0
  1  3  2  0  0  0  0
  1  4  1  0  0  0  0
  2  5  2  0  0  0  0
  3  6  1  0  0  0  0
  5  6  1  0  0  0  0
M  END