406
  Mrv0541 04071411322D          

  7  7  0  0  0  0            999 V2000
    0.5163    0.2909    0.0000 C   0  0  0  0  0  0  0  0  0  0  0  0
    0.5163   -0.5341    0.0000 C   0  0  0  0  0  0  0  0  0  0  0  0
   -0.2135    0.7161    0.0000 N   0  0  0  0  0  0  0  0  0  0  0  0
    1.2341    0.7161    0.0000 Cl  0  0  0  0  0  0  0  0  0  0  0  0
   -0.2135   -0.9458    0.0000 C   0  0  0  0  0  0  0  0  0  0  0  0
   -0.9194    0.2909    0.0000 C   0  0  0  0  0  0  0  0  0  0  0  0
   -0.9194   -0.5341    0.0000 C   0  0  0  0  0  0  0  0  0  0  0  0
  1  2  2  0  0  0  0
  1  3  1  0  0  0  0
  1  4  1  0  0  0  0
  2  5  1  0  0  0  0
  3  6  2  0  0  0  0
  5  7  2  0  0  0  0
  6  7  1  0  0  0  0
M  END