407
  Mrv0541 04071411322D          

  7  7  0  0  0  0            999 V2000
   -0.0060    0.5829    0.0000 N   0  0  0  0  0  0  0  0  0  0  0  0
    0.7253    0.1864    0.0000 C   0  0  0  0  0  0  0  0  0  0  0  0
   -0.7158    0.1828    0.0000 C   0  0  0  0  0  0  0  0  0  0  0  0
   -0.0060    1.4008    0.0000 C   0  0  0  0  0  0  0  0  0  0  0  0
    0.7241   -0.6386    0.0000 C   0  0  0  0  0  0  0  0  0  0  0  0
   -0.7158   -0.6564    0.0000 C   0  0  0  0  0  0  0  0  0  0  0  0
   -0.0060   -1.0565    0.0000 C   0  0  0  0  0  0  0  0  0  0  0  0
  1  2  1  0  0  0  0
  1  3  1  0  0  0  0
  1  4  1  0  0  0  0
  2  5  1  0  0  0  0
  3  6  1  0  0  0  0
  5  7  1  0  0  0  0
  6  7  1  0  0  0  0
M  END