408
  Mrv0541 04071411322D          

 27 27  0  0  0  0            999 V2000
   -0.6565    0.4125    0.0000 C   0  0  0  0  0  0  0  0  0  0  0  0
   -1.3750    0.9143    0.0000 N   0  0  0  0  0  0  0  0  0  0  0  0
   -0.6565   -0.4125    0.0000 N   0  0  0  0  0  0  0  0  0  0  0  0
    0.0550    0.8215    0.0000 N   0  0  0  0  0  0  0  0  0  0  0  0
   -2.0659    0.5466    0.0000 C   0  0  0  0  0  0  0  0  0  0  0  0
   -1.3750    1.6500    0.0000 C   0  0  0  0  0  0  0  0  0  0  0  0
    0.0550   -0.8250    0.0000 C   0  0  0  0  0  0  0  0  0  0  0  0
    0.7666    0.4159    0.0000 C   0  0  0  0  0  0  0  0  0  0  0  0
   -2.0625   -0.2784    0.0000 O   0  0  0  0  0  0  0  0  0  0  0  0
   -2.0900    2.0590    0.0000 O   0  0  0  0  0  0  0  0  0  0  0  0
    0.0171   -1.5297    0.0000 N   0  0  0  0  0  0  0  0  0  0  0  0
    0.7700   -0.4125    0.0000 N   0  0  0  0  0  0  0  0  0  0  0  0
    1.5090    0.8146    0.0000 N   0  0  0  0  0  0  0  0  0  0  0  0
   -2.7706   -0.6944    0.0000 C   0  0  0  0  0  0  0  0  0  0  0  0
   -2.0934    2.8806    0.0000 C   0  0  0  0  0  0  0  0  0  0  0  0
   -0.7837   -1.9868    0.0000 C   0  0  0  0  0  0  0  0  0  0  0  0
    0.9143   -1.8803    0.0000 C   0  0  0  0  0  0  0  0  0  0  0  0
    1.5090    1.5847    0.0000 C   0  0  0  0  0  0  0  0  0  0  0  0
    2.3340    0.3885    0.0000 C   0  0  0  0  0  0  0  0  0  0  0  0
   -0.8044   -2.8118    0.0000 O   0  0  0  0  0  0  0  0  0  0  0  0
    0.9143   -2.7499    0.0000 O   0  0  0  0  0  0  0  0  0  0  0  0
    0.7528    1.8906    0.0000 O   0  0  0  0  0  0  0  0  0  0  0  0
    3.0834    1.0140    0.0000 O   0  0  0  0  0  0  0  0  0  0  0  0
   -1.5262   -3.2071    0.0000 C   0  0  0  0  0  0  0  0  0  0  0  0
    1.7084   -3.1728    0.0000 C   0  0  0  0  0  0  0  0  0  0  0  0
    0.7493    2.7122    0.0000 C   0  0  0  0  0  0  0  0  0  0  0  0
    3.1074    1.8596    0.0000 C   0  0  0  0  0  0  0  0  0  0  0  0
  1  2  1  0  0  0  0
  1  3  2  0  0  0  0
  1  4  1  0  0  0  0
  2  5  1  0  0  0  0
  2  6  1  0  0  0  0
  3  7  1  0  0  0  0
  4  8  2  0  0  0  0
  5  9  1  0  0  0  0
  6 10  1  0  0  0  0
  7 11  1  0  0  0  0
  7 12  2  0  0  0  0
  8 13  1  0  0  0  0
  9 14  1  0  0  0  0
 10 15  1  0  0  0  0
 11 16  1  0  0  0  0
 11 17  1  0  0  0  0
 13 18  1  0  0  0  0
 13 19  1  0  0  0  0
 16 20  1  0  0  0  0
 17 21  1  0  0  0  0
 18 22  1  0  0  0  0
 19 23  1  0  0  0  0
 20 24  1  0  0  0  0
 21 25  1  0  0  0  0
 22 26  1  0  0  0  0
 23 27  1  0  0  0  0
  8 12  1  0  0  0  0
M  END