41
  Mrv0541 04071411322D          

 18 21  0  0  0  0            999 V2000
   -0.2518   -0.3240    0.0000 C   0  0  0  0  0  0  0  0  0  0  0  0
    0.2518    0.3203    0.0000 C   0  0  0  0  0  0  0  0  0  0  0  0
   -1.0698   -0.2055    0.0000 C   0  0  0  0  0  0  0  0  0  0  0  0
    0.0481   -1.0902    0.0000 C   0  0  0  0  0  0  0  0  0  0  0  0
    1.0680    0.2036    0.0000 C   0  0  0  0  0  0  0  0  0  0  0  0
   -0.0500    1.0902    0.0000 C   0  0  0  0  0  0  0  0  0  0  0  0
   -1.3790    0.5535    0.0000 C   0  0  0  0  0  0  0  0  0  0  0  0
   -1.5864   -0.8532    0.0000 C   0  0  0  0  0  0  0  0  0  0  0  0
    0.8625   -1.2087    0.0000 C   0  0  0  0  0  0  0  0  0  0  0  0
    1.3790   -0.5535    0.0000 C   0  0  0  0  0  0  0  0  0  0  0  0
    1.5864    0.8551    0.0000 C   0  0  0  0  0  0  0  0  0  0  0  0
   -0.8643    1.2106    0.0000 C   0  0  0  0  0  0  0  0  0  0  0  0
   -2.1973    0.6739    0.0000 C   0  0  0  0  0  0  0  0  0  0  0  0
   -2.3989   -0.7424    0.0000 C   0  0  0  0  0  0  0  0  0  0  0  0
    2.1955   -0.6720    0.0000 C   0  0  0  0  0  0  0  0  0  0  0  0
    2.3989    0.7406    0.0000 C   0  0  0  0  0  0  0  0  0  0  0  0
   -2.7137    0.0222    0.0000 C   0  0  0  0  0  0  0  0  0  0  0  0
    2.7137   -0.0167    0.0000 C   0  0  0  0  0  0  0  0  0  0  0  0
  1  2  1  0  0  0  0
  1  3  2  0  0  0  0
  1  4  1  0  0  0  0
  2  5  1  0  0  0  0
  2  6  2  0  0  0  0
  3  7  1  0  0  0  0
  3  8  1  0  0  0  0
  4  9  2  0  0  0  0
  5 10  1  0  0  0  0
  5 11  2  0  0  0  0
  6 12  1  0  0  0  0
  7 13  1  0  0  0  0
  8 14  2  0  0  0  0
 10 15  2  0  0  0  0
 11 16  1  0  0  0  0
 13 17  2  0  0  0  0
 15 18  1  0  0  0  0
  7 12  2  0  0  0  0
  9 10  1  0  0  0  0
 14 17  1  0  0  0  0
 16 18  2  0  0  0  0
M  END