410
  Mrv0541 04071411322D          

 18 18  0  0  0  0            999 V2000
    0.0037   -0.8284    0.0000 N   0  0  0  0  0  0  0  0  0  0  0  0
    0.7082   -0.4180    0.0000 C   0  0  0  0  0  0  0  0  0  0  0  0
   -0.7193   -0.4180    0.0000 C   0  0  0  0  0  0  0  0  0  0  0  0
    0.0037   -1.6532    0.0000 C   0  0  0  0  0  0  0  0  0  0  0  0
    0.7137    0.4124    0.0000 N   0  0  0  0  0  0  0  0  0  0  0  0
    1.4424   -0.8210    0.0000 O   0  0  0  0  0  0  0  0  0  0  0  0
   -0.7137    0.4050    0.0000 N   0  0  0  0  0  0  0  0  0  0  0  0
   -1.4239   -0.8488    0.0000 O   0  0  0  0  0  0  0  0  0  0  0  0
   -0.7026   -2.0618    0.0000 C   0  0  0  0  0  0  0  0  0  0  0  0
   -0.0055    0.8136    0.0000 C   0  0  0  0  0  0  0  0  0  0  0  0
    1.4184    0.8414    0.0000 C   0  0  0  0  0  0  0  0  0  0  0  0
   -1.4313    0.8229    0.0000 C   0  0  0  0  0  0  0  0  0  0  0  0
   -0.7137   -2.8867    0.0000 O   0  0  0  0  0  0  0  0  0  0  0  0
   -0.0092    1.5977    0.0000 O   0  0  0  0  0  0  0  0  0  0  0  0
    2.1487    0.4475    0.0000 C   0  0  0  0  0  0  0  0  0  0  0  0
   -1.4313    1.6570    0.0000 C   0  0  0  0  0  0  0  0  0  0  0  0
    2.8460    0.8765    0.0000 O   0  0  0  0  0  0  0  0  0  0  0  0
   -2.1413    2.0674    0.0000 O   0  0  0  0  0  0  0  0  0  0  0  0
  1  2  1  0  0  0  0
  1  3  1  0  0  0  0
  1  4  1  0  0  0  0
  2  5  1  0  0  0  0
  2  6  2  0  0  0  0
  3  7  1  0  0  0  0
  3  8  2  0  0  0  0
  4  9  1  0  0  0  0
  5 10  1  0  0  0  0
  5 11  1  0  0  0  0
  7 12  1  0  0  0  0
  9 13  1  0  0  0  0
 10 14  2  0  0  0  0
 11 15  1  0  0  0  0
 12 16  1  0  0  0  0
 15 17  1  0  0  0  0
 16 18  1  0  0  0  0
  7 10  1  0  0  0  0
M  END