411
  Mrv0541 04071411322D          

 20 22  0  0  0  0            999 V2000
    1.4227    0.2043    0.0000 O   0  0  0  0  0  0  0  0  0  0  0  0
    2.1405   -0.2082    0.0000 C   0  0  0  0  0  0  0  0  0  0  0  0
    2.1413   -1.0289    0.0000 N   0  0  0  0  0  0  0  0  0  0  0  0
    1.4272   -1.4421    0.0000 C   0  0  0  0  0  0  0  0  0  0  0  0
    0.7095   -1.0296    0.0000 C   0  0  0  0  0  0  0  0  0  0  0  0
    0.0000   -1.4421    0.0000 C   0  0  0  0  0  0  0  0  0  0  0  0
    0.0000   -2.2671    0.0000 C   0  0  0  0  0  0  0  0  0  0  0  0
    0.7095   -2.6796    0.0000 C   0  0  0  0  0  0  0  0  0  0  0  0
    1.4272   -2.2671    0.0000 C   0  0  0  0  0  0  0  0  0  0  0  0
    2.8543    0.2053    0.0000 C   0  0  0  0  0  0  0  0  0  0  0  0
    3.5723   -0.2067    0.0000 C   0  0  0  0  0  0  0  0  0  0  0  0
    3.5748   -1.0317    0.0000 O   0  0  0  0  0  0  0  0  0  0  0  0
    4.2816    0.2061    0.0000 C   0  0  0  0  0  0  0  0  0  0  0  0
    4.2812    1.0311    0.0000 C   0  0  0  0  0  0  0  0  0  0  0  0
    3.5714    1.4433    0.0000 C   0  0  0  0  0  0  0  0  0  0  0  0
    3.5744    2.2711    0.0000 C   0  0  0  0  0  0  0  0  0  0  0  0
    4.2911    2.6796    0.0000 C   0  0  0  0  0  0  0  0  0  0  0  0
    5.0049    2.2603    0.0000 C   0  0  0  0  0  0  0  0  0  0  0  0
    4.9979    1.4396    0.0000 C   0  0  0  0  0  0  0  0  0  0  0  0
    2.8539    1.0303    0.0000 C   0  0  0  0  0  0  0  0  0  0  0  0
  1  2  2  0  0  0  0
  2  3  1  0  0  0  0
  3  4  1  0  0  0  0
  4  5  1  0  0  0  0
  5  6  2  0  0  0  0
  6  7  1  0  0  0  0
  7  8  2  0  0  0  0
  8  9  1  0  0  0  0
  9  4  2  0  0  0  0
  2 10  1  0  0  0  0
 10 11  1  0  0  0  0
 11 12  1  0  0  0  0
 11 13  2  0  0  0  0
 13 14  1  0  0  0  0
 14 15  1  0  0  0  0
 15 16  2  0  0  0  0
 16 17  1  0  0  0  0
 17 18  2  0  0  0  0
 18 19  1  0  0  0  0
 19 14  2  0  0  0  0
 15 20  1  0  0  0  0
 20 10  2  0  0  0  0
M  END