412
  Mrv0541 04071411322D          

 28 29  0  0  0  0            999 V2000
    8.5724   -0.0037    0.0000 O   0  0  0  0  0  0  0  0  0  0  0  0
    8.5711    0.8241    0.0000 C   0  0  0  0  0  0  0  0  0  0  0  0
    7.8563    1.2359    0.0000 N   0  0  0  0  0  0  0  0  0  0  0  0
    7.1422    0.8227    0.0000 C   0  0  0  0  0  0  0  0  0  0  0  0
    6.4244    1.2352    0.0000 C   0  0  0  0  0  0  0  0  0  0  0  0
    5.7149    0.8227    0.0000 C   0  0  0  0  0  0  0  0  0  0  0  0
    5.7149   -0.0023    0.0000 C   0  0  0  0  0  0  0  0  0  0  0  0
    4.9999   -0.4137    0.0000 C   0  0  0  0  0  0  0  0  0  0  0  0
    4.2831    0.0006    0.0000 C   0  0  0  0  0  0  0  0  0  0  0  0
    3.5727   -0.4102    0.0000 C   0  0  0  0  0  0  0  0  0  0  0  0
    3.5706   -1.2352    0.0000 C   0  0  0  0  0  0  0  0  0  0  0  0
    2.8544   -1.6448    0.0000 N   0  0  0  0  0  0  0  0  0  0  0  0
    2.1392   -1.2280    0.0000 C   0  0  0  0  0  0  0  0  0  0  0  0
    2.1420   -0.4030    0.0000 O   0  0  0  0  0  0  0  0  0  0  0  0
    1.4272   -1.6362    0.0000 C   0  0  0  0  0  0  0  0  0  0  0  0
    0.7120   -1.2194    0.0000 C   0  0  0  0  0  0  0  0  0  0  0  0
    0.0000   -1.6276    0.0000 O   0  0  0  0  0  0  0  0  0  0  0  0
    0.7149   -0.3944    0.0000 C   0  0  0  0  0  0  0  0  0  0  0  0
    4.2790   -1.6494    0.0000 C   0  0  0  0  0  0  0  0  0  0  0  0
    4.2749   -2.4744    0.0000 C   0  0  0  0  0  0  0  0  0  0  0  0
    4.9978   -1.2387    0.0000 C   0  0  0  0  0  0  0  0  0  0  0  0
    6.4244   -0.4148    0.0000 C   0  0  0  0  0  0  0  0  0  0  0  0
    7.1422   -0.0023    0.0000 C   0  0  0  0  0  0  0  0  0  0  0  0
    6.4224    2.0602    0.0000 C   0  0  0  0  0  0  0  0  0  0  0  0
    9.2817    1.2348    0.0000 C   0  0  0  0  0  0  0  0  0  0  0  0
    9.2805    2.0627    0.0000 C   0  0  0  0  0  0  0  0  0  0  0  0
    9.9910    2.4733    0.0000 O   0  0  0  0  0  0  0  0  0  0  0  0
    8.5655    2.4744    0.0000 C   0  0  0  0  0  0  0  0  0  0  0  0
  1  2  2  0  0  0  0
  2  3  1  0  0  0  0
  3  4  1  0  0  0  0
  4  5  1  0  0  0  0
  5  6  2  0  0  0  0
  6  7  1  0  0  0  0
  7  8  1  0  0  0  0
  8  9  1  0  0  0  0
  9 10  2  0  0  0  0
 10 11  1  0  0  0  0
 11 12  1  0  0  0  0
 12 13  1  0  0  0  0
 13 14  2  0  0  0  0
 13 15  1  0  0  0  0
 15 16  1  0  0  0  0
 16 17  2  0  0  0  0
 16 18  1  0  0  0  0
 11 19  2  0  0  0  0
 19 20  1  0  0  0  0
 19 21  1  0  0  0  0
 21  8  2  0  0  0  0
  7 22  2  0  0  0  0
 22 23  1  0  0  0  0
 23  4  2  0  0  0  0
  5 24  1  0  0  0  0
  2 25  1  0  0  0  0
 25 26  1  0  0  0  0
 26 27  2  0  0  0  0
 26 28  1  0  0  0  0
M  END