413
  Mrv0541 04071411322D          

 28 29  0  0  0  0            999 V2000
    1.1561   -4.3439    0.0000 O   0  5  0  0  0  0  0  0  0  0  0  0
    1.5887   -5.0562    0.0000 N   0  3  0  0  0  0  0  0  0  0  0  0
    1.1853   -5.7685    0.0000 O   0  0  0  0  0  0  0  0  0  0  0  0
    2.4123   -5.0513    0.0000 C   0  0  0  0  0  0  0  0  0  0  0  0
    2.8457   -5.7637    0.0000 C   0  0  0  0  0  0  0  0  0  0  0  0
    3.6673   -5.7586    0.0000 C   0  0  0  0  0  0  0  0  0  0  0  0
    4.0717   -5.0408    0.0000 C   0  0  0  0  0  0  0  0  0  0  0  0
    4.9022   -5.0423    0.0000 N   0  0  0  0  0  0  0  0  0  0  0  0
    5.3236   -5.7494    0.0000 N   0  0  0  0  0  0  0  0  0  0  0  0
    6.1540   -5.7509    0.0000 C   0  0  0  0  0  0  0  0  0  0  0  0
    6.5588   -5.0293    0.0000 C   0  0  0  0  0  0  0  0  0  0  0  0
    7.3840   -5.0328    0.0000 C   0  0  0  0  0  0  0  0  0  0  0  0
    7.8135   -5.7436    0.0000 C   0  0  0  0  0  0  0  0  0  0  0  0
    8.6403   -5.7404    0.0000 N   0  0  0  0  0  0  0  0  0  0  0  0
    9.0419   -5.0269    0.0000 C   0  0  0  0  0  0  0  0  0  0  0  0
    8.6124   -4.3164    0.0000 C   0  0  0  0  0  0  0  0  0  0  0  0
    9.0137   -3.6016    0.0000 C   0  0  0  0  0  0  0  0  0  0  0  0
    9.4149   -2.8868    0.0000 N   0  0  0  0  0  0  0  0  0  0  0  0
    9.0697   -6.4509    0.0000 C   0  0  0  0  0  0  0  0  0  0  0  0
    9.8970   -6.4447    0.0000 C   0  0  0  0  0  0  0  0  0  0  0  0
   10.2971   -5.7293    0.0000 C   0  0  0  0  0  0  0  0  0  0  0  0
   10.6938   -5.0120    0.0000 N   0  0  0  0  0  0  0  0  0  0  0  0
    7.4138   -6.4580    0.0000 C   0  0  0  0  0  0  0  0  0  0  0  0
    6.5819   -6.4558    0.0000 C   0  0  0  0  0  0  0  0  0  0  0  0
    3.6471   -4.3335    0.0000 C   0  0  0  0  0  0  0  0  0  0  0  0
    4.0518   -3.6206    0.0000 Cl  0  0  0  0  0  0  0  0  0  0  0  0
    2.8168   -4.3336    0.0000 C   0  0  0  0  0  0  0  0  0  0  0  0
    4.0986   -6.4683    0.0000 Cl  0  0  0  0  0  0  0  0  0  0  0  0
  1  2  1  0  0  0  0
  2  3  2  0  0  0  0
  2  4  1  0  0  0  0
  4  5  1  0  0  0  0
  5  6  2  0  0  0  0
  6  7  1  0  0  0  0
  7  8  1  0  0  0  0
  8  9  2  0  0  0  0
  9 10  1  0  0  0  0
 10 11  1  0  0  0  0
 11 12  2  0  0  0  0
 12 13  1  0  0  0  0
 13 14  1  0  0  0  0
 14 15  1  0  0  0  0
 15 16  1  0  0  0  0
 16 17  1  0  0  0  0
 17 18  3  0  0  0  0
 14 19  1  0  0  0  0
 19 20  1  0  0  0  0
 20 21  1  0  0  0  0
 21 22  3  0  0  0  0
 13 23  2  0  0  0  0
 23 24  1  0  0  0  0
 24 10  2  0  0  0  0
  7 25  2  0  0  0  0
 25 26  1  0  0  0  0
 25 27  1  0  0  0  0
 27  4  2  0  0  0  0
  6 28  1  0  0  0  0
M  CHG  2   1  -1   2   1
M  END