416
  Mrv0541 04071411322D          

 16 16  0  0  0  0            999 V2000
   -1.8975   -1.1522    0.0000 C   0  0  0  0  0  0  0  0  0  0  0  0
   -1.0725   -1.1522    0.0000 C   0  0  0  0  0  0  0  0  0  0  0  0
   -0.6600   -0.4400    0.0000 C   0  0  0  0  0  0  0  0  0  0  0  0
   -1.0725    0.2750    0.0000 C   0  0  0  0  0  0  0  0  0  0  0  0
    0.1650   -0.4400    0.0000 C   0  0  0  0  0  0  0  0  0  0  0  0
    0.5775   -1.1522    0.0000 C   0  0  0  0  0  0  0  0  0  0  0  0
    0.1650   -1.8673    0.0000 C   0  0  0  0  0  0  0  0  0  0  0  0
   -0.6600   -1.8673    0.0000 C   0  0  0  0  0  0  0  0  0  0  0  0
   -2.3100   -1.8673    0.0000 O   0  0  0  0  0  0  0  0  0  0  0  0
   -1.8975    0.2750    0.0000 O   0  0  0  0  0  0  0  0  0  0  0  0
   -0.6600    0.9900    0.0000 O   0  0  0  0  0  0  0  0  0  0  0  0
   -2.3100   -0.4400    0.0000 N   0  0  0  0  0  0  0  0  0  0  0  0
    0.5775    0.2750    0.0000 Cl  0  0  0  0  0  0  0  0  0  0  0  0
    1.4025   -1.1522    0.0000 Cl  0  0  0  0  0  0  0  0  0  0  0  0
    0.5775   -2.5822    0.0000 Cl  0  0  0  0  0  0  0  0  0  0  0  0
   -1.0725   -2.5822    0.0000 Cl  0  0  0  0  0  0  0  0  0  0  0  0
  8  2  1  0  0  0  0
  2  1  1  0  0  0  0
  3  2  2  0  0  0  0
  4  3  1  0  0  0  0
  4 11  1  0  0  0  0
  5  3  1  0  0  0  0
  6  5  2  0  0  0  0
  7  6  1  0  0  0  0
  8  7  2  0  0  0  0
  1  9  2  0  0  0  0
  4 10  2  0  0  0  0
  1 12  1  0  0  0  0
  5 13  1  0  0  0  0
  6 14  1  0  0  0  0
  7 15  1  0  0  0  0
  8 16  1  0  0  0  0
M  END