42
  Mrv0541 04071411322D          

 20 24  0  0  0  0            999 V2000
    3.1992   -1.4726    0.0000 C   0  0  0  0  0  0  0  0  0  0  0  0
    3.9201   -1.0711    0.0000 C   0  0  0  0  0  0  0  0  0  0  0  0
    2.4879   -1.0711    0.0000 C   0  0  0  0  0  0  0  0  0  0  0  0
    3.1992   -2.2976    0.0000 C   0  0  0  0  0  0  0  0  0  0  0  0
    3.9201   -0.2399    0.0000 C   0  0  0  0  0  0  0  0  0  0  0  0
    4.6314   -1.4726    0.0000 C   0  0  0  0  0  0  0  0  0  0  0  0
    1.7765   -1.4726    0.0000 C   0  0  0  0  0  0  0  0  0  0  0  0
    2.4879   -0.2399    0.0000 C   0  0  0  0  0  0  0  0  0  0  0  0
    2.4879   -2.7115    0.0000 C   0  0  0  0  0  0  0  0  0  0  0  0
    3.9201   -2.7115    0.0000 C   0  0  0  0  0  0  0  0  0  0  0  0
    3.1992    0.1747    0.0000 C   0  0  0  0  0  0  0  0  0  0  0  0
    4.6314    0.1747    0.0000 C   0  0  0  0  0  0  0  0  0  0  0  0
    4.6314   -2.2976    0.0000 C   0  0  0  0  0  0  0  0  0  0  0  0
    5.3440   -1.0711    0.0000 C   0  0  0  0  0  0  0  0  0  0  0  0
    1.7765   -2.2976    0.0000 C   0  0  0  0  0  0  0  0  0  0  0  0
    1.0529   -1.0711    0.0000 C   0  0  0  0  0  0  0  0  0  0  0  0
    5.3440   -0.2399    0.0000 C   0  0  0  0  0  0  0  0  0  0  0  0
    1.0529   -2.7115    0.0000 C   0  0  0  0  0  0  0  0  0  0  0  0
    0.3334   -1.4726    0.0000 C   0  0  0  0  0  0  0  0  0  0  0  0
    0.3334   -2.2976    0.0000 C   0  0  0  0  0  0  0  0  0  0  0  0
  1  2  1  0  0  0  0
  1  3  1  0  0  0  0
  1  4  2  0  0  0  0
  2  5  2  0  0  0  0
  2  6  1  0  0  0  0
  3  7  2  0  0  0  0
  3  8  1  0  0  0  0
  4  9  1  0  0  0  0
  4 10  1  0  0  0  0
  5 11  1  0  0  0  0
  5 12  1  0  0  0  0
  6 13  1  0  0  0  0
  6 14  2  0  0  0  0
  7 15  1  0  0  0  0
  7 16  1  0  0  0  0
 12 17  2  0  0  0  0
 15 18  1  0  0  0  0
 16 19  2  0  0  0  0
 18 20  2  0  0  0  0
  8 11  2  0  0  0  0
  9 15  2  0  0  0  0
 10 13  2  0  0  0  0
 14 17  1  0  0  0  0
 19 20  1  0  0  0  0
M  END