422
  Mrv0541 04071411322D          

 11 11  0  0  0  0            999 V2000
    1.2467    2.6215    0.0000 C   0  0  0  0  0  0  0  0  0  0  0  0
    1.2476    1.7965    0.0000 C   0  0  0  0  0  0  0  0  0  0  0  0
    0.5335    1.3833    0.0000 C   0  0  0  0  0  0  0  0  0  0  0  0
   -0.1842    1.7958    0.0000 C   0  0  0  0  0  0  0  0  0  0  0  0
   -0.8937    1.3833    0.0000 C   0  0  0  0  0  0  0  0  0  0  0  0
   -0.8937    0.5583    0.0000 C   0  0  0  0  0  0  0  0  0  0  0  0
   -0.1842    0.1458    0.0000 C   0  0  0  0  0  0  0  0  0  0  0  0
    0.5335    0.5583    0.0000 C   0  0  0  0  0  0  0  0  0  0  0  0
    1.2476    0.1451    0.0000 N   0  3  0  0  0  0  0  0  0  0  0  0
    1.2472   -0.6828    0.0000 O   0  5  0  0  0  0  0  0  0  0  0  0
    1.9590    0.5544    0.0000 O   0  0  0  0  0  0  0  0  0  0  0  0
  1  2  1  0  0  0  0
  2  3  1  0  0  0  0
  3  4  1  0  0  0  0
  4  5  2  0  0  0  0
  5  6  1  0  0  0  0
  6  7  2  0  0  0  0
  7  8  1  0  0  0  0
  8  3  2  0  0  0  0
  8  9  1  0  0  0  0
  9 10  1  0  0  0  0
  9 11  2  0  0  0  0
M  CHG  2   9   1  10  -1
M  END