423
  Mrv0541 04071411322D          

 15 14  0  0  0  0            999 V2000
    7.6548   -5.4548    0.0000 O   0  0  0  0  0  0  0  0  0  0  0  0
    8.3665   -5.0375    0.0000 C   0  0  0  0  0  0  0  0  0  0  0  0
    6.9376   -5.0470    0.0000 C   0  0  0  0  0  0  0  0  0  0  0  0
    9.7954   -5.0281    0.0000 C   0  0  0  0  0  0  0  0  0  0  0  0
    5.5087   -5.0565    0.0000 C   0  0  0  0  0  0  0  0  0  0  0  0
    9.3782   -4.3164    0.0000 Cl  0  0  0  0  0  0  0  0  0  0  0  0
   10.2127   -5.7398    0.0000 Cl  0  0  0  0  0  0  0  0  0  0  0  0
   10.5072   -4.6109    0.0000 Cl  0  0  0  0  0  0  0  0  0  0  0  0
    5.1010   -5.7737    0.0000 Cl  0  0  0  0  0  0  0  0  0  0  0  0
    5.9165   -4.3393    0.0000 Cl  0  0  0  0  0  0  0  0  0  0  0  0
    4.7915   -4.6487    0.0000 Cl  0  0  0  0  0  0  0  0  0  0  0  0
    6.2259   -5.4642    0.0000 C   0  0  0  0  0  0  0  0  0  0  0  0
    6.2314   -6.2892    0.0000 Cl  0  0  0  0  0  0  0  0  0  0  0  0
    9.0837   -5.4453    0.0000 C   0  0  0  0  0  0  0  0  0  0  0  0
    9.0892   -6.2703    0.0000 Cl  0  0  0  0  0  0  0  0  0  0  0  0
  1  2  1  0  0  0  0
  1  3  1  0  0  0  0
  2 14  1  0  0  0  0
  3 12  1  0  0  0  0
 14  4  1  0  0  0  0
 12  5  1  0  0  0  0
  4  6  1  0  0  0  0
  4  7  1  0  0  0  0
  4  8  1  0  0  0  0
  5  9  1  0  0  0  0
  5 10  1  0  0  0  0
  5 11  1  0  0  0  0
 12 13  1  0  0  0  0
 14 15  1  0  0  0  0
M  END