427
  Mrv0541 04071411322D          

 12 11  0  0  0  0            999 V2000
    0.8927    0.0553    0.0000 P   0  0  0  0  0  0  0  0  0  0  0  0
    0.1789   -0.3578    0.0000 S   0  0  0  0  0  0  0  0  0  0  0  0
    1.6083    0.4648    0.0000 O   0  0  0  0  0  0  0  0  0  0  0  0
    0.4851    0.7654    0.0000 O   0  0  0  0  0  0  0  0  0  0  0  0
    1.3021   -0.6713    0.0000 S   0  0  0  0  0  0  0  0  0  0  0  0
   -0.5403    0.0553    0.0000 C   0  0  0  0  0  0  0  0  0  0  0  0
    2.3184    0.0443    0.0000 C   0  0  0  0  0  0  0  0  0  0  0  0
    0.9037    1.4680    0.0000 C   0  0  0  0  0  0  0  0  0  0  0  0
   -1.2597   -0.3504    0.0000 C   0  0  0  0  0  0  0  0  0  0  0  0
   -1.9606    0.0553    0.0000 N   0  0  0  0  0  0  0  0  0  0  0  0
   -1.2597   -1.1749    0.0000 O   0  0  0  0  0  0  0  0  0  0  0  0
   -2.6706   -0.3578    0.0000 C   0  0  0  0  0  0  0  0  0  0  0  0
  1  2  1  0  0  0  0
  1  3  1  0  0  0  0
  1  4  1  0  0  0  0
  1  5  2  0  0  0  0
  2  6  1  0  0  0  0
  3  7  1  0  0  0  0
  4  8  1  0  0  0  0
  6  9  1  0  0  0  0
  9 10  1  0  0  0  0
  9 11  2  0  0  0  0
 10 12  1  0  0  0  0
M  END