431
  Mrv0541 04071411322D          

  7  6  0  0  0  0            999 V2000
    5.4957   -2.3102    0.0000 C   0  0  0  0  0  0  0  0  0  0  0  0
    6.3325   -2.2838    0.0000 C   0  0  0  0  0  0  0  0  0  0  0  0
    5.6142   -3.1266    0.0000 C   0  0  0  0  0  0  0  0  0  0  0  0
    5.2589   -1.5326    0.0000 Cl  0  0  0  0  0  0  0  0  0  0  0  0
    4.7038   -2.4878    0.0000 Cl  0  0  0  0  0  0  0  0  0  0  0  0
    6.7795   -2.9613    0.0000 O   0  0  0  0  0  0  0  0  0  0  0  0
    6.7040   -1.5326    0.0000 O   0  0  0  0  0  0  0  0  0  0  0  0
  1  2  1  0  0  0  0
  1  3  1  0  0  0  0
  1  4  1  0  0  0  0
  1  5  1  0  0  0  0
  2  6  2  0  0  0  0
  2  7  1  0  0  0  0
M  END