432
  Mrv0541 04071411322D          

 13 13  0  0  0  0            999 V2000
   -0.1677   -0.6596    0.0000 O   0  0  0  0  0  0  0  0  0  0  0  0
    1.2616   -0.6596    0.0000 O   0  0  0  0  0  0  0  0  0  0  0  0
    0.5470   -0.2474    0.0000 C   0  0  0  0  0  0  0  0  0  0  0  0
   -0.8795   -0.2474    0.0000 C   0  0  0  0  0  0  0  0  0  0  0  0
   -1.5942   -0.6596    0.0000 C   0  0  0  0  0  0  0  0  0  0  0  0
   -2.3088   -1.0719    0.0000 C   0  0  0  0  0  0  0  0  0  0  0  0
    1.9762   -0.2474    0.0000 C   0  0  0  0  0  0  0  0  0  0  0  0
    1.9762    0.5772    0.0000 C   0  0  0  0  0  0  0  0  0  0  0  0
    2.6908    0.9895    0.0000 C   0  0  0  0  0  0  0  0  0  0  0  0
    3.4027    0.5772    0.0000 C   0  0  0  0  0  0  0  0  0  0  0  0
    3.4027   -0.2474    0.0000 C   0  0  0  0  0  0  0  0  0  0  0  0
    2.6908   -0.6596    0.0000 C   0  0  0  0  0  0  0  0  0  0  0  0
    4.1173    0.9895    0.0000 Cl  0  0  0  0  0  0  0  0  0  0  0  0
  3  2  1  0  0  0  0
  3  1  1  0  0  0  0
  5  4  1  0  0  0  0
  6  5  3  0  0  0  0
  1  4  1  0  0  0  0
  8  7  1  0  0  0  0
  9  8  2  0  0  0  0
 10  9  1  0  0  0  0
 11 10  2  0  0  0  0
 12 11  1  0  0  0  0
 12  7  2  0  0  0  0
 10 13  1  0  0  0  0
  2  7  1  0  0  0  0
M  END