434
  Mrv0541 04071411322D          

 25 26  0  0  0  0            999 V2000
   -2.6617   -0.9390    0.0000 C   0  0  0  0  0  0  0  0  0  0  0  0
   -1.9436   -0.5385    0.0000 C   0  0  0  0  0  0  0  0  0  0  0  0
   -3.3832   -1.3395    0.0000 C   0  0  0  0  0  0  0  0  0  0  0  0
   -3.0829   -0.2174    0.0000 C   0  0  0  0  0  0  0  0  0  0  0  0
   -2.2578   -1.6467    0.0000 C   0  0  0  0  0  0  0  0  0  0  0  0
   -1.9194    0.2934    0.0000 C   0  0  0  0  0  0  0  0  0  0  0  0
   -1.2186   -0.9666    0.0000 C   0  0  0  0  0  0  0  0  0  0  0  0
   -1.2048    0.6939    0.0000 C   0  0  0  0  0  0  0  0  0  0  0  0
   -2.6306    0.7180    0.0000 O   0  0  0  0  0  0  0  0  0  0  0  0
   -0.5040   -0.5697    0.0000 C   0  0  0  0  0  0  0  0  0  0  0  0
   -0.4971    0.2624    0.0000 C   0  0  0  0  0  0  0  0  0  0  0  0
    0.2037   -0.9909    0.0000 S   0  0  0  0  0  0  0  0  0  0  0  0
    0.0794    0.6179    0.0000 C   0  0  0  0  0  0  0  0  0  0  0  0
    0.9218   -0.5765    0.0000 C   0  0  0  0  0  0  0  0  0  0  0  0
    1.6329   -0.9909    0.0000 C   0  0  0  0  0  0  0  0  0  0  0  0
    0.9218    0.2451    0.0000 C   0  0  0  0  0  0  0  0  0  0  0  0
    2.3475   -0.5765    0.0000 C   0  0  0  0  0  0  0  0  0  0  0  0
    1.6329   -1.8159    0.0000 C   0  0  0  0  0  0  0  0  0  0  0  0
    1.6329    0.6628    0.0000 C   0  0  0  0  0  0  0  0  0  0  0  0
    2.3475    0.2451    0.0000 C   0  0  0  0  0  0  0  0  0  0  0  0
    1.6329    1.4845    0.0000 C   0  0  0  0  0  0  0  0  0  0  0  0
    3.0621    0.6628    0.0000 O   0  0  0  0  0  0  0  0  0  0  0  0
    0.8043    1.4879    0.0000 C   0  0  0  0  0  0  0  0  0  0  0  0
    2.4476    1.4879    0.0000 C   0  0  0  0  0  0  0  0  0  0  0  0
    1.6226    2.3199    0.0000 C   0  0  0  0  0  0  0  0  0  0  0  0
  1  2  1  0  0  0  0
  1  3  1  0  0  0  0
  1  4  1  0  0  0  0
  1  5  1  0  0  0  0
  2  6  2  0  0  0  0
  2  7  1  0  0  0  0
  6  8  1  0  0  0  0
  6  9  1  0  0  0  0
  7 10  2  0  0  0  0
  8 11  2  0  0  0  0
 10 12  1  0  0  0  0
 11 13  1  0  0  0  0
 12 14  1  0  0  0  0
 14 15  2  0  0  0  0
 14 16  1  0  0  0  0
 15 17  1  0  0  0  0
 15 18  1  0  0  0  0
 16 19  2  0  0  0  0
 17 20  2  0  0  0  0
 19 21  1  0  0  0  0
 20 22  1  0  0  0  0
 21 23  1  0  0  0  0
 21 24  1  0  0  0  0
 21 25  1  0  0  0  0
 10 11  1  0  0  0  0
 19 20  1  0  0  0  0
M  END