436
  Mrv0541 04071411322D          

 13 13  0  0  0  0            999 V2000
    2.0343    0.3846    0.0000 C   0  0  0  0  0  0  0  0  0  0  0  0
    2.0343   -0.4291    0.0000 C   0  0  0  0  0  0  0  0  0  0  0  0
    1.3167    0.8035    0.0000 C   0  0  0  0  0  0  0  0  0  0  0  0
    2.7347    0.8035    0.0000 S   0  0  0  0  0  0  0  0  0  0  0  0
    1.3167   -0.8411    0.0000 C   0  0  0  0  0  0  0  0  0  0  0  0
    0.6060    0.3846    0.0000 C   0  0  0  0  0  0  0  0  0  0  0  0
    3.1811    0.0688    0.0000 O   0  0  0  0  0  0  0  0  0  0  0  0
    2.3502    1.4867    0.0000 O   0  0  0  0  0  0  0  0  0  0  0  0
    3.4593    1.2052    0.0000 O   0  0  0  0  0  0  0  0  0  0  0  0
    0.6060   -0.4291    0.0000 C   0  0  0  0  0  0  0  0  0  0  0  0
    1.3167   -1.6618    0.0000 N   0  3  0  0  0  0  0  0  0  0  0  0
    0.6025   -2.0841    0.0000 O   0  0  0  0  0  0  0  0  0  0  0  0
    2.0343   -2.0841    0.0000 O   0  5  0  0  0  0  0  0  0  0  0  0
  1  2  2  0  0  0  0
  1  3  1  0  0  0  0
  1  4  1  0  0  0  0
  2  5  1  0  0  0  0
  3  6  2  0  0  0  0
  4  7  2  0  0  0  0
  4  8  2  0  0  0  0
  4  9  1  0  0  0  0
  5 10  2  0  0  0  0
  5 11  1  0  0  0  0
 11 12  2  0  0  0  0
 11 13  1  0  0  0  0
  6 10  1  0  0  0  0
M  CHG  2  11   1  13  -1
M  END