437
  Mrv0541 04071411322D          

 14 14  0  0  0  0            999 V2000
    2.0351    0.6674    0.0000 S   0  0  0  0  0  0  0  0  0  0  0  0
    2.4505   -0.0445    0.0000 O   0  0  0  0  0  0  0  0  0  0  0  0
    1.6239    1.3835    0.0000 O   0  0  0  0  0  0  0  0  0  0  0  0
    2.7512    1.0829    0.0000 O   0  0  0  0  0  0  0  0  0  0  0  0
    1.3233    0.2561    0.0000 C   0  0  0  0  0  0  0  0  0  0  0  0
    0.6069    0.6665    0.0000 C   0  0  0  0  0  0  0  0  0  0  0  0
    0.6044    1.4915    0.0000 Cl  0  0  0  0  0  0  0  0  0  0  0  0
   -0.1037    0.2561    0.0000 C   0  0  0  0  0  0  0  0  0  0  0  0
   -0.1037   -0.5689    0.0000 C   0  0  0  0  0  0  0  0  0  0  0  0
    0.6069   -0.9793    0.0000 C   0  0  0  0  0  0  0  0  0  0  0  0
    0.6044   -1.8042    0.0000 N   0  3  0  0  0  0  0  0  0  0  0  0
   -0.1119   -2.2146    0.0000 O   0  5  0  0  0  0  0  0  0  0  0  0
    1.3108   -2.2146    0.0000 O   0  0  0  0  0  0  0  0  0  0  0  0
    1.3233   -0.5689    0.0000 C   0  0  0  0  0  0  0  0  0  0  0  0
  1  2  2  0  0  0  0
  1  3  2  0  0  0  0
  1  4  1  0  0  0  0
  1  5  1  0  0  0  0
  5  6  2  0  0  0  0
  6  7  1  0  0  0  0
  6  8  1  0  0  0  0
  8  9  2  0  0  0  0
  9 10  1  0  0  0  0
 10 11  1  0  0  0  0
 11 12  1  0  0  0  0
 11 13  2  0  0  0  0
 10 14  2  0  0  0  0
 14  5  1  0  0  0  0
M  CHG  2  11   1  12  -1
M  END