44
  Mrv0541 04071411322D          

 22 26  0  0  0  0            999 V2000
    0.8218   -0.0018    0.0000 C   0  0  0  0  0  0  0  0  0  0  0  0
    1.6529   -0.0018    0.0000 C   0  0  0  0  0  0  0  0  0  0  0  0
    0.4099   -0.7118    0.0000 C   0  0  0  0  0  0  0  0  0  0  0  0
    0.4099    0.7081    0.0000 C   0  0  0  0  0  0  0  0  0  0  0  0
    2.0702   -0.7118    0.0000 C   0  0  0  0  0  0  0  0  0  0  0  0
    2.0702    0.7081    0.0000 C   0  0  0  0  0  0  0  0  0  0  0  0
   -0.4081   -0.7062    0.0000 C   0  0  0  0  0  0  0  0  0  0  0  0
    0.8273   -1.4330    0.0000 C   0  0  0  0  0  0  0  0  0  0  0  0
   -0.4081    0.7118    0.0000 C   0  0  0  0  0  0  0  0  0  0  0  0
    1.6585   -1.4330    0.0000 C   0  0  0  0  0  0  0  0  0  0  0  0
    2.9013   -0.7118    0.0000 C   0  0  0  0  0  0  0  0  0  0  0  0
    2.8957    0.7118    0.0000 C   0  0  0  0  0  0  0  0  0  0  0  0
   -0.8199   -0.0018    0.0000 C   0  0  0  0  0  0  0  0  0  0  0  0
   -0.8273    1.4348    0.0000 C   0  0  0  0  0  0  0  0  0  0  0  0
    3.3187   -0.0018    0.0000 C   0  0  0  0  0  0  0  0  0  0  0  0
   -1.6529   -0.0018    0.0000 C   0  0  0  0  0  0  0  0  0  0  0  0
   -1.6585    1.4348    0.0000 C   0  0  0  0  0  0  0  0  0  0  0  0
   -2.0721    0.7118    0.0000 C   0  0  0  0  0  0  0  0  0  0  0  0
   -2.0721   -0.7062    0.0000 C   0  0  0  0  0  0  0  0  0  0  0  0
   -2.9031    0.7118    0.0000 C   0  0  0  0  0  0  0  0  0  0  0  0
   -2.8957   -0.7118    0.0000 C   0  0  0  0  0  0  0  0  0  0  0  0
   -3.3150   -0.0018    0.0000 C   0  0  0  0  0  0  0  0  0  0  0  0
  1  2  2  0  0  0  0
  1  3  1  0  0  0  0
  1  4  1  0  0  0  0
  2  5  1  0  0  0  0
  2  6  1  0  0  0  0
  3  7  1  0  0  0  0
  3  8  2  0  0  0  0
  4  9  2  0  0  0  0
  5 10  2  0  0  0  0
  5 11  1  0  0  0  0
  6 12  2  0  0  0  0
  7 13  2  0  0  0  0
  9 14  1  0  0  0  0
 11 15  2  0  0  0  0
 13 16  1  0  0  0  0
 14 17  2  0  0  0  0
 16 18  1  0  0  0  0
 16 19  2  0  0  0  0
 18 20  2  0  0  0  0
 19 21  1  0  0  0  0
 20 22  1  0  0  0  0
  8 10  1  0  0  0  0
  9 13  1  0  0  0  0
 12 15  1  0  0  0  0
 17 18  1  0  0  0  0
 21 22  2  0  0  0  0
M  END