440
  Mrv0541 04071411322D          

 10 10  0  0  0  0            999 V2000
   -1.4293    0.9895    0.0000 C   0  0  0  0  0  0  0  0  0  0  0  0
   -0.8795    0.3573    0.0000 C   0  0  0  0  0  0  0  0  0  0  0  0
   -0.3573    0.9895    0.0000 C   0  0  0  0  0  0  0  0  0  0  0  0
   -0.1649   -0.0549    0.0000 C   0  0  0  0  0  0  0  0  0  0  0  0
   -1.5942   -0.0549    0.0000 C   0  0  0  0  0  0  0  0  0  0  0  0
   -0.1649   -0.8795    0.0000 C   0  0  0  0  0  0  0  0  0  0  0  0
   -1.5942   -0.8795    0.0000 C   0  0  0  0  0  0  0  0  0  0  0  0
    0.5195   -1.2918    0.0000 C   0  0  0  0  0  0  0  0  0  0  0  0
   -0.8795   -1.2918    0.0000 C   0  0  0  0  0  0  0  0  0  0  0  0
   -2.3088   -1.2918    0.0000 O   0  0  0  0  0  0  0  0  0  0  0  0
  1  2  1  0  0  0  0
  2  3  1  0  0  0  0
  2  4  1  0  0  0  0
  2  5  1  0  0  0  0
  4  6  1  0  0  0  0
  5  7  1  0  0  0  0
  6  8  1  0  0  0  0
  6  9  2  0  0  0  0
  7  9  1  0  0  0  0
  7 10  2  0  0  0  0
M  END