441
  Mrv0541 04071411322D          

  9  9  0  0  0  0            999 V2000
    1.0127    0.0000    0.0000 P   0  0  0  0  0  0  0  0  0  0  0  0
    0.1795    0.0000    0.0000 C   0  0  0  0  0  0  0  0  0  0  0  0
    1.4270   -0.7089    0.0000 O   0  0  0  0  0  0  0  0  0  0  0  0
    1.4270    0.7227    0.0000 O   0  0  0  0  0  0  0  0  0  0  0  0
   -0.2301   -0.7134    0.0000 C   0  0  0  0  0  0  0  0  0  0  0  0
   -0.2301    0.7134    0.0000 C   0  0  0  0  0  0  0  0  0  0  0  0
   -1.0633    0.7134    0.0000 C   0  0  0  0  0  0  0  0  0  0  0  0
   -1.0633   -0.7134    0.0000 C   0  0  0  0  0  0  0  0  0  0  0  0
   -1.4776    0.0000    0.0000 C   0  0  0  0  0  0  0  0  0  0  0  0
  2  1  1  0  0  0  0
  3  1  1  0  0  0  0
  4  1  1  0  0  0  0
  5  2  2  0  0  0  0
  6  2  1  0  0  0  0
  7  6  2  0  0  0  0
  8  5  1  0  0  0  0
  9  7  1  0  0  0  0
  8  9  2  0  0  0  0
M  END