442
  Mrv0541 04071411322D          

 25 26  0  0  0  0            999 V2000
   -0.1354   -0.5072    0.0000 P   0  0  0  0  0  0  0  0  0  0  0  0
   -0.1273   -1.3154    0.0000 O   0  0  0  0  0  0  0  0  0  0  0  0
    0.6486   -0.5072    0.0000 O   0  0  0  0  0  0  0  0  0  0  0  0
   -0.9435   -0.4991    0.0000 O   0  0  0  0  0  0  0  0  0  0  0  0
   -0.1354    0.2809    0.0000 O   0  0  0  0  0  0  0  0  0  0  0  0
    0.7698   -1.6225    0.0000 C   0  0  0  0  0  0  0  0  0  0  0  0
    1.0142    0.2809    0.0000 C   0  0  0  0  0  0  0  0  0  0  0  0
   -1.2810    0.2809    0.0000 C   0  0  0  0  0  0  0  0  0  0  0  0
    0.9274   -2.4428    0.0000 C   0  0  0  0  0  0  0  0  0  0  0  0
    1.4104   -1.0870    0.0000 C   0  0  0  0  0  0  0  0  0  0  0  0
    1.8427    0.3496    0.0000 C   0  0  0  0  0  0  0  0  0  0  0  0
    0.5516    0.9355    0.0000 C   0  0  0  0  0  0  0  0  0  0  0  0
   -2.0974    0.3395    0.0000 C   0  0  0  0  0  0  0  0  0  0  0  0
    1.6952   -2.7196    0.0000 C   0  0  0  0  0  0  0  0  0  0  0  0
    2.1863   -1.3801    0.0000 C   0  0  0  0  0  0  0  0  0  0  0  0
    2.1923    1.0951    0.0000 C   0  0  0  0  0  0  0  0  0  0  0  0
    0.9133    1.6872    0.0000 C   0  0  0  0  0  0  0  0  0  0  0  0
   -2.4569    1.0951    0.0000 C   0  0  0  0  0  0  0  0  0  0  0  0
   -2.5883   -0.3112    0.0000 C   0  0  0  0  0  0  0  0  0  0  0  0
    2.3397   -2.1863    0.0000 C   0  0  0  0  0  0  0  0  0  0  0  0
    1.7235    1.7760    0.0000 C   0  0  0  0  0  0  0  0  0  0  0  0
   -1.9983    1.7679    0.0000 C   0  0  0  0  0  0  0  0  0  0  0  0
   -2.2447   -1.0506    0.0000 C   0  0  0  0  0  0  0  0  0  0  0  0
   -2.3357    2.5256    0.0000 C   0  0  0  0  0  0  0  0  0  0  0  0
   -1.8731    3.2087    0.0000 C   0  0  0  0  0  0  0  0  0  0  0  0
  1  2  1  0  0  0  0
  1  3  1  0  0  0  0
  1  4  1  0  0  0  0
  1  5  2  0  0  0  0
  2  6  1  0  0  0  0
  3  7  1  0  0  0  0
  4  8  1  0  0  0  0
  6  9  2  0  0  0  0
  6 10  1  0  0  0  0
  7 11  2  0  0  0  0
  7 12  1  0  0  0  0
  8 13  1  0  0  0  0
  9 14  1  0  0  0  0
 10 15  2  0  0  0  0
 11 16  1  0  0  0  0
 12 17  2  0  0  0  0
 13 18  1  0  0  0  0
 13 19  1  0  0  0  0
 14 20  2  0  0  0  0
 16 21  2  0  0  0  0
 18 22  1  0  0  0  0
 19 23  1  0  0  0  0
 22 24  1  0  0  0  0
 24 25  1  0  0  0  0
 15 20  1  0  0  0  0
 17 21  1  0  0  0  0
M  END