446
  Mrv0541 04071411322D          

 17 17  0  0  0  0            999 V2000
    0.1116   -0.3943    0.0000 C   0  0  0  0  0  0  0  0  0  0  0  0
    0.8314   -0.8036    0.0000 O   0  0  0  0  0  0  0  0  0  0  0  0
   -0.6026   -0.8110    0.0000 C   0  0  0  0  0  0  0  0  0  0  0  0
    0.1116    0.4297    0.0000 C   0  0  0  0  0  0  0  0  0  0  0  0
    1.5476   -0.3887    0.0000 P   0  0  0  0  0  0  0  0  0  0  0  0
   -1.3244   -0.3999    0.0000 C   0  0  0  0  0  0  0  0  0  0  0  0
   -0.6026    0.8407    0.0000 C   0  0  0  0  0  0  0  0  0  0  0  0
    2.0107   -0.9654    0.0000 O   0  0  0  0  0  0  0  0  0  0  0  0
    2.1688   -0.0242    0.0000 O   0  0  0  0  0  0  0  0  0  0  0  0
    1.0696    0.2790    0.0000 S   0  0  0  0  0  0  0  0  0  0  0  0
   -1.3262    0.4204    0.0000 C   0  0  0  0  0  0  0  0  0  0  0  0
   -2.0386   -0.8128    0.0000 C   0  0  0  0  0  0  0  0  0  0  0  0
    2.6133   -0.9654    0.0000 C   0  0  0  0  0  0  0  0  0  0  0  0
    2.3028    0.6565    0.0000 C   0  0  0  0  0  0  0  0  0  0  0  0
   -2.0461    0.8389    0.0000 N   0  3  0  0  0  0  0  0  0  0  0  0
   -2.0535    1.6685    0.0000 O   0  0  0  0  0  0  0  0  0  0  0  0
   -2.7677    0.4278    0.0000 O   0  5  0  0  0  0  0  0  0  0  0  0
  1  2  1  0  0  0  0
  1  3  2  0  0  0  0
  1  4  1  0  0  0  0
  2  5  1  0  0  0  0
  3  6  1  0  0  0  0
  4  7  2  0  0  0  0
  5  8  1  0  0  0  0
  5  9  1  0  0  0  0
  5 10  2  0  0  0  0
  6 11  2  0  0  0  0
  6 12  1  0  0  0  0
  8 13  1  0  0  0  0
  9 14  1  0  0  0  0
 11 15  1  0  0  0  0
 15 16  2  0  0  0  0
 15 17  1  0  0  0  0
  7 11  1  0  0  0  0
M  CHG  2  15   1  17  -1
M  END