448
  Mrv0541 04071411322D          

 10 10  0  0  0  0            999 V2000
    0.0000    0.0921    0.0000 C   0  0  0  0  0  0  0  0  0  0  0  0
    0.6974   -0.3487    0.0000 C   0  0  0  0  0  0  0  0  0  0  0  0
   -0.6990   -0.3487    0.0000 C   0  0  0  0  0  0  0  0  0  0  0  0
    0.0000    0.8849    0.0000 S   0  0  0  0  0  0  0  0  0  0  0  0
    0.6974   -1.1118    0.0000 C   0  0  0  0  0  0  0  0  0  0  0  0
   -0.6990   -1.1118    0.0000 C   0  0  0  0  0  0  0  0  0  0  0  0
    0.7796    0.8849    0.0000 N   0  0  0  0  0  0  0  0  0  0  0  0
   -0.7763    0.8849    0.0000 O   0  0  0  0  0  0  0  0  0  0  0  0
    0.0000    1.7401    0.0000 O   0  0  0  0  0  0  0  0  0  0  0  0
    0.0000   -1.5658    0.0000 C   0  0  0  0  0  0  0  0  0  0  0  0
  1  2  1  0  0  0  0
  1  3  2  0  0  0  0
  1  4  1  0  0  0  0
  2  5  2  0  0  0  0
  3  6  1  0  0  0  0
  4  7  1  0  0  0  0
  4  8  2  0  0  0  0
  4  9  2  0  0  0  0
  5 10  1  0  0  0  0
  6 10  2  0  0  0  0
M  END