449
  Mrv0541 04071411322D          

 13 13  0  0  0  0            999 V2000
    2.9655    0.6196    0.0000 O   0  0  0  0  0  0  0  0  0  0  0  0
    2.1405    0.6188    0.0000 P   0  0  0  0  0  0  0  0  0  0  0  0
    1.3155    0.6179    0.0000 O   0  0  0  0  0  0  0  0  0  0  0  0
    0.9023    1.3320    0.0000 C   0  0  0  0  0  0  0  0  0  0  0  0
    2.1396    1.4438    0.0000 O   0  0  0  0  0  0  0  0  0  0  0  0
    2.8538    1.8570    0.0000 C   0  0  0  0  0  0  0  0  0  0  0  0
    2.1413   -0.2063    0.0000 O   0  0  0  0  0  0  0  0  0  0  0  0
    1.4273   -0.6195    0.0000 C   0  0  0  0  0  0  0  0  0  0  0  0
    0.7095   -0.2070    0.0000 C   0  0  0  0  0  0  0  0  0  0  0  0
    0.0000   -0.6195    0.0000 C   0  0  0  0  0  0  0  0  0  0  0  0
    0.0000   -1.4445    0.0000 C   0  0  0  0  0  0  0  0  0  0  0  0
    0.7095   -1.8570    0.0000 C   0  0  0  0  0  0  0  0  0  0  0  0
    1.4273   -1.4445    0.0000 C   0  0  0  0  0  0  0  0  0  0  0  0
  1  2  2  0  0  0  0
  2  3  1  0  0  0  0
  3  4  1  0  0  0  0
  2  5  1  0  0  0  0
  5  6  1  0  0  0  0
  2  7  1  0  0  0  0
  7  8  1  0  0  0  0
  8  9  1  0  0  0  0
  9 10  2  0  0  0  0
 10 11  1  0  0  0  0
 11 12  2  0  0  0  0
 12 13  1  0  0  0  0
 13  8  2  0  0  0  0
M  END