450
  Mrv0541 04071411322D          

 19 19  0  0  0  0            999 V2000
    2.5168    0.4208    0.0000 C   0  0  0  0  0  0  0  0  0  0  0  0
    3.3471    0.4127    0.0000 C   0  0  0  0  0  0  0  0  0  0  0  0
    2.1022   -0.2792    0.0000 C   0  0  0  0  0  0  0  0  0  0  0  0
    2.1185    1.1405    0.0000 C   0  0  0  0  0  0  0  0  0  0  0  0
    3.7483   -0.2954    0.0000 O   0  0  0  0  0  0  0  0  0  0  0  0
    3.7675    1.1225    0.0000 C   0  0  0  0  0  0  0  0  0  0  0  0
    1.2854   -0.2656    0.0000 C   0  0  0  0  0  0  0  0  0  0  0  0
    2.5021   -1.0134    0.0000 Cl  0  0  0  0  0  0  0  0  0  0  0  0
    1.2846    1.1372    0.0000 C   0  0  0  0  0  0  0  0  0  0  0  0
    4.5756   -0.3017    0.0000 P   0  0  0  0  0  0  0  0  0  0  0  0
    3.3605    1.8340    0.0000 Cl  0  0  0  0  0  0  0  0  0  0  0  0
    0.8818    0.4575    0.0000 C   0  0  0  0  0  0  0  0  0  0  0  0
    0.8490    1.8568    0.0000 Cl  0  0  0  0  0  0  0  0  0  0  0  0
    5.3930   -0.3021    0.0000 O   0  0  0  0  0  0  0  0  0  0  0  0
    4.5694   -1.1291    0.0000 O   0  0  0  0  0  0  0  0  0  0  0  0
    4.5783    0.5316    0.0000 O   0  0  0  0  0  0  0  0  0  0  0  0
    0.0523    0.4896    0.0000 Cl  0  0  0  0  0  0  0  0  0  0  0  0
    5.8135    0.4077    0.0000 C   0  0  0  0  0  0  0  0  0  0  0  0
    5.2776   -1.5415    0.0000 C   0  0  0  0  0  0  0  0  0  0  0  0
  1  2  1  0  0  0  0
  1  3  2  0  0  0  0
  1  4  1  0  0  0  0
  2  5  1  0  0  0  0
  2  6  2  0  0  0  0
  3  7  1  0  0  0  0
  3  8  1  0  0  0  0
  4  9  2  0  0  0  0
  5 10  1  0  0  0  0
  6 11  1  0  0  0  0
  7 12  2  0  0  0  0
  9 13  1  0  0  0  0
 10 14  1  0  0  0  0
 10 15  1  0  0  0  0
 10 16  2  0  0  0  0
 12 17  1  0  0  0  0
 14 18  1  0  0  0  0
 15 19  1  0  0  0  0
  9 12  1  0  0  0  0
M  END