451
  Mrv0541 04071411322D          

 19 19  0  0  0  0            999 V2000
   -1.2681   -0.0210    0.0000 P   0  0  0  0  0  0  0  0  0  0  0  0
   -0.5554    0.3983    0.0000 O   0  0  0  0  0  0  0  0  0  0  0  0
   -1.6873    0.7021    0.0000 O   0  0  0  0  0  0  0  0  0  0  0  0
   -1.9975   -0.4402    0.0000 O   0  0  0  0  0  0  0  0  0  0  0  0
   -0.8468   -0.7504    0.0000 S   0  0  0  0  0  0  0  0  0  0  0  0
    0.1488   -0.0210    0.0000 N   0  0  0  0  0  0  0  0  0  0  0  0
   -2.5173    0.7021    0.0000 C   0  0  0  0  0  0  0  0  0  0  0  0
   -1.9975   -1.2723    0.0000 C   0  0  0  0  0  0  0  0  0  0  0  0
    0.8594    0.3983    0.0000 C   0  0  0  0  0  0  0  0  0  0  0  0
   -2.9260    1.4148    0.0000 C   0  0  0  0  0  0  0  0  0  0  0  0
   -2.7059   -1.6747    0.0000 C   0  0  0  0  0  0  0  0  0  0  0  0
    1.5888   -0.0378    0.0000 C   0  0  0  0  0  0  0  0  0  0  0  0
    0.8594    1.2324    0.0000 C   0  0  0  0  0  0  0  0  0  0  0  0
    2.2951    0.3815    0.0000 C   0  0  0  0  0  0  0  0  0  0  0  0
    1.5888   -0.8782    0.0000 C   0  0  0  0  0  0  0  0  0  0  0  0
    0.8594    2.0520    0.0000 N   0  0  0  0  0  0  0  0  0  0  0  0
    3.0056   -0.0378    0.0000 C   0  0  0  0  0  0  0  0  0  0  0  0
    2.2951   -1.2723    0.0000 C   0  0  0  0  0  0  0  0  0  0  0  0
    3.0056   -0.8782    0.0000 C   0  0  0  0  0  0  0  0  0  0  0  0
  1  2  1  0  0  0  0
  1  3  1  0  0  0  0
  1  4  1  0  0  0  0
  1  5  2  0  0  0  0
  2  6  1  0  0  0  0
  3  7  1  0  0  0  0
  4  8  1  0  0  0  0
  6  9  2  0  0  0  0
  7 10  1  0  0  0  0
  8 11  1  0  0  0  0
  9 12  1  0  0  0  0
  9 13  1  0  0  0  0
 12 14  1  0  0  0  0
 12 15  2  0  0  0  0
 13 16  3  0  0  0  0
 14 17  2  0  0  0  0
 15 18  1  0  0  0  0
 17 19  1  0  0  0  0
 18 19  2  0  0  0  0
M  END