452
  Mrv0541 04071411322D          

 14 15  0  0  0  0            999 V2000
    0.7156    0.2374    0.0000 C   0  0  0  0  0  0  0  0  0  0  0  0
   -0.0063    0.6364    0.0000 C   0  0  0  0  0  0  0  0  0  0  0  0
    0.7156   -0.5890    0.0000 C   0  0  0  0  0  0  0  0  0  0  0  0
    1.4312    0.6364    0.0000 C   0  0  0  0  0  0  0  0  0  0  0  0
   -0.6966    0.2374    0.0000 C   0  0  0  0  0  0  0  0  0  0  0  0
   -0.0063    1.4755    0.0000 O   0  0  0  0  0  0  0  0  0  0  0  0
    1.4312   -1.0164    0.0000 C   0  0  0  0  0  0  0  0  0  0  0  0
    2.1310    0.1995    0.0000 C   0  0  0  0  0  0  0  0  0  0  0  0
   -1.4281    0.6586    0.0000 C   0  0  0  0  0  0  0  0  0  0  0  0
   -0.6966   -0.5699    0.0000 C   0  0  0  0  0  0  0  0  0  0  0  0
    2.1310   -0.6048    0.0000 C   0  0  0  0  0  0  0  0  0  0  0  0
   -2.1436    0.2565    0.0000 C   0  0  0  0  0  0  0  0  0  0  0  0
   -1.4281   -0.9943    0.0000 C   0  0  0  0  0  0  0  0  0  0  0  0
   -2.1436   -0.5699    0.0000 C   0  0  0  0  0  0  0  0  0  0  0  0
  1  2  1  0  0  0  0
  1  3  1  0  0  0  0
  1  4  2  0  0  0  0
  2  5  1  0  0  0  0
  2  6  2  0  0  0  0
  3  7  2  0  0  0  0
  4  8  1  0  0  0  0
  5  9  2  0  0  0  0
  5 10  1  0  0  0  0
  7 11  1  0  0  0  0
  9 12  1  0  0  0  0
 10 13  2  0  0  0  0
 12 14  2  0  0  0  0
  8 11  2  0  0  0  0
 13 14  1  0  0  0  0
M  END