453
  Mrv0541 04071411322D          

 15 16  0  0  0  0            999 V2000
    2.0161   -0.3290    0.0000 C   0  0  0  0  0  0  0  0  0  0  0  0
    2.0161   -1.1806    0.0000 C   0  0  0  0  0  0  0  0  0  0  0  0
    2.7221    0.0903    0.0000 C   0  0  0  0  0  0  0  0  0  0  0  0
    1.2187    0.0903    0.0000 C   0  0  0  0  0  0  0  0  0  0  0  0
    2.7221   -1.5891    0.0000 C   0  0  0  0  0  0  0  0  0  0  0  0
    1.2187   -1.5891    0.0000 C   0  0  0  0  0  0  0  0  0  0  0  0
    3.4326   -0.3290    0.0000 C   0  0  0  0  0  0  0  0  0  0  0  0
    2.7221    0.9029    0.0000 S   0  0  0  0  0  0  0  0  0  0  0  0
    0.5560   -0.3290    0.0000 C   0  0  0  0  0  0  0  0  0  0  0  0
    3.4326   -1.1806    0.0000 C   0  0  0  0  0  0  0  0  0  0  0  0
    2.7221   -2.4061    0.0000 N   0  0  0  0  0  0  0  0  0  0  0  0
    0.5560   -1.1806    0.0000 C   0  0  0  0  0  0  0  0  0  0  0  0
    2.7221    1.7980    0.0000 O   0  0  0  0  0  0  0  0  0  0  0  0
    1.9204    0.9029    0.0000 O   0  0  0  0  0  0  0  0  0  0  0  0
    3.5282    0.9029    0.0000 O   0  0  0  0  0  0  0  0  0  0  0  0
  1  2  1  0  0  0  0
  1  3  2  0  0  0  0
  1  4  1  0  0  0  0
  2  5  2  0  0  0  0
  2  6  1  0  0  0  0
  3  7  1  0  0  0  0
  3  8  1  0  0  0  0
  4  9  2  0  0  0  0
  5 10  1  0  0  0  0
  5 11  1  0  0  0  0
  6 12  2  0  0  0  0
  8 13  2  0  0  0  0
  8 14  2  0  0  0  0
  8 15  1  0  0  0  0
  7 10  2  0  0  0  0
  9 12  1  0  0  0  0
M  END