455
  Mrv0541 04071411322D          

 16 17  0  0  0  0            999 V2000
   -0.4982   -0.5910    0.0000 C   0  0  0  0  0  0  0  0  0  0  0  0
   -0.4982    0.2321    0.0000 C   0  0  0  0  0  0  0  0  0  0  0  0
    0.2160   -1.0106    0.0000 C   0  0  0  0  0  0  0  0  0  0  0  0
   -1.2088   -1.0106    0.0000 C   0  0  0  0  0  0  0  0  0  0  0  0
    0.2160    0.6446    0.0000 C   0  0  0  0  0  0  0  0  0  0  0  0
   -1.2088    0.6446    0.0000 C   0  0  0  0  0  0  0  0  0  0  0  0
    0.9410   -0.5910    0.0000 C   0  0  0  0  0  0  0  0  0  0  0  0
    0.2160   -1.8337    0.0000 O   0  0  0  0  0  0  0  0  0  0  0  0
   -1.9230   -0.5910    0.0000 C   0  0  0  0  0  0  0  0  0  0  0  0
    0.9410    0.2321    0.0000 C   0  0  0  0  0  0  0  0  0  0  0  0
   -1.9230    0.2321    0.0000 C   0  0  0  0  0  0  0  0  0  0  0  0
    1.6570    0.6446    0.0000 S   0  0  0  0  0  0  0  0  0  0  0  0
   -2.6390    0.6446    0.0000 N   0  0  0  0  0  0  0  0  0  0  0  0
    2.0730   -0.0732    0.0000 O   0  0  0  0  0  0  0  0  0  0  0  0
    1.2516    1.3695    0.0000 O   0  0  0  0  0  0  0  0  0  0  0  0
    2.3836    1.0588    0.0000 O   0  0  0  0  0  0  0  0  0  0  0  0
  1  2  2  0  0  0  0
  1  3  1  0  0  0  0
  1  4  1  0  0  0  0
  2  5  1  0  0  0  0
  2  6  1  0  0  0  0
  3  7  2  0  0  0  0
  3  8  1  0  0  0  0
  4  9  2  0  0  0  0
  5 10  2  0  0  0  0
  6 11  2  0  0  0  0
 10 12  1  0  0  0  0
 11 13  1  0  0  0  0
 12 14  1  0  0  0  0
 12 15  2  0  0  0  0
 12 16  2  0  0  0  0
  7 10  1  0  0  0  0
  9 11  1  0  0  0  0
M  END