458
  Mrv0541 04071411322D          

 34 37  0  0  0  0            999 V2000
    3.6506   -1.5270    0.0000 O   0  0  0  0  0  0  0  0  0  0  0  0
    3.6406   -2.3517    0.0000 C   0  0  0  0  0  0  0  0  0  0  0  0
    2.9092   -2.7747    0.0000 N   0  0  0  0  0  0  0  0  0  0  0  0
    2.1921   -2.3750    0.0000 C   0  0  0  0  0  0  0  0  0  0  0  0
    2.2022   -1.5502    0.0000 C   0  0  0  0  0  0  0  0  0  0  0  0
    1.4866   -1.1513    0.0000 C   0  0  0  0  0  0  0  0  0  0  0  0
    0.7496   -1.5762    0.0000 C   0  0  0  0  0  0  0  0  0  0  0  0
    0.7363   -2.3953    0.0000 C   0  0  0  0  0  0  0  0  0  0  0  0
   -0.0022   -2.8158    0.0000 C   0  0  0  0  0  0  0  0  0  0  0  0
   -0.7195   -2.4115    0.0000 C   0  0  0  0  0  0  0  0  0  0  0  0
   -1.4539   -2.8312    0.0000 S   0  0  0  0  0  0  0  0  0  0  0  0
   -1.0546   -3.5399    0.0000 O   0  0  0  0  0  0  0  0  0  0  0  0
   -1.8574   -2.1251    0.0000 O   0  0  0  0  0  0  0  0  0  0  0  0
   -2.1949   -3.2492    0.0000 O   0  0  0  0  0  0  0  0  0  0  0  0
   -0.6982   -1.5869    0.0000 C   0  0  0  0  0  0  0  0  0  0  0  0
    0.0347   -1.1760    0.0000 C   0  0  0  0  0  0  0  0  0  0  0  0
    0.0571   -0.3486    0.0000 O   0  0  0  0  0  0  0  0  0  0  0  0
    1.4552   -2.7998    0.0000 C   0  0  0  0  0  0  0  0  0  0  0  0
    4.3581   -2.7509    0.0000 N   0  0  0  0  0  0  0  0  0  0  0  0
    5.0902   -2.3269    0.0000 C   0  0  0  0  0  0  0  0  0  0  0  0
    5.8179   -2.7288    0.0000 C   0  0  0  0  0  0  0  0  0  0  0  0
    6.5436   -2.3058    0.0000 C   0  0  0  0  0  0  0  0  0  0  0  0
    6.5571   -1.4785    0.0000 C   0  0  0  0  0  0  0  0  0  0  0  0
    5.8429   -1.0806    0.0000 C   0  0  0  0  0  0  0  0  0  0  0  0
    5.8591   -0.2558    0.0000 C   0  0  0  0  0  0  0  0  0  0  0  0
    6.5980    0.1631    0.0000 C   0  0  0  0  0  0  0  0  0  0  0  0
    6.6124    0.9864    0.0000 S   0  0  0  0  0  0  0  0  0  0  0  0
    5.7771    0.9759    0.0000 O   0  0  0  0  0  0  0  0  0  0  0  0
    7.4501    0.9927    0.0000 O   0  0  0  0  0  0  0  0  0  0  0  0
    6.6292    1.8057    0.0000 O   0  0  0  0  0  0  0  0  0  0  0  0
    7.3110   -0.2485    0.0000 C   0  0  0  0  0  0  0  0  0  0  0  0
    7.2863   -1.0652    0.0000 C   0  0  0  0  0  0  0  0  0  0  0  0
    8.0067   -1.4682    0.0000 O   0  0  0  0  0  0  0  0  0  0  0  0
    5.1059   -1.5037    0.0000 C   0  0  0  0  0  0  0  0  0  0  0  0
  1  2  2  0  0  0  0
  2  3  1  0  0  0  0
  3  4  1  0  0  0  0
  4  5  1  0  0  0  0
  5  6  2  0  0  0  0
  6  7  1  0  0  0  0
  7  8  1  0  0  0  0
  8  9  2  0  0  0  0
  9 10  1  0  0  0  0
 10 11  1  0  0  0  0
 11 12  2  0  0  0  0
 11 13  2  0  0  0  0
 11 14  1  0  0  0  0
 10 15  2  0  0  0  0
 15 16  1  0  0  0  0
 16  7  2  0  0  0  0
 16 17  1  0  0  0  0
  8 18  1  0  0  0  0
 18  4  2  0  0  0  0
  2 19  1  0  0  0  0
 19 20  1  0  0  0  0
 20 21  1  0  0  0  0
 21 22  2  0  0  0  0
 22 23  1  0  0  0  0
 23 24  1  0  0  0  0
 24 25  2  0  0  0  0
 25 26  1  0  0  0  0
 26 27  1  0  0  0  0
 27 28  2  0  0  0  0
 27 29  2  0  0  0  0
 27 30  1  0  0  0  0
 26 31  2  0  0  0  0
 31 32  1  0  0  0  0
 32 23  2  0  0  0  0
 32 33  1  0  0  0  0
 24 34  1  0  0  0  0
 34 20  2  0  0  0  0
M  END