459
  Mrv0541 04071411322D          

 17 19  0  0  0  0            999 V2000
    0.6320   -0.3206    0.0000 C   0  0  0  0  0  0  0  0  0  0  0  0
    0.6320    0.5126    0.0000 C   0  0  0  0  0  0  0  0  0  0  0  0
   -0.0783   -0.7307    0.0000 C   0  0  0  0  0  0  0  0  0  0  0  0
    1.3478   -0.7307    0.0000 C   0  0  0  0  0  0  0  0  0  0  0  0
   -0.0783    0.9228    0.0000 C   0  0  0  0  0  0  0  0  0  0  0  0
    1.3478    0.9228    0.0000 C   0  0  0  0  0  0  0  0  0  0  0  0
   -0.8035   -0.3076    0.0000 C   0  0  0  0  0  0  0  0  0  0  0  0
   -0.0783   -1.5510    0.0000 O   0  0  0  0  0  0  0  0  0  0  0  0
    2.0618   -0.3076    0.0000 C   0  0  0  0  0  0  0  0  0  0  0  0
    1.3478   -1.5510    0.0000 Cl  0  0  0  0  0  0  0  0  0  0  0  0
   -0.8035    0.5033    0.0000 C   0  0  0  0  0  0  0  0  0  0  0  0
   -0.0783    1.7560    0.0000 O   0  0  0  0  0  0  0  0  0  0  0  0
    2.0618    0.5033    0.0000 C   0  0  0  0  0  0  0  0  0  0  0  0
   -1.5174   -0.7195    0.0000 C   0  0  0  0  0  0  0  0  0  0  0  0
   -1.5174    0.9153    0.0000 C   0  0  0  0  0  0  0  0  0  0  0  0
   -2.2407   -0.2983    0.0000 C   0  0  0  0  0  0  0  0  0  0  0  0
   -2.2407    0.4903    0.0000 C   0  0  0  0  0  0  0  0  0  0  0  0
  1  2  1  0  0  0  0
  1  3  1  0  0  0  0
  1  4  2  0  0  0  0
  2  5  1  0  0  0  0
  2  6  2  0  0  0  0
  3  7  1  0  0  0  0
  3  8  2  0  0  0  0
  4  9  1  0  0  0  0
  4 10  1  0  0  0  0
  5 11  1  0  0  0  0
  5 12  2  0  0  0  0
  6 13  1  0  0  0  0
  7 14  1  0  0  0  0
 11 15  1  0  0  0  0
 14 16  2  0  0  0  0
 15 17  2  0  0  0  0
  7 11  2  0  0  0  0
  9 13  2  0  0  0  0
 16 17  1  0  0  0  0
M  END