460
  Mrv0541 04071411322D          

 17 19  0  0  0  0            999 V2000
    0.5034    0.3796    0.0000 C   0  0  0  0  0  0  0  0  0  0  0  0
    0.5034   -0.4622    0.0000 C   0  0  0  0  0  0  0  0  0  0  0  0
   -0.1432    0.7658    0.0000 C   0  0  0  0  0  0  0  0  0  0  0  0
    1.2671    0.7658    0.0000 C   0  0  0  0  0  0  0  0  0  0  0  0
   -0.1432   -0.8787    0.0000 C   0  0  0  0  0  0  0  0  0  0  0  0
    1.2671   -0.8787    0.0000 C   0  0  0  0  0  0  0  0  0  0  0  0
   -0.8722    0.3450    0.0000 C   0  0  0  0  0  0  0  0  0  0  0  0
   -0.1432    1.5881    0.0000 O   0  0  0  0  0  0  0  0  0  0  0  0
    1.9332    0.3796    0.0000 C   0  0  0  0  0  0  0  0  0  0  0  0
   -0.8722   -0.3753    0.0000 C   0  0  0  0  0  0  0  0  0  0  0  0
   -0.1432   -1.7704    0.0000 O   0  0  0  0  0  0  0  0  0  0  0  0
    1.9332   -0.4622    0.0000 C   0  0  0  0  0  0  0  0  0  0  0  0
   -1.5816    0.7658    0.0000 C   0  0  0  0  0  0  0  0  0  0  0  0
    2.6427    0.8006    0.0000 Cl  0  0  0  0  0  0  0  0  0  0  0  0
   -1.5816   -0.8787    0.0000 C   0  0  0  0  0  0  0  0  0  0  0  0
   -2.2803    0.3796    0.0000 C   0  0  0  0  0  0  0  0  0  0  0  0
   -2.2803   -0.4622    0.0000 C   0  0  0  0  0  0  0  0  0  0  0  0
  1  2  2  0  0  0  0
  1  3  1  0  0  0  0
  1  4  1  0  0  0  0
  2  5  1  0  0  0  0
  2  6  1  0  0  0  0
  3  7  1  0  0  0  0
  3  8  2  0  0  0  0
  4  9  2  0  0  0  0
  5 10  1  0  0  0  0
  5 11  2  0  0  0  0
  6 12  2  0  0  0  0
  7 13  1  0  0  0  0
  9 14  1  0  0  0  0
 10 15  1  0  0  0  0
 13 16  2  0  0  0  0
 15 17  2  0  0  0  0
  7 10  2  0  0  0  0
  9 12  1  0  0  0  0
 16 17  1  0  0  0  0
M  END