463
  Mrv0541 04071411322D          

 16 17  0  0  0  0            999 V2000
   -0.4898    0.3242    0.0000 C   0  0  0  0  0  0  0  0  0  0  0  0
   -0.4898   -0.5023    0.0000 C   0  0  0  0  0  0  0  0  0  0  0  0
    0.2173    0.7374    0.0000 C   0  0  0  0  0  0  0  0  0  0  0  0
   -1.2022    0.7374    0.0000 C   0  0  0  0  0  0  0  0  0  0  0  0
    0.2173   -0.9190    0.0000 C   0  0  0  0  0  0  0  0  0  0  0  0
   -1.2022   -0.9190    0.0000 C   0  0  0  0  0  0  0  0  0  0  0  0
    0.9404    0.3455    0.0000 C   0  0  0  0  0  0  0  0  0  0  0  0
   -1.9253    0.3455    0.0000 C   0  0  0  0  0  0  0  0  0  0  0  0
    0.9404   -0.5218    0.0000 C   0  0  0  0  0  0  0  0  0  0  0  0
    0.2173   -1.7418    0.0000 O   0  0  0  0  0  0  0  0  0  0  0  0
   -1.9253   -0.5218    0.0000 C   0  0  0  0  0  0  0  0  0  0  0  0
    1.6635    0.8014    0.0000 S   0  0  0  0  0  0  0  0  0  0  0  0
   -2.6483   -0.9706    0.0000 N   0  0  0  0  0  0  0  0  0  0  0  0
    2.1034    0.0819    0.0000 O   0  0  0  0  0  0  0  0  0  0  0  0
    1.2146    1.4925    0.0000 O   0  0  0  0  0  0  0  0  0  0  0  0
    2.3706    1.2289    0.0000 O   0  0  0  0  0  0  0  0  0  0  0  0
  1  2  2  0  0  0  0
  1  3  1  0  0  0  0
  1  4  1  0  0  0  0
  2  5  1  0  0  0  0
  2  6  1  0  0  0  0
  3  7  2  0  0  0  0
  4  8  2  0  0  0  0
  5  9  2  0  0  0  0
  5 10  1  0  0  0  0
  6 11  2  0  0  0  0
  7 12  1  0  0  0  0
 11 13  1  0  0  0  0
 12 14  1  0  0  0  0
 12 15  2  0  0  0  0
 12 16  2  0  0  0  0
  7  9  1  0  0  0  0
  8 11  1  0  0  0  0
M  END