464
  Mrv0541 04071411322D          

  7  7  0  0  0  0            999 V2000
   -0.3256   -0.0018    0.0000 S   0  0  0  0  0  0  0  0  0  0  0  0
    0.1572   -0.6659    0.0000 C   0  0  0  0  0  0  0  0  0  0  0  0
    0.1572    0.6659    0.0000 C   0  0  0  0  0  0  0  0  0  0  0  0
   -0.9360    0.5457    0.0000 O   0  0  0  0  0  0  0  0  0  0  0  0
   -0.9360   -0.5475    0.0000 O   0  0  0  0  0  0  0  0  0  0  0  0
    0.9416   -0.4069    0.0000 C   0  0  0  0  0  0  0  0  0  0  0  0
    0.9416    0.4069    0.0000 C   0  0  0  0  0  0  0  0  0  0  0  0
  1  2  1  0  0  0  0
  1  3  1  0  0  0  0
  1  4  2  0  0  0  0
  1  5  2  0  0  0  0
  2  6  1  0  0  0  0
  3  7  1  0  0  0  0
  6  7  1  0  0  0  0
M  END