465
  Mrv0541 04071411322D          

 28 30  0  0  0  0            999 V2000
    3.0229    0.0042    0.0000 C   0  0  0  0  0  0  0  0  0  0  0  0
    1.5824   -0.8309    0.0000 C   0  0  0  0  0  0  0  0  0  0  0  0
    1.5824   -0.0208    0.0000 C   0  0  0  0  0  0  0  0  0  0  0  0
    3.0229   -0.8309    0.0000 C   0  0  0  0  0  0  0  0  0  0  0  0
    4.4425   -0.0208    0.0000 C   0  0  0  0  0  0  0  0  0  0  0  0
    0.1628   -0.8142    0.0000 C   0  0  0  0  0  0  0  0  0  0  0  0
    5.1690    0.3925    0.0000 S   0  0  0  0  0  0  0  0  0  0  0  0
   -0.5887   -1.1983    0.0000 S   0  0  0  0  0  0  0  0  0  0  0  0
    2.2880   -1.2443    0.0000 C   0  0  0  0  0  0  0  0  0  0  0  0
    2.2880    0.4091    0.0000 C   0  0  0  0  0  0  0  0  0  0  0  0
    3.7285    0.4091    0.0000 C   0  0  0  0  0  0  0  0  0  0  0  0
    0.8768   -1.2443    0.0000 C   0  0  0  0  0  0  0  0  0  0  0  0
    3.7285   -1.2443    0.0000 C   0  0  0  0  0  0  0  0  0  0  0  0
    0.8768    0.3925    0.0000 C   0  0  0  0  0  0  0  0  0  0  0  0
    0.1628   -0.0208    0.0000 C   0  0  0  0  0  0  0  0  0  0  0  0
    4.4425   -0.8309    0.0000 C   0  0  0  0  0  0  0  0  0  0  0  0
    5.8997    0.7808    0.0000 O   0  0  0  0  0  0  0  0  0  0  0  0
   -1.3403   -1.5866    0.0000 O   0  0  0  0  0  0  0  0  0  0  0  0
    4.7640    1.1231    0.0000 O   0  0  0  0  0  0  0  0  0  0  0  0
   -0.2004   -1.9498    0.0000 O   0  0  0  0  0  0  0  0  0  0  0  0
   -0.9729   -0.4426    0.0000 O   0  0  0  0  0  0  0  0  0  0  0  0
    5.5573   -0.3590    0.0000 O   0  0  0  0  0  0  0  0  0  0  0  0
    2.2880   -2.0793    0.0000 O   0  0  0  0  0  0  0  0  0  0  0  0
    2.2880    1.2317    0.0000 O   0  0  0  0  0  0  0  0  0  0  0  0
    3.7285   -2.0793    0.0000 N   0  0  0  0  0  0  0  0  0  0  0  0
    0.8768    1.2317    0.0000 N   0  0  0  0  0  0  0  0  0  0  0  0
    3.7285    1.2317    0.0000 O   0  0  0  0  0  0  0  0  0  0  0  0
    0.8768   -2.0542    0.0000 O   0  0  0  0  0  0  0  0  0  0  0  0
  2  9  1  0  0  0  0
  3 10  1  0  0  0  0
  4  1  2  0  0  0  0
  5 11  2  0  0  0  0
  6 12  2  0  0  0  0
  7  5  1  0  0  0  0
  8  6  1  0  0  0  0
  9  4  1  0  0  0  0
 10  1  1  0  0  0  0
 11  1  1  0  0  0  0
 12  2  1  0  0  0  0
 13  4  1  0  0  0  0
 14  3  1  0  0  0  0
 15 14  2  0  0  0  0
 16 13  2  0  0  0  0
 17  7  1  0  0  0  0
 18  8  1  0  0  0  0
 19  7  2  0  0  0  0
 20  8  2  0  0  0  0
 21  8  2  0  0  0  0
 22  7  2  0  0  0  0
 23  9  2  0  0  0  0
 24 10  2  0  0  0  0
 25 13  1  0  0  0  0
 26 14  1  0  0  0  0
 27 11  1  0  0  0  0
 28 12  1  0  0  0  0
  2  3  2  0  0  0  0
 16  5  1  0  0  0  0
  6 15  1  0  0  0  0
M  END