466
  Mrv0541 04071411322D          

 26 28  0  0  0  0            999 V2000
    5.0994    0.0064    0.0000 S   0  0  0  0  0  0  0  0  0  0  0  0
    4.3982   -0.4415    0.0000 C   0  0  0  0  0  0  0  0  0  0  0  0
    3.6703   -0.0534    0.0000 C   0  0  0  0  0  0  0  0  0  0  0  0
    2.9857   -0.5005    0.0000 C   0  0  0  0  0  0  0  0  0  0  0  0
    2.2495   -0.1127    0.0000 N   0  0  0  0  0  0  0  0  0  0  0  0
   -0.5796   -0.2310    0.0000 C   0  0  0  0  0  0  0  0  0  0  0  0
    1.5690   -0.5597    0.0000 N   0  0  0  0  0  0  0  0  0  0  0  0
    0.1399   -0.6194    0.0000 C   0  0  0  0  0  0  0  0  0  0  0  0
   -0.6145    0.6048    0.0000 C   0  0  0  0  0  0  0  0  0  0  0  0
    0.8329   -0.1720    0.0000 C   0  0  0  0  0  0  0  0  0  0  0  0
    4.4331   -1.2773    0.0000 C   0  0  0  0  0  0  0  0  0  0  0  0
    3.0206   -1.3364    0.0000 C   0  0  0  0  0  0  0  0  0  0  0  0
    5.5387   -0.6869    0.0000 O   0  0  0  0  0  0  0  0  0  0  0  0
    5.7840    0.4536    0.0000 O   0  0  0  0  0  0  0  0  0  0  0  0
    4.6435    0.6990    0.0000 O   0  0  0  0  0  0  0  0  0  0  0  0
    0.0701    1.0520    0.0000 C   0  0  0  0  0  0  0  0  0  0  0  0
    3.7402   -1.7248    0.0000 C   0  0  0  0  0  0  0  0  0  0  0  0
    0.7979    0.6639    0.0000 C   0  0  0  0  0  0  0  0  0  0  0  0
   -1.3507    0.9927    0.0000 C   0  0  0  0  0  0  0  0  0  0  0  0
    3.6354    0.7825    0.0000 O   0  0  0  0  0  0  0  0  0  0  0  0
    0.1749   -1.4553    0.0000 O   0  0  0  0  0  0  0  0  0  0  0  0
    3.7749   -2.5565    0.0000 Cl  0  0  0  0  0  0  0  0  0  0  0  0
   -1.3854    1.8242    0.0000 O   0  0  0  0  0  0  0  0  0  0  0  0
   -1.2809   -0.6789    0.0000 C   0  0  0  0  0  0  0  0  0  0  0  0
   -2.0088   -0.2907    0.0000 C   0  0  0  0  0  0  0  0  0  0  0  0
   -2.0437    0.5451    0.0000 C   0  0  0  0  0  0  0  0  0  0  0  0
  2  1  1  0  0  0  0
  3  2  2  0  0  0  0
  4  3  1  0  0  0  0
  5  4  1  0  0  0  0
  6  8  1  0  0  0  0
  7  5  2  0  0  0  0
  8 10  2  0  0  0  0
  9 16  1  0  0  0  0
 10  7  1  0  0  0  0
 11  2  1  0  0  0  0
 12 17  1  0  0  0  0
 13  1  1  0  0  0  0
 14  1  2  0  0  0  0
 15  1  2  0  0  0  0
 16 18  2  0  0  0  0
 17 11  2  0  0  0  0
 18 10  1  0  0  0  0
 19  9  2  0  0  0  0
 20  3  1  0  0  0  0
 21  8  1  0  0  0  0
 22 17  1  0  0  0  0
 23 19  1  0  0  0  0
 24  6  2  0  0  0  0
 25 24  1  0  0  0  0
 26 19  1  0  0  0  0
  4 12  2  0  0  0  0
  6  9  1  0  0  0  0
 26 25  2  0  0  0  0
M  END