469
  Mrv0541 04071411322D          

 40 43  0  0  0  0            999 V2000
    3.1027   -1.4708    0.0000 C   0  0  0  0  0  0  0  0  0  0  0  0
    3.1016   -2.2982    0.0000 C   0  0  0  0  0  0  0  0  0  0  0  0
    3.8164   -2.7110    0.0000 C   0  0  0  0  0  0  0  0  0  0  0  0
    4.5328   -2.2977    0.0000 C   0  0  0  0  0  0  0  0  0  0  0  0
    4.5300   -1.4672    0.0000 C   0  0  0  0  0  0  0  0  0  0  0  0
    3.8146   -1.0580    0.0000 C   0  0  0  0  0  0  0  0  0  0  0  0
   -1.6598   -0.3500    0.0000 C   0  0  0  0  0  0  0  0  0  0  0  0
   -1.6609   -1.1773    0.0000 C   0  0  0  0  0  0  0  0  0  0  0  0
   -0.9461   -1.5902    0.0000 C   0  0  0  0  0  0  0  0  0  0  0  0
   -0.9479    0.0628    0.0000 C   0  0  0  0  0  0  0  0  0  0  0  0
    0.5573   -0.0934    0.0000 N   0  0  0  0  0  0  0  0  0  0  0  0
   -0.2327   -0.3496    0.0000 C   0  0  0  0  0  0  0  0  0  0  0  0
   -0.2320   -1.1808    0.0000 C   0  0  0  0  0  0  0  0  0  0  0  0
    0.5594   -1.4357    0.0000 S   0  0  0  0  0  0  0  0  0  0  0  0
    1.0451   -0.7612    0.0000 C   0  0  0  0  0  0  0  0  0  0  0  0
    1.8701   -0.7583    0.0000 N   0  0  0  0  0  0  0  0  0  0  0  0
    2.6917   -0.7583    0.0000 N   0  0  0  0  0  0  0  0  0  0  0  0
    2.3868   -2.7101    0.0000 N   0  0  0  0  0  0  0  0  0  0  0  0
    2.3861   -3.5351    0.0000 C   0  0  0  0  0  0  0  0  0  0  0  0
    3.0995   -3.9444    0.0000 O   0  0  0  0  0  0  0  0  0  0  0  0
    5.2480   -2.7091    0.0000 N   0  0  0  0  0  0  0  0  0  0  0  0
    5.2492   -3.5341    0.0000 C   0  0  0  0  0  0  0  0  0  0  0  0
    5.9618   -2.2954    0.0000 C   0  0  0  0  0  0  0  0  0  0  0  0
    5.9605   -1.4704    0.0000 C   0  0  0  0  0  0  0  0  0  0  0  0
    6.6743   -1.0568    0.0000 O   0  0  0  0  0  0  0  0  0  0  0  0
    7.3894   -1.4682    0.0000 C   0  0  0  0  0  0  0  0  0  0  0  0
    7.3907   -2.2932    0.0000 O   0  0  0  0  0  0  0  0  0  0  0  0
    8.1032   -1.0546    0.0000 C   0  0  0  0  0  0  0  0  0  0  0  0
    5.9644   -3.9454    0.0000 C   0  0  0  0  0  0  0  0  0  0  0  0
    6.6782   -3.5318    0.0000 O   0  0  0  0  0  0  0  0  0  0  0  0
    7.3933   -3.9432    0.0000 C   0  0  0  0  0  0  0  0  0  0  0  0
    8.1071   -3.5296    0.0000 C   0  0  0  0  0  0  0  0  0  0  0  0
    1.6721   -3.9483    0.0000 C   0  0  0  0  0  0  0  0  0  0  0  0
    0.9604   -3.5337    0.0000 C   0  0  0  0  0  0  0  0  0  0  0  0
    0.2468   -3.9462    0.0000 C   0  0  0  0  0  0  0  0  0  0  0  0
    0.2472   -4.7721    0.0000 C   0  0  0  0  0  0  0  0  0  0  0  0
    0.9671   -5.1838    0.0000 C   0  0  0  0  0  0  0  0  0  0  0  0
    1.6777   -4.7689    0.0000 C   0  0  0  0  0  0  0  0  0  0  0  0
    7.3946   -4.7682    0.0000 O   0  0  0  0  0  0  0  0  0  0  0  0
   -2.3757   -1.5893    0.0000 Cl  0  0  0  0  0  0  0  0  0  0  0  0
 18 19  1  0  0  0  0
  4  5  1  0  0  0  0
 20 19  2  0  0  0  0
 12 10  2  0  0  0  0
  4 21  1  0  0  0  0
 10  7  1  0  0  0  0
 21 22  1  0  0  0  0
 12 13  1  0  0  0  0
 21 23  1  0  0  0  0
  2  3  1  0  0  0  0
 23 24  1  0  0  0  0
  5  6  2  0  0  0  0
 24 25  1  0  0  0  0
  6  1  1  0  0  0  0
 25 26  1  0  0  0  0
  1  2  2  0  0  0  0
 26 27  2  0  0  0  0
  3  4  2  0  0  0  0
 26 28  1  0  0  0  0
 11 12  1  0  0  0  0
 22 29  1  0  0  0  0
 13 14  1  0  0  0  0
 29 30  1  0  0  0  0
 14 15  1  0  0  0  0
 30 31  1  0  0  0  0
 15 11  2  0  0  0  0
 31 32  1  0  0  0  0
  7  8  2  0  0  0  0
 19 33  1  0  0  0  0
 15 16  1  0  0  0  0
 33 34  2  0  0  0  0
 34 35  1  0  0  0  0
 16 17  2  0  0  0  0
 35 36  2  0  0  0  0
 17  1  1  0  0  0  0
 36 37  1  0  0  0  0
  8  9  1  0  0  0  0
 37 38  2  0  0  0  0
 38 33  1  0  0  0  0
  2 18  1  0  0  0  0
 31 39  2  0  0  0  0
  9 13  2  0  0  0  0
  8 40  1  0  0  0  0
M  END