470
  Mrv0541 04071411322D          

 26 29  0  0  0  0            999 V2000
    6.5258   -5.0896    0.0000 O   0  0  0  0  0  0  0  0  0  0  0  0
    6.5288   -4.2646    0.0000 C   0  0  0  0  0  0  0  0  0  0  0  0
    7.2469   -3.8527    0.0000 C   0  0  0  0  0  0  0  0  0  0  0  0
    7.2482   -3.0320    0.0000 C   0  0  0  0  0  0  0  0  0  0  0  0
    6.5358   -2.6161    0.0000 C   0  0  0  0  0  0  0  0  0  0  0  0
    6.5409   -1.7911    0.0000 O   0  0  0  0  0  0  0  0  0  0  0  0
    5.8219   -3.0210    0.0000 C   0  0  0  0  0  0  0  0  0  0  0  0
    5.1073   -2.6066    0.0000 C   0  0  0  0  0  0  0  0  0  0  0  0
    5.1095   -1.7817    0.0000 N   0  0  0  0  0  0  0  0  0  0  0  0
    4.3913   -3.0165    0.0000 C   0  0  0  0  0  0  0  0  0  0  0  0
    3.6779   -2.6021    0.0000 O   0  0  0  0  0  0  0  0  0  0  0  0
    2.9624   -3.0126    0.0000 C   0  0  0  0  0  0  0  0  0  0  0  0
    2.2460   -2.5976    0.0000 C   0  0  0  0  0  0  0  0  0  0  0  0
    1.5351   -3.0074    0.0000 C   0  0  0  0  0  0  0  0  0  0  0  0
    1.5321   -3.8324    0.0000 C   0  0  0  0  0  0  0  0  0  0  0  0
    2.2400   -4.2476    0.0000 C   0  0  0  0  0  0  0  0  0  0  0  0
    2.9593   -3.8376    0.0000 C   0  0  0  0  0  0  0  0  0  0  0  0
    0.8155   -4.2412    0.0000 Br  0  0  0  0  0  0  0  0  0  0  0  0
    4.3898   -3.8443    0.0000 C   0  0  0  0  0  0  0  0  0  0  0  0
    5.1004   -4.2551    0.0000 C   0  0  0  0  0  0  0  0  0  0  0  0
    5.0971   -5.0802    0.0000 O   0  0  0  0  0  0  0  0  0  0  0  0
    5.8163   -3.8488    0.0000 C   0  0  0  0  0  0  0  0  0  0  0  0
    7.9663   -2.6200    0.0000 C   0  0  0  0  0  0  0  0  0  0  0  0
    8.6789   -3.0359    0.0000 C   0  0  0  0  0  0  0  0  0  0  0  0
    8.6733   -3.8637    0.0000 C   0  0  0  0  0  0  0  0  0  0  0  0
    7.9594   -4.2685    0.0000 C   0  0  0  0  0  0  0  0  0  0  0  0
  1  2  2  0  0  0  0
  2  3  1  0  0  0  0
  3  4  1  0  0  0  0
  4  5  1  0  0  0  0
  5  6  2  0  0  0  0
  5  7  1  0  0  0  0
  7  8  1  0  0  0  0
  8  9  1  0  0  0  0
  8 10  2  0  0  0  0
 10 11  1  0  0  0  0
 11 12  1  0  0  0  0
 12 13  1  0  0  0  0
 13 14  2  0  0  0  0
 14 15  1  0  0  0  0
 15 16  2  0  0  0  0
 16 17  1  0  0  0  0
 17 12  2  0  0  0  0
 15 18  1  0  0  0  0
 10 19  1  0  0  0  0
 19 20  2  0  0  0  0
 20 21  1  0  0  0  0
 20 22  1  0  0  0  0
 22  2  1  0  0  0  0
 22  7  2  0  0  0  0
  4 23  2  0  0  0  0
 23 24  1  0  0  0  0
 24 25  2  0  0  0  0
 25 26  1  0  0  0  0
 26  3  2  0  0  0  0
M  END