471
  Mrv0541 04071411322D          

 25 27  0  0  0  0            999 V2000
    2.8320   -2.4875    0.0000 C   0  0  0  0  0  0  0  0  0  0  0  0
    2.8308   -3.3149    0.0000 C   0  0  0  0  0  0  0  0  0  0  0  0
    3.5457   -3.7278    0.0000 C   0  0  0  0  0  0  0  0  0  0  0  0
    3.5439   -2.0748    0.0000 C   0  0  0  0  0  0  0  0  0  0  0  0
    4.2592   -2.4838    0.0000 C   0  0  0  0  0  0  0  0  0  0  0  0
    4.2600   -3.3108    0.0000 C   0  0  0  0  0  0  0  0  0  0  0  0
    4.9754   -3.7217    0.0000 C   0  0  0  0  0  0  0  0  0  0  0  0
    5.6904   -3.3070    0.0000 C   0  0  0  0  0  0  0  0  0  0  0  0
    5.6857   -2.4769    0.0000 C   0  0  0  0  0  0  0  0  0  0  0  0
    4.9698   -2.0698    0.0000 C   0  0  0  0  0  0  0  0  0  0  0  0
    2.1174   -2.0752    0.0000 O   0  0  0  0  0  0  0  0  0  0  0  0
    3.5414   -1.2497    0.0000 N   0  0  0  0  0  0  0  0  0  0  0  0
    3.5376   -0.4250    0.0000 N   0  0  0  0  0  0  0  0  0  0  0  0
    3.5334    0.3958    0.0000 C   0  0  0  0  0  0  0  0  0  0  0  0
    4.2445    0.8080    0.0000 C   0  0  0  0  0  0  0  0  0  0  0  0
    4.2407    1.6282    0.0000 C   0  0  0  0  0  0  0  0  0  0  0  0
    3.5272    2.0358    0.0000 C   0  0  0  0  0  0  0  0  0  0  0  0
    2.8161    1.6174    0.0000 C   0  0  0  0  0  0  0  0  0  0  0  0
    2.8234    0.7986    0.0000 C   0  0  0  0  0  0  0  0  0  0  0  0
    3.5219    2.8608    0.0000 Cl  0  0  0  0  0  0  0  0  0  0  0  0
    4.9534    2.0440    0.0000 C   0  0  0  0  0  0  0  0  0  0  0  0
    2.1124    0.3802    0.0000 S   0  0  0  0  0  0  0  0  0  0  0  0
    1.3958    0.9499    0.0000 O   0  0  0  0  0  0  0  0  0  0  0  0
    1.5167   -0.0542    0.0000 O   0  0  0  0  0  0  0  0  0  0  0  0
    2.6918   -0.1958    0.0000 O   0  0  0  0  0  0  0  0  0  0  0  0
  4 12  1  0  0  0  0
 12 13  2  0  0  0  0
  5  6  1  0  0  0  0
 13 14  1  0  0  0  0
  2  3  1  0  0  0  0
 14 15  2  0  0  0  0
  6  7  1  0  0  0  0
 15 16  1  0  0  0  0
  3  6  2  0  0  0  0
 16 17  2  0  0  0  0
  7  8  2  0  0  0  0
 17 18  1  0  0  0  0
 18 19  2  0  0  0  0
 19 14  1  0  0  0  0
  8  9  1  0  0  0  0
 17 20  1  0  0  0  0
  5  4  2  0  0  0  0
 16 21  1  0  0  0  0
  9 10  2  0  0  0  0
 19 22  1  0  0  0  0
 10  5  1  0  0  0  0
 22 23  1  0  0  0  0
  4  1  1  0  0  0  0
 22 24  2  0  0  0  0
  1 11  1  0  0  0  0
 22 25  2  0  0  0  0
  1  2  2  0  0  0  0
M  END