472
  Mrv0541 04071411322D          

 27 29  0  0  0  0            999 V2000
   -0.7618   -2.7032    0.0000 C   0  0  0  0  0  0  0  0  0  0  0  0
    0.0632   -2.7032    0.0000 C   0  0  0  0  0  0  0  0  0  0  0  0
    0.4757   -1.9882    0.0000 C   0  0  0  0  0  0  0  0  0  0  0  0
    0.0632   -1.2733    0.0000 C   0  0  0  0  0  0  0  0  0  0  0  0
   -0.7618   -1.2733    0.0000 C   0  0  0  0  0  0  0  0  0  0  0  0
   -1.1743   -1.9882    0.0000 C   0  0  0  0  0  0  0  0  0  0  0  0
    0.4757   -0.5582    0.0000 C   0  0  0  0  0  0  0  0  0  0  0  0
    0.0632    0.1540    0.0000 C   0  0  0  0  0  0  0  0  0  0  0  0
   -0.7618    0.1540    0.0000 C   0  0  0  0  0  0  0  0  0  0  0  0
   -1.1743   -0.5582    0.0000 C   0  0  0  0  0  0  0  0  0  0  0  0
   -1.1743    0.8690    0.0000 C   0  0  0  0  0  0  0  0  0  0  0  0
   -0.7618    1.5840    0.0000 O   0  0  0  0  0  0  0  0  0  0  0  0
   -1.9993    0.8690    0.0000 O   0  0  0  0  0  0  0  0  0  0  0  0
    0.4757    0.8690    0.0000 O   0  0  0  0  0  0  0  0  0  0  0  0
    1.2980   -0.5582    0.0000 N   0  0  0  0  0  0  0  0  0  0  0  0
    2.1230   -0.5582    0.0000 N   0  0  0  0  0  0  0  0  0  0  0  0
    2.9480   -0.5582    0.0000 C   0  0  0  0  0  0  0  0  0  0  0  0
    3.3605   -1.2733    0.0000 C   0  0  0  0  0  0  0  0  0  0  0  0
    4.1855   -1.2733    0.0000 C   0  0  0  0  0  0  0  0  0  0  0  0
    4.5980   -0.5582    0.0000 C   0  0  0  0  0  0  0  0  0  0  0  0
    4.1855    0.1540    0.0000 C   0  0  0  0  0  0  0  0  0  0  0  0
    3.3605    0.1540    0.0000 C   0  0  0  0  0  0  0  0  0  0  0  0
    5.4230   -0.5582    0.0000 C   0  0  0  0  0  0  0  0  0  0  0  0
    2.9480    0.8690    0.0000 S   0  0  0  0  0  0  0  0  0  0  0  0
    2.5355    1.5840    0.0000 O   0  0  0  0  0  0  0  0  0  0  0  0
    2.2330    0.4565    0.0000 O   0  0  0  0  0  0  0  0  0  0  0  0
    3.6630    1.2815    0.0000 O   0  0  0  0  0  0  0  0  0  0  0  0
  1  2  2  0  0  0  0
  2  3  1  0  0  0  0
  3  4  2  0  0  0  0
  4  5  1  0  0  0  0
  5  6  2  0  0  0  0
  1  6  1  0  0  0  0
  4  7  1  0  0  0  0
  7  8  2  0  0  0  0
  8  9  1  0  0  0  0
  9 10  2  0  0  0  0
  5 10  1  0  0  0  0
  9 11  1  0  0  0  0
 11 12  1  0  0  0  0
 11 13  2  0  0  0  0
  8 14  1  0  0  0  0
  7 15  1  0  0  0  0
 15 16  2  0  0  0  0
 16 17  1  0  0  0  0
 17 18  2  0  0  0  0
 18 19  1  0  0  0  0
 19 20  2  0  0  0  0
 20 21  1  0  0  0  0
 21 22  2  0  0  0  0
 17 22  1  0  0  0  0
 20 23  1  0  0  0  0
 22 24  1  0  0  0  0
 24 25  1  0  0  0  0
 24 26  2  0  0  0  0
 24 27  2  0  0  0  0
M  END