473
  Mrv0541 04071411322D          

 14 15  0  0  0  0            999 V2000
   -1.2169   -0.6565    0.0000 C   0  0  0  0  0  0  0  0  0  0  0  0
   -1.2271    0.1719    0.0000 C   0  0  0  0  0  0  0  0  0  0  0  0
    0.2165   -0.6565    0.0000 N   0  0  0  0  0  0  0  0  0  0  0  0
   -1.9353   -1.0656    0.0000 C   0  0  0  0  0  0  0  0  0  0  0  0
   -0.5156    0.5947    0.0000 S   0  0  0  0  0  0  0  0  0  0  0  0
   -1.9353    0.5775    0.0000 C   0  0  0  0  0  0  0  0  0  0  0  0
    0.2063    0.1787    0.0000 C   0  0  0  0  0  0  0  0  0  0  0  0
   -2.6469   -0.6565    0.0000 C   0  0  0  0  0  0  0  0  0  0  0  0
   -2.6469    0.1685    0.0000 C   0  0  0  0  0  0  0  0  0  0  0  0
    0.9178    0.5912    0.0000 S   0  0  0  0  0  0  0  0  0  0  0  0
    1.6294    0.1822    0.0000 C   0  0  0  0  0  0  0  0  0  0  0  0
    2.3374    0.5947    0.0000 S   0  0  0  0  0  0  0  0  0  0  0  0
    3.0490    0.1925    0.0000 C   0  0  0  0  0  0  0  0  0  0  0  0
    3.7674   -0.2200    0.0000 N   0  0  0  0  0  0  0  0  0  0  0  0
  1  2  1  0  0  0  0
  1  3  1  0  0  0  0
  1  4  2  0  0  0  0
  2  5  1  0  0  0  0
  2  6  2  0  0  0  0
  3  7  2  0  0  0  0
  4  8  1  0  0  0  0
  6  9  1  0  0  0  0
  7 10  1  0  0  0  0
 10 11  1  0  0  0  0
 11 12  1  0  0  0  0
 12 13  1  0  0  0  0
 13 14  3  0  0  0  0
  5  7  1  0  0  0  0
  8  9  2  0  0  0  0
M  END