52
  Mrv0541 04071411322D          

 17 19  0  0  0  0            999 V2000
    0.3789    0.3697    0.0000 C   0  0  0  0  0  0  0  0  0  0  0  0
    0.3789   -0.4635    0.0000 C   0  0  0  0  0  0  0  0  0  0  0  0
   -0.3385    0.7707    0.0000 O   0  0  0  0  0  0  0  0  0  0  0  0
    1.0926    0.7707    0.0000 C   0  0  0  0  0  0  0  0  0  0  0  0
   -0.3385   -0.8774    0.0000 O   0  0  0  0  0  0  0  0  0  0  0  0
    1.0926   -0.8774    0.0000 C   0  0  0  0  0  0  0  0  0  0  0  0
   -1.0521    0.3697    0.0000 C   0  0  0  0  0  0  0  0  0  0  0  0
    1.8081    0.3697    0.0000 C   0  0  0  0  0  0  0  0  0  0  0  0
    1.0926    1.6039    0.0000 Cl  0  0  0  0  0  0  0  0  0  0  0  0
   -1.0521   -0.4635    0.0000 C   0  0  0  0  0  0  0  0  0  0  0  0
    1.8081   -0.4635    0.0000 C   0  0  0  0  0  0  0  0  0  0  0  0
    1.0926   -1.6941    0.0000 Cl  0  0  0  0  0  0  0  0  0  0  0  0
   -1.7658    0.7707    0.0000 C   0  0  0  0  0  0  0  0  0  0  0  0
    2.5328    0.7854    0.0000 Cl  0  0  0  0  0  0  0  0  0  0  0  0
   -1.7658   -0.8774    0.0000 C   0  0  0  0  0  0  0  0  0  0  0  0
   -2.4813    0.3697    0.0000 C   0  0  0  0  0  0  0  0  0  0  0  0
   -2.4813   -0.4635    0.0000 C   0  0  0  0  0  0  0  0  0  0  0  0
  1  2  2  0  0  0  0
  1  3  1  0  0  0  0
  1  4  1  0  0  0  0
  2  5  1  0  0  0  0
  2  6  1  0  0  0  0
  3  7  1  0  0  0  0
  4  8  2  0  0  0  0
  4  9  1  0  0  0  0
  5 10  1  0  0  0  0
  6 11  2  0  0  0  0
  6 12  1  0  0  0  0
  7 13  1  0  0  0  0
  8 14  1  0  0  0  0
 10 15  1  0  0  0  0
 13 16  2  0  0  0  0
 15 17  2  0  0  0  0
  7 10  2  0  0  0  0
  8 11  1  0  0  0  0
 16 17  1  0  0  0  0
M  END