53
  Mrv0541 04071411322D          

 18 20  0  0  0  0            999 V2000
    0.2388   -0.4093    0.0000 C   0  0  0  0  0  0  0  0  0  0  0  0
    0.2388    0.4093    0.0000 C   0  0  0  0  0  0  0  0  0  0  0  0
   -0.4775   -0.8186    0.0000 O   0  0  0  0  0  0  0  0  0  0  0  0
    0.9593   -0.8186    0.0000 C   0  0  0  0  0  0  0  0  0  0  0  0
   -0.4775    0.8228    0.0000 O   0  0  0  0  0  0  0  0  0  0  0  0
    0.9593    0.8228    0.0000 C   0  0  0  0  0  0  0  0  0  0  0  0
   -1.2023   -0.4093    0.0000 C   0  0  0  0  0  0  0  0  0  0  0  0
    1.6756   -0.4093    0.0000 C   0  0  0  0  0  0  0  0  0  0  0  0
    0.9593   -1.6330    0.0000 Cl  0  0  0  0  0  0  0  0  0  0  0  0
   -1.2023    0.4093    0.0000 C   0  0  0  0  0  0  0  0  0  0  0  0
    1.6756    0.4093    0.0000 C   0  0  0  0  0  0  0  0  0  0  0  0
    0.9593    1.6074    0.0000 Cl  0  0  0  0  0  0  0  0  0  0  0  0
   -1.9100   -0.8186    0.0000 C   0  0  0  0  0  0  0  0  0  0  0  0
    2.4899   -0.7035    0.0000 Cl  0  0  0  0  0  0  0  0  0  0  0  0
   -1.9100    0.8228    0.0000 C   0  0  0  0  0  0  0  0  0  0  0  0
    2.2938    0.7163    0.0000 Cl  0  0  0  0  0  0  0  0  0  0  0  0
   -2.6263   -0.4093    0.0000 C   0  0  0  0  0  0  0  0  0  0  0  0
   -2.6263    0.4093    0.0000 C   0  0  0  0  0  0  0  0  0  0  0  0
  1  2  2  0  0  0  0
  1  3  1  0  0  0  0
  1  4  1  0  0  0  0
  2  5  1  0  0  0  0
  2  6  1  0  0  0  0
  3  7  1  0  0  0  0
  4  8  2  0  0  0  0
  4  9  1  0  0  0  0
  5 10  1  0  0  0  0
  6 11  2  0  0  0  0
  6 12  1  0  0  0  0
  7 13  1  0  0  0  0
  8 14  1  0  0  0  0
 10 15  1  0  0  0  0
 11 16  1  0  0  0  0
 13 17  2  0  0  0  0
 15 18  2  0  0  0  0
  7 10  2  0  0  0  0
  8 11  1  0  0  0  0
 17 18  1  0  0  0  0
M  END