54
  Mrv0541 04071411322D          

 18 20  0  0  0  0            999 V2000
    6.5445   -4.3452    0.0000 C   0  0  0  0  0  0  0  0  0  0  0  0
    6.5445   -3.5267    0.0000 C   0  0  0  0  0  0  0  0  0  0  0  0
    5.8283   -4.7546    0.0000 O   0  0  0  0  0  0  0  0  0  0  0  0
    7.2651   -4.7546    0.0000 C   0  0  0  0  0  0  0  0  0  0  0  0
    5.8283   -3.1131    0.0000 O   0  0  0  0  0  0  0  0  0  0  0  0
    7.2651   -3.1131    0.0000 C   0  0  0  0  0  0  0  0  0  0  0  0
    5.1035   -4.3452    0.0000 C   0  0  0  0  0  0  0  0  0  0  0  0
    7.9814   -4.3452    0.0000 C   0  0  0  0  0  0  0  0  0  0  0  0
    5.1035   -3.5267    0.0000 C   0  0  0  0  0  0  0  0  0  0  0  0
    7.9814   -3.5267    0.0000 C   0  0  0  0  0  0  0  0  0  0  0  0
    7.2651   -2.3286    0.0000 Cl  0  0  0  0  0  0  0  0  0  0  0  0
    4.3957   -4.7546    0.0000 C   0  0  0  0  0  0  0  0  0  0  0  0
    8.7957   -4.6394    0.0000 Cl  0  0  0  0  0  0  0  0  0  0  0  0
    4.3957   -3.1131    0.0000 C   0  0  0  0  0  0  0  0  0  0  0  0
    8.5996   -3.2197    0.0000 Cl  0  0  0  0  0  0  0  0  0  0  0  0
    3.6795   -4.3452    0.0000 C   0  0  0  0  0  0  0  0  0  0  0  0
    3.6795   -3.5267    0.0000 C   0  0  0  0  0  0  0  0  0  0  0  0
    3.0911   -4.9251    0.0000 Cl  0  0  0  0  0  0  0  0  0  0  0  0
  1  2  2  0  0  0  0
  1  3  1  0  0  0  0
  1  4  1  0  0  0  0
  2  5  1  0  0  0  0
  2  6  1  0  0  0  0
  3  7  1  0  0  0  0
  4  8  2  0  0  0  0
  5  9  1  0  0  0  0
  6 10  2  0  0  0  0
  6 11  1  0  0  0  0
  7 12  1  0  0  0  0
  8 13  1  0  0  0  0
  9 14  1  0  0  0  0
 10 15  1  0  0  0  0
 12 16  2  0  0  0  0
 14 17  2  0  0  0  0
  7  9  2  0  0  0  0
  8 10  1  0  0  0  0
 16 17  1  0  0  0  0
 16 18  1  0  0  0  0
M  END