56
  Mrv0541 04071411322D          

 25 24  0  0  0  0            999 V2000
   -0.2874    0.0000    0.0000 C   0  0  0  0  0  0  0  0  0  0  0  0
    0.5257    0.0000    0.0000 C   0  0  0  0  0  0  0  0  0  0  0  0
   -1.1203    0.0000    0.0000 C   0  0  0  0  0  0  0  0  0  0  0  0
   -0.2874   -0.8171    0.0000 F   0  0  0  0  0  0  0  0  0  0  0  0
   -0.2874    0.8171    0.0000 F   0  0  0  0  0  0  0  0  0  0  0  0
    1.3545    0.0000    0.0000 C   0  0  0  0  0  0  0  0  0  0  0  0
    0.5257   -0.8171    0.0000 F   0  0  0  0  0  0  0  0  0  0  0  0
    0.5257    0.8171    0.0000 F   0  0  0  0  0  0  0  0  0  0  0  0
   -1.9551    0.0000    0.0000 C   0  0  0  0  0  0  0  0  0  0  0  0
   -1.1203    0.8171    0.0000 F   0  0  0  0  0  0  0  0  0  0  0  0
   -1.1203   -0.8171    0.0000 F   0  0  0  0  0  0  0  0  0  0  0  0
    2.1835    0.0000    0.0000 C   0  0  0  0  0  0  0  0  0  0  0  0
    1.3545    0.8171    0.0000 F   0  0  0  0  0  0  0  0  0  0  0  0
    1.3545   -0.8171    0.0000 F   0  0  0  0  0  0  0  0  0  0  0  0
   -2.7820    0.0000    0.0000 C   0  0  0  0  0  0  0  0  0  0  0  0
   -1.9551    0.8171    0.0000 F   0  0  0  0  0  0  0  0  0  0  0  0
   -1.9551   -0.8171    0.0000 F   0  0  0  0  0  0  0  0  0  0  0  0
    3.0085    0.0000    0.0000 C   0  0  0  0  0  0  0  0  0  0  0  0
    2.1835    0.8171    0.0000 F   0  0  0  0  0  0  0  0  0  0  0  0
    2.1835   -0.8171    0.0000 F   0  0  0  0  0  0  0  0  0  0  0  0
   -3.5951    0.0000    0.0000 F   0  0  0  0  0  0  0  0  0  0  0  0
   -2.7820    0.8171    0.0000 F   0  0  0  0  0  0  0  0  0  0  0  0
   -2.7820   -0.8171    0.0000 F   0  0  0  0  0  0  0  0  0  0  0  0
    3.4140   -0.6970    0.0000 O   0  0  0  0  0  0  0  0  0  0  0  0
    3.4140    0.6970    0.0000 O   0  0  0  0  0  0  0  0  0  0  0  0
  1  2  1  0  0  0  0
  1  3  1  0  0  0  0
  1  4  1  0  0  0  0
  1  5  1  0  0  0  0
  2  6  1  0  0  0  0
  2  7  1  0  0  0  0
  2  8  1  0  0  0  0
  3  9  1  0  0  0  0
  3 10  1  0  0  0  0
  3 11  1  0  0  0  0
  6 12  1  0  0  0  0
  6 13  1  0  0  0  0
  6 14  1  0  0  0  0
  9 15  1  0  0  0  0
  9 16  1  0  0  0  0
  9 17  1  0  0  0  0
 12 18  1  0  0  0  0
 12 19  1  0  0  0  0
 12 20  1  0  0  0  0
 15 21  1  0  0  0  0
 15 22  1  0  0  0  0
 15 23  1  0  0  0  0
 18 24  1  0  0  0  0
 18 25  2  0  0  0  0
M  END