57
  Mrv0541 04071411322D          

 29 28  0  0  0  0            999 V2000
   -1.3528   -3.0981    0.0000 C   0  0  0  0  0  0  0  0  0  0  0  0
   -0.6972   -2.7223    0.0000 C   0  0  0  0  0  0  0  0  0  0  0  0
    0.0752   -3.0981    0.0000 C   0  0  0  0  0  0  0  0  0  0  0  0
    0.7891   -2.6848    0.0000 C   0  0  0  0  0  0  0  0  0  0  0  0
    1.5031   -3.0981    0.0000 C   0  0  0  0  0  0  0  0  0  0  0  0
    2.2171   -2.6848    0.0000 C   0  0  0  0  0  0  0  0  0  0  0  0
    2.9311   -3.0981    0.0000 C   0  0  0  0  0  0  0  0  0  0  0  0
    3.6450   -2.6848    0.0000 C   0  0  0  0  0  0  0  0  0  0  0  0
   -1.5699   -3.8956    0.0000 F   0  0  0  0  0  0  0  0  0  0  0  0
   -2.1545   -2.8810    0.0000 F   0  0  0  0  0  0  0  0  0  0  0  0
    0.4301   -1.8747    0.0000 F   0  0  0  0  0  0  0  0  0  0  0  0
   -0.3424   -3.8121    0.0000 F   0  0  0  0  0  0  0  0  0  0  0  0
    0.6597   -3.6826    0.0000 F   0  0  0  0  0  0  0  0  0  0  0  0
    1.3736   -2.0960    0.0000 F   0  0  0  0  0  0  0  0  0  0  0  0
   -1.1148   -2.0041    0.0000 F   0  0  0  0  0  0  0  0  0  0  0  0
   -0.2881   -2.0041    0.0000 F   0  0  0  0  0  0  0  0  0  0  0  0
   -1.5699   -2.2964    0.0000 F   0  0  0  0  0  0  0  0  0  0  0  0
    1.2860   -3.8956    0.0000 F   0  0  0  0  0  0  0  0  0  0  0  0
    1.9123   -3.8121    0.0000 F   0  0  0  0  0  0  0  0  0  0  0  0
    1.9999   -1.8831    0.0000 F   0  0  0  0  0  0  0  0  0  0  0  0
    2.6262   -1.9666    0.0000 F   0  0  0  0  0  0  0  0  0  0  0  0
    2.7139   -3.8956    0.0000 F   0  0  0  0  0  0  0  0  0  0  0  0
    3.5156   -3.6826    0.0000 F   0  0  0  0  0  0  0  0  0  0  0  0
    4.3715   -3.0646    0.0000 S   0  0  0  0  0  0  0  0  0  0  0  0
    3.8580   -1.8831    0.0000 F   0  0  0  0  0  0  0  0  0  0  0  0
    3.0563   -2.0960    0.0000 F   0  0  0  0  0  0  0  0  0  0  0  0
    4.6221   -2.2839    0.0000 O   0  0  0  0  0  0  0  0  0  0  0  0
    4.2129   -3.6909    0.0000 O   0  0  0  0  0  0  0  0  0  0  0  0
    5.0605   -3.3486    0.0000 O   0  0  0  0  0  0  0  0  0  0  0  0
  2 15  1  0  0  0  0
  7  8  1  0  0  0  0
  2 16  1  0  0  0  0
  1 17  1  0  0  0  0
  1  9  1  0  0  0  0
  5 18  1  0  0  0  0
  4  5  1  0  0  0  0
  5 19  1  0  0  0  0
  1 10  1  0  0  0  0
  6 20  1  0  0  0  0
  2  3  1  0  0  0  0
  6 21  1  0  0  0  0
  4 11  1  0  0  0  0
  7 22  1  0  0  0  0
  5  6  1  0  0  0  0
  7 23  1  0  0  0  0
  3 12  1  0  0  0  0
  8 24  1  0  0  0  0
  1  2  1  0  0  0  0
  8 25  1  0  0  0  0
  3 13  1  0  0  0  0
  8 26  1  0  0  0  0
  6  7  1  0  0  0  0
 24 27  2  0  0  0  0
  4 14  1  0  0  0  0
 24 28  2  0  0  0  0
  3  4  1  0  0  0  0
 24 29  1  0  0  0  0
M  END