58
  Mrv0541 04071411322D          

  5  4  0  0  0  0            999 V2000
   -0.2846   -0.0018    0.0000 C   0  0  0  0  0  0  0  0  0  0  0  0
    0.4271    0.4123    0.0000 C   0  0  0  0  0  0  0  0  0  0  0  0
   -0.2846   -0.8208    0.0000 C   0  0  0  0  0  0  0  0  0  0  0  0
   -1.0020    0.4123    0.0000 C   0  0  0  0  0  0  0  0  0  0  0  0
    1.1425   -0.0018    0.0000 C   0  0  0  0  0  0  0  0  0  0  0  0
  1  2  1  0  0  0  0
  1  3  1  0  0  0  0
  1  4  2  0  0  0  0
  2  5  2  0  0  0  0
M  END