60
  Mrv0541 04071411322D          

  9  8  0  0  0  0            999 V2000
    0.0018    0.1812    0.0000 C   0  0  0  0  0  0  0  0  0  0  0  0
    0.7158   -0.2275    0.0000 C   0  0  0  0  0  0  0  0  0  0  0  0
   -0.7139   -0.2275    0.0000 C   0  0  0  0  0  0  0  0  0  0  0  0
    1.4316    0.1812    0.0000 C   0  0  0  0  0  0  0  0  0  0  0  0
   -1.4297    0.1812    0.0000 C   0  0  0  0  0  0  0  0  0  0  0  0
    2.1491   -0.2275    0.0000 C   0  0  0  0  0  0  0  0  0  0  0  0
   -2.1547   -0.2275    0.0000 C   0  0  0  0  0  0  0  0  0  0  0  0
    2.8724    0.1812    0.0000 C   0  0  0  0  0  0  0  0  0  0  0  0
   -2.8724    0.1812    0.0000 C   0  0  0  0  0  0  0  0  0  0  0  0
  1  2  1  0  0  0  0
  1  3  1  0  0  0  0
  2  4  1  0  0  0  0
  3  5  1  0  0  0  0
  4  6  1  0  0  0  0
  5  7  1  0  0  0  0
  6  8  1  0  0  0  0
  7  9  2  0  0  0  0
M  END