62
  Mrv0541 04071411322D          

 10  9  0  0  0  0            999 V2000
   -0.4202   -0.1171    0.0000 C   0  0  0  0  0  0  0  0  0  0  0  0
    0.2583    0.3204    0.0000 C   0  0  0  0  0  0  0  0  0  0  0  0
   -1.0402    0.4271    0.0000 C   0  0  0  0  0  0  0  0  0  0  0  0
   -1.0298   -0.6820    0.0000 C   0  0  0  0  0  0  0  0  0  0  0  0
    0.0827   -0.7715    0.0000 C   0  0  0  0  0  0  0  0  0  0  0  0
    1.0023   -0.0345    0.0000 C   0  0  0  0  0  0  0  0  0  0  0  0
    0.2204    1.1504    0.0000 O   0  0  0  0  0  0  0  0  0  0  0  0
   -1.8289    0.1791    0.0000 O   0  0  0  0  0  0  0  0  0  0  0  0
    1.7014    0.3961    0.0000 C   0  0  0  0  0  0  0  0  0  0  0  0
    1.0540   -0.8680    0.0000 C   0  0  0  0  0  0  0  0  0  0  0  0
  1  2  1  0  0  0  0
  1  3  1  0  0  0  0
  1  4  1  0  0  0  0
  1  5  1  0  0  0  0
  2  6  1  0  0  0  0
  2  7  1  0  0  0  0
  3  8  1  0  0  0  0
  6  9  1  0  0  0  0
  6 10  1  0  0  0  0
M  END