63
  Mrv0541 04071411322D          

  7  6  0  0  0  0            999 V2000
   -0.0090   -0.1219    0.0000 C   0  0  0  0  0  0  0  0  0  0  0  0
   -0.6956    0.2800    0.0000 C   0  0  0  0  0  0  0  0  0  0  0  0
    0.6933    0.2800    0.0000 C   0  0  0  0  0  0  0  0  0  0  0  0
    0.0045   -1.0072    0.0000 C   0  0  0  0  0  0  0  0  0  0  0  0
   -0.0090    0.8108    0.0000 C   0  0  0  0  0  0  0  0  0  0  0  0
   -1.4071   -0.1219    0.0000 O   0  0  0  0  0  0  0  0  0  0  0  0
    1.4228   -0.1219    0.0000 O   0  0  0  0  0  0  0  0  0  0  0  0
  1  2  1  0  0  0  0
  1  3  1  0  0  0  0
  1  4  1  0  0  0  0
  1  5  1  0  0  0  0
  2  6  1  0  0  0  0
  3  7  1  0  0  0  0
M  END