64
  Mrv0541 04071411322D          

  9  8  0  0  0  0            999 V2000
    0.0034   -0.0034    0.0000 C   0  0  0  0  0  0  0  0  0  0  0  0
   -0.8216   -0.0034    0.0000 C   0  0  0  0  0  0  0  0  0  0  0  0
   -0.0034    0.8216    0.0000 C   0  0  0  0  0  0  0  0  0  0  0  0
   -0.0034   -0.8216    0.0000 C   0  0  0  0  0  0  0  0  0  0  0  0
    0.8285   -0.0034    0.0000 C   0  0  0  0  0  0  0  0  0  0  0  0
   -1.2358    0.7180    0.0000 O   0  0  0  0  0  0  0  0  0  0  0  0
    0.7077    1.2427    0.0000 O   0  0  0  0  0  0  0  0  0  0  0  0
   -0.7180   -1.2358    0.0000 O   0  0  0  0  0  0  0  0  0  0  0  0
    1.2427   -0.7180    0.0000 O   0  0  0  0  0  0  0  0  0  0  0  0
  1  2  1  0  0  0  0
  1  3  1  0  0  0  0
  1  4  1  0  0  0  0
  1  5  1  0  0  0  0
  2  6  1  0  0  0  0
  3  7  1  0  0  0  0
  4  8  1  0  0  0  0
  5  9  1  0  0  0  0
M  END