65
  Mrv0541 04071411322D          

  5  4  0  0  0  0            999 V2000
    0.0034   -0.1589    0.0000 O   0  0  0  0  0  0  0  0  0  0  0  0
   -0.7184    0.2418    0.0000 C   0  0  0  0  0  0  0  0  0  0  0  0
    0.7220    0.2452    0.0000 C   0  0  0  0  0  0  0  0  0  0  0  0
   -1.4370   -0.1727    0.0000 C   0  0  0  0  0  0  0  0  0  0  0  0
    1.4335   -0.1589    0.0000 C   0  0  0  0  0  0  0  0  0  0  0  0
  1  2  1  0  0  0  0
  1  3  1  0  0  0  0
  2  4  1  0  0  0  0
  3  5  1  0  0  0  0
M  END