66
  Mrv0541 04071411322D          

  9  8  0  0  0  0            999 V2000
    0.0000    0.1811    0.0000 O   0  0  0  0  0  0  0  0  0  0  0  0
   -0.7133   -0.2272    0.0000 C   0  0  0  0  0  0  0  0  0  0  0  0
    0.7115   -0.2272    0.0000 C   0  0  0  0  0  0  0  0  0  0  0  0
   -1.4265    0.1811    0.0000 C   0  0  0  0  0  0  0  0  0  0  0  0
    1.4302    0.1811    0.0000 C   0  0  0  0  0  0  0  0  0  0  0  0
   -2.1434   -0.2272    0.0000 C   0  0  0  0  0  0  0  0  0  0  0  0
    2.1434   -0.2272    0.0000 C   0  0  0  0  0  0  0  0  0  0  0  0
   -2.8640    0.1811    0.0000 C   0  0  0  0  0  0  0  0  0  0  0  0
    2.8603    0.1811    0.0000 C   0  0  0  0  0  0  0  0  0  0  0  0
  1  2  1  0  0  0  0
  1  3  1  0  0  0  0
  2  4  1  0  0  0  0
  3  5  1  0  0  0  0
  4  6  1  0  0  0  0
  5  7  1  0  0  0  0
  6  8  1  0  0  0  0
  7  9  1  0  0  0  0
M  END