69
  Mrv0541 04071411322D          

  9  8  0  0  0  0            999 V2000
   -1.4347   -0.0018    0.0000 C   0  0  0  0  0  0  0  0  0  0  0  0
   -0.7147    0.4138    0.0000 C   0  0  0  0  0  0  0  0  0  0  0  0
   -1.4347   -0.8241    0.0000 C   0  0  0  0  0  0  0  0  0  0  0  0
   -2.1512    0.4138    0.0000 O   0  0  0  0  0  0  0  0  0  0  0  0
    0.0018   -0.0018    0.0000 O   0  0  0  0  0  0  0  0  0  0  0  0
    0.7184    0.4138    0.0000 C   0  0  0  0  0  0  0  0  0  0  0  0
    1.4310   -0.0018    0.0000 C   0  0  0  0  0  0  0  0  0  0  0  0
    1.4310   -0.8241    0.0000 C   0  0  0  0  0  0  0  0  0  0  0  0
    2.1550    0.4138    0.0000 O   0  0  0  0  0  0  0  0  0  0  0  0
  1  2  1  0  0  0  0
  1  3  1  0  0  0  0
  1  4  1  0  0  0  0
  2  5  1  0  0  0  0
  5  6  1  0  0  0  0
  6  7  1  0  0  0  0
  7  8  1  0  0  0  0
  7  9  1  0  0  0  0
M  END