72
  Mrv0541 04071411322D          

  5  4  0  0  0  0            999 V2000
    0.0018    0.0390    0.0000 C   0  0  0  0  0  0  0  0  0  0  0  0
    0.5608   -0.5627    0.0000 C   0  0  0  0  0  0  0  0  0  0  0  0
   -0.6555    0.5440    0.0000 C   0  0  0  0  0  0  0  0  0  0  0  0
   -0.5627   -0.5627    0.0000 C   0  0  0  0  0  0  0  0  0  0  0  0
    0.6574    0.5440    0.0000 O   0  0  0  0  0  0  0  0  0  0  0  0
  1  2  1  0  0  0  0
  1  3  1  0  0  0  0
  1  4  1  0  0  0  0
  1  5  1  0  0  0  0
M  END