74
  Mrv0541 04071411322D          

  9  9  0  0  0  0            999 V2000
   -0.5573   -0.3119    0.0000 C   0  0  0  0  0  0  0  0  0  0  0  0
   -0.5573    0.5038    0.0000 C   0  0  0  0  0  0  0  0  0  0  0  0
    0.1513   -0.7271    0.0000 C   0  0  0  0  0  0  0  0  0  0  0  0
   -1.2734   -0.7253    0.0000 C   0  0  0  0  0  0  0  0  0  0  0  0
    0.1624    0.9116    0.0000 C   0  0  0  0  0  0  0  0  0  0  0  0
   -1.2660    0.9190    0.0000 C   0  0  0  0  0  0  0  0  0  0  0  0
    0.8748   -0.3303    0.0000 C   0  0  0  0  0  0  0  0  0  0  0  0
    0.8748    0.4983    0.0000 C   0  0  0  0  0  0  0  0  0  0  0  0
    1.5908   -0.7401    0.0000 C   0  0  0  0  0  0  0  0  0  0  0  0
  1  2  2  0  0  0  0
  1  3  1  0  0  0  0
  1  4  1  0  0  0  0
  2  5  1  0  0  0  0
  2  6  1  0  0  0  0
  3  7  2  0  0  0  0
  5  8  2  0  0  0  0
  7  9  1  0  0  0  0
  7  8  1  0  0  0  0
M  END