78
  Mrv0541 04071411322D          

 10 10  0  0  0  0            999 V2000
    0.0000   -0.5743    0.0000 C   0  0  0  0  0  0  0  0  0  0  0  0
   -0.7151   -0.1630    0.0000 C   0  0  0  0  0  0  0  0  0  0  0  0
    0.7151   -0.1630    0.0000 C   0  0  0  0  0  0  0  0  0  0  0  0
   -0.7151    0.6540    0.0000 C   0  0  0  0  0  0  0  0  0  0  0  0
   -1.4303   -0.5743    0.0000 C   0  0  0  0  0  0  0  0  0  0  0  0
    0.7151    0.6540    0.0000 C   0  0  0  0  0  0  0  0  0  0  0  0
    1.4266   -0.5743    0.0000 C   0  0  0  0  0  0  0  0  0  0  0  0
    0.0000    1.0709    0.0000 C   0  0  0  0  0  0  0  0  0  0  0  0
   -2.1491   -0.1630    0.0000 C   0  0  0  0  0  0  0  0  0  0  0  0
    2.1491   -0.1630    0.0000 C   0  0  0  0  0  0  0  0  0  0  0  0
  1  2  2  0  0  0  0
  1  3  1  0  0  0  0
  2  4  1  0  0  0  0
  2  5  1  0  0  0  0
  3  6  2  0  0  0  0
  3  7  1  0  0  0  0
  4  8  2  0  0  0  0
  5  9  1  0  0  0  0
  7 10  1  0  0  0  0
  6  8  1  0  0  0  0
M  END