79
  Mrv0541 04071411322D          

 10 10  0  0  0  0            999 V2000
    3.7839   -2.4688    0.0000 C   0  0  0  0  0  0  0  0  0  0  0  0
    4.4904   -2.8749    0.0000 C   0  0  0  0  0  0  0  0  0  0  0  0
    3.0550   -2.8675    0.0000 C   0  0  0  0  0  0  0  0  0  0  0  0
    3.7969   -1.6454    0.0000 C   0  0  0  0  0  0  0  0  0  0  0  0
    4.4830   -3.7077    0.0000 C   0  0  0  0  0  0  0  0  0  0  0  0
    3.0550   -3.7002    0.0000 C   0  0  0  0  0  0  0  0  0  0  0  0
    4.5164   -1.2485    0.0000 C   0  0  0  0  0  0  0  0  0  0  0  0
    3.7635   -4.1045    0.0000 C   0  0  0  0  0  0  0  0  0  0  0  0
    5.2844   -3.9196    0.0000 C   0  0  0  0  0  0  0  0  0  0  0  0
    5.2810   -4.7461    0.0000 C   0  0  0  0  0  0  0  0  0  0  0  0
  3  6  1  0  0  0  0
  4  7  2  0  0  0  0
  5  8  1  0  0  0  0
  6  8  2  0  0  0  0
  1  2  1  0  0  0  0
  1  3  2  0  0  0  0
  1  4  1  0  0  0  0
  5  9  1  0  0  0  0
  2  5  2  0  0  0  0
  9 10  2  0  0  0  0
M  END