8
  Mrv0541 04071411322D          

 12 11  0  0  0  0            999 V2000
    0.3537    0.2045    0.0000 C   0  0  0  0  0  0  0  0  0  0  0  0
   -0.3454   -0.2072    0.0000 C   0  0  0  0  0  0  0  0  0  0  0  0
    1.0749   -0.1961    0.0000 C   0  0  0  0  0  0  0  0  0  0  0  0
   -1.0776    0.1934    0.0000 C   0  0  0  0  0  0  0  0  0  0  0  0
    1.7850    0.2266    0.0000 C   0  0  0  0  0  0  0  0  0  0  0  0
   -1.7822   -0.2266    0.0000 C   0  0  0  0  0  0  0  0  0  0  0  0
    2.5062   -0.1741    0.0000 C   0  0  0  0  0  0  0  0  0  0  0  0
   -2.5034    0.1741    0.0000 C   0  0  0  0  0  0  0  0  0  0  0  0
    3.2107    0.2431    0.0000 C   0  0  0  0  0  0  0  0  0  0  0  0
   -3.2190   -0.2431    0.0000 C   0  0  0  0  0  0  0  0  0  0  0  0
    3.9430   -0.1576    0.0000 C   0  0  0  0  0  0  0  0  0  0  0  0
   -3.9457    0.1576    0.0000 C   0  0  0  0  0  0  0  0  0  0  0  0
  1  2  1  0  0  0  0
  1  3  1  0  0  0  0
  2  4  1  0  0  0  0
  3  5  1  0  0  0  0
  4  6  1  0  0  0  0
  5  7  1  0  0  0  0
  6  8  1  0  0  0  0
  7  9  1  0  0  0  0
  8 10  1  0  0  0  0
  9 11  1  0  0  0  0
 10 12  2  0  0  0  0
M  END