81
  Mrv0541 04071411322D          

 11 11  0  0  0  0            999 V2000
   -0.1424   -0.3990    0.0000 C   0  0  0  0  0  0  0  0  0  0  0  0
   -0.8824    0.0712    0.0000 C   0  0  0  0  0  0  0  0  0  0  0  0
    0.5938    0.0712    0.0000 C   0  0  0  0  0  0  0  0  0  0  0  0
   -0.1424   -1.0416    0.0000 C   0  0  0  0  0  0  0  0  0  0  0  0
   -0.8824    0.8768    0.0000 C   0  0  0  0  0  0  0  0  0  0  0  0
    0.5938    0.8768    0.0000 C   0  0  0  0  0  0  0  0  0  0  0  0
    0.5788   -1.4313    0.0000 C   0  0  0  0  0  0  0  0  0  0  0  0
   -0.8561   -1.4555    0.0000 C   0  0  0  0  0  0  0  0  0  0  0  0
   -0.1424    1.3320    0.0000 C   0  0  0  0  0  0  0  0  0  0  0  0
    1.4256   -1.0210    0.0000 C   0  0  0  0  0  0  0  0  0  0  0  0
   -0.1424    2.1206    0.0000 O   0  0  0  0  0  0  0  0  0  0  0  0
  1  2  2  0  0  0  0
  1  3  1  0  0  0  0
  1  4  1  0  0  0  0
  2  5  1  0  0  0  0
  3  6  2  0  0  0  0
  4  7  1  0  0  0  0
  4  8  1  0  0  0  0
  5  9  2  0  0  0  0
  7 10  1  0  0  0  0
  9 11  1  0  0  0  0
  6  9  1  0  0  0  0
M  END