82
  Mrv0541 04071411322D          

 15 15  0  0  0  0            999 V2000
   -1.2887   -0.1308    0.0000 C   0  0  0  0  0  0  0  0  0  0  0  0
   -2.0050   -0.5434    0.0000 C   0  0  0  0  0  0  0  0  0  0  0  0
   -1.2887    0.6809    0.0000 C   0  0  0  0  0  0  0  0  0  0  0  0
   -0.5678   -0.5434    0.0000 C   0  0  0  0  0  0  0  0  0  0  0  0
   -2.7194   -0.1353    0.0000 C   0  0  0  0  0  0  0  0  0  0  0  0
   -2.0050    1.0957    0.0000 C   0  0  0  0  0  0  0  0  0  0  0  0
    0.1508   -0.1353    0.0000 C   0  0  0  0  0  0  0  0  0  0  0  0
   -2.7282    0.6786    0.0000 C   0  0  0  0  0  0  0  0  0  0  0  0
    0.8585   -0.5434    0.0000 C   0  0  0  0  0  0  0  0  0  0  0  0
   -3.4512    1.1046    0.0000 O   0  0  0  0  0  0  0  0  0  0  0  0
    1.5704   -0.1420    0.0000 C   0  0  0  0  0  0  0  0  0  0  0  0
    2.2892   -0.5434    0.0000 C   0  0  0  0  0  0  0  0  0  0  0  0
    3.0099   -0.1420    0.0000 C   0  0  0  0  0  0  0  0  0  0  0  0
    3.7330   -0.5522    0.0000 C   0  0  0  0  0  0  0  0  0  0  0  0
    4.4428   -0.1420    0.0000 C   0  0  0  0  0  0  0  0  0  0  0  0
  1  2  2  0  0  0  0
  1  3  1  0  0  0  0
  1  4  1  0  0  0  0
  2  5  1  0  0  0  0
  3  6  2  0  0  0  0
  4  7  1  0  0  0  0
  5  8  2  0  0  0  0
  7  9  1  0  0  0  0
  8 10  1  0  0  0  0
  9 11  1  0  0  0  0
 11 12  1  0  0  0  0
 12 13  1  0  0  0  0
 13 14  1  0  0  0  0
 14 15  1  0  0  0  0
  6  8  1  0  0  0  0
M  END