84
  Mrv0541 04071411322D          

 15 15  0  0  0  0            999 V2000
    0.2866    0.5448    0.0000 C   0  0  0  0  0  0  0  0  0  0  0  0
    0.2778   -0.2801    0.0000 C   0  0  0  0  0  0  0  0  0  0  0  0
   -0.4333    0.9650    0.0000 C   0  0  0  0  0  0  0  0  0  0  0  0
    1.0088    0.9650    0.0000 C   0  0  0  0  0  0  0  0  0  0  0  0
   -0.4333   -0.6936    0.0000 C   0  0  0  0  0  0  0  0  0  0  0  0
   -1.1488    0.5580    0.0000 C   0  0  0  0  0  0  0  0  0  0  0  0
   -0.4333    1.7899    0.0000 O   0  0  0  0  0  0  0  0  0  0  0  0
    1.4289    0.2407    0.0000 C   0  0  0  0  0  0  0  0  0  0  0  0
    1.7374    1.3829    0.0000 C   0  0  0  0  0  0  0  0  0  0  0  0
    0.6040    1.6937    0.0000 C   0  0  0  0  0  0  0  0  0  0  0  0
   -1.1575   -0.2670    0.0000 C   0  0  0  0  0  0  0  0  0  0  0  0
   -0.4333   -1.5186    0.0000 C   0  0  0  0  0  0  0  0  0  0  0  0
   -0.4333   -2.3435    0.0000 C   0  0  0  0  0  0  0  0  0  0  0  0
    0.3916   -1.5186    0.0000 C   0  0  0  0  0  0  0  0  0  0  0  0
   -1.2583   -1.5186    0.0000 C   0  0  0  0  0  0  0  0  0  0  0  0
  1  2  2  0  0  0  0
  1  3  1  0  0  0  0
  1  4  1  0  0  0  0
  2  5  1  0  0  0  0
  3  6  2  0  0  0  0
  3  7  1  0  0  0  0
  4  8  1  0  0  0  0
  4  9  1  0  0  0  0
  4 10  1  0  0  0  0
  5 11  2  0  0  0  0
  5 12  1  0  0  0  0
 12 13  1  0  0  0  0
 12 14  1  0  0  0  0
 12 15  1  0  0  0  0
  6 11  1  0  0  0  0
M  END