89
  Mrv0541 04071411322D          

 16 16  0  0  0  0            999 V2000
    4.9308   -2.6843    0.0000 C   0  0  0  0  0  0  0  0  0  0  0  0
    4.2260   -2.2852    0.0000 C   0  0  0  0  0  0  0  0  0  0  0  0
    4.9308   -3.5191    0.0000 C   0  0  0  0  0  0  0  0  0  0  0  0
    3.5176   -2.6843    0.0000 C   0  0  0  0  0  0  0  0  0  0  0  0
    4.2260   -1.4487    0.0000 C   0  0  0  0  0  0  0  0  0  0  0  0
    4.2260   -3.9419    0.0000 C   0  0  0  0  0  0  0  0  0  0  0  0
    3.5176   -3.5191    0.0000 C   0  0  0  0  0  0  0  0  0  0  0  0
    3.4978   -1.0260    0.0000 C   0  0  0  0  0  0  0  0  0  0  0  0
    3.4944   -0.1824    0.0000 C   0  0  0  0  0  0  0  0  0  0  0  0
    4.9507   -1.0225    0.0000 C   0  0  0  0  0  0  0  0  0  0  0  0
    4.2207   -4.7578    0.0000 O   0  0  0  0  0  0  0  0  0  0  0  0
    4.9265   -5.1641    0.0000 C   0  0  0  0  0  0  0  0  0  0  0  0
    4.5169   -5.8664    0.0000 C   0  0  0  0  0  0  0  0  0  0  0  0
    5.0883   -6.4379    0.0000 C   0  0  0  0  0  0  0  0  0  0  0  0
    4.6821   -7.1368    0.0000 O   0  0  0  0  0  0  0  0  0  0  0  0
    3.7285   -6.0764    0.0000 O   0  0  0  0  0  0  0  0  0  0  0  0
  5  8  1  0  0  0  0
  1  2  2  0  0  0  0
  8  9  1  0  0  0  0
  1  3  1  0  0  0  0
  5 10  1  0  0  0  0
  2  4  1  0  0  0  0
  6 11  1  0  0  0  0
  2  5  1  0  0  0  0
 11 12  1  0  0  0  0
  3  6  2  0  0  0  0
 12 13  1  0  0  0  0
  4  7  2  0  0  0  0
 13 14  1  0  0  0  0
  6  7  1  0  0  0  0
 14 15  1  0  0  0  0
 13 16  1  0  0  0  0
M  END