9
  Mrv0541 04071411322D          

 12 11  0  0  0  0            999 V2000
   -0.3500   -0.2060    0.0000 C   0  0  0  0  0  0  0  0  0  0  0  0
    0.3500    0.2038    0.0000 C   0  0  0  0  0  0  0  0  0  0  0  0
   -1.0744    0.1905    0.0000 C   0  0  0  0  0  0  0  0  0  0  0  0
    1.0722   -0.1949    0.0000 C   0  0  0  0  0  0  0  0  0  0  0  0
   -1.7811   -0.2260    0.0000 C   0  0  0  0  0  0  0  0  0  0  0  0
    1.7789    0.2282    0.0000 C   0  0  0  0  0  0  0  0  0  0  0  0
   -2.5033    0.1728    0.0000 C   0  0  0  0  0  0  0  0  0  0  0  0
    2.5077   -0.1706    0.0000 C   0  0  0  0  0  0  0  0  0  0  0  0
   -3.2166   -0.2437    0.0000 C   0  0  0  0  0  0  0  0  0  0  0  0
    3.2166    0.2437    0.0000 C   0  0  0  0  0  0  0  0  0  0  0  0
   -3.9410    0.1551    0.0000 C   0  0  0  0  0  0  0  0  0  0  0  0
    3.9431   -0.1551    0.0000 C   0  0  0  0  0  0  0  0  0  0  0  0
  1  2  1  0  0  0  0
  1  3  1  0  0  0  0
  2  4  1  0  0  0  0
  3  5  1  0  0  0  0
  4  6  1  0  0  0  0
  5  7  1  0  0  0  0
  6  8  1  0  0  0  0
  7  9  1  0  0  0  0
  8 10  1  0  0  0  0
  9 11  1  0  0  0  0
 10 12  1  0  0  0  0
M  END