90
  Mrv0541 04071411322D          

  8  8  0  0  0  0            999 V2000
   -0.1714    0.5124    0.0000 C   0  0  0  0  0  0  0  0  0  0  0  0
    0.5309    0.1051    0.0000 C   0  0  0  0  0  0  0  0  0  0  0  0
   -0.8866    0.0958    0.0000 C   0  0  0  0  0  0  0  0  0  0  0  0
   -0.1714    1.3346    0.0000 O   0  0  0  0  0  0  0  0  0  0  0  0
    0.5254   -0.7245    0.0000 C   0  0  0  0  0  0  0  0  0  0  0  0
    1.2406    0.5328    0.0000 Cl  0  0  0  0  0  0  0  0  0  0  0  0
   -0.8940   -0.7318    0.0000 C   0  0  0  0  0  0  0  0  0  0  0  0
   -0.1714   -1.1244    0.0000 C   0  0  0  0  0  0  0  0  0  0  0  0
  1  2  2  0  0  0  0
  1  3  1  0  0  0  0
  1  4  1  0  0  0  0
  2  5  1  0  0  0  0
  2  6  1  0  0  0  0
  3  7  2  0  0  0  0
  5  8  2  0  0  0  0
  7  8  1  0  0  0  0
M  END