91
  Mrv0541 04071411322D          

  8  8  0  0  0  0            999 V2000
   -0.8181    0.0083    0.0000 C   0  0  0  0  0  0  0  0  0  0  0  0
   -0.4197   -0.7138    0.0000 C   0  0  0  0  0  0  0  0  0  0  0  0
   -0.4079    0.7091    0.0000 C   0  0  0  0  0  0  0  0  0  0  0  0
   -1.6458    0.0072    0.0000 O   0  0  0  0  0  0  0  0  0  0  0  0
    0.4055   -0.7138    0.0000 C   0  0  0  0  0  0  0  0  0  0  0  0
    0.4174    0.7091    0.0000 C   0  0  0  0  0  0  0  0  0  0  0  0
    0.8264   -0.0024    0.0000 C   0  0  0  0  0  0  0  0  0  0  0  0
    1.6434   -0.0024    0.0000 Cl  0  0  0  0  0  0  0  0  0  0  0  0
  1  2  2  0  0  0  0
  1  3  1  0  0  0  0
  1  4  1  0  0  0  0
  2  5  1  0  0  0  0
  3  6  2  0  0  0  0
  5  7  2  0  0  0  0
  7  8  1  0  0  0  0
  6  7  1  0  0  0  0
M  END