92
  Mrv0541 04071411322D          

  8  8  0  0  0  0            999 V2000
   -0.5328    0.3081    0.0000 C   0  0  0  0  0  0  0  0  0  0  0  0
    0.1801    0.7239    0.0000 C   0  0  0  0  0  0  0  0  0  0  0  0
   -0.5328   -0.5142    0.0000 C   0  0  0  0  0  0  0  0  0  0  0  0
    0.8927    0.3081    0.0000 C   0  0  0  0  0  0  0  0  0  0  0  0
    0.1801    1.5498    0.0000 O   0  0  0  0  0  0  0  0  0  0  0  0
    0.1726   -0.9299    0.0000 C   0  0  0  0  0  0  0  0  0  0  0  0
   -1.2528   -0.9299    0.0000 Cl  0  0  0  0  0  0  0  0  0  0  0  0
    0.8927   -0.5142    0.0000 C   0  0  0  0  0  0  0  0  0  0  0  0
  1  2  2  0  0  0  0
  1  3  1  0  0  0  0
  2  4  1  0  0  0  0
  2  5  1  0  0  0  0
  3  6  2  0  0  0  0
  3  7  1  0  0  0  0
  4  8  2  0  0  0  0
  6  8  1  0  0  0  0
M  END