93
  Mrv0541 04071411322D          

  8  8  0  0  0  0            999 V2000
   -0.1723    0.5155    0.0000 C   0  0  0  0  0  0  0  0  0  0  0  0
    0.5330    0.1011    0.0000 C   0  0  0  0  0  0  0  0  0  0  0  0
   -0.8962    0.1011    0.0000 C   0  0  0  0  0  0  0  0  0  0  0  0
   -0.1723    1.3393    0.0000 O   0  0  0  0  0  0  0  0  0  0  0  0
    0.5330   -0.7239    0.0000 C   0  0  0  0  0  0  0  0  0  0  0  0
    1.2569    0.5292    0.0000 Br  0  0  0  0  0  0  0  0  0  0  0  0
   -0.8962   -0.7239    0.0000 C   0  0  0  0  0  0  0  0  0  0  0  0
   -0.1860   -1.1358    0.0000 C   0  0  0  0  0  0  0  0  0  0  0  0
  1  2  1  0  0  0  0
  1  3  2  0  0  0  0
  1  4  1  0  0  0  0
  2  5  2  0  0  0  0
  2  6  1  0  0  0  0
  3  7  1  0  0  0  0
  5  8  1  0  0  0  0
  7  8  2  0  0  0  0
M  END