95
  Mrv0541 04071411322D          

  8  8  0  0  0  0            999 V2000
    0.5301    0.3103    0.0000 C   0  0  0  0  0  0  0  0  0  0  0  0
   -0.1771    0.7202    0.0000 C   0  0  0  0  0  0  0  0  0  0  0  0
    0.5301   -0.5068    0.0000 C   0  0  0  0  0  0  0  0  0  0  0  0
   -0.8947    0.3039    0.0000 C   0  0  0  0  0  0  0  0  0  0  0  0
   -0.1771    1.5452    0.0000 O   0  0  0  0  0  0  0  0  0  0  0  0
   -0.1771   -0.9297    0.0000 C   0  0  0  0  0  0  0  0  0  0  0  0
    1.2581   -0.9232    0.0000 Br  0  0  0  0  0  0  0  0  0  0  0  0
   -0.8947   -0.5211    0.0000 C   0  0  0  0  0  0  0  0  0  0  0  0
  1  2  1  0  0  0  0
  1  3  2  0  0  0  0
  2  4  2  0  0  0  0
  2  5  1  0  0  0  0
  3  6  1  0  0  0  0
  3  7  1  0  0  0  0
  4  8  1  0  0  0  0
  6  8  2  0  0  0  0
M  END