96
  Mrv0541 04071411322D          

  9  9  0  0  0  0            999 V2000
    5.5023   -2.8859    0.0000 C   0  0  0  0  0  0  0  0  0  0  0  0
    5.9075   -3.6004    0.0000 C   0  0  0  0  0  0  0  0  0  0  0  0
    4.6604   -2.8859    0.0000 C   0  0  0  0  0  0  0  0  0  0  0  0
    5.9226   -2.1794    0.0000 C   0  0  0  0  0  0  0  0  0  0  0  0
    5.5023   -4.3190    0.0000 C   0  0  0  0  0  0  0  0  0  0  0  0
    6.7257   -3.6004    0.0000 Cl  0  0  0  0  0  0  0  0  0  0  0  0
    4.2626   -3.5880    0.0000 C   0  0  0  0  0  0  0  0  0  0  0  0
    4.6617   -4.3135    0.0000 C   0  0  0  0  0  0  0  0  0  0  0  0
    3.4329   -3.5880    0.0000 O   0  0  0  0  0  0  0  0  0  0  0  0
  1  2  1  0  0  0  0
  1  3  2  0  0  0  0
  1  4  1  0  0  0  0
  2  5  2  0  0  0  0
  2  6  1  0  0  0  0
  3  7  1  0  0  0  0
  5  8  1  0  0  0  0
  7  9  1  0  0  0  0
  7  8  2  0  0  0  0
M  END