98
  Mrv0541 04071411322D          

  9  9  0  0  0  0            999 V2000
   -0.5413   -0.3447    0.0000 C   0  0  0  0  0  0  0  0  0  0  0  0
   -0.5792    0.4723    0.0000 C   0  0  0  0  0  0  0  0  0  0  0  0
    0.1930   -0.7206    0.0000 C   0  0  0  0  0  0  0  0  0  0  0  0
   -1.2343   -0.8032    0.0000 C   0  0  0  0  0  0  0  0  0  0  0  0
    0.1138    0.9309    0.0000 C   0  0  0  0  0  0  0  0  0  0  0  0
   -1.3170    0.8550    0.0000 O   0  0  0  0  0  0  0  0  0  0  0  0
    0.8896   -0.2828    0.0000 C   0  0  0  0  0  0  0  0  0  0  0  0
    0.8447    0.5482    0.0000 C   0  0  0  0  0  0  0  0  0  0  0  0
    1.6307   -0.6516    0.0000 Cl  0  0  0  0  0  0  0  0  0  0  0  0
  1  2  2  0  0  0  0
  1  3  1  0  0  0  0
  1  4  1  0  0  0  0
  2  5  1  0  0  0  0
  2  6  1  0  0  0  0
  3  7  2  0  0  0  0
  5  8  2  0  0  0  0
  7  9  1  0  0  0  0
  7  8  1  0  0  0  0
M  END