
 OpenBabel06261318113D
Structure written by MMmdl.
  8  7  0  0  0  0  0  0  0  0999 V2000
   -1.4593   -1.1636    1.0150 Cl  0  0  0  0  0  0  0  0  0  0  0  0
    1.4324   -1.1636    1.0150 Cl  0  0  0  0  0  0  0  0  0  0  0  0
   -0.0131    1.8219    1.0150 Cl  0  0  0  0  0  0  0  0  0  0  0  0
   -0.0134   -0.7555    0.1114 C   0  0  0  0  0  0  0  0  0  0  0  0
   -0.0134    0.6968   -0.3175 C   0  0  0  0  0  0  0  0  0  0  0  0
   -0.0134   -1.4175   -0.7923 H   0  0  0  0  0  0  0  0  0  0  0  0
    0.9012    0.9116   -0.9249 H   0  0  0  0  0  0  0  0  0  0  0  0
   -0.9283    0.9117   -0.9245 H   0  0  0  0  0  0  0  0  0  0  0  0
  1  4  1  0  0  0  0
  2  4  1  0  0  0  0
  3  5  1  0  0  0  0
  4  5  1  0  0  0  0
  4  6  1  0  0  0  0
  5  7  1  0  0  0  0
  5  8  1  0  0  0  0
M  END