
 OpenBabel06261318113D
Structure written by MMmdl.
  8  7  0  0  0  0  0  0  0  0999 V2000
   -1.4558   -1.3946   -0.6074 Cl  0  0  0  0  0  0  0  0  0  0  0  0
    1.4360   -1.3946   -0.6074 Cl  0  0  0  0  0  0  0  0  0  0  0  0
   -0.0099   -0.3924   -0.6074 C   0  0  0  0  0  0  0  0  0  0  0  0
   -0.0099    0.5531    0.5659 C   0  0  0  0  0  0  0  0  0  0  0  0
   -0.0099    0.1522   -1.5837 H   0  0  0  0  0  0  0  0  0  0  0  0
   -0.0102   -0.0033    1.5348 H   0  0  0  0  0  0  0  0  0  0  0  0
    0.8983    1.2039    0.5295 H   0  0  0  0  0  0  0  0  0  0  0  0
   -0.9179    1.2043    0.5292 H   0  0  0  0  0  0  0  0  0  0  0  0
  1  3  1  0  0  0  0
  2  3  1  0  0  0  0
  3  4  1  0  0  0  0
  3  5  1  0  0  0  0
  4  6  1  0  0  0  0
  4  7  1  0  0  0  0
  4  8  1  0  0  0  0
M  END