
 OpenBabel06261318113D
Structure written by MMmdl.
 11 10  0  0  0  0  0  0  0  0999 V2000
   -1.1547   -1.6876    0.6432 Cl  0  0  0  0  0  0  0  0  0  0  0  0
    2.1855   -1.6876    0.6432 Cl  0  0  0  0  0  0  0  0  0  0  0  0
   -2.1766    1.4925    0.6432 Cl  0  0  0  0  0  0  0  0  0  0  0  0
   -0.1221   -0.2712    0.4661 C   0  0  0  0  0  0  0  0  0  0  0  0
    1.1500   -0.6263   -0.2818 C   0  0  0  0  0  0  0  0  0  0  0  0
   -0.8494    0.8312   -0.2819 C   0  0  0  0  0  0  0  0  0  0  0  0
    0.1161    0.0556    1.5135 H   0  0  0  0  0  0  0  0  0  0  0  0
    1.7437    0.2991   -0.4851 H   0  0  0  0  0  0  0  0  0  0  0  0
    0.9221   -1.1468   -1.2436 H   0  0  0  0  0  0  0  0  0  0  0  0
   -0.1500    1.6795   -0.4853 H   0  0  0  0  0  0  0  0  0  0  0  0
   -1.2753    0.4550   -1.2436 H   0  0  0  0  0  0  0  0  0  0  0  0
  1  4  1  0  0  0  0
  2  5  1  0  0  0  0
  3  6  1  0  0  0  0
  4  5  1  0  0  0  0
  4  6  1  0  0  0  0
  4  7  1  0  0  0  0
  5  8  1  0  0  0  0
  5  9  1  0  0  0  0
  6 10  1  0  0  0  0
  6 11  1  0  0  0  0
M  END