
 OpenBabel06261318113D
Structure written by MMmdl.
 12 12  0  0  0  0  0  0  0  0999 V2000
   -1.6186   -2.5924   -0.0011 Cl  0  0  0  0  0  0  0  0  0  0  0  0
    1.5383   -2.5924   -0.0011 Cl  0  0  0  0  0  0  0  0  0  0  0  0
   -0.7417   -1.1402   -0.0011 C   0  0  0  0  0  0  0  0  0  0  0  0
    0.6615   -1.1402   -0.0008 C   0  0  0  0  0  0  0  0  0  0  0  0
   -1.4378    0.0744   -0.0010 C   0  0  0  0  0  0  0  0  0  0  0  0
    1.3575    0.0744   -0.0004 C   0  0  0  0  0  0  0  0  0  0  0  0
   -0.7377    1.2782   -0.0006 C   0  0  0  0  0  0  0  0  0  0  0  0
    0.6574    1.2782   -0.0002 C   0  0  0  0  0  0  0  0  0  0  0  0
   -2.5388    0.0748   -0.0011 H   0  0  0  0  0  0  0  0  0  0  0  0
    2.4585    0.0748   -0.0001 H   0  0  0  0  0  0  0  0  0  0  0  0
   -1.2893    2.2303   -0.0005 H   0  0  0  0  0  0  0  0  0  0  0  0
    1.2090    2.2303    0.0002 H   0  0  0  0  0  0  0  0  0  0  0  0
  1  3  1  0  0  0  0
  2  4  1  0  0  0  0
  3  4  2  0  0  0  0
  3  5  1  0  0  0  0
  4  6  1  0  0  0  0
  5  7  2  0  0  0  0
  5  9  1  0  0  0  0
  6  8  2  0  0  0  0
  6 10  1  0  0  0  0
  7  8  1  0  0  0  0
  7 11  1  0  0  0  0
  8 12  1  0  0  0  0
M  END