
 OpenBabel06261318113D
Structure written by MMmdl.
 11 10  0  0  1  0  0  0  0  0999 V2000
   -1.5564   -1.4868    0.2713 Cl  0  0  0  0  0  0  0  0  0  0  0  0
    1.7742   -1.4868    0.2713 Cl  0  0  0  0  0  0  0  0  0  0  0  0
   -0.5496   -0.0342    0.2713 C   0  0  1  0  0  0  0  0  0  0  0  0
    0.7483   -0.2778    1.0126 C   0  0  0  0  0  0  0  0  0  0  0  0
   -0.3348    0.4601   -1.1380 C   0  0  0  0  0  0  0  0  0  0  0  0
   -1.1443    0.7209    0.8542 H   0  0  0  0  0  0  0  0  0  0  0  0
    1.3434    0.6684    1.0414 H   0  0  0  0  0  0  0  0  0  0  0  0
    0.5476   -0.6306    2.0538 H   0  0  0  0  0  0  0  0  0  0  0  0
    0.2015   -0.3021   -1.7542 H   0  0  0  0  0  0  0  0  0  0  0  0
   -1.3139    0.6848   -1.6262 H   0  0  0  0  0  0  0  0  0  0  0  0
    0.2770    1.3953   -1.1172 H   0  0  0  0  0  0  0  0  0  0  0  0
  1  3  1  0  0  0  0
  2  4  1  0  0  0  0
  3  4  1  0  0  0  0
  3  5  1  0  0  0  0
  3  6  1  1  0  0  0
  4  7  1  0  0  0  0
  4  8  1  0  0  0  0
  5  9  1  0  0  0  0
  5 10  1  0  0  0  0
  5 11  1  0  0  0  0
M  END