
 OpenBabel06261318113D
Structure written by MMmdl.
 11 10  0  0  0  0  0  0  0  0999 V2000
   -2.7146   -0.7165   -0.0003 Cl  0  0  0  0  0  0  0  0  0  0  0  0
    2.6839   -0.7165   -0.0003 Cl  0  0  0  0  0  0  0  0  0  0  0  0
   -0.0153   -0.6225   -0.0003 C   0  0  0  0  0  0  0  0  0  0  0  0
   -1.2507    0.2485   -0.0013 C   0  0  0  0  0  0  0  0  0  0  0  0
    1.2201    0.2485   -0.0037 C   0  0  0  0  0  0  0  0  0  0  0  0
   -0.0145   -1.2865    0.9048 H   0  0  0  0  0  0  0  0  0  0  0  0
   -0.0161   -1.2910   -0.9020 H   0  0  0  0  0  0  0  0  0  0  0  0
   -1.2912    0.8915    0.9107 H   0  0  0  0  0  0  0  0  0  0  0  0
   -1.2912    0.8896   -0.9146 H   0  0  0  0  0  0  0  0  0  0  0  0
    1.2607    0.8940    0.9065 H   0  0  0  0  0  0  0  0  0  0  0  0
    1.2604    0.8872   -0.9187 H   0  0  0  0  0  0  0  0  0  0  0  0
  1  4  1  0  0  0  0
  2  5  1  0  0  0  0
  3  4  1  0  0  0  0
  3  5  1  0  0  0  0
  3  6  1  0  0  0  0
  3  7  1  0  0  0  0
  4  8  1  0  0  0  0
  4  9  1  0  0  0  0
  5 10  1  0  0  0  0
  5 11  1  0  0  0  0
M  END