
 OpenBabel06261318113D
Structure written by MMmdl.
 12 12  0  0  0  0  0  0  0  0999 V2000
   -0.6781   -1.2279    0.0008 C   0  0  0  0  0  0  0  0  0  0  0  0
    0.7205   -1.2279    0.0008 C   0  0  0  0  0  0  0  0  0  0  0  0
    1.4111   -0.0179    0.0008 C   0  0  0  0  0  0  0  0  0  0  0  0
    0.6997    1.1864    0.0006 C   0  0  0  0  0  0  0  0  0  0  0  0
   -0.6990    1.1864    0.0004 C   0  0  0  0  0  0  0  0  0  0  0  0
   -1.3896   -0.0237    0.0005 C   0  0  0  0  0  0  0  0  0  0  0  0
    1.5419    2.6620    0.0007 Cl  0  0  0  0  0  0  0  0  0  0  0  0
   -1.5203   -2.7036    0.0010 Cl  0  0  0  0  0  0  0  0  0  0  0  0
   -1.2561    2.1358    0.0002 H   0  0  0  0  0  0  0  0  0  0  0  0
   -2.4903   -0.0270    0.0003 H   0  0  0  0  0  0  0  0  0  0  0  0
    2.5118   -0.0146    0.0009 H   0  0  0  0  0  0  0  0  0  0  0  0
    1.2776   -2.1773    0.0009 H   0  0  0  0  0  0  0  0  0  0  0  0
  1  2  2  0  0  0  0
  1  6  1  0  0  0  0
  1  8  1  0  0  0  0
  2  3  1  0  0  0  0
  2 12  1  0  0  0  0
  3  4  2  0  0  0  0
  3 11  1  0  0  0  0
  4  5  1  0  0  0  0
  4  7  1  0  0  0  0
  5  6  2  0  0  0  0
  5  9  1  0  0  0  0
  6 10  1  0  0  0  0
M  END