
 OpenBabel06261318113D
Structure written by MMmdl.
 15 14  0  0  0  0  0  0  0  0999 V2000
   -2.7596   -0.4223    0.0001 O   0  0  0  0  0  0  0  0  0  0  0  0
   -0.3958   -0.4223    0.0001 C   0  0  0  0  0  0  0  0  0  0  0  0
    0.8534    0.4308    0.0001 C   0  0  0  0  0  0  0  0  0  0  0  0
   -1.6396    0.4494    0.0004 C   0  0  0  0  0  0  0  0  0  0  0  0
    2.0978   -0.4190   -0.0010 C   0  0  0  0  0  0  0  0  0  0  0  0
   -0.4113   -1.0876   -0.9020 H   0  0  0  0  0  0  0  0  0  0  0  0
   -0.4111   -1.0879    0.9020 H   0  0  0  0  0  0  0  0  0  0  0  0
    0.8531    1.0969    0.9033 H   0  0  0  0  0  0  0  0  0  0  0  0
    0.8523    1.0981   -0.9023 H   0  0  0  0  0  0  0  0  0  0  0  0
   -1.6643    1.1032    0.9135 H   0  0  0  0  0  0  0  0  0  0  0  0
   -1.6643    1.1037   -0.9124 H   0  0  0  0  0  0  0  0  0  0  0  0
    2.1291   -1.0734    0.9036 H   0  0  0  0  0  0  0  0  0  0  0  0
    2.1282   -1.0723   -0.9064 H   0  0  0  0  0  0  0  0  0  0  0  0
    3.0085    0.2273   -0.0011 H   0  0  0  0  0  0  0  0  0  0  0  0
   -3.5437    0.1381   -0.0001 H   0  0  0  0  0  0  0  0  0  0  0  0
  1  4  1  0  0  0  0
  1 15  1  0  0  0  0
  2  3  1  0  0  0  0
  2  4  1  0  0  0  0
  2  6  1  0  0  0  0
  2  7  1  0  0  0  0
  3  5  1  0  0  0  0
  3  8  1  0  0  0  0
  3  9  1  0  0  0  0
  4 10  1  0  0  0  0
  4 11  1  0  0  0  0
  5 12  1  0  0  0  0
  5 13  1  0  0  0  0
  5 14  1  0  0  0  0
M  END