
 OpenBabel06261318113D
Structure written by MMmdl.
 27 26  0  0  0  0  0  0  0  0999 V2000
   -5.3123   -0.4275    0.0029 O   0  0  0  0  0  0  0  0  0  0  0  0
   -0.4532   -0.4275    0.0029 C   0  0  0  0  0  0  0  0  0  0  0  0
    0.7978    0.4248    0.0029 C   0  0  0  0  0  0  0  0  0  0  0  0
   -1.7011    0.4293    0.0069 C   0  0  0  0  0  0  0  0  0  0  0  0
    2.0457   -0.4317   -0.0029 C   0  0  0  0  0  0  0  0  0  0  0  0
   -2.9485   -0.4257    0.0045 C   0  0  0  0  0  0  0  0  0  0  0  0
    3.2980    0.4190   -0.0033 C   0  0  0  0  0  0  0  0  0  0  0  0
   -4.1930    0.4451    0.0084 C   0  0  0  0  0  0  0  0  0  0  0  0
    4.5431   -0.4296   -0.0104 C   0  0  0  0  0  0  0  0  0  0  0  0
   -0.4562   -1.0917   -0.9013 H   0  0  0  0  0  0  0  0  0  0  0  0
   -0.4534   -1.0960    0.9040 H   0  0  0  0  0  0  0  0  0  0  0  0
    0.7970    1.0942   -0.8974 H   0  0  0  0  0  0  0  0  0  0  0  0
    0.8012    1.0881    0.9078 H   0  0  0  0  0  0  0  0  0  0  0  0
   -1.6999    1.0988   -0.8936 H   0  0  0  0  0  0  0  0  0  0  0  0
   -1.6988    1.0922    0.9122 H   0  0  0  0  0  0  0  0  0  0  0  0
    2.0425   -1.0952   -0.9077 H   0  0  0  0  0  0  0  0  0  0  0  0
    2.0470   -1.1011    0.8974 H   0  0  0  0  0  0  0  0  0  0  0  0
   -2.9632   -1.0945    0.9041 H   0  0  0  0  0  0  0  0  0  0  0  0
   -2.9644   -1.0878   -0.9000 H   0  0  0  0  0  0  0  0  0  0  0  0
    3.2937    1.0895   -0.9031 H   0  0  0  0  0  0  0  0  0  0  0  0
    3.2991    1.0823    0.9019 H   0  0  0  0  0  0  0  0  0  0  0  0
   -4.2188    1.0942    0.9250 H   0  0  0  0  0  0  0  0  0  0  0  0
   -4.2176    1.1041   -0.9010 H   0  0  0  0  0  0  0  0  0  0  0  0
    4.5718   -1.0801   -0.9179 H   0  0  0  0  0  0  0  0  0  0  0  0
    4.5776   -1.0869    0.8919 H   0  0  0  0  0  0  0  0  0  0  0  0
    5.4537    0.2168   -0.0109 H   0  0  0  0  0  0  0  0  0  0  0  0
   -6.0968    0.1322    0.0053 H   0  0  0  0  0  0  0  0  0  0  0  0
  1  8  1  0  0  0  0
  1 27  1  0  0  0  0
  2  3  1  0  0  0  0
  2  4  1  0  0  0  0
  2 10  1  0  0  0  0
  2 11  1  0  0  0  0
  3  5  1  0  0  0  0
  3 12  1  0  0  0  0
  3 13  1  0  0  0  0
  4  6  1  0  0  0  0
  4 14  1  0  0  0  0
  4 15  1  0  0  0  0
  5  7  1  0  0  0  0
  5 16  1  0  0  0  0
  5 17  1  0  0  0  0
  6  8  1  0  0  0  0
  6 18  1  0  0  0  0
  6 19  1  0  0  0  0
  7  9  1  0  0  0  0
  7 20  1  0  0  0  0
  7 21  1  0  0  0  0
  8 22  1  0  0  0  0
  8 23  1  0  0  0  0
  9 24  1  0  0  0  0
  9 25  1  0  0  0  0
  9 26  1  0  0  0  0
M  END