
 OpenBabel06261318113D
Structure written by MMmdl.
 18 17  0  0  0  0  0  0  0  0999 V2000
   -3.4346   -0.2522   -0.0003 O   0  0  0  0  0  0  0  0  0  0  0  0
    0.2768   -0.2522   -0.0003 C   0  0  0  0  0  0  0  0  0  0  0  0
   -1.1342    0.2916   -0.0003 C   0  0  0  0  0  0  0  0  0  0  0  0
    1.2947    0.8688   -0.0002 C   0  0  0  0  0  0  0  0  0  0  0  0
   -2.1441   -0.8429    0.0016 C   0  0  0  0  0  0  0  0  0  0  0  0
    2.7039    0.3354    0.0010 C   0  0  0  0  0  0  0  0  0  0  0  0
    0.4327   -0.8999   -0.9031 H   0  0  0  0  0  0  0  0  0  0  0  0
    0.4327   -0.8999    0.9026 H   0  0  0  0  0  0  0  0  0  0  0  0
   -1.3031    0.9345   -0.9030 H   0  0  0  0  0  0  0  0  0  0  0  0
   -1.3023    0.9368    0.9010 H   0  0  0  0  0  0  0  0  0  0  0  0
    1.1368    1.5161   -0.9032 H   0  0  0  0  0  0  0  0  0  0  0  0
    1.1357    1.5170    0.9019 H   0  0  0  0  0  0  0  0  0  0  0  0
   -2.0181   -1.4832    0.9159 H   0  0  0  0  0  0  0  0  0  0  0  0
   -2.0173   -1.4869   -0.9100 H   0  0  0  0  0  0  0  0  0  0  0  0
    2.8876   -0.2922    0.9065 H   0  0  0  0  0  0  0  0  0  0  0  0
    2.8888   -0.2932   -0.9034 H   0  0  0  0  0  0  0  0  0  0  0  0
    3.4372    1.1775    0.0011 H   0  0  0  0  0  0  0  0  0  0  0  0
   -4.0688   -0.9778    0.0021 H   0  0  0  0  0  0  0  0  0  0  0  0
  1  5  1  0  0  0  0
  1 18  1  0  0  0  0
  2  3  1  0  0  0  0
  2  4  1  0  0  0  0
  2  7  1  0  0  0  0
  2  8  1  0  0  0  0
  3  5  1  0  0  0  0
  3  9  1  0  0  0  0
  3 10  1  0  0  0  0
  4  6  1  0  0  0  0
  4 11  1  0  0  0  0
  4 12  1  0  0  0  0
  5 13  1  0  0  0  0
  5 14  1  0  0  0  0
  6 15  1  0  0  0  0
  6 16  1  0  0  0  0
  6 17  1  0  0  0  0
M  END