
 OpenBabel06261318113D
Structure written by MMmdl.
 13 13  0  0  0  0  0  0  0  0999 V2000
   -0.9057   -1.2151   -0.0003 C   0  0  0  0  0  0  0  0  0  0  0  0
    0.4826   -1.2151   -0.0003 C   0  0  0  0  0  0  0  0  0  0  0  0
   -1.6082   -0.0061   -0.0003 C   0  0  0  0  0  0  0  0  0  0  0  0
    1.1832    0.0005   -0.0003 C   0  0  0  0  0  0  0  0  0  0  0  0
   -0.9156    1.2153   -0.0002 C   0  0  0  0  0  0  0  0  0  0  0  0
    0.4897    1.2282   -0.0002 C   0  0  0  0  0  0  0  0  0  0  0  0
   -3.3039   -0.0470   -0.0005 Cl  0  0  0  0  0  0  0  0  0  0  0  0
   -1.7734    2.6753   -0.0002 Cl  0  0  0  0  0  0  0  0  0  0  0  0
    1.3283    2.6992   -0.0001 Cl  0  0  0  0  0  0  0  0  0  0  0  0
    2.5567    0.0408   -0.0003 O   0  0  0  0  0  0  0  0  0  0  0  0
   -1.4548   -2.1702   -0.0004 H   0  0  0  0  0  0  0  0  0  0  0  0
    1.0352   -2.1662   -0.0004 H   0  0  0  0  0  0  0  0  0  0  0  0
    2.8814   -0.8727   -0.0002 H   0  0  0  0  0  0  0  0  0  0  0  0
  1  2  2  0  0  0  0
  1  3  1  0  0  0  0
  1 11  1  0  0  0  0
  2  4  1  0  0  0  0
  2 12  1  0  0  0  0
  3  5  2  0  0  0  0
  3  7  1  0  0  0  0
  4  6  2  0  0  0  0
  4 10  1  0  0  0  0
  5  6  1  0  0  0  0
  5  8  1  0  0  0  0
  6  9  1  0  0  0  0
 10 13  1  0  0  0  0
M  END