
 OpenBabel06261318113D
Structure written by MMmdl.
 13 13  0  0  0  0  0  0  0  0999 V2000
   -1.3888   -2.7234   -0.0014 Cl  0  0  0  0  0  0  0  0  0  0  0  0
    1.7371   -2.7234   -0.0014 Cl  0  0  0  0  0  0  0  0  0  0  0  0
    1.7783    2.6056   -0.0014 Cl  0  0  0  0  0  0  0  0  0  0  0  0
   -2.5757   -0.0411   -0.0004 O   0  0  0  0  0  0  0  0  0  0  0  0
   -1.2019   -0.0238   -0.0008 C   0  0  0  0  0  0  0  0  0  0  0  0
   -0.5305   -1.2655   -0.0011 C   0  0  0  0  0  0  0  0  0  0  0  0
   -0.4871    1.1823   -0.0008 C   0  0  0  0  0  0  0  0  0  0  0  0
    0.8730   -1.2640   -0.0013 C   0  0  0  0  0  0  0  0  0  0  0  0
    1.5949   -0.0662   -0.0014 C   0  0  0  0  0  0  0  0  0  0  0  0
    0.9075    1.1488   -0.0012 C   0  0  0  0  0  0  0  0  0  0  0  0
   -1.0259    2.1415   -0.0005 H   0  0  0  0  0  0  0  0  0  0  0  0
    2.6961   -0.0849   -0.0016 H   0  0  0  0  0  0  0  0  0  0  0  0
   -2.8868    0.8773    0.0000 H   0  0  0  0  0  0  0  0  0  0  0  0
  1  6  1  0  0  0  0
  2  8  1  0  0  0  0
  3 10  1  0  0  0  0
  4  5  1  0  0  0  0
  4 13  1  0  0  0  0
  5  6  2  0  0  0  0
  5  7  1  0  0  0  0
  6  8  1  0  0  0  0
  7 10  2  0  0  0  0
  7 11  1  0  0  0  0
  8  9  2  0  0  0  0
  9 10  1  0  0  0  0
  9 12  1  0  0  0  0
M  END