
 OpenBabel06261318113D
Structure written by MMmdl.
 14 14  0  0  0  0  0  0  0  0999 V2000
   -1.1223   -2.6350    0.0424 Cl  0  0  0  0  0  0  0  0  0  0  0  0
    1.9985   -2.6350    0.0424 Cl  0  0  0  0  0  0  0  0  0  0  0  0
   -2.3595    0.1066    0.0424 N   0  0  0  0  0  0  0  0  0  0  0  0
   -0.9725    0.0628   -0.0539 C   0  0  0  0  0  0  0  0  0  0  0  0
   -0.2634   -1.1675   -0.0123 C   0  0  0  0  0  0  0  0  0  0  0  0
   -0.2233    1.2637   -0.1186 C   0  0  0  0  0  0  0  0  0  0  0  0
    1.1370   -1.1718   -0.0149 C   0  0  0  0  0  0  0  0  0  0  0  0
    1.1633    1.2343   -0.1206 C   0  0  0  0  0  0  0  0  0  0  0  0
    1.8540    0.0252   -0.0683 C   0  0  0  0  0  0  0  0  0  0  0  0
   -0.7461    2.2314   -0.1570 H   0  0  0  0  0  0  0  0  0  0  0  0
    1.7270    2.1793   -0.1648 H   0  0  0  0  0  0  0  0  0  0  0  0
    2.9537    0.0128   -0.0693 H   0  0  0  0  0  0  0  0  0  0  0  0
   -2.8406   -0.7335   -0.1882 H   0  0  0  0  0  0  0  0  0  0  0  0
   -2.7816    0.9344   -0.3113 H   0  0  0  0  0  0  0  0  0  0  0  0
  1  5  1  0  0  0  0
  2  7  1  0  0  0  0
  3  4  1  0  0  0  0
  3 13  1  0  0  0  0
  3 14  1  0  0  0  0
  4  5  2  0  0  0  0
  4  6  1  0  0  0  0
  5  7  1  0  0  0  0
  6  8  2  0  0  0  0
  6 10  1  0  0  0  0
  7  9  2  0  0  0  0
  8  9  1  0  0  0  0
  8 11  1  0  0  0  0
  9 12  1  0  0  0  0
M  END