
 OpenBabel06261318113D
Structure written by MMmdl.
 20 20  0  0  0  0  0  0  0  0999 V2000
   -2.5868   -0.4933   -0.0108 N   0  0  0  0  0  0  0  0  0  0  0  0
   -0.1274   -0.4933   -0.0108 C   0  0  0  0  0  0  0  0  0  0  0  0
    1.0686    0.2391   -0.0108 C   0  0  0  0  0  0  0  0  0  0  0  0
   -1.3690    0.1955    0.0760 C   0  0  0  0  0  0  0  0  0  0  0  0
    1.0403    1.6356    0.0771 C   0  0  0  0  0  0  0  0  0  0  0  0
   -0.1247   -1.9732   -0.1074 C   0  0  0  0  0  0  0  0  0  0  0  0
   -1.3696    1.6058    0.1719 C   0  0  0  0  0  0  0  0  0  0  0  0
    2.3852   -0.4399   -0.1033 C   0  0  0  0  0  0  0  0  0  0  0  0
   -0.1730    2.3097    0.1664 C   0  0  0  0  0  0  0  0  0  0  0  0
    1.9827    2.2023    0.0754 H   0  0  0  0  0  0  0  0  0  0  0  0
    0.9089   -2.3885   -0.1873 H   0  0  0  0  0  0  0  0  0  0  0  0
   -0.6019   -2.4258    0.7993 H   0  0  0  0  0  0  0  0  0  0  0  0
   -0.6963   -2.3066   -1.0107 H   0  0  0  0  0  0  0  0  0  0  0  0
   -2.3208    2.1543    0.2411 H   0  0  0  0  0  0  0  0  0  0  0  0
    2.5227   -1.1471    0.7527 H   0  0  0  0  0  0  0  0  0  0  0  0
    2.4600   -1.0195   -1.0574 H   0  0  0  0  0  0  0  0  0  0  0  0
    3.2228    0.3002   -0.0801 H   0  0  0  0  0  0  0  0  0  0  0  0
   -0.1874    3.4079    0.2351 H   0  0  0  0  0  0  0  0  0  0  0  0
   -2.5489   -1.4370    0.3069 H   0  0  0  0  0  0  0  0  0  0  0  0
   -3.3610    0.0092    0.3650 H   0  0  0  0  0  0  0  0  0  0  0  0
  1  4  1  0  0  0  0
  1 19  1  0  0  0  0
  1 20  1  0  0  0  0
  2  3  2  0  0  0  0
  2  4  1  0  0  0  0
  2  6  1  0  0  0  0
  3  5  1  0  0  0  0
  3  8  1  0  0  0  0
  4  7  2  0  0  0  0
  5  9  2  0  0  0  0
  5 10  1  0  0  0  0
  6 11  1  0  0  0  0
  6 12  1  0  0  0  0
  6 13  1  0  0  0  0
  7  9  1  0  0  0  0
  7 14  1  0  0  0  0
  8 15  1  0  0  0  0
  8 16  1  0  0  0  0
  8 17  1  0  0  0  0
  9 18  1  0  0  0  0
M  END