
 OpenBabel06261318113D
Structure written by MMmdl.
 13 13  0  0  0  0  0  0  0  0999 V2000
   -2.7910   -1.2792   -0.0007 Cl  0  0  0  0  0  0  0  0  0  0  0  0
    2.6243   -1.2792   -0.0007 Cl  0  0  0  0  0  0  0  0  0  0  0  0
   -0.0917    3.3181   -0.0007 Cl  0  0  0  0  0  0  0  0  0  0  0  0
   -0.1430   -2.5473   -0.0006 O   0  0  0  0  0  0  0  0  0  0  0  0
   -0.0788   -1.1784   -0.0007 C   0  0  0  0  0  0  0  0  0  0  0  0
   -1.3007   -0.4705   -0.0007 C   0  0  0  0  0  0  0  0  0  0  0  0
    1.1331   -0.4596   -0.0007 C   0  0  0  0  0  0  0  0  0  0  0  0
   -1.2970    0.9253   -0.0007 C   0  0  0  0  0  0  0  0  0  0  0  0
    1.1322    0.9360   -0.0007 C   0  0  0  0  0  0  0  0  0  0  0  0
   -0.0845    1.6204   -0.0007 C   0  0  0  0  0  0  0  0  0  0  0  0
   -2.2522    1.4762   -0.0007 H   0  0  0  0  0  0  0  0  0  0  0  0
    2.0853    1.4894   -0.0007 H   0  0  0  0  0  0  0  0  0  0  0  0
    0.7636   -2.8974   -0.0005 H   0  0  0  0  0  0  0  0  0  0  0  0
  1  6  1  0  0  0  0
  2  7  1  0  0  0  0
  3 10  1  0  0  0  0
  4  5  1  0  0  0  0
  4 13  1  0  0  0  0
  5  6  2  0  0  0  0
  5  7  1  0  0  0  0
  6  8  1  0  0  0  0
  7  9  2  0  0  0  0
  8 10  2  0  0  0  0
  8 11  1  0  0  0  0
  9 10  1  0  0  0  0
  9 12  1  0  0  0  0
M  END