
 OpenBabel06261318113D
Structure written by MMmdl.
 22 22  0  0  0  0  0  0  0  0999 V2000
   -2.2361   -1.3730    0.0074 O   0  0  0  0  0  0  0  0  0  0  0  0
    0.1259   -1.3730    0.0074 C   0  0  0  0  0  0  0  0  0  0  0  0
   -1.0615    0.7752    0.0074 C   0  0  0  0  0  0  0  0  0  0  0  0
    1.3711    0.7165    0.0061 C   0  0  0  0  0  0  0  0  0  0  0  0
   -1.0749   -0.6309    0.0071 C   0  0  0  0  0  0  0  0  0  0  0  0
    1.3367   -0.6830    0.0071 C   0  0  0  0  0  0  0  0  0  0  0  0
    0.1724    1.4326    0.0071 C   0  0  0  0  0  0  0  0  0  0  0  0
    0.0787   -2.8518    0.0084 C   0  0  0  0  0  0  0  0  0  0  0  0
   -2.3217    1.5530    0.0086 C   0  0  0  0  0  0  0  0  0  0  0  0
    2.6706    1.4271   -0.0096 C   0  0  0  0  0  0  0  0  0  0  0  0
    2.2811   -1.2489    0.0085 H   0  0  0  0  0  0  0  0  0  0  0  0
    0.1964    2.5333    0.0084 H   0  0  0  0  0  0  0  0  0  0  0  0
   -0.4748   -3.2157    0.9105 H   0  0  0  0  0  0  0  0  0  0  0  0
   -0.4692   -3.2170   -0.8966 H   0  0  0  0  0  0  0  0  0  0  0  0
    1.1048   -3.2925    0.0119 H   0  0  0  0  0  0  0  0  0  0  0  0
   -2.9323    1.3142   -0.8989 H   0  0  0  0  0  0  0  0  0  0  0  0
   -2.9306    1.3143    0.9172 H   0  0  0  0  0  0  0  0  0  0  0  0
   -2.1160    2.6514    0.0084 H   0  0  0  0  0  0  0  0  0  0  0  0
    2.5711    2.4577    0.4112 H   0  0  0  0  0  0  0  0  0  0  0  0
    3.4342    0.8732    0.5902 H   0  0  0  0  0  0  0  0  0  0  0  0
    3.0471    1.5130   -1.0603 H   0  0  0  0  0  0  0  0  0  0  0  0
   -2.9871   -0.7628    0.0093 H   0  0  0  0  0  0  0  0  0  0  0  0
  1  5  1  0  0  0  0
  1 22  1  0  0  0  0
  2  5  2  0  0  0  0
  2  6  1  0  0  0  0
  2  8  1  0  0  0  0
  3  5  1  0  0  0  0
  3  7  2  0  0  0  0
  3  9  1  0  0  0  0
  4  6  2  0  0  0  0
  4  7  1  0  0  0  0
  4 10  1  0  0  0  0
  6 11  1  0  0  0  0
  7 12  1  0  0  0  0
  8 13  1  0  0  0  0
  8 14  1  0  0  0  0
  8 15  1  0  0  0  0
  9 16  1  0  0  0  0
  9 17  1  0  0  0  0
  9 18  1  0  0  0  0
 10 19  1  0  0  0  0
 10 20  1  0  0  0  0
 10 21  1  0  0  0  0
M  END