
 OpenBabel06261318113D
Structure written by MMmdl.
 20 20  0  0  0  0  0  0  0  0999 V2000
   -2.5841   -0.9860   -0.0027 N   0  0  0  0  0  0  0  0  0  0  0  0
   -0.1265   -0.9860   -0.0027 C   0  0  0  0  0  0  0  0  0  0  0  0
    1.0686    1.1385   -0.0027 C   0  0  0  0  0  0  0  0  0  0  0  0
   -1.3663   -0.2961   -0.0624 C   0  0  0  0  0  0  0  0  0  0  0  0
    1.0633   -0.2583    0.0278 C   0  0  0  0  0  0  0  0  0  0  0  0
   -0.1529    1.8161   -0.0684 C   0  0  0  0  0  0  0  0  0  0  0  0
   -1.3516    1.1175   -0.1025 C   0  0  0  0  0  0  0  0  0  0  0  0
   -0.0830   -2.4666    0.0351 C   0  0  0  0  0  0  0  0  0  0  0  0
    2.3451    1.8863    0.0475 C   0  0  0  0  0  0  0  0  0  0  0  0
    2.0218   -0.7990    0.0768 H   0  0  0  0  0  0  0  0  0  0  0  0
   -0.1654    2.9164   -0.0956 H   0  0  0  0  0  0  0  0  0  0  0  0
   -2.2988    1.6757   -0.1518 H   0  0  0  0  0  0  0  0  0  0  0  0
   -0.6323   -2.8538    0.9301 H   0  0  0  0  0  0  0  0  0  0  0  0
   -0.5553   -2.9000   -0.8827 H   0  0  0  0  0  0  0  0  0  0  0  0
    0.9704   -2.8372    0.0877 H   0  0  0  0  0  0  0  0  0  0  0  0
    3.1634    1.3154   -0.4566 H   0  0  0  0  0  0  0  0  0  0  0  0
    2.2474    2.8803   -0.4543 H   0  0  0  0  0  0  0  0  0  0  0  0
    2.6457    2.0604    1.1117 H   0  0  0  0  0  0  0  0  0  0  0  0
   -2.5406   -1.9207   -0.3461 H   0  0  0  0  0  0  0  0  0  0  0  0
   -3.3558   -0.4746   -0.3713 H   0  0  0  0  0  0  0  0  0  0  0  0
  1  4  1  0  0  0  0
  1 19  1  0  0  0  0
  1 20  1  0  0  0  0
  2  4  2  0  0  0  0
  2  5  1  0  0  0  0
  2  8  1  0  0  0  0
  3  5  2  0  0  0  0
  3  6  1  0  0  0  0
  3  9  1  0  0  0  0
  4  7  1  0  0  0  0
  5 10  1  0  0  0  0
  6  7  2  0  0  0  0
  6 11  1  0  0  0  0
  7 12  1  0  0  0  0
  8 13  1  0  0  0  0
  8 14  1  0  0  0  0
  8 15  1  0  0  0  0
  9 16  1  0  0  0  0
  9 17  1  0  0  0  0
  9 18  1  0  0  0  0
M  END