
 OpenBabel06261318113D
Structure written by MMmdl.
 20 20  0  0  0  0  0  0  0  0999 V2000
   -2.1323   -1.2340   -0.0743 N   0  0  0  0  0  0  0  0  0  0  0  0
    0.3239   -1.2340   -0.0743 C   0  0  0  0  0  0  0  0  0  0  0  0
   -0.9151   -0.5401   -0.0743 C   0  0  0  0  0  0  0  0  0  0  0  0
    0.2921    1.5769    0.1014 C   0  0  0  0  0  0  0  0  0  0  0  0
   -0.9063    0.8711    0.0063 C   0  0  0  0  0  0  0  0  0  0  0  0
    1.5115   -0.5059    0.0180 C   0  0  0  0  0  0  0  0  0  0  0  0
    1.5062    0.8819    0.1052 C   0  0  0  0  0  0  0  0  0  0  0  0
    0.3692   -2.7117   -0.1628 C   0  0  0  0  0  0  0  0  0  0  0  0
    0.2769    3.0547    0.2099 C   0  0  0  0  0  0  0  0  0  0  0  0
   -1.8565    1.4268    0.0043 H   0  0  0  0  0  0  0  0  0  0  0  0
    2.4720   -1.0447    0.0212 H   0  0  0  0  0  0  0  0  0  0  0  0
    2.4542    1.4336    0.1766 H   0  0  0  0  0  0  0  0  0  0  0  0
   -0.1795   -3.1751    0.6956 H   0  0  0  0  0  0  0  0  0  0  0  0
   -0.1024   -3.0664   -1.1143 H   0  0  0  0  0  0  0  0  0  0  0  0
    1.4233   -3.0836   -0.1420 H   0  0  0  0  0  0  0  0  0  0  0  0
   -0.6108    3.4876   -0.3133 H   0  0  0  0  0  0  0  0  0  0  0  0
    0.2291    3.3553    1.2872 H   0  0  0  0  0  0  0  0  0  0  0  0
    1.2014    3.4975   -0.2360 H   0  0  0  0  0  0  0  0  0  0  0  0
   -2.9055   -0.6940   -0.3957 H   0  0  0  0  0  0  0  0  0  0  0  0
   -2.0880   -2.1359   -0.4961 H   0  0  0  0  0  0  0  0  0  0  0  0
  1  3  1  0  0  0  0
  1 19  1  0  0  0  0
  1 20  1  0  0  0  0
  2  3  2  0  0  0  0
  2  6  1  0  0  0  0
  2  8  1  0  0  0  0
  3  5  1  0  0  0  0
  4  5  2  0  0  0  0
  4  7  1  0  0  0  0
  4  9  1  0  0  0  0
  5 10  1  0  0  0  0
  6  7  2  0  0  0  0
  6 11  1  0  0  0  0
  7 12  1  0  0  0  0
  8 13  1  0  0  0  0
  8 14  1  0  0  0  0
  8 15  1  0  0  0  0
  9 16  1  0  0  0  0
  9 17  1  0  0  0  0
  9 18  1  0  0  0  0
M  END