
 OpenBabel06261318113D
Structure written by MMmdl.
 14 14  0  0  0  0  0  0  0  0999 V2000
   -2.7344    0.9728   -0.0306 Cl  0  0  0  0  0  0  0  0  0  0  0  0
    2.6867    0.9728   -0.0306 Cl  0  0  0  0  0  0  0  0  0  0  0  0
   -0.0238    2.2948   -0.0306 N   0  0  0  0  0  0  0  0  0  0  0  0
   -0.0238    0.9097   -0.0619 C   0  0  0  0  0  0  0  0  0  0  0  0
   -1.2346    0.1670   -0.1179 C   0  0  0  0  0  0  0  0  0  0  0  0
    1.1870    0.1670   -0.1179 C   0  0  0  0  0  0  0  0  0  0  0  0
   -1.2290   -1.2203   -0.2454 C   0  0  0  0  0  0  0  0  0  0  0  0
    1.1814   -1.2203   -0.2454 C   0  0  0  0  0  0  0  0  0  0  0  0
   -0.0238   -1.9146   -0.3107 C   0  0  0  0  0  0  0  0  0  0  0  0
   -2.1833   -1.7685   -0.2934 H   0  0  0  0  0  0  0  0  0  0  0  0
    2.1356   -1.7685   -0.2933 H   0  0  0  0  0  0  0  0  0  0  0  0
   -0.0238   -3.0090   -0.4131 H   0  0  0  0  0  0  0  0  0  0  0  0
   -0.8636    2.7288    0.2782 H   0  0  0  0  0  0  0  0  0  0  0  0
    0.8159    2.7288    0.2782 H   0  0  0  0  0  0  0  0  0  0  0  0
  1  5  1  0  0  0  0
  2  6  1  0  0  0  0
  3  4  1  0  0  0  0
  3 13  1  0  0  0  0
  3 14  1  0  0  0  0
  4  5  2  0  0  0  0
  4  6  1  0  0  0  0
  5  7  1  0  0  0  0
  6  8  2  0  0  0  0
  7  9  2  0  0  0  0
  7 10  1  0  0  0  0
  8  9  1  0  0  0  0
  8 11  1  0  0  0  0
  9 12  1  0  0  0  0
M  END