
 OpenBabel06261318113D
Structure written by MMmdl.
 13 13  0  0  0  0  0  0  0  0999 V2000
   -2.7909    1.2304   -0.0014 Cl  0  0  0  0  0  0  0  0  0  0  0  0
    2.6260    1.2304   -0.0014 Cl  0  0  0  0  0  0  0  0  0  0  0  0
   -0.1411    2.4987   -0.0014 O   0  0  0  0  0  0  0  0  0  0  0  0
   -0.0780    1.1288   -0.0009 C   0  0  0  0  0  0  0  0  0  0  0  0
   -1.2995    0.4210   -0.0006 C   0  0  0  0  0  0  0  0  0  0  0  0
    1.1338    0.4098   -0.0005 C   0  0  0  0  0  0  0  0  0  0  0  0
   -1.2899   -0.9758    0.0004 C   0  0  0  0  0  0  0  0  0  0  0  0
    1.1266   -0.9866    0.0005 C   0  0  0  0  0  0  0  0  0  0  0  0
   -0.0839   -1.6740    0.0010 C   0  0  0  0  0  0  0  0  0  0  0  0
   -2.2438   -1.5270    0.0008 H   0  0  0  0  0  0  0  0  0  0  0  0
    2.0783   -1.5406    0.0008 H   0  0  0  0  0  0  0  0  0  0  0  0
   -0.0889   -2.7741    0.0018 H   0  0  0  0  0  0  0  0  0  0  0  0
    0.7660    2.8466   -0.0018 H   0  0  0  0  0  0  0  0  0  0  0  0
  1  5  1  0  0  0  0
  2  6  1  0  0  0  0
  3  4  1  0  0  0  0
  3 13  1  0  0  0  0
  4  5  2  0  0  0  0
  4  6  1  0  0  0  0
  5  7  1  0  0  0  0
  6  8  2  0  0  0  0
  7  9  2  0  0  0  0
  7 10  1  0  0  0  0
  8  9  1  0  0  0  0
  8 11  1  0  0  0  0
  9 12  1  0  0  0  0
M  END