
 OpenBabel06261318113D
Structure written by MMmdl.
 26 26  0  0  0  0  0  0  0  0999 V2000
   -1.5121   -0.8729   -0.4438 N   0  0  0  0  0  0  0  0  0  0  0  0
    0.9383   -0.8729   -0.4438 C   0  0  0  0  0  0  0  0  0  0  0  0
   -0.2847    1.2480   -0.4438 C   0  0  0  0  0  0  0  0  0  0  0  0
   -0.2991   -0.1734   -0.4162 C   0  0  0  0  0  0  0  0  0  0  0  0
    1.0027   -2.3625   -0.4295 C   0  0  0  0  0  0  0  0  0  0  0  0
   -1.5417    2.0498   -0.4296 C   0  0  0  0  0  0  0  0  0  0  0  0
    2.1353   -0.1568   -0.5000 C   0  0  0  0  0  0  0  0  0  0  0  0
    0.9346    1.9253   -0.5001 C   0  0  0  0  0  0  0  0  0  0  0  0
    2.1415    1.2340   -0.5266 C   0  0  0  0  0  0  0  0  0  0  0  0
    0.8420   -2.9361    0.9586 C   0  0  0  0  0  0  0  0  0  0  0  0
   -2.1188    2.1981    0.9585 C   0  0  0  0  0  0  0  0  0  0  0  0
    0.2265   -2.7963   -1.1159 H   0  0  0  0  0  0  0  0  0  0  0  0
    1.9974   -2.6915   -0.8396 H   0  0  0  0  0  0  0  0  0  0  0  0
   -1.3282    3.0756   -0.8396 H   0  0  0  0  0  0  0  0  0  0  0  0
   -2.3060    1.5954   -1.1160 H   0  0  0  0  0  0  0  0  0  0  0  0
    3.0899   -0.7053   -0.5235 H   0  0  0  0  0  0  0  0  0  0  0  0
    0.9381    3.0262   -0.5240 H   0  0  0  0  0  0  0  0  0  0  0  0
    3.0926    1.7825   -0.5703 H   0  0  0  0  0  0  0  0  0  0  0  0
    1.6524   -2.5643    1.6312 H   0  0  0  0  0  0  0  0  0  0  0  0
    0.8974   -4.0511    0.9201 H   0  0  0  0  0  0  0  0  0  0  0  0
   -0.1384   -2.6489    1.4083 H   0  0  0  0  0  0  0  0  0  0  0  0
   -2.3614    1.2058    1.4082 H   0  0  0  0  0  0  0  0  0  0  0  0
   -3.0560    2.8046    0.9199 H   0  0  0  0  0  0  0  0  0  0  0  0
   -1.3911    2.7133    1.6312 H   0  0  0  0  0  0  0  0  0  0  0  0
   -2.2883   -0.3625   -0.0831 H   0  0  0  0  0  0  0  0  0  0  0  0
   -1.4592   -1.8003   -0.0830 H   0  0  0  0  0  0  0  0  0  0  0  0
  1  4  1  0  0  0  0
  1 25  1  0  0  0  0
  1 26  1  0  0  0  0
  2  4  2  0  0  0  0
  2  5  1  0  0  0  0
  2  7  1  0  0  0  0
  3  4  1  0  0  0  0
  3  6  1  0  0  0  0
  3  8  2  0  0  0  0
  5 10  1  0  0  0  0
  5 12  1  0  0  0  0
  5 13  1  0  0  0  0
  6 11  1  0  0  0  0
  6 14  1  0  0  0  0
  6 15  1  0  0  0  0
  7  9  2  0  0  0  0
  7 16  1  0  0  0  0
  8  9  1  0  0  0  0
  8 17  1  0  0  0  0
  9 18  1  0  0  0  0
 10 19  1  0  0  0  0
 10 20  1  0  0  0  0
 10 21  1  0  0  0  0
 11 22  1  0  0  0  0
 11 23  1  0  0  0  0
 11 24  1  0  0  0  0
M  END