
 OpenBabel06261318113D
Structure written by MMmdl.
 14 14  0  0  0  0  0  0  0  0999 V2000
   -2.0227   -2.0487    0.0553 Cl  0  0  0  0  0  0  0  0  0  0  0  0
    1.0081   -2.0487    0.0553 N   0  0  0  0  0  0  0  0  0  0  0  0
    0.3877   -0.8015    0.0553 C   0  0  0  0  0  0  0  0  0  0  0  0
   -1.0233   -0.6679    0.0019 C   0  0  0  0  0  0  0  0  0  0  0  0
    1.1612    0.3860    0.0272 C   0  0  0  0  0  0  0  0  0  0  0  0
   -1.6221    0.5887   -0.0956 C   0  0  0  0  0  0  0  0  0  0  0  0
    0.5511    1.6287   -0.0689 C   0  0  0  0  0  0  0  0  0  0  0  0
   -0.8385    1.7378   -0.1315 C   0  0  0  0  0  0  0  0  0  0  0  0
    2.2588    0.3219    0.0716 H   0  0  0  0  0  0  0  0  0  0  0  0
   -2.7196    0.6678   -0.1427 H   0  0  0  0  0  0  0  0  0  0  0  0
    1.1729    2.5367   -0.0952 H   0  0  0  0  0  0  0  0  0  0  0  0
   -1.3141    2.7254   -0.2085 H   0  0  0  0  0  0  0  0  0  0  0  0
    1.9316   -2.0553    0.4252 H   0  0  0  0  0  0  0  0  0  0  0  0
    0.4429   -2.8094    0.3605 H   0  0  0  0  0  0  0  0  0  0  0  0
  1  4  1  0  0  0  0
  2  3  1  0  0  0  0
  2 13  1  0  0  0  0
  2 14  1  0  0  0  0
  3  4  2  0  0  0  0
  3  5  1  0  0  0  0
  4  6  1  0  0  0  0
  5  7  2  0  0  0  0
  5  9  1  0  0  0  0
  6  8  2  0  0  0  0
  6 10  1  0  0  0  0
  7  8  1  0  0  0  0
  7 11  1  0  0  0  0
  8 12  1  0  0  0  0
M  END