
 OpenBabel06261318113D
Structure written by MMmdl.
 13 13  0  0  0  0  0  0  0  0999 V2000
   -1.9892   -2.2768    0.0008 Cl  0  0  0  0  0  0  0  0  0  0  0  0
    0.9720   -2.2768    0.0008 O   0  0  0  0  0  0  0  0  0  0  0  0
    0.4195   -1.0175    0.0008 C   0  0  0  0  0  0  0  0  0  0  0  0
   -0.9853   -0.9083    0.0006 C   0  0  0  0  0  0  0  0  0  0  0  0
    1.2163    0.1387    0.0007 C   0  0  0  0  0  0  0  0  0  0  0  0
   -1.5697    0.3624    0.0001 C   0  0  0  0  0  0  0  0  0  0  0  0
    0.6158    1.3935    0.0003 C   0  0  0  0  0  0  0  0  0  0  0  0
   -0.7744    1.5062    0.0000 C   0  0  0  0  0  0  0  0  0  0  0  0
    2.3118    0.0456    0.0009 H   0  0  0  0  0  0  0  0  0  0  0  0
   -2.6671    0.4560   -0.0001 H   0  0  0  0  0  0  0  0  0  0  0  0
    1.2422    2.2980    0.0002 H   0  0  0  0  0  0  0  0  0  0  0  0
   -1.2470    2.4991   -0.0005 H   0  0  0  0  0  0  0  0  0  0  0  0
    1.9358   -2.1772    0.0013 H   0  0  0  0  0  0  0  0  0  0  0  0
  1  4  1  0  0  0  0
  2  3  1  0  0  0  0
  2 13  1  0  0  0  0
  3  4  2  0  0  0  0
  3  5  1  0  0  0  0
  4  6  1  0  0  0  0
  5  7  2  0  0  0  0
  5  9  1  0  0  0  0
  6  8  2  0  0  0  0
  6 10  1  0  0  0  0
  7  8  1  0  0  0  0
  7 11  1  0  0  0  0
  8 12  1  0  0  0  0
M  END