
 OpenBabel06261318113D
Structure written by MMmdl.
 20 20  0  0  0  0  0  0  0  0999 V2000
   -2.1606    0.1675    0.2939 N   0  0  0  0  0  0  0  0  0  0  0  0
    0.3004    0.1675    0.2939 C   0  0  0  0  0  0  0  0  0  0  0  0
    0.3768    1.6555    0.2939 C   0  0  0  0  0  0  0  0  0  0  0  0
   -0.9414   -0.5202    0.2565 C   0  0  0  0  0  0  0  0  0  0  0  0
    1.4868   -0.5689    0.3467 C   0  0  0  0  0  0  0  0  0  0  0  0
    0.2202    2.2428   -1.0890 C   0  0  0  0  0  0  0  0  0  0  0  0
   -0.9342   -1.9362    0.2634 C   0  0  0  0  0  0  0  0  0  0  0  0
    1.4779   -1.9605    0.3587 C   0  0  0  0  0  0  0  0  0  0  0  0
    0.2616   -2.6397    0.3181 C   0  0  0  0  0  0  0  0  0  0  0  0
   -0.3998    2.0862    0.9818 H   0  0  0  0  0  0  0  0  0  0  0  0
    1.3728    1.9741    0.7086 H   0  0  0  0  0  0  0  0  0  0  0  0
    2.4484   -0.0329    0.3796 H   0  0  0  0  0  0  0  0  0  0  0  0
    1.0271    1.8711   -1.7658 H   0  0  0  0  0  0  0  0  0  0  0  0
    0.2838    3.3569   -1.0406 H   0  0  0  0  0  0  0  0  0  0  0  0
   -0.7631    1.9666   -1.5394 H   0  0  0  0  0  0  0  0  0  0  0  0
   -1.8849   -2.4896    0.2348 H   0  0  0  0  0  0  0  0  0  0  0  0
    2.4233   -2.5187    0.4008 H   0  0  0  0  0  0  0  0  0  0  0  0
    0.2449   -3.7398    0.3280 H   0  0  0  0  0  0  0  0  0  0  0  0
   -2.1238    1.0910   -0.0784 H   0  0  0  0  0  0  0  0  0  0  0  0
   -2.9338   -0.3591   -0.0483 H   0  0  0  0  0  0  0  0  0  0  0  0
  1  4  1  0  0  0  0
  1 19  1  0  0  0  0
  1 20  1  0  0  0  0
  2  3  1  0  0  0  0
  2  4  2  0  0  0  0
  2  5  1  0  0  0  0
  3  6  1  0  0  0  0
  3 10  1  0  0  0  0
  3 11  1  0  0  0  0
  4  7  1  0  0  0  0
  5  8  2  0  0  0  0
  5 12  1  0  0  0  0
  6 13  1  0  0  0  0
  6 14  1  0  0  0  0
  6 15  1  0  0  0  0
  7  9  2  0  0  0  0
  7 16  1  0  0  0  0
  8  9  1  0  0  0  0
  8 17  1  0  0  0  0
  9 18  1  0  0  0  0
M  END