
 OpenBabel06261318113D
Structure written by MMmdl.
 19 19  0  0  0  0  0  0  0  0999 V2000
   -2.2166    0.2392    0.3109 O   0  0  0  0  0  0  0  0  0  0  0  0
    0.1633    0.2392    0.3109 C   0  0  0  0  0  0  0  0  0  0  0  0
    0.1763    1.7269    0.3109 C   0  0  0  0  0  0  0  0  0  0  0  0
   -1.0450   -0.4867    0.3148 C   0  0  0  0  0  0  0  0  0  0  0  0
    1.3622   -0.4802    0.3189 C   0  0  0  0  0  0  0  0  0  0  0  0
    0.6652    2.2914   -1.0017 C   0  0  0  0  0  0  0  0  0  0  0  0
   -1.0470   -1.8895    0.3246 C   0  0  0  0  0  0  0  0  0  0  0  0
    1.3674   -1.8740    0.3277 C   0  0  0  0  0  0  0  0  0  0  0  0
    0.1634   -2.5770    0.3302 C   0  0  0  0  0  0  0  0  0  0  0  0
   -0.8559    2.1170    0.5228 H   0  0  0  0  0  0  0  0  0  0  0  0
    0.8443    2.0837    1.1416 H   0  0  0  0  0  0  0  0  0  0  0  0
    2.3147    0.0721    0.3177 H   0  0  0  0  0  0  0  0  0  0  0  0
    1.6933    1.9209   -1.2322 H   0  0  0  0  0  0  0  0  0  0  0  0
    0.6916    3.4066   -0.9513 H   0  0  0  0  0  0  0  0  0  0  0  0
   -0.0124    1.9905   -1.8366 H   0  0  0  0  0  0  0  0  0  0  0  0
   -1.9991   -2.4384    0.3277 H   0  0  0  0  0  0  0  0  0  0  0  0
    2.3224   -2.4185    0.3333 H   0  0  0  0  0  0  0  0  0  0  0  0
    0.1661   -3.6768    0.3372 H   0  0  0  0  0  0  0  0  0  0  0  0
   -2.9536   -0.3885    0.3265 H   0  0  0  0  0  0  0  0  0  0  0  0
  1  4  1  0  0  0  0
  1 19  1  0  0  0  0
  2  3  1  0  0  0  0
  2  4  2  0  0  0  0
  2  5  1  0  0  0  0
  3  6  1  0  0  0  0
  3 10  1  0  0  0  0
  3 11  1  0  0  0  0
  4  7  1  0  0  0  0
  5  8  2  0  0  0  0
  5 12  1  0  0  0  0
  6 13  1  0  0  0  0
  6 14  1  0  0  0  0
  6 15  1  0  0  0  0
  7  9  2  0  0  0  0
  7 16  1  0  0  0  0
  8  9  1  0  0  0  0
  8 17  1  0  0  0  0
  9 18  1  0  0  0  0
M  END