
 OpenBabel06261318113D
Structure written by MMmdl.
 19 18  0  0  0  0  0  0  0  0999 V2000
    0.1435   -0.4087   -0.1660 O   0  0  0  0  0  0  0  0  0  0  0  0
    2.9895   -0.4087   -0.1660 O   0  0  0  0  0  0  0  0  0  0  0  0
   -1.1322    0.2444   -0.1660 C   0  0  0  0  0  0  0  0  0  0  0  0
    0.8842   -0.2063    1.0336 C   0  0  0  0  0  0  0  0  0  0  0  0
   -0.9777    1.7274   -0.4458 C   0  0  0  0  0  0  0  0  0  0  0  0
   -1.9443   -0.4401   -1.2517 C   0  0  0  0  0  0  0  0  0  0  0  0
    2.1924   -0.9711    0.8547 C   0  0  0  0  0  0  0  0  0  0  0  0
   -1.6267    0.0933    0.8353 H   0  0  0  0  0  0  0  0  0  0  0  0
    1.0828    0.8875    1.1797 H   0  0  0  0  0  0  0  0  0  0  0  0
    0.3117   -0.6066    1.9107 H   0  0  0  0  0  0  0  0  0  0  0  0
   -1.9831    2.1926   -0.5789 H   0  0  0  0  0  0  0  0  0  0  0  0
   -0.4564    2.2362    0.3995 H   0  0  0  0  0  0  0  0  0  0  0  0
   -0.3800    1.8845   -1.3753 H   0  0  0  0  0  0  0  0  0  0  0  0
   -2.9689   -0.0007   -1.2806 H   0  0  0  0  0  0  0  0  0  0  0  0
   -2.0174   -1.5340   -1.0444 H   0  0  0  0  0  0  0  0  0  0  0  0
   -1.4571   -0.3004   -2.2458 H   0  0  0  0  0  0  0  0  0  0  0  0
    1.9784   -2.0491    0.6269 H   0  0  0  0  0  0  0  0  0  0  0  0
    2.8107   -0.8903    1.7876 H   0  0  0  0  0  0  0  0  0  0  0  0
    2.4500   -0.3939   -0.9673 H   0  0  0  0  0  0  0  0  0  0  0  0
  1  3  1  0  0  0  0
  1  4  1  0  0  0  0
  2  7  1  0  0  0  0
  2 19  1  0  0  0  0
  3  5  1  0  0  0  0
  3  6  1  0  0  0  0
  3  8  1  0  0  0  0
  4  7  1  0  0  0  0
  4  9  1  0  0  0  0
  4 10  1  0  0  0  0
  5 11  1  0  0  0  0
  5 12  1  0  0  0  0
  5 13  1  0  0  0  0
  6 14  1  0  0  0  0
  6 15  1  0  0  0  0
  6 16  1  0  0  0  0
  7 17  1  0  0  0  0
  7 18  1  0  0  0  0
M  END