
 OpenBabel06261318113D
Structure written by MMmdl.
 13 12  0  0  0  0  0  0  0  0999 V2000
   -0.6796   -0.7006   -0.0232 O   0  0  0  0  0  0  0  0  0  0  0  0
    2.1709   -0.7006   -0.0232 O   0  0  0  0  0  0  0  0  0  0  0  0
    0.0665    0.5154   -0.0232 C   0  0  0  0  0  0  0  0  0  0  0  0
    1.3734    0.2117    0.7017 C   0  0  0  0  0  0  0  0  0  0  0  0
   -1.9118   -0.5864   -0.7136 C   0  0  0  0  0  0  0  0  0  0  0  0
    0.2625    0.8379   -1.0795 H   0  0  0  0  0  0  0  0  0  0  0  0
   -0.5082    1.3133    0.5149 H   0  0  0  0  0  0  0  0  0  0  0  0
    1.1586   -0.1926    1.7265 H   0  0  0  0  0  0  0  0  0  0  0  0
    1.9918    1.1449    0.7781 H   0  0  0  0  0  0  0  0  0  0  0  0
   -2.5616    0.1862   -0.2330 H   0  0  0  0  0  0  0  0  0  0  0  0
   -2.3764   -1.6001   -0.6259 H   0  0  0  0  0  0  0  0  0  0  0  0
   -1.7393   -0.3246   -1.7868 H   0  0  0  0  0  0  0  0  0  0  0  0
    1.6352   -1.4922   -0.1633 H   0  0  0  0  0  0  0  0  0  0  0  0
  1  3  1  0  0  0  0
  1  5  1  0  0  0  0
  2  4  1  0  0  0  0
  2 13  1  0  0  0  0
  3  4  1  0  0  0  0
  3  6  1  0  0  0  0
  3  7  1  0  0  0  0
  4  8  1  0  0  0  0
  4  9  1  0  0  0  0
  5 10  1  0  0  0  0
  5 11  1  0  0  0  0
  5 12  1  0  0  0  0
M  END