
 OpenBabel06261318113D
Structure written by MMmdl.
 17 17  0  0  0  0  0  0  0  0999 V2000
   -2.0925   -0.5998   -0.0239 N   0  0  0  0  0  0  0  0  0  0  0  0
    0.3640   -0.5998   -0.0239 C   0  0  0  0  0  0  0  0  0  0  0  0
   -0.8758    0.0936   -0.0239 C   0  0  0  0  0  0  0  0  0  0  0  0
    1.5537    0.1252    0.0694 C   0  0  0  0  0  0  0  0  0  0  0  0
   -0.8646    1.5060    0.0584 C   0  0  0  0  0  0  0  0  0  0  0  0
    0.4078   -2.0778   -0.1130 C   0  0  0  0  0  0  0  0  0  0  0  0
    1.5487    1.5145    0.1578 C   0  0  0  0  0  0  0  0  0  0  0  0
    0.3351    2.1997    0.1527 C   0  0  0  0  0  0  0  0  0  0  0  0
    2.5128   -0.4158    0.0730 H   0  0  0  0  0  0  0  0  0  0  0  0
   -1.8129    2.0640    0.0583 H   0  0  0  0  0  0  0  0  0  0  0  0
   -0.1408   -2.5407    0.7458 H   0  0  0  0  0  0  0  0  0  0  0  0
   -0.0647   -2.4316   -1.0643 H   0  0  0  0  0  0  0  0  0  0  0  0
    1.4615   -2.4509   -0.0928 H   0  0  0  0  0  0  0  0  0  0  0  0
    2.4960    2.0663    0.2312 H   0  0  0  0  0  0  0  0  0  0  0  0
    0.3233    3.2977    0.2221 H   0  0  0  0  0  0  0  0  0  0  0  0
   -2.0495   -1.5029   -0.4430 H   0  0  0  0  0  0  0  0  0  0  0  0
   -2.8664   -0.0599   -0.3438 H   0  0  0  0  0  0  0  0  0  0  0  0
  1  3  1  0  0  0  0
  1 16  1  0  0  0  0
  1 17  1  0  0  0  0
  2  3  2  0  0  0  0
  2  4  1  0  0  0  0
  2  6  1  0  0  0  0
  3  5  1  0  0  0  0
  4  7  2  0  0  0  0
  4  9  1  0  0  0  0
  5  8  2  0  0  0  0
  5 10  1  0  0  0  0
  6 11  1  0  0  0  0
  6 12  1  0  0  0  0
  6 13  1  0  0  0  0
  7  8  1  0  0  0  0
  7 14  1  0  0  0  0
  8 15  1  0  0  0  0
M  END