
 OpenBabel06261318113D
Structure written by MMmdl.
 14 14  0  0  0  0  0  0  0  0999 V2000
   -2.7467    1.9094    0.0467 Cl  0  0  0  0  0  0  0  0  0  0  0  0
    2.6450    1.9094    0.0467 Cl  0  0  0  0  0  0  0  0  0  0  0  0
   -0.0509    3.5039    0.0467 Cl  0  0  0  0  0  0  0  0  0  0  0  0
   -0.0509   -2.4100    0.1530 N   0  0  0  0  0  0  0  0  0  0  0  0
   -0.0509   -1.0208    0.0607 C   0  0  0  0  0  0  0  0  0  0  0  0
    1.1653   -0.2987    0.0521 C   0  0  0  0  0  0  0  0  0  0  0  0
   -1.2670   -0.2987    0.0521 C   0  0  0  0  0  0  0  0  0  0  0  0
   -1.2573    1.0937    0.0513 C   0  0  0  0  0  0  0  0  0  0  0  0
    1.1555    1.0937    0.0514 C   0  0  0  0  0  0  0  0  0  0  0  0
   -0.0509    1.8113    0.0505 C   0  0  0  0  0  0  0  0  0  0  0  0
    2.1275   -0.8344    0.0564 H   0  0  0  0  0  0  0  0  0  0  0  0
   -2.2293   -0.8344    0.0563 H   0  0  0  0  0  0  0  0  0  0  0  0
    0.7855   -2.8580   -0.1443 H   0  0  0  0  0  0  0  0  0  0  0  0
   -0.8872   -2.8580   -0.1443 H   0  0  0  0  0  0  0  0  0  0  0  0
  1  8  1  0  0  0  0
  2  9  1  0  0  0  0
  3 10  1  0  0  0  0
  4  5  1  0  0  0  0
  4 13  1  0  0  0  0
  4 14  1  0  0  0  0
  5  6  2  0  0  0  0
  5  7  1  0  0  0  0
  6  9  1  0  0  0  0
  6 11  1  0  0  0  0
  7  8  2  0  0  0  0
  7 12  1  0  0  0  0
  8 10  1  0  0  0  0
  9 10  2  0  0  0  0
M  END