
 OpenBabel06261318113D
Structure written by MMmdl.
 13 13  0  0  0  0  0  0  0  0999 V2000
   -1.5493   -2.8546   -0.0007 Cl  0  0  0  0  0  0  0  0  0  0  0  0
    1.6045   -2.8546   -0.0007 Cl  0  0  0  0  0  0  0  0  0  0  0  0
   -1.4162    2.1621   -0.0007 O   0  0  0  0  0  0  0  0  0  0  0  0
   -0.6647    1.0109   -0.0006 C   0  0  0  0  0  0  0  0  0  0  0  0
   -1.3805   -0.1964   -0.0008 C   0  0  0  0  0  0  0  0  0  0  0  0
    0.7377    1.0195   -0.0003 C   0  0  0  0  0  0  0  0  0  0  0  0
   -0.6757   -1.4011   -0.0007 C   0  0  0  0  0  0  0  0  0  0  0  0
    0.7291   -1.4017   -0.0006 C   0  0  0  0  0  0  0  0  0  0  0  0
    1.4262   -0.1888   -0.0003 C   0  0  0  0  0  0  0  0  0  0  0  0
   -2.4806   -0.1771   -0.0010 H   0  0  0  0  0  0  0  0  0  0  0  0
    1.2883    1.9708    0.0000 H   0  0  0  0  0  0  0  0  0  0  0  0
    2.5278   -0.1900   -0.0001 H   0  0  0  0  0  0  0  0  0  0  0  0
   -0.8084    2.9164   -0.0004 H   0  0  0  0  0  0  0  0  0  0  0  0
  1  7  1  0  0  0  0
  2  8  1  0  0  0  0
  3  4  1  0  0  0  0
  3 13  1  0  0  0  0
  4  5  2  0  0  0  0
  4  6  1  0  0  0  0
  5  7  1  0  0  0  0
  5 10  1  0  0  0  0
  6  9  2  0  0  0  0
  6 11  1  0  0  0  0
  7  8  2  0  0  0  0
  8  9  1  0  0  0  0
  9 12  1  0  0  0  0
M  END