
 OpenBabel06261318113D
Structure written by MMmdl.
 19 19  0  0  0  0  0  0  0  0999 V2000
   -3.3289   -0.7355   -0.0001 O   0  0  0  0  0  0  0  0  0  0  0  0
    0.3180   -0.7355   -0.0001 C   0  0  0  0  0  0  0  0  0  0  0  0
    0.6040    0.6435   -0.0001 C   0  0  0  0  0  0  0  0  0  0  0  0
   -1.0066   -1.1743   -0.0002 C   0  0  0  0  0  0  0  0  0  0  0  0
   -0.4468    1.5652   -0.0003 C   0  0  0  0  0  0  0  0  0  0  0  0
    1.4216   -1.7244    0.0001 C   0  0  0  0  0  0  0  0  0  0  0  0
    2.0081    1.1139    0.0001 C   0  0  0  0  0  0  0  0  0  0  0  0
   -2.0467   -0.2325   -0.0003 C   0  0  0  0  0  0  0  0  0  0  0  0
   -1.7728    1.1412   -0.0003 C   0  0  0  0  0  0  0  0  0  0  0  0
   -1.2495   -2.2464   -0.0002 H   0  0  0  0  0  0  0  0  0  0  0  0
   -0.2253    2.6436   -0.0004 H   0  0  0  0  0  0  0  0  0  0  0  0
    1.0320   -2.7716   -0.0012 H   0  0  0  0  0  0  0  0  0  0  0  0
    2.0652   -1.5838   -0.9049 H   0  0  0  0  0  0  0  0  0  0  0  0
    2.0634   -1.5853    0.9066 H   0  0  0  0  0  0  0  0  0  0  0  0
    2.5450    0.7335   -0.9055 H   0  0  0  0  0  0  0  0  0  0  0  0
    2.0642    2.2298    0.0006 H   0  0  0  0  0  0  0  0  0  0  0  0
    2.5450    0.7326    0.9053 H   0  0  0  0  0  0  0  0  0  0  0  0
   -2.5924    1.8726   -0.0004 H   0  0  0  0  0  0  0  0  0  0  0  0
   -3.9412    0.0142   -0.0003 H   0  0  0  0  0  0  0  0  0  0  0  0
  1  8  1  0  0  0  0
  1 19  1  0  0  0  0
  2  3  2  0  0  0  0
  2  4  1  0  0  0  0
  2  6  1  0  0  0  0
  3  5  1  0  0  0  0
  3  7  1  0  0  0  0
  4  8  2  0  0  0  0
  4 10  1  0  0  0  0
  5  9  2  0  0  0  0
  5 11  1  0  0  0  0
  6 12  1  0  0  0  0
  6 13  1  0  0  0  0
  6 14  1  0  0  0  0
  7 15  1  0  0  0  0
  7 16  1  0  0  0  0
  7 17  1  0  0  0  0
  8  9  1  0  0  0  0
  9 18  1  0  0  0  0
M  END