
 OpenBabel06261318113D
Structure written by MMmdl.
 20 20  0  0  0  0  0  0  0  0999 V2000
   -2.8003   -0.9724   -0.0137 N   0  0  0  0  0  0  0  0  0  0  0  0
    0.9171   -0.9724   -0.0137 C   0  0  0  0  0  0  0  0  0  0  0  0
    0.1272    1.3187   -0.0137 C   0  0  0  0  0  0  0  0  0  0  0  0
    1.1806    0.4002    0.0047 C   0  0  0  0  0  0  0  0  0  0  0  0
   -1.4765   -0.5159   -0.0670 C   0  0  0  0  0  0  0  0  0  0  0  0
   -0.3997   -1.4307   -0.0546 C   0  0  0  0  0  0  0  0  0  0  0  0
   -1.1924    0.8681   -0.0547 C   0  0  0  0  0  0  0  0  0  0  0  0
    2.0365   -1.9438    0.0222 C   0  0  0  0  0  0  0  0  0  0  0  0
    0.4098    2.7736    0.0222 C   0  0  0  0  0  0  0  0  0  0  0  0
    2.2196    0.7584    0.0326 H   0  0  0  0  0  0  0  0  0  0  0  0
   -0.5938   -2.5135   -0.0680 H   0  0  0  0  0  0  0  0  0  0  0  0
   -2.0125    1.6012   -0.0681 H   0  0  0  0  0  0  0  0  0  0  0  0
    2.2860   -2.1949    1.0841 H   0  0  0  0  0  0  0  0  0  0  0  0
    1.7646   -2.8904   -0.5062 H   0  0  0  0  0  0  0  0  0  0  0  0
    2.9505   -1.5187   -0.4608 H   0  0  0  0  0  0  0  0  0  0  0  0
   -0.3837    3.3505   -0.5133 H   0  0  0  0  0  0  0  0  0  0  0  0
    0.4430    3.1267    1.0839 H   0  0  0  0  0  0  0  0  0  0  0  0
    1.3952    3.0017   -0.4533 H   0  0  0  0  0  0  0  0  0  0  0  0
   -3.4677   -0.3242   -0.3697 H   0  0  0  0  0  0  0  0  0  0  0  0
   -2.9264   -1.8942   -0.3695 H   0  0  0  0  0  0  0  0  0  0  0  0
  1  5  1  0  0  0  0
  1 19  1  0  0  0  0
  1 20  1  0  0  0  0
  2  4  2  0  0  0  0
  2  6  1  0  0  0  0
  2  8  1  0  0  0  0
  3  4  1  0  0  0  0
  3  7  2  0  0  0  0
  3  9  1  0  0  0  0
  4 10  1  0  0  0  0
  5  6  2  0  0  0  0
  5  7  1  0  0  0  0
  6 11  1  0  0  0  0
  7 12  1  0  0  0  0
  8 13  1  0  0  0  0
  8 14  1  0  0  0  0
  8 15  1  0  0  0  0
  9 16  1  0  0  0  0
  9 17  1  0  0  0  0
  9 18  1  0  0  0  0
M  END