
 OpenBabel06261318113D
Structure written by MMmdl.
 14 14  0  0  0  0  0  0  0  0999 V2000
   -3.1262   -1.1911   -0.0534 Cl  0  0  0  0  0  0  0  0  0  0  0  0
    1.9861   -1.1911   -0.0534 N   0  0  0  0  0  0  0  0  0  0  0  0
    0.7963   -0.4586   -0.0534 C   0  0  0  0  0  0  0  0  0  0  0  0
   -0.4537   -1.1194   -0.0981 C   0  0  0  0  0  0  0  0  0  0  0  0
    0.8149    0.9513    0.0719 C   0  0  0  0  0  0  0  0  0  0  0  0
   -1.6302   -0.3787   -0.0027 C   0  0  0  0  0  0  0  0  0  0  0  0
   -0.3748    1.6626    0.1651 C   0  0  0  0  0  0  0  0  0  0  0  0
   -1.6068    1.0118    0.1290 C   0  0  0  0  0  0  0  0  0  0  0  0
   -0.5004   -2.2144   -0.1971 H   0  0  0  0  0  0  0  0  0  0  0  0
    1.7735    1.4897    0.1061 H   0  0  0  0  0  0  0  0  0  0  0  0
   -0.3442    2.7583    0.2681 H   0  0  0  0  0  0  0  0  0  0  0  0
   -2.5422    1.5840    0.2028 H   0  0  0  0  0  0  0  0  0  0  0  0
    2.7863   -0.6820   -0.3552 H   0  0  0  0  0  0  0  0  0  0  0  0
    1.9158   -2.0989   -0.4554 H   0  0  0  0  0  0  0  0  0  0  0  0
  1  6  1  0  0  0  0
  2  3  1  0  0  0  0
  2 13  1  0  0  0  0
  2 14  1  0  0  0  0
  3  4  2  0  0  0  0
  3  5  1  0  0  0  0
  4  6  1  0  0  0  0
  4  9  1  0  0  0  0
  5  7  2  0  0  0  0
  5 10  1  0  0  0  0
  6  8  2  0  0  0  0
  7  8  1  0  0  0  0
  7 11  1  0  0  0  0
  8 12  1  0  0  0  0
M  END