
 OpenBabel06261318113D
Structure written by MMmdl.
 15 15  0  0  0  0  0  0  0  0999 V2000
   -3.4357    0.4737   -0.0248 Cl  0  0  0  0  0  0  0  0  0  0  0  0
    0.5459    0.4737   -0.0248 C   0  0  0  0  0  0  0  0  0  0  0  0
   -0.7876    0.8983   -0.0248 C   0  0  0  0  0  0  0  0  0  0  0  0
    0.8332   -0.8964   -0.0265 C   0  0  0  0  0  0  0  0  0  0  0  0
    1.6418    1.4700   -0.0089 C   0  0  0  0  0  0  0  0  0  0  0  0
   -1.8158   -0.0476   -0.0247 C   0  0  0  0  0  0  0  0  0  0  0  0
   -0.1993   -1.8322   -0.0264 C   0  0  0  0  0  0  0  0  0  0  0  0
   -1.5298   -1.4162   -0.0253 C   0  0  0  0  0  0  0  0  0  0  0  0
   -1.0214    1.9737   -0.0256 H   0  0  0  0  0  0  0  0  0  0  0  0
    1.8803   -1.2338   -0.0288 H   0  0  0  0  0  0  0  0  0  0  0  0
    1.3388    2.4075   -0.5372 H   0  0  0  0  0  0  0  0  0  0  0  0
    1.9019    1.7323    1.0479 H   0  0  0  0  0  0  0  0  0  0  0  0
    2.5581    1.0648   -0.5046 H   0  0  0  0  0  0  0  0  0  0  0  0
    0.0343   -2.9074   -0.0277 H   0  0  0  0  0  0  0  0  0  0  0  0
   -2.3435   -2.1563   -0.0257 H   0  0  0  0  0  0  0  0  0  0  0  0
  1  6  1  0  0  0  0
  2  3  2  0  0  0  0
  2  4  1  0  0  0  0
  2  5  1  0  0  0  0
  3  6  1  0  0  0  0
  3  9  1  0  0  0  0
  4  7  2  0  0  0  0
  4 10  1  0  0  0  0
  5 11  1  0  0  0  0
  5 12  1  0  0  0  0
  5 13  1  0  0  0  0
  6  8  2  0  0  0  0
  7  8  1  0  0  0  0
  7 14  1  0  0  0  0
  8 15  1  0  0  0  0
M  END