
 OpenBabel06261318113D
Structure written by MMmdl.
 20 20  0  0  0  0  0  0  0  0999 V2000
   -3.1174    0.0972   -0.2864 N   0  0  0  0  0  0  0  0  0  0  0  0
    0.6018    0.0972   -0.2864 C   0  0  0  0  0  0  0  0  0  0  0  0
    1.7266    1.0750   -0.2864 C   0  0  0  0  0  0  0  0  0  0  0  0
   -0.7159    0.5524   -0.3363 C   0  0  0  0  0  0  0  0  0  0  0  0
    0.8649   -1.2762   -0.2412 C   0  0  0  0  0  0  0  0  0  0  0  0
   -1.7946   -0.3612   -0.3315 C   0  0  0  0  0  0  0  0  0  0  0  0
    2.1144    1.4836    1.1150 C   0  0  0  0  0  0  0  0  0  0  0  0
   -0.1909   -2.1843   -0.2437 C   0  0  0  0  0  0  0  0  0  0  0  0
   -1.5089   -1.7457   -0.2924 C   0  0  0  0  0  0  0  0  0  0  0  0
    2.6160    0.6225   -0.8021 H   0  0  0  0  0  0  0  0  0  0  0  0
    1.4334    1.9874   -0.8723 H   0  0  0  0  0  0  0  0  0  0  0  0
   -0.9101    1.6351   -0.3690 H   0  0  0  0  0  0  0  0  0  0  0  0
    1.9030   -1.6350   -0.2037 H   0  0  0  0  0  0  0  0  0  0  0  0
    1.2509    1.9604    1.6385 H   0  0  0  0  0  0  0  0  0  0  0  0
    2.9582    2.2142    1.0814 H   0  0  0  0  0  0  0  0  0  0  0  0
    2.4370    0.5943    1.7084 H   0  0  0  0  0  0  0  0  0  0  0  0
    0.0182   -3.2643   -0.2085 H   0  0  0  0  0  0  0  0  0  0  0  0
   -2.3273   -2.4803   -0.2909 H   0  0  0  0  0  0  0  0  0  0  0  0
   -3.7860   -0.5566   -0.6295 H   0  0  0  0  0  0  0  0  0  0  0  0
   -3.2437    1.0133   -0.6564 H   0  0  0  0  0  0  0  0  0  0  0  0
  1  6  1  0  0  0  0
  1 19  1  0  0  0  0
  1 20  1  0  0  0  0
  2  3  1  0  0  0  0
  2  4  2  0  0  0  0
  2  5  1  0  0  0  0
  3  7  1  0  0  0  0
  3 10  1  0  0  0  0
  3 11  1  0  0  0  0
  4  6  1  0  0  0  0
  4 12  1  0  0  0  0
  5  8  2  0  0  0  0
  5 13  1  0  0  0  0
  6  9  2  0  0  0  0
  7 14  1  0  0  0  0
  7 15  1  0  0  0  0
  7 16  1  0  0  0  0
  8  9  1  0  0  0  0
  8 17  1  0  0  0  0
  9 18  1  0  0  0  0
M  END