
 OpenBabel06261318113D
Structure written by MMmdl.
 19 19  0  0  0  0  0  0  0  0999 V2000
   -3.2607    0.1700   -0.3114 O   0  0  0  0  0  0  0  0  0  0  0  0
    0.3838    0.1700   -0.3114 C   0  0  0  0  0  0  0  0  0  0  0  0
    1.5029    1.1533   -0.3114 C   0  0  0  0  0  0  0  0  0  0  0  0
   -0.9398    0.6122   -0.3076 C   0  0  0  0  0  0  0  0  0  0  0  0
    0.6593   -1.2049   -0.3251 C   0  0  0  0  0  0  0  0  0  0  0  0
    2.2280    1.1856    1.0128 C   0  0  0  0  0  0  0  0  0  0  0  0
   -1.9786   -0.3330   -0.3160 C   0  0  0  0  0  0  0  0  0  0  0  0
   -0.3792   -2.1318   -0.3332 C   0  0  0  0  0  0  0  0  0  0  0  0
   -1.7069   -1.7074   -0.3288 C   0  0  0  0  0  0  0  0  0  0  0  0
    2.2272    0.8808   -1.1266 H   0  0  0  0  0  0  0  0  0  0  0  0
    1.1112    2.1794   -0.5464 H   0  0  0  0  0  0  0  0  0  0  0  0
   -1.1843    1.6837   -0.2984 H   0  0  0  0  0  0  0  0  0  0  0  0
    1.7041   -1.5476   -0.3287 H   0  0  0  0  0  0  0  0  0  0  0  0
    1.5386    1.4996    1.8330 H   0  0  0  0  0  0  0  0  0  0  0  0
    3.0769    1.9096    0.9663 H   0  0  0  0  0  0  0  0  0  0  0  0
    2.6342    0.1756    1.2627 H   0  0  0  0  0  0  0  0  0  0  0  0
   -0.1538   -3.2086   -0.3439 H   0  0  0  0  0  0  0  0  0  0  0  0
   -2.5277   -2.4372   -0.3357 H   0  0  0  0  0  0  0  0  0  0  0  0
   -3.8735   -0.5792   -0.3186 H   0  0  0  0  0  0  0  0  0  0  0  0
  1  7  1  0  0  0  0
  1 19  1  0  0  0  0
  2  3  1  0  0  0  0
  2  4  2  0  0  0  0
  2  5  1  0  0  0  0
  3  6  1  0  0  0  0
  3 10  1  0  0  0  0
  3 11  1  0  0  0  0
  4  7  1  0  0  0  0
  4 12  1  0  0  0  0
  5  8  2  0  0  0  0
  5 13  1  0  0  0  0
  6 14  1  0  0  0  0
  6 15  1  0  0  0  0
  6 16  1  0  0  0  0
  7  9  2  0  0  0  0
  8  9  1  0  0  0  0
  8 17  1  0  0  0  0
  9 18  1  0  0  0  0
M  END