
 OpenBabel06261318113D
Structure written by MMmdl.
 17 17  0  0  0  0  0  0  0  0999 V2000
   -2.7162    0.3878    0.0092 N   0  0  0  0  0  0  0  0  0  0  0  0
    1.0031    0.3878    0.0092 C   0  0  0  0  0  0  0  0  0  0  0  0
   -0.3149    0.8457    0.0092 C   0  0  0  0  0  0  0  0  0  0  0  0
   -1.3935   -0.0627   -0.0859 C   0  0  0  0  0  0  0  0  0  0  0  0
    1.2660   -0.9824   -0.0967 C   0  0  0  0  0  0  0  0  0  0  0  0
   -1.1078   -1.4434   -0.1985 C   0  0  0  0  0  0  0  0  0  0  0  0
    0.2101   -1.8846   -0.1985 C   0  0  0  0  0  0  0  0  0  0  0  0
    2.1201    1.3540    0.1338 C   0  0  0  0  0  0  0  0  0  0  0  0
   -0.5089    1.9255    0.0940 H   0  0  0  0  0  0  0  0  0  0  0  0
    2.3039   -1.3436   -0.0998 H   0  0  0  0  0  0  0  0  0  0  0  0
   -1.9262   -2.1737   -0.2769 H   0  0  0  0  0  0  0  0  0  0  0  0
    0.4191   -2.9620   -0.2820 H   0  0  0  0  0  0  0  0  0  0  0  0
    1.8614    2.3306   -0.3444 H   0  0  0  0  0  0  0  0  0  0  0  0
    2.3399    1.5415    1.2153 H   0  0  0  0  0  0  0  0  0  0  0  0
    3.0476    0.9584   -0.3483 H   0  0  0  0  0  0  0  0  0  0  0  0
   -2.8429    1.3389   -0.2578 H   0  0  0  0  0  0  0  0  0  0  0  0
   -3.3851   -0.2247   -0.4025 H   0  0  0  0  0  0  0  0  0  0  0  0
  1  4  1  0  0  0  0
  1 16  1  0  0  0  0
  1 17  1  0  0  0  0
  2  3  2  0  0  0  0
  2  5  1  0  0  0  0
  2  8  1  0  0  0  0
  3  4  1  0  0  0  0
  3  9  1  0  0  0  0
  4  6  2  0  0  0  0
  5  7  2  0  0  0  0
  5 10  1  0  0  0  0
  6  7  1  0  0  0  0
  6 11  1  0  0  0  0
  7 12  1  0  0  0  0
  8 13  1  0  0  0  0
  8 14  1  0  0  0  0
  8 15  1  0  0  0  0
M  END