
 OpenBabel06261318113D
Structure written by MMmdl.
 15 15  0  0  0  0  0  0  0  0999 V2000
   -3.7601   -0.0002   -0.0185 Cl  0  0  0  0  0  0  0  0  0  0  0  0
    0.7360   -0.0002   -0.0185 C   0  0  0  0  0  0  0  0  0  0  0  0
    0.0277    1.2075   -0.0185 C   0  0  0  0  0  0  0  0  0  0  0  0
    0.0278   -1.2078   -0.0200 C   0  0  0  0  0  0  0  0  0  0  0  0
    2.2166    0.0003   -0.0031 C   0  0  0  0  0  0  0  0  0  0  0  0
   -1.3651    1.2136   -0.0180 C   0  0  0  0  0  0  0  0  0  0  0  0
   -1.3650   -1.2139   -0.0196 C   0  0  0  0  0  0  0  0  0  0  0  0
   -2.0592   -0.0002   -0.0183 C   0  0  0  0  0  0  0  0  0  0  0  0
    0.5757    2.1618   -0.0196 H   0  0  0  0  0  0  0  0  0  0  0  0
    0.5756   -2.1622   -0.0222 H   0  0  0  0  0  0  0  0  0  0  0  0
    2.6232   -0.9126   -0.5038 H   0  0  0  0  0  0  0  0  0  0  0  0
    2.6221    0.9011   -0.5264 H   0  0  0  0  0  0  0  0  0  0  0  0
    2.5862    0.0138    1.0536 H   0  0  0  0  0  0  0  0  0  0  0  0
   -1.9131    2.1677   -0.0180 H   0  0  0  0  0  0  0  0  0  0  0  0
   -1.9131   -2.1681   -0.0208 H   0  0  0  0  0  0  0  0  0  0  0  0
  1  8  1  0  0  0  0
  2  3  2  0  0  0  0
  2  4  1  0  0  0  0
  2  5  1  0  0  0  0
  3  6  1  0  0  0  0
  3  9  1  0  0  0  0
  4  7  2  0  0  0  0
  4 10  1  0  0  0  0
  5 11  1  0  0  0  0
  5 12  1  0  0  0  0
  5 13  1  0  0  0  0
  6  8  2  0  0  0  0
  6 14  1  0  0  0  0
  7  8  1  0  0  0  0
  7 15  1  0  0  0  0
M  END