
 OpenBabel06261318113D
Structure written by MMmdl.
 20 20  0  0  0  0  0  0  0  0999 V2000
   -3.5162   -0.2802   -0.0007 N   0  0  0  0  0  0  0  0  0  0  0  0
    0.7087   -0.2802   -0.0007 C   0  0  0  0  0  0  0  0  0  0  0  0
    2.1961   -0.2469   -0.0007 C   0  0  0  0  0  0  0  0  0  0  0  0
   -0.0035   -0.3023    1.2029 C   0  0  0  0  0  0  0  0  0  0  0  0
   -0.0035   -0.2930   -1.2044 C   0  0  0  0  0  0  0  0  0  0  0  0
   -2.1174   -0.3410   -0.0009 C   0  0  0  0  0  0  0  0  0  0  0  0
    2.7301    1.1660   -0.0007 C   0  0  0  0  0  0  0  0  0  0  0  0
   -1.3921   -0.3362    1.2133 C   0  0  0  0  0  0  0  0  0  0  0  0
   -1.3921   -0.3269   -1.2150 C   0  0  0  0  0  0  0  0  0  0  0  0
    2.5843   -0.7903    0.9028 H   0  0  0  0  0  0  0  0  0  0  0  0
    2.5841   -0.7903   -0.9042 H   0  0  0  0  0  0  0  0  0  0  0  0
    0.5438   -0.2939    2.1582 H   0  0  0  0  0  0  0  0  0  0  0  0
    0.5439   -0.2773   -2.1595 H   0  0  0  0  0  0  0  0  0  0  0  0
    2.3801    1.7183   -0.9058 H   0  0  0  0  0  0  0  0  0  0  0  0
    3.8467    1.1545   -0.0006 H   0  0  0  0  0  0  0  0  0  0  0  0
    2.3799    1.7185    0.9043 H   0  0  0  0  0  0  0  0  0  0  0  0
   -1.9255   -0.3499    2.1752 H   0  0  0  0  0  0  0  0  0  0  0  0
   -1.9255   -0.3332   -2.1771 H   0  0  0  0  0  0  0  0  0  0  0  0
   -3.9388   -0.6283   -0.8327 H   0  0  0  0  0  0  0  0  0  0  0  0
   -3.9388   -0.6353    0.8284 H   0  0  0  0  0  0  0  0  0  0  0  0
  1  6  1  0  0  0  0
  1 19  1  0  0  0  0
  1 20  1  0  0  0  0
  2  3  1  0  0  0  0
  2  4  2  0  0  0  0
  2  5  1  0  0  0  0
  3  7  1  0  0  0  0
  3 10  1  0  0  0  0
  3 11  1  0  0  0  0
  4  8  1  0  0  0  0
  4 12  1  0  0  0  0
  5  9  2  0  0  0  0
  5 13  1  0  0  0  0
  6  8  2  0  0  0  0
  6  9  1  0  0  0  0
  7 14  1  0  0  0  0
  7 15  1  0  0  0  0
  7 16  1  0  0  0  0
  8 17  1  0  0  0  0
  9 18  1  0  0  0  0
M  END