
 OpenBabel06261318113D
Structure written by MMmdl.
 19 19  0  0  0  0  0  0  0  0999 V2000
   -3.7045    0.0053   -0.2963 O   0  0  0  0  0  0  0  0  0  0  0  0
   -2.3276    0.0053   -0.2963 C   0  0  0  0  0  0  0  0  0  0  0  0
   -1.7004    1.2617   -0.2963 C   0  0  0  0  0  0  0  0  0  0  0  0
   -0.3112    1.3227   -0.2966 C   0  0  0  0  0  0  0  0  0  0  0  0
    0.4605    0.1537   -0.2967 C   0  0  0  0  0  0  0  0  0  0  0  0
   -0.1810   -1.0900   -0.2976 C   0  0  0  0  0  0  0  0  0  0  0  0
   -1.5704   -1.1744   -0.2972 C   0  0  0  0  0  0  0  0  0  0  0  0
    1.9471    0.2279   -0.3046 C   0  0  0  0  0  0  0  0  0  0  0  0
    2.5425   -0.1577    1.0286 C   0  0  0  0  0  0  0  0  0  0  0  0
   -4.0015   -0.9160   -0.2966 H   0  0  0  0  0  0  0  0  0  0  0  0
   -2.3125    2.1741   -0.2963 H   0  0  0  0  0  0  0  0  0  0  0  0
    0.1861    2.3048   -0.2972 H   0  0  0  0  0  0  0  0  0  0  0  0
    2.2761    1.2681   -0.5713 H   0  0  0  0  0  0  0  0  0  0  0  0
    2.3449   -0.4579   -1.1013 H   0  0  0  0  0  0  0  0  0  0  0  0
    2.2375   -1.1949    1.3091 H   0  0  0  0  0  0  0  0  0  0  0  0
    2.1982    0.5380    1.8311 H   0  0  0  0  0  0  0  0  0  0  0  0
    3.6572   -0.1160    0.9772 H   0  0  0  0  0  0  0  0  0  0  0  0
    0.4206   -2.0117   -0.2981 H   0  0  0  0  0  0  0  0  0  0  0  0
   -2.0687   -2.1536   -0.2981 H   0  0  0  0  0  0  0  0  0  0  0  0
  1  2  1  0  0  0  0
  1 10  1  0  0  0  0
  2  3  2  0  0  0  0
  2  7  1  0  0  0  0
  3  4  1  0  0  0  0
  3 11  1  0  0  0  0
  4  5  2  0  0  0  0
  4 12  1  0  0  0  0
  5  6  1  0  0  0  0
  5  8  1  0  0  0  0
  6  7  2  0  0  0  0
  6 18  1  0  0  0  0
  7 19  1  0  0  0  0
  8  9  1  0  0  0  0
  8 13  1  0  0  0  0
  8 14  1  0  0  0  0
  9 15  1  0  0  0  0
  9 16  1  0  0  0  0
  9 17  1  0  0  0  0
M  END