
 OpenBabel06261318113D
Structure written by MMmdl.
 10  9  0  0  0  0  0  0  0  0999 V2000
   -1.8561    0.0000   -0.0003 O   0  0  0  0  0  0  0  0  0  0  0  0
   -0.6208    0.0000   -0.0003 C   0  0  0  0  0  0  0  0  0  0  0  0
    0.1775    1.2642   -0.0003 C   0  0  0  0  0  0  0  0  0  0  0  0
    0.1774   -1.2642    0.0000 C   0  0  0  0  0  0  0  0  0  0  0  0
    0.8277    1.2993    0.9075 H   0  0  0  0  0  0  0  0  0  0  0  0
    0.8291    1.2985   -0.9070 H   0  0  0  0  0  0  0  0  0  0  0  0
   -0.4920    2.1583   -0.0011 H   0  0  0  0  0  0  0  0  0  0  0  0
   -0.4921   -2.1582   -0.0007 H   0  0  0  0  0  0  0  0  0  0  0  0
    0.8276   -1.2992    0.9077 H   0  0  0  0  0  0  0  0  0  0  0  0
    0.8290   -1.2988   -0.9068 H   0  0  0  0  0  0  0  0  0  0  0  0
  1  2  2  0  0  0  0
  2  3  1  0  0  0  0
  2  4  1  0  0  0  0
  3  5  1  0  0  0  0
  3  6  1  0  0  0  0
  3  7  1  0  0  0  0
  4  8  1  0  0  0  0
  4  9  1  0  0  0  0
  4 10  1  0  0  0  0
M  END