
 OpenBabel06261318113D
Structure written by MMmdl.
 14 14  0  0  0  0  0  0  0  0999 V2000
   -2.3038   -0.0024   -0.0524 N   0  0  0  0  0  0  0  0  0  0  0  0
   -0.9040   -0.0024   -0.0524 C   0  0  0  0  0  0  0  0  0  0  0  0
   -0.1812    1.2138   -0.0524 C   0  0  0  0  0  0  0  0  0  0  0  0
   -0.1815   -1.2161    0.0300 C   0  0  0  0  0  0  0  0  0  0  0  0
    1.2056    1.2053    0.0425 C   0  0  0  0  0  0  0  0  0  0  0  0
    1.2053   -1.2015    0.1241 C   0  0  0  0  0  0  0  0  0  0  0  0
    1.9064    0.0034    0.1305 C   0  0  0  0  0  0  0  0  0  0  0  0
   -0.7148    2.1734   -0.1176 H   0  0  0  0  0  0  0  0  0  0  0  0
   -0.7154   -2.1777    0.0299 H   0  0  0  0  0  0  0  0  0  0  0  0
    1.7530    2.1600    0.0467 H   0  0  0  0  0  0  0  0  0  0  0  0
    1.7523   -2.1540    0.1931 H   0  0  0  0  0  0  0  0  0  0  0  0
    3.0025    0.0057    0.2044 H   0  0  0  0  0  0  0  0  0  0  0  0
   -2.7123   -0.8454   -0.3906 H   0  0  0  0  0  0  0  0  0  0  0  0
   -2.7123    0.8155   -0.4473 H   0  0  0  0  0  0  0  0  0  0  0  0
  1  2  1  0  0  0  0
  1 13  1  0  0  0  0
  1 14  1  0  0  0  0
  2  3  2  0  0  0  0
  2  4  1  0  0  0  0
  3  5  1  0  0  0  0
  3  8  1  0  0  0  0
  4  6  2  0  0  0  0
  4  9  1  0  0  0  0
  5  7  2  0  0  0  0
  5 10  1  0  0  0  0
  6  7  1  0  0  0  0
  6 11  1  0  0  0  0
  7 12  1  0  0  0  0
M  END