
 OpenBabel06261318113D
Structure written by MMmdl.
 12 12  0  0  0  0  0  0  0  0999 V2000
   -0.6976   -1.2081   -0.0003 C   0  0  0  0  0  0  0  0  0  0  0  0
    0.6975   -1.2081   -0.0003 C   0  0  0  0  0  0  0  0  0  0  0  0
   -1.3951    0.0000   -0.0003 C   0  0  0  0  0  0  0  0  0  0  0  0
    1.3950    0.0000    0.0000 C   0  0  0  0  0  0  0  0  0  0  0  0
   -0.6976    1.2081    0.0001 C   0  0  0  0  0  0  0  0  0  0  0  0
    0.6974    1.2081    0.0003 C   0  0  0  0  0  0  0  0  0  0  0  0
   -1.2474   -2.1605   -0.0005 H   0  0  0  0  0  0  0  0  0  0  0  0
    1.2473   -2.1605   -0.0005 H   0  0  0  0  0  0  0  0  0  0  0  0
   -2.4947    0.0000   -0.0005 H   0  0  0  0  0  0  0  0  0  0  0  0
    2.4946    0.0000    0.0001 H   0  0  0  0  0  0  0  0  0  0  0  0
   -1.2474    2.1604    0.0003 H   0  0  0  0  0  0  0  0  0  0  0  0
    1.2473    2.1605    0.0007 H   0  0  0  0  0  0  0  0  0  0  0  0
  1  2  2  0  0  0  0
  1  3  1  0  0  0  0
  1  7  1  0  0  0  0
  2  4  1  0  0  0  0
  2  8  1  0  0  0  0
  3  5  2  0  0  0  0
  3  9  1  0  0  0  0
  4  6  2  0  0  0  0
  4 10  1  0  0  0  0
  5  6  1  0  0  0  0
  5 11  1  0  0  0  0
  6 12  1  0  0  0  0
M  END