
 OpenBabel06261318113D
Structure written by MMmdl.
 18 18  0  0  0  0  0  0  0  0999 V2000
   -0.7632   -1.1236    0.5759 C   0  0  0  0  0  0  0  0  0  0  0  0
    0.7520   -1.1236    0.5759 C   0  0  0  0  0  0  0  0  0  0  0  0
   -1.3139    0.2880    0.5759 C   0  0  0  0  0  0  0  0  0  0  0  0
    1.3027   -0.3176   -0.5830 C   0  0  0  0  0  0  0  0  0  0  0  0
   -0.7632    1.0939   -0.5830 C   0  0  0  0  0  0  0  0  0  0  0  0
    0.7519    1.0939   -0.5830 C   0  0  0  0  0  0  0  0  0  0  0  0
   -1.1358   -1.6690   -0.3307 H   0  0  0  0  0  0  0  0  0  0  0  0
   -1.1387   -1.6732    1.4778 H   0  0  0  0  0  0  0  0  0  0  0  0
    1.1247   -0.6907    1.5413 H   0  0  0  0  0  0  0  0  0  0  0  0
    1.1275   -2.1778    0.5121 H   0  0  0  0  0  0  0  0  0  0  0  0
   -2.4325    0.2546    0.5122 H   0  0  0  0  0  0  0  0  0  0  0  0
   -1.0461    0.7925    1.5413 H   0  0  0  0  0  0  0  0  0  0  0  0
    2.4213   -0.2842   -0.5192 H   0  0  0  0  0  0  0  0  0  0  0  0
    1.0350   -0.8222   -1.5484 H   0  0  0  0  0  0  0  0  0  0  0  0
   -1.1359    0.6609   -1.5484 H   0  0  0  0  0  0  0  0  0  0  0  0
   -1.1388    2.1481   -0.5194 H   0  0  0  0  0  0  0  0  0  0  0  0
    1.1245    1.6394    0.3237 H   0  0  0  0  0  0  0  0  0  0  0  0
    1.1275    1.6436   -1.4848 H   0  0  0  0  0  0  0  0  0  0  0  0
  1  2  1  0  0  0  0
  1  3  1  0  0  0  0
  1  7  1  0  0  0  0
  1  8  1  0  0  0  0
  2  4  1  0  0  0  0
  2  9  1  0  0  0  0
  2 10  1  0  0  0  0
  3  5  1  0  0  0  0
  3 11  1  0  0  0  0
  3 12  1  0  0  0  0
  4  6  1  0  0  0  0
  4 13  1  0  0  0  0
  4 14  1  0  0  0  0
  5  6  1  0  0  0  0
  5 15  1  0  0  0  0
  5 16  1  0  0  0  0
  6 17  1  0  0  0  0
  6 18  1  0  0  0  0
M  END