
 OpenBabel06261318113D
Structure written by MMmdl.
 19 19  0  0  0  0  0  0  0  0999 V2000
   -2.5154   -0.3145   -0.6295 O   0  0  0  0  0  0  0  0  0  0  0  0
   -1.0925   -0.3145   -0.6295 C   0  0  0  0  0  0  0  0  0  0  0  0
   -0.6604    1.1492   -0.6295 C   0  0  0  0  0  0  0  0  0  0  0  0
   -0.5441   -1.0506    0.5901 C   0  0  0  0  0  0  0  0  0  0  0  0
    0.8472    1.2580   -0.5534 C   0  0  0  0  0  0  0  0  0  0  0  0
    0.9621   -0.9254    0.6629 C   0  0  0  0  0  0  0  0  0  0  0  0
    1.3964    0.5263    0.6544 C   0  0  0  0  0  0  0  0  0  0  0  0
   -0.7262   -0.8195   -1.5686 H   0  0  0  0  0  0  0  0  0  0  0  0
   -1.1322    1.6687    0.2444 H   0  0  0  0  0  0  0  0  0  0  0  0
   -1.0390    1.6433   -1.5606 H   0  0  0  0  0  0  0  0  0  0  0  0
   -0.8341   -2.1318    0.5358 H   0  0  0  0  0  0  0  0  0  0  0  0
   -1.0106   -0.6212    1.5148 H   0  0  0  0  0  0  0  0  0  0  0  0
    1.1379    2.3395   -0.5010 H   0  0  0  0  0  0  0  0  0  0  0  0
    1.3019    0.8321   -1.4865 H   0  0  0  0  0  0  0  0  0  0  0  0
    1.4244   -1.4584   -0.2095 H   0  0  0  0  0  0  0  0  0  0  0  0
    1.3332   -1.4232    1.5963 H   0  0  0  0  0  0  0  0  0  0  0  0
    2.5159    0.5823    0.6505 H   0  0  0  0  0  0  0  0  0  0  0  0
    1.0363    1.0287    1.5905 H   0  0  0  0  0  0  0  0  0  0  0  0
   -2.7930   -1.2343   -0.5523 H   0  0  0  0  0  0  0  0  0  0  0  0
  1  2  1  0  0  0  0
  1 19  1  0  0  0  0
  2  3  1  0  0  0  0
  2  4  1  0  0  0  0
  2  8  1  0  0  0  0
  3  5  1  0  0  0  0
  3  9  1  0  0  0  0
  3 10  1  0  0  0  0
  4  6  1  0  0  0  0
  4 11  1  0  0  0  0
  4 12  1  0  0  0  0
  5  7  1  0  0  0  0
  5 13  1  0  0  0  0
  5 14  1  0  0  0  0
  6  7  1  0  0  0  0
  6 15  1  0  0  0  0
  6 16  1  0  0  0  0
  7 17  1  0  0  0  0
  7 18  1  0  0  0  0
M  END