
 OpenBabel06261318113D
Structure written by MMmdl.
  5  4  0  0  0  0  0  0  0  0999 V2000
   -1.4570   -0.8579    0.0000 Cl  0  0  0  0  0  0  0  0  0  0  0  0
    1.4465   -0.8579    0.0000 Cl  0  0  0  0  0  0  0  0  0  0  0  0
   -0.0052    0.1036    0.0000 C   0  0  0  0  0  0  0  0  0  0  0  0
   -0.0052    0.7252    0.9234 H   0  0  0  0  0  0  0  0  0  0  0  0
   -0.0052    0.7252   -0.9234 H   0  0  0  0  0  0  0  0  0  0  0  0
  1  3  1  0  0  0  0
  2  3  1  0  0  0  0
  3  4  1  0  0  0  0
  3  5  1  0  0  0  0
M  END