
 OpenBabel06261318113D
Structure written by MMmdl.
 15 14  0  0  0  0  0  0  0  0999 V2000
   -0.1910   -0.2791   -0.0005 O   0  0  0  0  0  0  0  0  0  0  0  0
    1.2352   -0.2791   -0.0005 C   0  0  0  0  0  0  0  0  0  0  0  0
   -0.7314    1.0408   -0.0005 C   0  0  0  0  0  0  0  0  0  0  0  0
    1.6747   -1.7246   -0.0003 C   0  0  0  0  0  0  0  0  0  0  0  0
   -2.2357    0.8998    0.0006 C   0  0  0  0  0  0  0  0  0  0  0  0
    1.6100    0.2570   -0.9135 H   0  0  0  0  0  0  0  0  0  0  0  0
    1.6100    0.2572    0.9124 H   0  0  0  0  0  0  0  0  0  0  0  0
   -0.3766    1.5912    0.9121 H   0  0  0  0  0  0  0  0  0  0  0  0
   -0.3778    1.5905   -0.9139 H   0  0  0  0  0  0  0  0  0  0  0  0
    2.7893   -1.7724    0.0003 H   0  0  0  0  0  0  0  0  0  0  0  0
    1.2843   -2.2496    0.9039 H   0  0  0  0  0  0  0  0  0  0  0  0
    1.2853   -2.2495   -0.9050 H   0  0  0  0  0  0  0  0  0  0  0  0
   -2.7022    1.9132   -0.0008 H   0  0  0  0  0  0  0  0  0  0  0  0
   -2.5743    0.3386   -0.9027 H   0  0  0  0  0  0  0  0  0  0  0  0
   -2.5733    0.3416    0.9062 H   0  0  0  0  0  0  0  0  0  0  0  0
  1  2  1  0  0  0  0
  1  3  1  0  0  0  0
  2  4  1  0  0  0  0
  2  6  1  0  0  0  0
  2  7  1  0  0  0  0
  3  5  1  0  0  0  0
  3  8  1  0  0  0  0
  3  9  1  0  0  0  0
  4 10  1  0  0  0  0
  4 11  1  0  0  0  0
  4 12  1  0  0  0  0
  5 13  1  0  0  0  0
  5 14  1  0  0  0  0
  5 15  1  0  0  0  0
M  END