
 OpenBabel06261318113D
Structure written by MMmdl.
 14 13  0  0  0  0  0  0  0  0999 V2000
   -0.1270   -0.2112    0.0010 O   0  0  0  0  0  0  0  0  0  0  0  0
    2.1072   -0.2112    0.0010 O   0  0  0  0  0  0  0  0  0  0  0  0
   -0.0649    1.2262    0.0010 C   0  0  0  0  0  0  0  0  0  0  0  0
   -1.4937    1.7118   -0.0037 C   0  0  0  0  0  0  0  0  0  0  0  0
    1.0685   -0.8752    0.0015 C   0  0  0  0  0  0  0  0  0  0  0  0
    0.9104   -2.3557    0.0029 C   0  0  0  0  0  0  0  0  0  0  0  0
    0.4900    1.5613    0.9159 H   0  0  0  0  0  0  0  0  0  0  0  0
    0.4960    1.5614   -0.9102 H   0  0  0  0  0  0  0  0  0  0  0  0
   -1.4980    2.8278   -0.0035 H   0  0  0  0  0  0  0  0  0  0  0  0
   -2.0306    1.3436   -0.9103 H   0  0  0  0  0  0  0  0  0  0  0  0
   -2.0366    1.3433    0.8992 H   0  0  0  0  0  0  0  0  0  0  0  0
    0.3316   -2.6730   -0.8985 H   0  0  0  0  0  0  0  0  0  0  0  0
    0.3521   -2.6726    0.9173 H   0  0  0  0  0  0  0  0  0  0  0  0
    1.9185   -2.8357   -0.0081 H   0  0  0  0  0  0  0  0  0  0  0  0
  1  3  1  0  0  0  0
  1  5  1  0  0  0  0
  2  5  2  0  0  0  0
  3  4  1  0  0  0  0
  3  7  1  0  0  0  0
  3  8  1  0  0  0  0
  4  9  1  0  0  0  0
  4 10  1  0  0  0  0
  4 11  1  0  0  0  0
  5  6  1  0  0  0  0
  6 12  1  0  0  0  0
  6 13  1  0  0  0  0
  6 14  1  0  0  0  0
M  END