
 OpenBabel06261318113D
Structure written by MMmdl.
 18 18  0  0  0  0  0  0  0  0999 V2000
   -1.2189    0.1308    0.0305 C   0  0  0  0  0  0  0  0  0  0  0  0
    1.2120    0.1308    0.0305 C   0  0  0  0  0  0  0  0  0  0  0  0
   -0.0035    0.8230    0.0305 C   0  0  0  0  0  0  0  0  0  0  0  0
   -1.2119   -1.2689    0.0331 C   0  0  0  0  0  0  0  0  0  0  0  0
    1.2049   -1.2689    0.0331 C   0  0  0  0  0  0  0  0  0  0  0  0
   -0.0035   -1.9626    0.0344 C   0  0  0  0  0  0  0  0  0  0  0  0
   -2.5008    0.8727    0.0143 C   0  0  0  0  0  0  0  0  0  0  0  0
    2.4939    0.8727    0.0146 C   0  0  0  0  0  0  0  0  0  0  0  0
   -0.0034    1.9234    0.0320 H   0  0  0  0  0  0  0  0  0  0  0  0
   -2.1635   -1.8202    0.0359 H   0  0  0  0  0  0  0  0  0  0  0  0
    2.1566   -1.8202    0.0358 H   0  0  0  0  0  0  0  0  0  0  0  0
   -0.0035   -3.0626    0.0374 H   0  0  0  0  0  0  0  0  0  0  0  0
   -3.3066    0.2910    0.5260 H   0  0  0  0  0  0  0  0  0  0  0  0
   -2.8204    1.0578   -1.0424 H   0  0  0  0  0  0  0  0  0  0  0  0
   -2.3987    1.8610    0.5264 H   0  0  0  0  0  0  0  0  0  0  0  0
    2.3915    1.8614    0.5259 H   0  0  0  0  0  0  0  0  0  0  0  0
    3.2993    0.2913    0.5274 H   0  0  0  0  0  0  0  0  0  0  0  0
    2.8143    1.0570   -1.0420 H   0  0  0  0  0  0  0  0  0  0  0  0
  1  3  2  0  0  0  0
  1  4  1  0  0  0  0
  1  7  1  0  0  0  0
  2  3  1  0  0  0  0
  2  5  2  0  0  0  0
  2  8  1  0  0  0  0
  3  9  1  0  0  0  0
  4  6  2  0  0  0  0
  4 10  1  0  0  0  0
  5  6  1  0  0  0  0
  5 11  1  0  0  0  0
  6 12  1  0  0  0  0
  7 13  1  0  0  0  0
  7 14  1  0  0  0  0
  7 15  1  0  0  0  0
  8 16  1  0  0  0  0
  8 17  1  0  0  0  0
  8 18  1  0  0  0  0
M  END