
 OpenBabel06261318113D
Structure written by MMmdl.
  8  7  0  0  0  0  0  0  0  0999 V2000
   -1.4114   -0.8087   -1.4066 Cl  0  0  0  0  0  0  0  0  0  0  0  0
    1.4649   -0.8087   -1.4066 Cl  0  0  0  0  0  0  0  0  0  0  0  0
    0.0374    1.6761   -1.4066 Cl  0  0  0  0  0  0  0  0  0  0  0  0
   -1.3108    0.9094    1.3784 Cl  0  0  0  0  0  0  0  0  0  0  0  0
    0.1239   -1.5871    1.3785 Cl  0  0  0  0  0  0  0  0  0  0  0  0
    0.0207    0.0141   -0.8136 C   0  0  0  0  0  0  0  0  0  0  0  0
    0.0547    0.0336    0.7255 C   0  0  0  0  0  0  0  0  0  0  0  0
    0.9782    0.5644    1.0761 H   0  0  0  0  0  0  0  0  0  0  0  0
  1  6  1  0  0  0  0
  2  6  1  0  0  0  0
  3  6  1  0  0  0  0
  4  7  1  0  0  0  0
  5  7  1  0  0  0  0
  6  7  1  0  0  0  0
  7  8  1  0  0  0  0
M  END