
 OpenBabel06261318113D
Structure written by MMmdl.
  5  4  0  0  0  0  0  0  0  0999 V2000
    0.0000    0.0000    0.0000 C   0  0  0  0  0  0  0  0  0  0  0  0
    1.7602    0.0000    0.0000 Cl  0  0  0  0  0  0  0  0  0  0  0  0
   -0.5867    1.6595    0.0000 Cl  0  0  0  0  0  0  0  0  0  0  0  0
   -0.5867   -0.8298   -1.4372 Cl  0  0  0  0  0  0  0  0  0  0  0  0
   -0.5867   -0.8298    1.4372 Cl  0  0  0  0  0  0  0  0  0  0  0  0
  1  2  1  0  0  0  0
  1  3  1  0  0  0  0
  1  4  1  0  0  0  0
  1  5  1  0  0  0  0
M  END