
 OpenBabel06261318113D
Structure written by MMmdl.
 15 15  0  0  0  0  0  0  0  0999 V2000
   -0.3658   -0.6227   -0.0076 C   0  0  0  0  0  0  0  0  0  0  0  0
    1.0343   -0.6227   -0.0076 C   0  0  0  0  0  0  0  0  0  0  0  0
   -1.0497    0.5990   -0.0076 C   0  0  0  0  0  0  0  0  0  0  0  0
   -1.1145   -1.9003    0.0064 C   0  0  0  0  0  0  0  0  0  0  0  0
    1.7381    0.5802   -0.0056 C   0  0  0  0  0  0  0  0  0  0  0  0
   -0.3439    1.8007   -0.0056 C   0  0  0  0  0  0  0  0  0  0  0  0
    1.0508    1.7938   -0.0043 C   0  0  0  0  0  0  0  0  0  0  0  0
    1.5792   -1.5782   -0.0099 H   0  0  0  0  0  0  0  0  0  0  0  0
   -2.1497    0.6079   -0.0099 H   0  0  0  0  0  0  0  0  0  0  0  0
   -2.1041   -1.7906   -0.5017 H   0  0  0  0  0  0  0  0  0  0  0  0
   -0.5392   -2.7074   -0.5103 H   0  0  0  0  0  0  0  0  0  0  0  0
   -1.2978   -2.2230    1.0626 H   0  0  0  0  0  0  0  0  0  0  0  0
    2.8379    0.5713   -0.0056 H   0  0  0  0  0  0  0  0  0  0  0  0
   -0.8889    2.7560   -0.0056 H   0  0  0  0  0  0  0  0  0  0  0  0
    1.6068    2.7423   -0.0032 H   0  0  0  0  0  0  0  0  0  0  0  0
  1  2  2  0  0  0  0
  1  3  1  0  0  0  0
  1  4  1  0  0  0  0
  2  5  1  0  0  0  0
  2  8  1  0  0  0  0
  3  6  2  0  0  0  0
  3  9  1  0  0  0  0
  4 10  1  0  0  0  0
  4 11  1  0  0  0  0
  4 12  1  0  0  0  0
  5  7  2  0  0  0  0
  5 13  1  0  0  0  0
  6  7  1  0  0  0  0
  6 14  1  0  0  0  0
  7 15  1  0  0  0  0
M  END