
 OpenBabel06261318113D
Structure written by MMmdl.
  6  5  0  0  0  0  0  0  0  0999 V2000
   -1.5306   -1.5387    0.0003 Cl  0  0  0  0  0  0  0  0  0  0  0  0
    1.3413   -1.5387    0.0003 Cl  0  0  0  0  0  0  0  0  0  0  0  0
    1.2333    1.6847    0.0003 Cl  0  0  0  0  0  0  0  0  0  0  0  0
   -0.0902   -0.6402    0.0004 C   0  0  0  0  0  0  0  0  0  0  0  0
   -0.1311    0.7016    0.0004 C   0  0  0  0  0  0  0  0  0  0  0  0
   -1.0767    1.2639    0.0004 H   0  0  0  0  0  0  0  0  0  0  0  0
  1  4  1  0  0  0  0
  2  4  1  0  0  0  0
  3  5  1  0  0  0  0
  4  5  2  0  0  0  0
  5  6  1  0  0  0  0
M  END