
 OpenBabel06261318113D
Structure written by MMmdl.
  5  4  0  0  0  0  0  0  0  0999 V2000
   -0.0408   -0.0583    0.1042 C   0  0  0  0  0  0  0  0  0  0  0  0
    1.7072   -0.0583    0.1042 Cl  0  0  0  0  0  0  0  0  0  0  0  0
   -0.6730    1.5714    0.1042 Cl  0  0  0  0  0  0  0  0  0  0  0  0
   -0.6730   -0.9817   -1.2386 Cl  0  0  0  0  0  0  0  0  0  0  0  0
   -0.3798   -0.5535    1.0457 H   0  0  0  0  0  0  0  0  0  0  0  0
  1  2  1  0  0  0  0
  1  3  1  0  0  0  0
  1  4  1  0  0  0  0
  1  5  1  0  0  0  0
M  END