
 OpenBabel06261318113D
Structure written by MMmdl.
 13 13  0  0  0  0  0  0  0  0999 V2000
   -2.7521   -1.2846   -0.0012 Cl  0  0  0  0  0  0  0  0  0  0  0  0
    2.6516   -1.2846   -0.0012 Cl  0  0  0  0  0  0  0  0  0  0  0  0
   -2.6922    1.8367   -0.0012 Cl  0  0  0  0  0  0  0  0  0  0  0  0
   -0.1215   -2.5325   -0.0018 O   0  0  0  0  0  0  0  0  0  0  0  0
   -0.0510   -1.1631   -0.0011 C   0  0  0  0  0  0  0  0  0  0  0  0
   -1.2752   -0.4565   -0.0009 C   0  0  0  0  0  0  0  0  0  0  0  0
    1.1659   -0.4550   -0.0006 C   0  0  0  0  0  0  0  0  0  0  0  0
   -1.2495    0.9455   -0.0005 C   0  0  0  0  0  0  0  0  0  0  0  0
    1.1673    0.9414    0.0005 C   0  0  0  0  0  0  0  0  0  0  0  0
   -0.0342    1.6394    0.0005 C   0  0  0  0  0  0  0  0  0  0  0  0
    2.1222    1.4908    0.0012 H   0  0  0  0  0  0  0  0  0  0  0  0
   -0.0294    2.7405    0.0012 H   0  0  0  0  0  0  0  0  0  0  0  0
    0.7838   -2.8859   -0.0019 H   0  0  0  0  0  0  0  0  0  0  0  0
  1  6  1  0  0  0  0
  2  7  1  0  0  0  0
  3  8  1  0  0  0  0
  4  5  1  0  0  0  0
  4 13  1  0  0  0  0
  5  6  2  0  0  0  0
  5  7  1  0  0  0  0
  6  8  1  0  0  0  0
  7  9  2  0  0  0  0
  8 10  2  0  0  0  0
  9 10  1  0  0  0  0
  9 11  1  0  0  0  0
 10 12  1  0  0  0  0
M  END