
 OpenBabel06261318113D
Structure written by MMmdl.
 22 22  0  0  0  0  0  0  0  0999 V2000
   -2.2345   -0.9204    0.0336 O   0  0  0  0  0  0  0  0  0  0  0  0
    0.1308   -0.9204    0.0336 C   0  0  0  0  0  0  0  0  0  0  0  0
    1.3495   -0.2247    0.0336 C   0  0  0  0  0  0  0  0  0  0  0  0
   -1.0684    1.2259    0.0194 C   0  0  0  0  0  0  0  0  0  0  0  0
   -1.0702   -0.1815    0.0277 C   0  0  0  0  0  0  0  0  0  0  0  0
    1.3557    1.1747    0.0255 C   0  0  0  0  0  0  0  0  0  0  0  0
    0.1628    1.8882    0.0180 C   0  0  0  0  0  0  0  0  0  0  0  0
    0.1107   -2.4010    0.0467 C   0  0  0  0  0  0  0  0  0  0  0  0
    2.6290   -0.9720    0.0386 C   0  0  0  0  0  0  0  0  0  0  0  0
   -2.3325    1.9966    0.0129 C   0  0  0  0  0  0  0  0  0  0  0  0
    2.3142    1.7145    0.0254 H   0  0  0  0  0  0  0  0  0  0  0  0
    0.1845    2.9887    0.0117 H   0  0  0  0  0  0  0  0  0  0  0  0
    0.7647   -2.8047   -0.7669 H   0  0  0  0  0  0  0  0  0  0  0  0
    0.4990   -2.7801    1.0259 H   0  0  0  0  0  0  0  0  0  0  0  0
   -0.9242   -2.7969   -0.1000 H   0  0  0  0  0  0  0  0  0  0  0  0
    2.6470   -1.7063    0.8832 H   0  0  0  0  0  0  0  0  0  0  0  0
    2.7456   -1.5419   -0.9180 H   0  0  0  0  0  0  0  0  0  0  0  0
    3.5019   -0.2833    0.1481 H   0  0  0  0  0  0  0  0  0  0  0  0
   -2.9350    1.7581   -0.9002 H   0  0  0  0  0  0  0  0  0  0  0  0
   -2.9476    1.7528    0.9160 H   0  0  0  0  0  0  0  0  0  0  0  0
   -2.1319    3.0960    0.0174 H   0  0  0  0  0  0  0  0  0  0  0  0
   -2.9838   -0.3094   -0.0010 H   0  0  0  0  0  0  0  0  0  0  0  0
  1  5  1  0  0  0  0
  1 22  1  0  0  0  0
  2  3  2  0  0  0  0
  2  5  1  0  0  0  0
  2  8  1  0  0  0  0
  3  6  1  0  0  0  0
  3  9  1  0  0  0  0
  4  5  2  0  0  0  0
  4  7  1  0  0  0  0
  4 10  1  0  0  0  0
  6  7  2  0  0  0  0
  6 11  1  0  0  0  0
  7 12  1  0  0  0  0
  8 13  1  0  0  0  0
  8 14  1  0  0  0  0
  8 15  1  0  0  0  0
  9 16  1  0  0  0  0
  9 17  1  0  0  0  0
  9 18  1  0  0  0  0
 10 19  1  0  0  0  0
 10 20  1  0  0  0  0
 10 21  1  0  0  0  0
M  END