
 OpenBabel06261318113D
Structure written by MMmdl.
 23 23  0  0  0  0  0  0  0  0999 V2000
   -2.1895   -1.2631    0.0094 N   0  0  0  0  0  0  0  0  0  0  0  0
    0.2612   -1.2631    0.0094 C   0  0  0  0  0  0  0  0  0  0  0  0
   -0.9584    0.8559    0.0094 C   0  0  0  0  0  0  0  0  0  0  0  0
   -0.9752   -0.5642    0.0364 C   0  0  0  0  0  0  0  0  0  0  0  0
    1.4729    0.8448   -0.0873 C   0  0  0  0  0  0  0  0  0  0  0  0
    1.4582   -0.5512   -0.0541 C   0  0  0  0  0  0  0  0  0  0  0  0
    0.2585    1.5333   -0.0540 C   0  0  0  0  0  0  0  0  0  0  0  0
    0.2965   -2.7448    0.0397 C   0  0  0  0  0  0  0  0  0  0  0  0
   -2.2219    1.6308    0.0394 C   0  0  0  0  0  0  0  0  0  0  0  0
    2.7542    1.5819   -0.1708 C   0  0  0  0  0  0  0  0  0  0  0  0
    2.4117   -1.1019   -0.0779 H   0  0  0  0  0  0  0  0  0  0  0  0
    0.2613    2.6345   -0.0777 H   0  0  0  0  0  0  0  0  0  0  0  0
   -0.1769   -3.1338    0.9767 H   0  0  0  0  0  0  0  0  0  0  0  0
   -0.2537   -3.1707   -0.8369 H   0  0  0  0  0  0  0  0  0  0  0  0
    1.3482   -3.1224    0.0046 H   0  0  0  0  0  0  0  0  0  0  0  0
   -2.8661    1.3693   -0.8375 H   0  0  0  0  0  0  0  0  0  0  0  0
   -2.7965    1.4167    0.9761 H   0  0  0  0  0  0  0  0  0  0  0  0
   -2.0200    2.7299    0.0047 H   0  0  0  0  0  0  0  0  0  0  0  0
    2.6720    2.5847    0.3162 H   0  0  0  0  0  0  0  0  0  0  0  0
    3.5765    1.0133    0.3292 H   0  0  0  0  0  0  0  0  0  0  0  0
    3.0382    1.7365   -1.2425 H   0  0  0  0  0  0  0  0  0  0  0  0
   -2.9615   -0.7504    0.3770 H   0  0  0  0  0  0  0  0  0  0  0  0
   -2.1341   -2.1881    0.3772 H   0  0  0  0  0  0  0  0  0  0  0  0
  1  4  1  0  0  0  0
  1 22  1  0  0  0  0
  1 23  1  0  0  0  0
  2  4  2  0  0  0  0
  2  6  1  0  0  0  0
  2  8  1  0  0  0  0
  3  4  1  0  0  0  0
  3  7  2  0  0  0  0
  3  9  1  0  0  0  0
  5  6  2  0  0  0  0
  5  7  1  0  0  0  0
  5 10  1  0  0  0  0
  6 11  1  0  0  0  0
  7 12  1  0  0  0  0
  8 13  1  0  0  0  0
  8 14  1  0  0  0  0
  8 15  1  0  0  0  0
  9 16  1  0  0  0  0
  9 17  1  0  0  0  0
  9 18  1  0  0  0  0
 10 19  1  0  0  0  0
 10 20  1  0  0  0  0
 10 21  1  0  0  0  0
M  END