
 OpenBabel06261318113D
Structure written by MMmdl.
 16 15  0  0  0  0  0  0  0  0999 V2000
   -0.1101   -0.2940   -0.1827 O   0  0  0  0  0  0  0  0  0  0  0  0
    3.5053   -0.2940   -0.1827 O   0  0  0  0  0  0  0  0  0  0  0  0
    1.1693    0.3281   -0.1827 C   0  0  0  0  0  0  0  0  0  0  0  0
   -1.1730    0.6575   -0.2448 C   0  0  0  0  0  0  0  0  0  0  0  0
    2.1934   -0.7935   -0.0247 C   0  0  0  0  0  0  0  0  0  0  0  0
   -2.4630   -0.1286   -0.2455 C   0  0  0  0  0  0  0  0  0  0  0  0
    1.3257    0.8755   -1.1508 H   0  0  0  0  0  0  0  0  0  0  0  0
    1.2477    1.0598    0.6636 H   0  0  0  0  0  0  0  0  0  0  0  0
   -1.1152    1.3408    0.6445 H   0  0  0  0  0  0  0  0  0  0  0  0
   -1.0711    1.2702   -1.1804 H   0  0  0  0  0  0  0  0  0  0  0  0
    1.9852   -1.6133   -0.7615 H   0  0  0  0  0  0  0  0  0  0  0  0
    2.1657   -1.2114    1.0162 H   0  0  0  0  0  0  0  0  0  0  0  0
   -3.3254    0.5777   -0.2914 H   0  0  0  0  0  0  0  0  0  0  0  0
   -2.5018   -0.8128   -1.1263 H   0  0  0  0  0  0  0  0  0  0  0  0
   -2.5430   -0.7458    0.6810 H   0  0  0  0  0  0  0  0  0  0  0  0
    3.5865    0.0188   -1.0917 H   0  0  0  0  0  0  0  0  0  0  0  0
  1  3  1  0  0  0  0
  1  4  1  0  0  0  0
  2  5  1  0  0  0  0
  2 16  1  0  0  0  0
  3  5  1  0  0  0  0
  3  7  1  0  0  0  0
  3  8  1  0  0  0  0
  4  6  1  0  0  0  0
  4  9  1  0  0  0  0
  4 10  1  0  0  0  0
  5 11  1  0  0  0  0
  5 12  1  0  0  0  0
  6 13  1  0  0  0  0
  6 14  1  0  0  0  0
  6 15  1  0  0  0  0
M  END