
 OpenBabel06261318113D
Structure written by MMmdl.
 15 14  0  0  0  0  0  0  0  0999 V2000
   -1.6732   -0.0272    0.0476 O   0  0  0  0  0  0  0  0  0  0  0  0
   -0.2440   -0.0272    0.0476 C   0  0  0  0  0  0  0  0  0  0  0  0
    0.2749    1.4057    0.0476 C   0  0  0  0  0  0  0  0  0  0  0  0
    0.1648   -0.7447    1.3281 C   0  0  0  0  0  0  0  0  0  0  0  0
    0.2748   -0.7753   -1.1744 C   0  0  0  0  0  0  0  0  0  0  0  0
   -0.1540    1.9650    0.9129 H   0  0  0  0  0  0  0  0  0  0  0  0
    1.3870    1.4090    0.1269 H   0  0  0  0  0  0  0  0  0  0  0  0
   -0.0208    1.9256   -0.8946 H   0  0  0  0  0  0  0  0  0  0  0  0
   -0.2424   -1.7834    1.3288 H   0  0  0  0  0  0  0  0  0  0  0  0
   -0.2420   -0.2027    2.2144 H   0  0  0  0  0  0  0  0  0  0  0  0
    1.2768   -0.7829    1.3958 H   0  0  0  0  0  0  0  0  0  0  0  0
   -0.0205   -0.2429   -2.1098 H   0  0  0  0  0  0  0  0  0  0  0  0
    1.3870   -0.8451   -1.1357 H   0  0  0  0  0  0  0  0  0  0  0  0
   -0.1545   -1.8051   -1.2000 H   0  0  0  0  0  0  0  0  0  0  0  0
   -1.9512    0.4239   -0.7575 H   0  0  0  0  0  0  0  0  0  0  0  0
  1  2  1  0  0  0  0
  1 15  1  0  0  0  0
  2  3  1  0  0  0  0
  2  4  1  0  0  0  0
  2  5  1  0  0  0  0
  3  6  1  0  0  0  0
  3  7  1  0  0  0  0
  3  8  1  0  0  0  0
  4  9  1  0  0  0  0
  4 10  1  0  0  0  0
  4 11  1  0  0  0  0
  5 12  1  0  0  0  0
  5 13  1  0  0  0  0
  5 14  1  0  0  0  0
M  END