
 OpenBabel06261318113D
Structure written by MMmdl.
 15 15  0  0  0  0  0  0  0  0999 V2000
   -1.2747   -3.2035   -0.0185 Cl  0  0  0  0  0  0  0  0  0  0  0  0
    1.8835   -3.2035   -0.0185 Cl  0  0  0  0  0  0  0  0  0  0  0  0
   -0.4014    0.6750   -0.0185 C   0  0  0  0  0  0  0  0  0  0  0  0
   -1.0945   -0.5389   -0.0190 C   0  0  0  0  0  0  0  0  0  0  0  0
    0.9989    0.6664   -0.0193 C   0  0  0  0  0  0  0  0  0  0  0  0
   -1.1439    1.9563   -0.0032 C   0  0  0  0  0  0  0  0  0  0  0  0
   -0.3972   -1.7510   -0.0183 C   0  0  0  0  0  0  0  0  0  0  0  0
    1.6983   -0.5361   -0.0189 C   0  0  0  0  0  0  0  0  0  0  0  0
    1.0055   -1.7522   -0.0182 C   0  0  0  0  0  0  0  0  0  0  0  0
   -2.1959   -0.5410   -0.0205 H   0  0  0  0  0  0  0  0  0  0  0  0
    1.5512    1.6183   -0.0211 H   0  0  0  0  0  0  0  0  0  0  0  0
   -2.1276    1.8559   -0.5246 H   0  0  0  0  0  0  0  0  0  0  0  0
   -1.3382    2.2701    1.0538 H   0  0  0  0  0  0  0  0  0  0  0  0
   -0.5574    2.7642   -0.5061 H   0  0  0  0  0  0  0  0  0  0  0  0
    2.7994   -0.5333   -0.0197 H   0  0  0  0  0  0  0  0  0  0  0  0
  1  7  1  0  0  0  0
  2  9  1  0  0  0  0
  3  4  2  0  0  0  0
  3  5  1  0  0  0  0
  3  6  1  0  0  0  0
  4  7  1  0  0  0  0
  4 10  1  0  0  0  0
  5  8  2  0  0  0  0
  5 11  1  0  0  0  0
  6 12  1  0  0  0  0
  6 13  1  0  0  0  0
  6 14  1  0  0  0  0
  7  9  2  0  0  0  0
  8  9  1  0  0  0  0
  8 15  1  0  0  0  0
M  END