
 OpenBabel06261318113D
Structure written by MMmdl.
 14 14  0  0  0  0  0  0  0  0999 V2000
   -2.6966   -2.0080   -0.0380 Cl  0  0  0  0  0  0  0  0  0  0  0  0
    2.6501   -2.0080   -0.0380 Cl  0  0  0  0  0  0  0  0  0  0  0  0
   -0.0233    2.3465   -0.0380 N   0  0  0  0  0  0  0  0  0  0  0  0
   -0.0233    0.9533    0.0212 C   0  0  0  0  0  0  0  0  0  0  0  0
    1.1954    0.2337    0.0122 C   0  0  0  0  0  0  0  0  0  0  0  0
   -1.2419    0.2337    0.0123 C   0  0  0  0  0  0  0  0  0  0  0  0
   -1.2225   -1.1586   -0.0218 C   0  0  0  0  0  0  0  0  0  0  0  0
    1.1760   -1.1586   -0.0219 C   0  0  0  0  0  0  0  0  0  0  0  0
   -0.0232   -1.8749   -0.0392 C   0  0  0  0  0  0  0  0  0  0  0  0
    2.1567    0.7695    0.0214 H   0  0  0  0  0  0  0  0  0  0  0  0
   -2.2033    0.7695    0.0216 H   0  0  0  0  0  0  0  0  0  0  0  0
   -0.0232   -2.9744   -0.0656 H   0  0  0  0  0  0  0  0  0  0  0  0
   -0.8582    2.7826    0.2818 H   0  0  0  0  0  0  0  0  0  0  0  0
    0.8117    2.7827    0.2815 H   0  0  0  0  0  0  0  0  0  0  0  0
  1  7  1  0  0  0  0
  2  8  1  0  0  0  0
  3  4  1  0  0  0  0
  3 13  1  0  0  0  0
  3 14  1  0  0  0  0
  4  5  2  0  0  0  0
  4  6  1  0  0  0  0
  5  8  1  0  0  0  0
  5 10  1  0  0  0  0
  6  7  2  0  0  0  0
  6 11  1  0  0  0  0
  7  9  1  0  0  0  0
  8  9  2  0  0  0  0
  9 12  1  0  0  0  0
M  END