
 OpenBabel06261318113D
Structure written by MMmdl.
 13 13  0  0  0  0  0  0  0  0999 V2000
   -2.7645   -1.7679    0.0001 Cl  0  0  0  0  0  0  0  0  0  0  0  0
    2.5835   -1.7679    0.0001 Cl  0  0  0  0  0  0  0  0  0  0  0  0
   -0.1651    2.5393    0.0001 O   0  0  0  0  0  0  0  0  0  0  0  0
   -0.0904    1.1667    0.0001 C   0  0  0  0  0  0  0  0  0  0  0  0
    1.1309    0.4795    0.0001 C   0  0  0  0  0  0  0  0  0  0  0  0
   -1.3164    0.4803    0.0001 C   0  0  0  0  0  0  0  0  0  0  0  0
   -1.2960   -0.9139    0.0001 C   0  0  0  0  0  0  0  0  0  0  0  0
    1.1128   -0.9174    0.0001 C   0  0  0  0  0  0  0  0  0  0  0  0
   -0.0908   -1.6262    0.0001 C   0  0  0  0  0  0  0  0  0  0  0  0
    2.0822    1.0306    0.0001 H   0  0  0  0  0  0  0  0  0  0  0  0
   -2.2589    1.0469    0.0002 H   0  0  0  0  0  0  0  0  0  0  0  0
   -0.0926   -2.7268    0.0001 H   0  0  0  0  0  0  0  0  0  0  0  0
    0.7381    2.8898    0.0001 H   0  0  0  0  0  0  0  0  0  0  0  0
  1  7  1  0  0  0  0
  2  8  1  0  0  0  0
  3  4  1  0  0  0  0
  3 13  1  0  0  0  0
  4  5  2  0  0  0  0
  4  6  1  0  0  0  0
  5  8  1  0  0  0  0
  5 10  1  0  0  0  0
  6  7  2  0  0  0  0
  6 11  1  0  0  0  0
  7  9  1  0  0  0  0
  8  9  2  0  0  0  0
  9 12  1  0  0  0  0
M  END