
 OpenBabel06261318113D
Structure written by MMmdl.
 19 19  0  0  0  0  0  0  0  0999 V2000
   -2.9586   -0.9900   -0.0258 O   0  0  0  0  0  0  0  0  0  0  0  0
    0.7356   -0.9900   -0.0258 C   0  0  0  0  0  0  0  0  0  0  0  0
   -0.1161    1.2884   -0.0258 C   0  0  0  0  0  0  0  0  0  0  0  0
    0.9581    0.3894   -0.0271 C   0  0  0  0  0  0  0  0  0  0  0  0
   -0.5740   -1.4815   -0.0256 C   0  0  0  0  0  0  0  0  0  0  0  0
   -1.4265    0.8082   -0.0256 C   0  0  0  0  0  0  0  0  0  0  0  0
   -1.6439   -0.5786   -0.0253 C   0  0  0  0  0  0  0  0  0  0  0  0
    1.8788   -1.9325   -0.0110 C   0  0  0  0  0  0  0  0  0  0  0  0
    0.1435    2.7474   -0.0138 C   0  0  0  0  0  0  0  0  0  0  0  0
    1.9878    0.7760   -0.0304 H   0  0  0  0  0  0  0  0  0  0  0  0
   -0.7600   -2.5643   -0.0272 H   0  0  0  0  0  0  0  0  0  0  0  0
   -2.2861    1.4925   -0.0269 H   0  0  0  0  0  0  0  0  0  0  0  0
    2.1362   -2.2002    1.0450 H   0  0  0  0  0  0  0  0  0  0  0  0
    1.6287   -2.8739   -0.5593 H   0  0  0  0  0  0  0  0  0  0  0  0
    2.7814   -1.4753   -0.4860 H   0  0  0  0  0  0  0  0  0  0  0  0
   -0.7601    3.3221   -0.3333 H   0  0  0  0  0  0  0  0  0  0  0  0
    0.4214    3.0754    1.0196 H   0  0  0  0  0  0  0  0  0  0  0  0
    0.9878    3.0035   -0.7006 H   0  0  0  0  0  0  0  0  0  0  0  0
   -2.9669   -1.9579   -0.0275 H   0  0  0  0  0  0  0  0  0  0  0  0
  1  7  1  0  0  0  0
  1 19  1  0  0  0  0
  2  4  2  0  0  0  0
  2  5  1  0  0  0  0
  2  8  1  0  0  0  0
  3  4  1  0  0  0  0
  3  6  2  0  0  0  0
  3  9  1  0  0  0  0
  4 10  1  0  0  0  0
  5  7  2  0  0  0  0
  5 11  1  0  0  0  0
  6  7  1  0  0  0  0
  6 12  1  0  0  0  0
  8 13  1  0  0  0  0
  8 14  1  0  0  0  0
  8 15  1  0  0  0  0
  9 16  1  0  0  0  0
  9 17  1  0  0  0  0
  9 18  1  0  0  0  0
M  END