
 OpenBabel06261318113D
Structure written by MMmdl.
 13 13  0  0  0  0  0  0  0  0999 V2000
   -2.9573   -1.3731    0.0002 Cl  0  0  0  0  0  0  0  0  0  0  0  0
    2.0752   -1.3731    0.0002 O   0  0  0  0  0  0  0  0  0  0  0  0
    0.9375   -0.5994    0.0002 C   0  0  0  0  0  0  0  0  0  0  0  0
   -0.2834   -1.2944    0.0004 C   0  0  0  0  0  0  0  0  0  0  0  0
    0.9746    0.8022   -0.0002 C   0  0  0  0  0  0  0  0  0  0  0  0
   -1.4664   -0.5554    0.0001 C   0  0  0  0  0  0  0  0  0  0  0  0
   -0.2240    1.5122   -0.0004 C   0  0  0  0  0  0  0  0  0  0  0  0
   -1.4469    0.8444   -0.0003 C   0  0  0  0  0  0  0  0  0  0  0  0
   -0.2859   -2.3937    0.0007 H   0  0  0  0  0  0  0  0  0  0  0  0
    1.9372    1.3319   -0.0003 H   0  0  0  0  0  0  0  0  0  0  0  0
   -0.2047    2.6127   -0.0008 H   0  0  0  0  0  0  0  0  0  0  0  0
   -2.3884    1.4128   -0.0005 H   0  0  0  0  0  0  0  0  0  0  0  0
    2.8399   -0.7790    0.0001 H   0  0  0  0  0  0  0  0  0  0  0  0
  1  6  1  0  0  0  0
  2  3  1  0  0  0  0
  2 13  1  0  0  0  0
  3  4  2  0  0  0  0
  3  5  1  0  0  0  0
  4  6  1  0  0  0  0
  4  9  1  0  0  0  0
  5  7  2  0  0  0  0
  5 10  1  0  0  0  0
  6  8  2  0  0  0  0
  7  8  1  0  0  0  0
  7 11  1  0  0  0  0
  8 12  1  0  0  0  0
M  END