
 OpenBabel06261318113D
Structure written by MMmdl.
 13 13  0  0  0  0  0  0  0  0999 V2000
   -2.5460   -0.0453    0.0003 O   0  0  0  0  0  0  0  0  0  0  0  0
   -1.1706   -0.0453    0.0003 C   0  0  0  0  0  0  0  0  0  0  0  0
   -0.4131    1.1344    0.0003 C   0  0  0  0  0  0  0  0  0  0  0  0
    0.9772    1.0547    0.0002 C   0  0  0  0  0  0  0  0  0  0  0  0
    1.6010   -0.1959    0.0002 C   0  0  0  0  0  0  0  0  0  0  0  0
    0.8423   -1.3728    0.0001 C   0  0  0  0  0  0  0  0  0  0  0  0
   -0.5459   -1.3045    0.0002 C   0  0  0  0  0  0  0  0  0  0  0  0
    3.2990   -0.2902    0.0002 Cl  0  0  0  0  0  0  0  0  0  0  0  0
   -2.8453    0.8757    0.0006 H   0  0  0  0  0  0  0  0  0  0  0  0
   -0.9104    2.1145    0.0003 H   0  0  0  0  0  0  0  0  0  0  0  0
    1.5785    1.9768    0.0003 H   0  0  0  0  0  0  0  0  0  0  0  0
    1.3416   -2.3541   -0.0001 H   0  0  0  0  0  0  0  0  0  0  0  0
   -1.1605   -2.2157    0.0001 H   0  0  0  0  0  0  0  0  0  0  0  0
  1  2  1  0  0  0  0
  1  9  1  0  0  0  0
  2  3  2  0  0  0  0
  2  7  1  0  0  0  0
  3  4  1  0  0  0  0
  3 10  1  0  0  0  0
  4  5  2  0  0  0  0
  4 11  1  0  0  0  0
  5  6  1  0  0  0  0
  5  8  1  0  0  0  0
  6  7  2  0  0  0  0
  6 12  1  0  0  0  0
  7 13  1  0  0  0  0
M  END