
 OpenBabel06261318113D
Structure written by MMmdl.
 16 16  0  0  0  0  0  0  0  0999 V2000
   -3.1896   -0.0612   -0.0167 O   0  0  0  0  0  0  0  0  0  0  0  0
    0.9780   -0.0612   -0.0167 C   0  0  0  0  0  0  0  0  0  0  0  0
    0.2935    1.1585   -0.0167 C   0  0  0  0  0  0  0  0  0  0  0  0
    0.2474   -1.2575   -0.0181 C   0  0  0  0  0  0  0  0  0  0  0  0
   -1.0987    1.1932   -0.0164 C   0  0  0  0  0  0  0  0  0  0  0  0
   -1.1422   -1.2462   -0.0179 C   0  0  0  0  0  0  0  0  0  0  0  0
   -1.8136   -0.0120   -0.0166 C   0  0  0  0  0  0  0  0  0  0  0  0
    2.4582   -0.0934   -0.0018 C   0  0  0  0  0  0  0  0  0  0  0  0
    0.8592    2.1025   -0.0176 H   0  0  0  0  0  0  0  0  0  0  0  0
    0.7819   -2.2197   -0.0203 H   0  0  0  0  0  0  0  0  0  0  0  0
   -1.6311    2.1543   -0.0165 H   0  0  0  0  0  0  0  0  0  0  0  0
   -1.7222   -2.1794   -0.0192 H   0  0  0  0  0  0  0  0  0  0  0  0
    2.8436   -0.9513   -0.6063 H   0  0  0  0  0  0  0  0  0  0  0  0
    2.8859    0.8516   -0.4178 H   0  0  0  0  0  0  0  0  0  0  0  0
    2.8281   -0.2124    1.0480 H   0  0  0  0  0  0  0  0  0  0  0  0
   -3.5193    0.8489   -0.0167 H   0  0  0  0  0  0  0  0  0  0  0  0
  1  7  1  0  0  0  0
  1 16  1  0  0  0  0
  2  3  2  0  0  0  0
  2  4  1  0  0  0  0
  2  8  1  0  0  0  0
  3  5  1  0  0  0  0
  3  9  1  0  0  0  0
  4  6  2  0  0  0  0
  4 10  1  0  0  0  0
  5  7  2  0  0  0  0
  5 11  1  0  0  0  0
  6  7  1  0  0  0  0
  6 12  1  0  0  0  0
  8 13  1  0  0  0  0
  8 14  1  0  0  0  0
  8 15  1  0  0  0  0
M  END