
 OpenBabel06261318113D
Structure written by MMmdl.
 21 20  0  0  0  0  0  0  0  0999 V2000
   -4.0298   -0.5111   -0.0005 O   0  0  0  0  0  0  0  0  0  0  0  0
   -0.3184   -0.5111   -0.0005 C   0  0  0  0  0  0  0  0  0  0  0  0
    0.6982    0.6104   -0.0005 C   0  0  0  0  0  0  0  0  0  0  0  0
   -1.7295    0.0328   -0.0007 C   0  0  0  0  0  0  0  0  0  0  0  0
    2.1128    0.0712   -0.0002 C   0  0  0  0  0  0  0  0  0  0  0  0
   -2.7393   -1.1018   -0.0009 C   0  0  0  0  0  0  0  0  0  0  0  0
    3.1284    1.1843   -0.0004 C   0  0  0  0  0  0  0  0  0  0  0  0
   -0.1630   -1.1589    0.9025 H   0  0  0  0  0  0  0  0  0  0  0  0
   -0.1628   -1.1591   -0.9033 H   0  0  0  0  0  0  0  0  0  0  0  0
    0.5432    1.2584   -0.9032 H   0  0  0  0  0  0  0  0  0  0  0  0
    0.5430    1.2586    0.9020 H   0  0  0  0  0  0  0  0  0  0  0  0
   -1.8978    0.6768   -0.9028 H   0  0  0  0  0  0  0  0  0  0  0  0
   -1.8981    0.6768    0.9013 H   0  0  0  0  0  0  0  0  0  0  0  0
    2.2651   -0.5778    0.9025 H   0  0  0  0  0  0  0  0  0  0  0  0
    2.2653   -0.5783   -0.9025 H   0  0  0  0  0  0  0  0  0  0  0  0
   -2.6130   -1.7437   -0.9140 H   0  0  0  0  0  0  0  0  0  0  0  0
   -2.6128   -1.7442    0.9119 H   0  0  0  0  0  0  0  0  0  0  0  0
    4.1636    0.7655    0.0003 H   0  0  0  0  0  0  0  0  0  0  0  0
    3.0086    1.8273   -0.9058 H   0  0  0  0  0  0  0  0  0  0  0  0
    3.0078    1.8284    0.9040 H   0  0  0  0  0  0  0  0  0  0  0  0
   -4.6640   -1.2368   -0.0013 H   0  0  0  0  0  0  0  0  0  0  0  0
  1  6  1  0  0  0  0
  1 21  1  0  0  0  0
  2  3  1  0  0  0  0
  2  4  1  0  0  0  0
  2  8  1  0  0  0  0
  2  9  1  0  0  0  0
  3  5  1  0  0  0  0
  3 10  1  0  0  0  0
  3 11  1  0  0  0  0
  4  6  1  0  0  0  0
  4 12  1  0  0  0  0
  4 13  1  0  0  0  0
  5  7  1  0  0  0  0
  5 14  1  0  0  0  0
  5 15  1  0  0  0  0
  6 16  1  0  0  0  0
  6 17  1  0  0  0  0
  7 18  1  0  0  0  0
  7 19  1  0  0  0  0
  7 20  1  0  0  0  0
M  END