
 OpenBabel06261318113D
Structure written by MMmdl.
 12 12  0  0  0  0  0  0  0  0999 V2000
   -3.0642   -0.0001    0.0005 Cl  0  0  0  0  0  0  0  0  0  0  0  0
   -1.3631   -0.0001    0.0005 C   0  0  0  0  0  0  0  0  0  0  0  0
   -0.6708    1.2151    0.0005 C   0  0  0  0  0  0  0  0  0  0  0  0
   -0.6708   -1.2152    0.0004 C   0  0  0  0  0  0  0  0  0  0  0  0
    0.7235    1.2079    0.0003 C   0  0  0  0  0  0  0  0  0  0  0  0
    0.7235   -1.2081    0.0002 C   0  0  0  0  0  0  0  0  0  0  0  0
    1.4210   -0.0001    0.0001 C   0  0  0  0  0  0  0  0  0  0  0  0
   -1.2201    2.1683    0.0006 H   0  0  0  0  0  0  0  0  0  0  0  0
   -1.2201   -2.1685    0.0005 H   0  0  0  0  0  0  0  0  0  0  0  0
    1.2725    2.1612    0.0003 H   0  0  0  0  0  0  0  0  0  0  0  0
    1.2725   -2.1614    0.0001 H   0  0  0  0  0  0  0  0  0  0  0  0
    2.5208   -0.0001   -0.0002 H   0  0  0  0  0  0  0  0  0  0  0  0
  1  2  1  0  0  0  0
  2  3  2  0  0  0  0
  2  4  1  0  0  0  0
  3  5  1  0  0  0  0
  3  8  1  0  0  0  0
  4  6  2  0  0  0  0
  4  9  1  0  0  0  0
  5  7  2  0  0  0  0
  5 10  1  0  0  0  0
  6  7  1  0  0  0  0
  6 11  1  0  0  0  0
  7 12  1  0  0  0  0
M  END