
 OpenBabel06261318113D
Structure written by MMmdl.
 13 13  0  0  0  0  0  0  0  0999 V2000
   -2.4995    0.0449   -0.0004 O   0  0  0  0  0  0  0  0  0  0  0  0
   -1.1227    0.0449   -0.0004 C   0  0  0  0  0  0  0  0  0  0  0  0
   -0.4975    1.3034   -0.0004 C   0  0  0  0  0  0  0  0  0  0  0  0
   -0.3669   -1.1357   -0.0005 C   0  0  0  0  0  0  0  0  0  0  0  0
    0.8924    1.3634    0.0000 C   0  0  0  0  0  0  0  0  0  0  0  0
    1.0242   -1.0502   -0.0002 C   0  0  0  0  0  0  0  0  0  0  0  0
    1.6544    0.1931    0.0001 C   0  0  0  0  0  0  0  0  0  0  0  0
   -1.1115    2.2144   -0.0005 H   0  0  0  0  0  0  0  0  0  0  0  0
   -0.8661   -2.1143   -0.0008 H   0  0  0  0  0  0  0  0  0  0  0  0
    1.3929    2.3433    0.0002 H   0  0  0  0  0  0  0  0  0  0  0  0
    1.6248   -1.9720   -0.0003 H   0  0  0  0  0  0  0  0  0  0  0  0
    2.7520    0.2532    0.0005 H   0  0  0  0  0  0  0  0  0  0  0  0
   -2.7971   -0.8762   -0.0005 H   0  0  0  0  0  0  0  0  0  0  0  0
  1  2  1  0  0  0  0
  1 13  1  0  0  0  0
  2  3  2  0  0  0  0
  2  4  1  0  0  0  0
  3  5  1  0  0  0  0
  3  8  1  0  0  0  0
  4  6  2  0  0  0  0
  4  9  1  0  0  0  0
  5  7  2  0  0  0  0
  5 10  1  0  0  0  0
  6  7  1  0  0  0  0
  6 11  1  0  0  0  0
  7 12  1  0  0  0  0
M  END