Trichloromethane
  SciTegic12150910513D

  4  3  0  0  0  0            999 V2000
   -0.0626   -0.0896   -0.1559 C   0  0  0  0  0  0  0  0  0  1  0  0
    1.7044   -0.0906   -0.1581 Cl  0  0  0  0  0  0  0  0  0  2  0  0
   -0.6515    1.5764   -0.1546 Cl  0  0  0  0  0  0  0  0  0  3  0  0
   -0.6511   -0.9244    1.2860 Cl  0  0  0  0  0  0  0  0  0  4  0  0
  1  4  1  0
  1  3  1  0
  1  2  1  0
M  END