1,1,2,2-Tetrachloroethane
  SciTegic12150910513D

  6  5  0  0  0  0            999 V2000
   -0.2692   -0.0837   -0.1661 C   0  0  0  0  0  0  0  0  0  1  0  0
    1.2653   -0.1654   -0.0848 C   0  0  0  0  0  0  0  0  0  2  0  0
    1.7881    0.2369    1.5539 Cl  0  0  0  0  0  0  0  0  0  3  0  0
    1.9764    0.9786   -1.2280 Cl  0  0  0  0  0  0  0  0  0  4  0  0
   -0.7913    1.5554    0.2357 Cl  0  0  0  0  0  0  0  0  0  5  0  0
   -0.9802   -1.2261    0.9786 Cl  0  0  0  0  0  0  0  0  0  6  0  0
  1  6  1  0
  1  5  1  0
  2  4  1  0
  2  3  1  0
  1  2  1  0
M  END