1,1,1-Trichloroethane
  SciTegic12150910513D

  5  4  0  0  0  0            999 V2000
   -0.0145   -0.0217   -0.0371 C   0  0  0  0  0  0  0  0  0  1  0  0
    1.7525   -0.0210   -0.0371 Cl  0  0  0  0  0  0  0  0  0  2  0  0
   -0.6042    1.6440   -0.0378 Cl  0  0  0  0  0  0  0  0  0  3  0  0
   -0.6031   -0.8543    1.4060 Cl  0  0  0  0  0  0  0  0  0  4  0  0
   -0.5275   -0.7484   -1.2942 C   0  0  0  0  0  0  0  0  0  5  0  0
  1  5  1  0
  1  4  1  0
  1  3  1  0
  1  2  1  0
M  END