Tetrachloromethane
  SciTegic12150910513D

  5  4  0  0  0  0            999 V2000
    0.0019    0.0001    0.0000 C   0  0  0  0  0  0  0  0  0  1  0  0
    1.7689    0.0016    0.0006 Cl  0  0  0  0  0  0  0  0  0  2  0  0
   -0.5885    1.6656    0.0010 Cl  0  0  0  0  0  0  0  0  0  3  0  0
   -0.5869   -0.8343    1.4420 Cl  0  0  0  0  0  0  0  0  0  4  0  0
   -0.5859   -0.8323   -1.4435 Cl  0  0  0  0  0  0  0  0  0  5  0  0
  1  5  1  0
  1  4  1  0
  1  3  1  0
  1  2  1  0
M  END