Pentachloroethane
  SciTegic12150910513D

  7  6  0  0  0  0            999 V2000
   -0.1976   -0.1020    0.0002 C   0  0  0  0  0  0  0  0  0  1  0  0
    1.3391   -0.1433    0.0585 C   0  0  0  0  0  0  0  0  0  2  0  0
    1.8800    0.3861    1.6546 Cl  0  0  0  0  0  0  0  0  0  3  0  0
    2.0021    0.9322   -1.1760 Cl  0  0  0  0  0  0  0  0  0  4  0  0
   -0.7517    1.5493    0.2948 Cl  0  0  0  0  0  0  0  0  0  5  0  0
   -0.8624   -1.1763    1.2351 Cl  0  0  0  0  0  0  0  0  0  6  0  0
   -0.7403   -0.6302   -1.5960 Cl  0  0  0  0  0  0  0  0  0  7  0  0
  1  7  1  0
  1  6  1  0
  1  5  1  0
  2  4  1  0
  2  3  1  0
  1  2  1  0
M  END