Hexachloroethane
  SciTegic12150910513D

  8  7  0  0  0  0            999 V2000
   -0.2683   -0.0001   -0.0001 C   0  0  0  0  0  0  0  0  0  1  0  0
    1.2693   -0.0001   -0.0001 C   0  0  0  0  0  0  0  0  0  2  0  0
    1.8566    0.4311    1.6091 Cl  0  0  0  0  0  0  0  0  0  3  0  0
    1.8564    1.1778   -1.1783 Cl  0  0  0  0  0  0  0  0  0  4  0  0
    1.8565   -1.6094   -0.4313 Cl  0  0  0  0  0  0  0  0  0  5  0  0
   -0.8555    1.6091    0.4311 Cl  0  0  0  0  0  0  0  0  0  6  0  0
   -0.8554   -1.1781    1.1781 Cl  0  0  0  0  0  0  0  0  0  7  0  0
   -0.8556   -0.4314   -1.6092 Cl  0  0  0  0  0  0  0  0  0  8  0  0
  1  8  1  0
  1  7  1  0
  1  6  1  0
  2  5  1  0
  2  4  1  0
  2  3  1  0
  1  2  1  0
M  END