1,1,2,3,4,4-Hexachloro-1,3-Butadiene
  SciTegic12150910513D

 10  9  0  0  0  0            999 V2000
    2.1008   -0.3995   -0.9767 C   0  0  0  0  0  0  0  0  0  1  0  0
    1.2536    0.3883   -0.2972 C   0  0  0  0  0  0  0  0  0  2  0  0
   -0.2535    0.1322   -0.2227 C   0  0  0  0  0  0  0  0  0  3  0  0
   -1.1008    0.9200    0.4568 C   0  0  0  0  0  0  0  0  0  4  0  0
   -0.6071    2.3255    1.3369 Cl  0  0  0  0  0  0  0  0  0  5  0  0
   -2.7784    0.5069    0.4521 Cl  0  0  0  0  0  0  0  0  0  6  0  0
   -0.9731   -1.2201   -1.0290 Cl  0  0  0  0  0  0  0  0  0  7  0  0
    1.9731    1.7406    0.5091 Cl  0  0  0  0  0  0  0  0  0  8  0  0
    3.7784    0.0136   -0.9720 Cl  0  0  0  0  0  0  0  0  0  9  0  0
    1.6071   -1.8050   -1.8568 Cl  0  0  0  0  0  0  0  0  0 10  0  0
  1 10  1  0
  1  9  1  0
  2  8  1  0
  3  7  1  0
  4  6  1  0
  4  5  1  0
  3  4  2  0
  2  3  1  0
  1  2  2  0
M  END