Benzene
  SciTegic12150910513D

  6  6  0  0  0  0            999 V2000
    0.9074    0.7943    1.1190 C   0  0  0  0  0  0  0  0  0  1  0  0
    0.7371    2.1742    1.1018 C   0  0  0  0  0  0  0  0  0  2  0  0
   -0.2478    2.7432    0.3020 C   0  0  0  0  0  0  0  0  0  3  0  0
   -1.0624    1.9324   -0.4805 C   0  0  0  0  0  0  0  0  0  4  0  0
   -0.8921    0.5525   -0.4633 C   0  0  0  0  0  0  0  0  0  5  0  0
    0.0928   -0.0165    0.3365 C   0  0  0  0  0  0  0  0  0  6  0  0
  6  5  4  0
  1  6  4  0
  4  5  4  0
  3  4  4  0
  2  3  4  0
  1  2  4  0
M  END