Toluene
  SciTegic12150910513D

  7  7  0  0  0  0            999 V2000
    0.8984    0.4439    0.4451 C   0  0  0  0  0  0  0  0  0  1  0  0
    1.0027    1.7941    0.7602 C   0  0  0  0  0  0  0  0  0  2  0  0
   -0.0655    2.6496    0.5149 C   0  0  0  0  0  0  0  0  0  3  0  0
   -1.2380    2.1548   -0.0454 C   0  0  0  0  0  0  0  0  0  4  0  0
   -1.3421    0.8045   -0.3605 C   0  0  0  0  0  0  0  0  0  5  0  0
   -0.2739   -0.0510   -0.1152 C   0  0  0  0  0  0  0  0  0  6  0  0
    2.0514   -0.4796    0.7099 C   0  0  0  0  0  0  0  0  0  7  0  0
  1  7  1  0
  6  5  4  0
  1  6  4  0
  4  5  4  0
  3  4  4  0
  2  3  4  0
  1  2  4  0
M  END