Ethylbenzene
  DSViewer          3D                             0

  8  8  0  0  0  0  0  0  0  0999 V2000
    0.7749    0.4356    0.3887 C   0  0  0  0  0  0  0  0  0  1
    0.9844    1.7676    0.7280 C   0  0  0  0  0  0  0  0  0  2
   -0.0245    2.7038    0.5314 C   0  0  0  0  0  0  0  0  0  3
   -1.2448    2.3088   -0.0051 C   0  0  0  0  0  0  0  0  0  4
   -1.4558    0.9773   -0.3449 C   0  0  0  0  0  0  0  0  0  5
   -0.4465    0.0414   -0.1481 C   0  0  0  0  0  0  0  0  0  6
    1.8752   -0.5720    0.6058 C   0  0  0  0  0  0  0  0  0  7
    1.4165   -1.9753    0.1587 C   0  0  0  0  0  0  0  0  0  8
  7  8  1  0  0  0
  1  7  1  0  0  0
  6  5  4  0  0  0
  1  6  4  0  0  0
  4  5  4  0  0  0
  3  4  4  0  0  0
  2  3  4  0  0  0
  1  2  4  0  0  0
M  END