m-Xylene
  DSViewer          3D                             0

  8  8  0  0  0  0  0  0  0  0999 V2000
    1.0382    0.4677    0.4778 C   0  0  0  0  0  0  0  0  0  1
    1.1117    1.7310    1.0540 C   0  0  0  0  0  0  0  0  0  2
    0.0711    2.6364    0.8787 C   0  0  0  0  0  0  0  0  0  3
   -1.0427    2.2785    0.1274 C   0  0  0  0  0  0  0  0  0  4
   -1.1158    1.0151   -0.4486 C   0  0  0  0  0  0  0  0  0  5
   -2.3177    0.6287   -1.2595 C   0  0  0  0  0  0  0  0  0  6
   -0.0754    0.1096   -0.2735 C   0  0  0  0  0  0  0  0  0  7
    2.1610   -0.5096    0.6668 C   0  0  0  0  0  0  0  0  0  8
  1  8  1  0  0  0
  7  5  4  0  0  0
  1  7  4  0  0  0
  5  6  1  0  0  0
  4  5  4  0  0  0
  3  4  4  0  0  0
  2  3  4  0  0  0
  1  2  4  0  0  0
M  END