p-Xylene
  SciTegic12150910513D

  8  8  0  0  0  0            999 V2000
    1.2295    0.3628    0.1008 C   0  0  0  0  0  0  0  0  0  1  0  0
    1.3460    1.6523    0.6075 C   0  0  0  0  0  0  0  0  0  2  0  0
    0.2058    2.3687    0.9535 C   0  0  0  0  0  0  0  0  0  3  0  0
   -1.0506    1.7954    0.7928 C   0  0  0  0  0  0  0  0  0  4  0  0
   -1.1671    0.5058    0.2861 C   0  0  0  0  0  0  0  0  0  5  0  0
   -2.2813    2.5686    1.1662 C   0  0  0  0  0  0  0  0  0  6  0  0
   -0.0269   -0.2105   -0.0600 C   0  0  0  0  0  0  0  0  0  7  0  0
    2.4602   -0.4104   -0.2727 C   0  0  0  0  0  0  0  0  0  8  0  0
  1  8  1  0
  7  5  4  0
  1  7  4  0
  4  6  1  0
  4  5  4  0
  3  4  4  0
  2  3  4  0
  1  2  4  0
M  END