p-Methylstyrene
  SciTegic12150910513D

  9  9  0  0  0  0            999 V2000
    1.3312    0.2906   -0.1565 C   0  0  0  0  0  0  0  0  0  1  0  0
    1.5250    1.4364    0.6068 C   0  0  0  0  0  0  0  0  0  2  0  0
    0.4386    2.0645    1.2051 C   0  0  0  0  0  0  0  0  0  3  0  0
   -0.8416    1.5469    1.0400 C   0  0  0  0  0  0  0  0  0  4  0  0
   -1.0349    0.4012    0.2766 C   0  0  0  0  0  0  0  0  0  5  0  0
   -1.9864    2.2064    1.6687 C   0  0  0  0  0  0  0  0  0  6  0  0
   -1.8065    3.3039    2.4007 C   0  0  0  0  0  0  0  0  0  7  0  0
    0.0514   -0.2270   -0.3217 C   0  0  0  0  0  0  0  0  0  8  0  0
    2.5038   -0.3875   -0.8023 C   0  0  0  0  0  0  0  0  0  9  0  0
  1  9  1  0
  8  5  4  0
  1  8  4  0
  6  7  2  0
  4  6  1  0
  4  5  4  0
  3  4  4  0
  2  3  4  0
  1  2  4  0
M  END