m-Methylstyrene
  DSViewer          3D                             0

  9  9  0  0  0  0  0  0  0  0999 V2000
    1.1380    0.3856    0.6180 C   0  0  0  0  0  0  0  0  0  1
    1.1840    1.5635    1.3551 C   0  0  0  0  0  0  0  0  0  2
    0.2140    2.5412    1.1643 C   0  0  0  0  0  0  0  0  0  3
   -0.8017    2.3406    0.2364 C   0  0  0  0  0  0  0  0  0  4
   -0.8475    1.1623   -0.5008 C   0  0  0  0  0  0  0  0  0  5
   -1.9155    0.9490   -1.4778 C   0  0  0  0  0  0  0  0  0  6
   -2.8468    1.8819   -1.6645 C   0  0  0  0  0  0  0  0  0  7
    0.1224    0.1848   -0.3099 C   0  0  0  0  0  0  0  0  0  8
    2.1849   -0.6696    0.8239 C   0  0  0  0  0  0  0  0  0  9
  1  9  1  0  0  0
  8  5  4  0  0  0
  1  8  4  0  0  0
  6  7  2  0  0  0
  5  6  1  0  0  0
  4  5  4  0  0  0
  3  4  4  0  0  0
  2  3  4  0  0  0
  1  2  4  0  0  0
M  END