2-Phenyldodecane
  SciTegic12150910513D

 18 18  0  0  0  0            999 V2000
    0.2364    0.1587   -2.8187 C   0  0  0  0  0  0  0  0  0  1  0  0
    1.2145    1.1430   -2.7415 C   0  0  0  0  0  0  0  0  0  2  0  0
    2.0039    1.2492   -1.6026 C   0  0  0  0  0  0  0  0  0  3  0  0
    1.8150    0.3674   -0.5454 C   0  0  0  0  0  0  0  0  0  4  0  0
    0.8358   -0.6173   -0.6231 C   0  0  0  0  0  0  0  0  0  5  0  0
    0.0393   -0.7227   -1.7595 C   0  0  0  0  0  0  0  0  0  6  0  0
   -1.0477   -1.7870   -1.8658 C   0  0  0  0  0  0  0  0  0  7  0  0
   -2.0215   -1.4604   -3.0154 C   0  0  0  0  0  0  0  0  0  8  0  0
   -1.7990   -2.0338   -0.5289 C   0  0  0  0  0  0  0  0  0  9  0  0
   -2.4885   -0.7225   -0.0914 C   0  0  0  0  0  0  0  0  0 10  0  0
   -3.3829   -0.9235    1.1458 C   0  0  0  0  0  0  0  0  0 11  0  0
   -3.7041    0.4789    1.6989 C   0  0  0  0  0  0  0  0  0 12  0  0
   -2.3976    1.0319    2.3105 C   0  0  0  0  0  0  0  0  0 13  0  0
   -2.1238    0.2563    3.6211 C   0  0  0  0  0  0  0  0  0 14  0  0
   -0.6893    0.4821    4.1299 C   0  0  0  0  0  0  0  0  0 15  0  0
    0.2881   -0.2418    3.1829 C   0  0  0  0  0  0  0  0  0 16  0  0
    1.7221   -0.1298    3.7254 C   0  0  0  0  0  0  0  0  0 17  0  0
    2.6732   -0.9493    2.8331 C   0  0  0  0  0  0  0  0  0 18  0  0
 17 18  1  0
 16 17  1  0
 15 16  1  0
 14 15  1  0
 13 14  1  0
 12 13  1  0
 11 12  1  0
 10 11  1  0
  9 10  1  0
  7  9  1  0
  7  8  1  0
  6  7  1  0
  6  1  4  0
  5  6  4  0
  4  5  4  0
  3  4  4  0
  2  3  4  0
  1  2  4  0
M  END