Octachlorostyrene
  SciTegic12150910513D

 16 16  0  0  0  0            999 V2000
    3.2431   -0.1012    2.0397 Cl  0  0  0  0  0  0  0  0  0  1  0  0
    1.7983    0.2528    1.1620 C   0  0  0  0  0  0  0  0  0  2  0  0
    0.9279    1.2302    1.6157 C   0  0  0  0  0  0  0  0  0  3  0  0
    1.2864    2.0938    3.0678 Cl  0  0  0  0  0  0  0  0  0  4  0  0
   -0.2328    1.5184    0.9087 C   0  0  0  0  0  0  0  0  0  5  0  0
   -1.2753    2.7407    1.5500 Cl  0  0  0  0  0  0  0  0  0  6  0  0
   -0.5512    0.8254   -0.2643 C   0  0  0  0  0  0  0  0  0  7  0  0
   -1.8467    1.1927   -0.9983 C   0  0  0  0  0  0  0  0  0  8  0  0
   -2.3354    2.8540   -1.0565 Cl  0  0  0  0  0  0  0  0  0  9  0  0
   -2.6855    0.3236   -1.5884 C   0  0  0  0  0  0  0  0  0 10  0  0
   -4.1000    0.9588   -2.3500 Cl  0  0  0  0  0  0  0  0  0 11  0  0
   -2.4929   -1.3976   -1.5440 Cl  0  0  0  0  0  0  0  0  0 12  0  0
    1.5054   -0.4325   -0.0062 C   0  0  0  0  0  0  0  0  0 13  0  0
    2.5991   -1.6355   -0.5889 Cl  0  0  0  0  0  0  0  0  0 14  0  0
    0.3448   -0.1546   -0.7194 C   0  0  0  0  0  0  0  0  0 15  0  0
    0.1222   -1.0325   -2.1947 Cl  0  0  0  0  0  0  0  0  0 16  0  0
 15 16  1  0
 15  7  4  0
 13 15  4  0
 13 14  1  0
  2 13  4  0
 10 12  1  0
 10 11  1  0
  8 10  2  0
  8  9  1  0
  7  8  1  0
  5  7  4  0
  5  6  1  0
  3  5  4  0
  3  4  1  0
  2  3  4  0
  1  2  1  0
M  END