Naphthalene
  SciTegic12150910513D

 10 11  0  0  0  0            999 V2000
    0.9374    0.5655   -0.0855 C   0  0  0  0  0  0  0  0  0  1  0  0
    1.1522    1.6146    0.8022 C   0  0  0  0  0  0  0  0  0  2  0  0
    2.4458    1.9413    1.1925 C   0  0  0  0  0  0  0  0  0  3  0  0
    3.5246    1.2190    0.6952 C   0  0  0  0  0  0  0  0  0  4  0  0
    3.3099    0.1702   -0.1921 C   0  0  0  0  0  0  0  0  0  5  0  0
    0.0734    2.3367    1.2993 C   0  0  0  0  0  0  0  0  0  6  0  0
   -1.2203    2.0098    0.9088 C   0  0  0  0  0  0  0  0  0  7  0  0
   -1.4350    0.9611    0.0215 C   0  0  0  0  0  0  0  0  0  8  0  0
    2.0162   -0.1567   -0.5826 C   0  0  0  0  0  0  0  0  0  9  0  0
   -0.3562    0.2388   -0.4758 C   0  0  0  0  0  0  0  0  0 10  0  0
 10  8  4  0
  1 10  4  0
  9  5  4  0
  1  9  4  0
  7  8  4  0
  6  7  4  0
  2  6  4  0
  4  5  4  0
  3  4  4  0
  2  3  4  0
  1  2  4  0
M  END