Acenaphthalene
  SciTegic12150910513D

 12 14  0  0  0  0            999 V2000
    0.6968    0.5725    0.2553 C   0  0  0  0  0  0  0  0  0  1  0  0
    1.1884    1.7749    0.6980 C   0  0  0  0  0  0  0  0  0  2  0  0
    2.5672    1.8936    0.8483 C   0  0  0  0  0  0  0  0  0  3  0  0
    3.3886    0.7992    0.5471 C   0  0  0  0  0  0  0  0  0  4  0  0
    2.8581   -0.4151    0.0973 C   0  0  0  0  0  0  0  0  0  5  0  0
    0.2727    2.7889    0.9647 C   0  0  0  0  0  0  0  0  0  6  0  0
   -1.0944    2.5485    0.7744 C   0  0  0  0  0  0  0  0  0  7  0  0
   -1.5663    1.3113    0.3216 C   0  0  0  0  0  0  0  0  0  8  0  0
    1.4799   -0.5044   -0.0432 C   0  0  0  0  0  0  0  0  0  9  0  0
    0.6500   -1.6886   -0.5069 C   0  0  0  0  0  0  0  0  0 10  0  0
   -0.8639   -1.0978   -0.4301 C   0  0  0  0  0  0  0  0  0 11  0  0
   -0.6303    0.3190    0.0638 C   0  0  0  0  0  0  0  0  0 12  0  0
 12 11  1  0
 12  8  4  0
  1 12  4  0
 10 11  1  0
  9 10  1  0
  9  5  4  0
  1  9  4  0
  7  8  4  0
  6  7  4  0
  2  6  4  0
  4  5  4  0
  3  4  4  0
  2  3  4  0
  1  2  4  0
M  END