Biphenyl
  SciTegic12150910513D

 12 13  0  0  0  0            999 V2000
    0.7810    0.1295    0.0646 C   0  0  0  0  0  0  0  0  0  1  0  0
    1.5907   -1.0700   -0.1383 C   0  0  0  0  0  0  0  0  0  2  0  0
    2.9088   -1.1016    0.3029 C   0  0  0  0  0  0  0  0  0  3  0  0
    3.6791   -2.2427    0.1100 C   0  0  0  0  0  0  0  0  0  4  0  0
    3.1313   -3.3521   -0.5243 C   0  0  0  0  0  0  0  0  0  5  0  0
    1.8131   -3.3205   -0.9656 C   0  0  0  0  0  0  0  0  0  6  0  0
    1.0429   -2.1794   -0.7726 C   0  0  0  0  0  0  0  0  0  7  0  0
    1.3288    1.2388    0.6988 C   0  0  0  0  0  0  0  0  0  8  0  0
    0.5586    2.3799    0.8919 C   0  0  0  0  0  0  0  0  0  9  0  0
   -0.7596    2.4116    0.4506 C   0  0  0  0  0  0  0  0  0 10  0  0
   -1.3074    1.3022   -0.1837 C   0  0  0  0  0  0  0  0  0 11  0  0
   -0.5371    0.1611   -0.3767 C   0  0  0  0  0  0  0  0  0 12  0  0
 12 11  4  0
  1 12  4  0
 10 11  4  0
  9 10  4  0
  8  9  4  0
  1  8  4  0
  7  6  4  0
  2  7  4  0
  5  6  4  0
  4  5  4  0
  3  4  4  0
  2  3  4  0
  1  2  1  0
M  END