Anthracene
  SciTegic12150910513D

 14 16  0  0  0  0            999 V2000
    0.4686    0.5115   -0.2137 C   0  0  0  0  0  0  0  0  0  1  0  0
    0.2850    0.0226   -1.5029 C   0  0  0  0  0  0  0  0  0  2  0  0
    1.3518   -0.5456   -2.1895 C   0  0  0  0  0  0  0  0  0  3  0  0
    2.6023   -0.6248   -1.5871 C   0  0  0  0  0  0  0  0  0  4  0  0
    2.7858   -0.1360   -0.2984 C   0  0  0  0  0  0  0  0  0  5  0  0
   -0.9650    0.1017   -2.1053 C   0  0  0  0  0  0  0  0  0  6  0  0
   -2.0314    0.6698   -1.4184 C   0  0  0  0  0  0  0  0  0  7  0  0
   -1.8478    1.1588   -0.1293 C   0  0  0  0  0  0  0  0  0  8  0  0
   -2.9146    1.7269    0.5573 C   0  0  0  0  0  0  0  0  0  9  0  0
   -4.1651    1.8062   -0.0451 C   0  0  0  0  0  0  0  0  0 10  0  0
   -4.3486    1.3174   -1.3337 C   0  0  0  0  0  0  0  0  0 11  0  0
   -3.2817    0.7491   -2.0206 C   0  0  0  0  0  0  0  0  0 12  0  0
    1.7190    0.4322    0.3884 C   0  0  0  0  0  0  0  0  0 13  0  0
   -0.5978    1.0797    0.4732 C   0  0  0  0  0  0  0  0  0 14  0  0
 14  8  4  0
  1 14  4  0
 13  5  4  0
  1 13  4  0
 12 11  4  0
  7 12  4  0
 10 11  4  0
  9 10  4  0
  8  9  4  0
  7  8  4  0
  6  7  4  0
  2  6  4  0
  4  5  4  0
  3  4  4  0
  2  3  4  0
  1  2  4  0
M  END