Benzo[a]pyrene
  SciTegic12150910513D

 20 24  0  0  0  0            999 V2000
   -3.4860   -0.7107    1.7978 C   0  0  0  0  0  0  0  0  0  1  0  0
   -3.9578   -0.2262    3.0124 C   0  0  0  0  0  0  0  0  0  2  0  0
   -3.4775    0.9782    3.5143 C   0  0  0  0  0  0  0  0  0  3  0  0
   -2.5256    1.6980    2.8019 C   0  0  0  0  0  0  0  0  0  4  0  0
   -2.0540    1.2136    1.5875 C   0  0  0  0  0  0  0  0  0  5  0  0
   -3.9493    1.4626    4.7288 C   0  0  0  0  0  0  0  0  0  6  0  0
   -4.9015    0.7425    5.4413 C   0  0  0  0  0  0  0  0  0  7  0  0
   -5.3819   -0.4619    4.9397 C   0  0  0  0  0  0  0  0  0  8  0  0
   -4.9101   -0.9462    3.7253 C   0  0  0  0  0  0  0  0  0  9  0  0
   -5.3905   -2.1503    3.2238 C   0  0  0  0  0  0  0  0  0 10  0  0
   -4.9187   -2.6348    2.0093 C   0  0  0  0  0  0  0  0  0 11  0  0
   -3.9668   -1.9152    1.2966 C   0  0  0  0  0  0  0  0  0 12  0  0
   -3.4958   -2.4003    0.0825 C   0  0  0  0  0  0  0  0  0 13  0  0
   -2.5440   -1.6808   -0.6302 C   0  0  0  0  0  0  0  0  0 14  0  0
   -2.0626   -0.4759   -0.1293 C   0  0  0  0  0  0  0  0  0 15  0  0
   -1.1104    0.2423   -0.8439 C   0  0  0  0  0  0  0  0  0 16  0  0
   -0.6399   -0.2438   -2.0583 C   0  0  0  0  0  0  0  0  0 17  0  0
   -1.1213   -1.4484   -2.5586 C   0  0  0  0  0  0  0  0  0 18  0  0
   -2.0734   -2.1669   -1.8445 C   0  0  0  0  0  0  0  0  0 19  0  0
   -2.5338    0.0093    1.0851 C   0  0  0  0  0  0  0  0  0 20  0  0
 20 15  4  0
 20  5  4  0
  1 20  4  0
 19 18  4  0
 14 19  4  0
 17 18  4  0
 16 17  4  0
 15 16  4  0
 14 15  4  0
 13 14  4  0
 12 13  4  0
 12 11  4  0
  1 12  4  0
 10 11  4  0
  9 10  4  0
  9  8  4  0
  2  9  4  0
  7  8  4  0
  6  7  4  0
  3  6  4  0
  4  5  4  0
  3  4  4  0
  2  3  4  0
  1  2  4  0
M  END