Pyrene
  SciTegic12150910513D

 16 19  0  0  0  0            999 V2000
    0.1114    0.2093    0.1134 C   0  0  0  0  0  0  0  0  0  1  0  0
   -0.2126    1.5138   -0.2409 C   0  0  0  0  0  0  0  0  0  2  0  0
    0.0487    1.9696   -1.5283 C   0  0  0  0  0  0  0  0  0  3  0  0
    0.6337    1.1210   -2.4610 C   0  0  0  0  0  0  0  0  0  4  0  0
    0.9577   -0.1836   -2.1066 C   0  0  0  0  0  0  0  0  0  5  0  0
   -0.2753    3.2740   -1.8826 C   0  0  0  0  0  0  0  0  0  6  0  0
   -0.8604    4.1225   -0.9495 C   0  0  0  0  0  0  0  0  0  7  0  0
   -1.1217    3.6670    0.3378 C   0  0  0  0  0  0  0  0  0  8  0  0
   -0.7977    2.3625    0.6921 C   0  0  0  0  0  0  0  0  0  9  0  0
   -1.0588    1.9067    1.9791 C   0  0  0  0  0  0  0  0  0 10  0  0
   -0.7349    0.6021    2.3334 C   0  0  0  0  0  0  0  0  0 11  0  0
    0.6966   -0.6394   -0.8196 C   0  0  0  0  0  0  0  0  0 12  0  0
    1.0205   -1.9439   -0.4653 C   0  0  0  0  0  0  0  0  0 13  0  0
    0.7592   -2.3994    0.8220 C   0  0  0  0  0  0  0  0  0 14  0  0
    0.1741   -1.5509    1.7551 C   0  0  0  0  0  0  0  0  0 15  0  0
   -0.1498   -0.2465    1.4008 C   0  0  0  0  0  0  0  0  0 16  0  0
 16 15  4  0
 16 11  4  0
  1 16  4  0
 14 15  4  0
 13 14  4  0
 12 13  4  0
 12  5  4  0
  1 12  4  0
 10 11  4  0
  9 10  4  0
  9  8  4  0
  2  9  4  0
  7  8  4  0
  6  7  4  0
  3  6  4  0
  4  5  4  0
  3  4  4  0
  2  3  4  0
  1  2  4  0
M  END