2-Methylphenanthrene
  DSViewer          3D                             0

 15 17  0  0  0  0  0  0  0  0999 V2000
   -1.3137    0.7013    0.7704 C   0  0  0  0  0  0  0  0  0  1
   -0.5636    1.8508    0.5500 C   0  0  0  0  0  0  0  0  0  2
    0.7940    1.7516    0.2669 C   0  0  0  0  0  0  0  0  0  3
    1.5453    2.9003    0.0463 C   0  0  0  0  0  0  0  0  0  4
    0.9405    4.1507    0.1084 C   0  0  0  0  0  0  0  0  0  5
    1.6929    5.2985   -0.1124 C   0  0  0  0  0  0  0  0  0  6
    3.0502    5.1961   -0.3953 C   0  0  0  0  0  0  0  0  0  7
    3.8622    6.4350   -0.6336 C   0  0  0  0  0  0  0  0  0  8
    3.6555    3.9462   -0.4575 C   0  0  0  0  0  0  0  0  0  9
    2.9032    2.7985   -0.2368 C   0  0  0  0  0  0  0  0  0 10
    3.5095    1.5493   -0.2992 C   0  0  0  0  0  0  0  0  0 11
    2.7584    0.4007   -0.0787 C   0  0  0  0  0  0  0  0  0 12
    1.4012    0.5018    0.2042 C   0  0  0  0  0  0  0  0  0 13
    0.6510   -0.6476    0.4246 C   0  0  0  0  0  0  0  0  0 14
   -0.7064   -0.5478    0.7077 C   0  0  0  0  0  0  0  0  0 15
 15  1  4  0  0  0
 14 15  4  0  0  0
 13 14  4  0  0  0
 13  3  4  0  0  0
 12 13  4  0  0  0
 11 12  4  0  0  0
 10 11  4  0  0  0
 10  4  4  0  0  0
  9 10  4  0  0  0
  7  9  4  0  0  0
  7  8  1  0  0  0
  6  7  4  0  0  0
  5  6  4  0  0  0
  4  5  4  0  0  0
  3  4  4  0  0  0
  2  3  4  0  0  0
  1  2  4  0  0  0
M  END