2-Chlorophenanthrene
  SciTegic12150910513D

 15 17  0  0  0  0            999 V2000
   -1.3219    0.7061   -0.8418 C   0  0  0  0  0  0  0  0  0  1  0  0
   -0.5741    1.8526   -0.5992 C   0  0  0  0  0  0  0  0  0  2  0  0
    0.7778    1.7489   -0.2914 C   0  0  0  0  0  0  0  0  0  3  0  0
    1.5266    2.8947   -0.0485 C   0  0  0  0  0  0  0  0  0  4  0  0
    0.9251    4.1465   -0.1131 C   0  0  0  0  0  0  0  0  0  5  0  0
    1.6751    5.2915    0.1300 C   0  0  0  0  0  0  0  0  0  6  0  0
    3.0267    5.1847    0.4376 C   0  0  0  0  0  0  0  0  0  7  0  0
    3.9587    6.6077    0.7396 Cl  0  0  0  0  0  0  0  0  0  8  0  0
    3.6287    3.9333    0.5022 C   0  0  0  0  0  0  0  0  0  9  0  0
    2.8788    2.7885    0.2592 C   0  0  0  0  0  0  0  0  0 10  0  0
    3.4818    1.5377    0.3242 C   0  0  0  0  0  0  0  0  0 11  0  0
    2.7330    0.3921    0.0814 C   0  0  0  0  0  0  0  0  0 12  0  0
    1.3815    0.4976   -0.2263 C   0  0  0  0  0  0  0  0  0 13  0  0
    0.6337   -0.6488   -0.4689 C   0  0  0  0  0  0  0  0  0 14  0  0
   -0.7180   -0.5446   -0.7767 C   0  0  0  0  0  0  0  0  0 15  0  0
 15  1  4  0
 14 15  4  0
 13 14  4  0
 13  3  4  0
 12 13  4  0
 11 12  4  0
 10 11  4  0
 10  4  4  0
  9 10  4  0
  7  9  4  0
  7  8  1  0
  6  7  4  0
  5  6  4  0
  4  5  4  0
  3  4  4  0
  2  3  4  0
  1  2  4  0
M  END