9-Methylanthracene
  SciTegic12150910513D

 15 17  0  0  0  0            999 V2000
    0.8283    0.3996    0.1470 C   0  0  0  0  0  0  0  0  0  1  0  0
    0.7293    0.6342   -1.2205 C   0  0  0  0  0  0  0  0  0  2  0  0
   -0.5094    0.9062   -1.7916 C   0  0  0  0  0  0  0  0  0  3  0  0
   -1.6481    0.9434   -0.9938 C   0  0  0  0  0  0  0  0  0  4  0  0
   -1.5474    0.7086    0.3735 C   0  0  0  0  0  0  0  0  0  5  0  0
   -2.6847    0.7454    1.1719 C   0  0  0  0  0  0  0  0  0  6  0  0
   -3.9241    1.0171    0.6040 C   0  0  0  0  0  0  0  0  0  7  0  0
   -4.0260    1.2519   -0.7625 C   0  0  0  0  0  0  0  0  0  8  0  0
   -2.8885    1.2150   -1.5608 C   0  0  0  0  0  0  0  0  0  9  0  0
   -0.6174    1.1601   -3.2707 C   0  0  0  0  0  0  0  0  0 10  0  0
    1.8703    0.5961   -2.0146 C   0  0  0  0  0  0  0  0  0 11  0  0
    3.1079    0.3241   -1.4427 C   0  0  0  0  0  0  0  0  0 12  0  0
    3.2056    0.0899   -0.0758 C   0  0  0  0  0  0  0  0  0 13  0  0
    2.0657    0.1276    0.7189 C   0  0  0  0  0  0  0  0  0 14  0  0
   -0.3096    0.4368    0.9438 C   0  0  0  0  0  0  0  0  0 15  0  0
 15  5  4  0
  1 15  4  0
 14 13  4  0
  1 14  4  0
 12 13  4  0
 11 12  4  0
  2 11  4  0
  3 10  1  0
  9  8  4  0
  4  9  4  0
  7  8  4  0
  6  7  4  0
  5  6  4  0
  4  5  4  0
  3  4  4  0
  2  3  4  0
  1  2  4  0
M  END