Benzo[a]anthracene
  SciTegic12150910513D

 18 21  0  0  0  0            999 V2000
    0.4373    1.0783   -0.4794 C   0  0  0  0  0  0  0  0  0  1  0  0
    0.1896   -0.2852   -0.5975 C   0  0  0  0  0  0  0  0  0  2  0  0
    1.2318   -1.1948   -0.4594 C   0  0  0  0  0  0  0  0  0  3  0  0
    2.5211   -0.7404   -0.2034 C   0  0  0  0  0  0  0  0  0  4  0  0
    2.7681    0.6225   -0.0855 C   0  0  0  0  0  0  0  0  0  5  0  0
    3.5640   -1.6490   -0.0652 C   0  0  0  0  0  0  0  0  0  6  0  0
    3.3180   -3.0122   -0.1829 C   0  0  0  0  0  0  0  0  0  7  0  0
    2.0293   -3.4668   -0.4389 C   0  0  0  0  0  0  0  0  0  8  0  0
    0.9863   -2.5582   -0.5771 C   0  0  0  0  0  0  0  0  0  9  0  0
   -1.0995   -0.7378   -0.8534 C   0  0  0  0  0  0  0  0  0 10  0  0
   -2.1404    0.1726   -0.9911 C   0  0  0  0  0  0  0  0  0 11  0  0
   -1.8925    1.5360   -0.8730 C   0  0  0  0  0  0  0  0  0 12  0  0
   -2.9338    2.4465   -1.0108 C   0  0  0  0  0  0  0  0  0 13  0  0
   -4.2230    1.9936   -1.2668 C   0  0  0  0  0  0  0  0  0 14  0  0
   -4.4708    0.6305   -1.3849 C   0  0  0  0  0  0  0  0  0 15  0  0
   -3.4294   -0.2802   -1.2470 C   0  0  0  0  0  0  0  0  0 16  0  0
    1.7260    1.5319   -0.2235 C   0  0  0  0  0  0  0  0  0 17  0  0
   -0.6036    1.9889   -0.6171 C   0  0  0  0  0  0  0  0  0 18  0  0
 18 12  4  0
  1 18  4  0
 17  5  4  0
  1 17  4  0
 16 15  4  0
 11 16  4  0
 14 15  4  0
 13 14  4  0
 12 13  4  0
 11 12  4  0
 10 11  4  0
  2 10  4  0
  9  8  4  0
  3  9  4  0
  7  8  4  0
  6  7  4  0
  4  6  4  0
  4  5  4  0
  3  4  4  0
  2  3  4  0
  1  2  4  0
M  END