1,2-Dichlorobenzene
  SciTegic12150910513D

  8  8  0  0  0  0            999 V2000
    0.3856    0.6384    0.6282 C   0  0  0  0  0  0  0  0  0  1  0  0
    0.0653    1.9596    0.9191 C   0  0  0  0  0  0  0  0  0  2  0  0
   -0.7648    2.6780    0.0660 C   0  0  0  0  0  0  0  0  0  3  0  0
   -1.2746    2.0747   -1.0782 C   0  0  0  0  0  0  0  0  0  4  0  0
   -0.9543    0.7533   -1.3692 C   0  0  0  0  0  0  0  0  0  5  0  0
    0.6994    2.7082    2.3412 Cl  0  0  0  0  0  0  0  0  0  6  0  0
   -0.1241    0.0350   -0.5160 C   0  0  0  0  0  0  0  0  0  7  0  0
    1.4172   -0.2531    1.6892 Cl  0  0  0  0  0  0  0  0  0  8  0  0
  1  8  1  0
  7  5  4  0
  1  7  4  0
  2  6  1  0
  4  5  4  0
  3  4  4  0
  2  3  4  0
  1  2  4  0
M  END