1,4-Dichlorobenzene
  SciTegic12150910513D

  8  8  0  0  0  0            999 V2000
    1.2226    0.3690    0.0694 C   0  0  0  0  0  0  0  0  0  1  0  0
    1.3473    1.6534    0.5871 C   0  0  0  0  0  0  0  0  0  2  0  0
    0.2133    2.3634    0.9653 C   0  0  0  0  0  0  0  0  0  3  0  0
   -1.0451    1.7887    0.8257 C   0  0  0  0  0  0  0  0  0  4  0  0
   -1.1698    0.5043    0.3081 C   0  0  0  0  0  0  0  0  0  5  0  0
   -2.4544    2.6710    1.2957 Cl  0  0  0  0  0  0  0  0  0  6  0  0
   -0.0358   -0.2056   -0.0702 C   0  0  0  0  0  0  0  0  0  7  0  0
    2.6318   -0.5133   -0.4006 Cl  0  0  0  0  0  0  0  0  0  8  0  0
  1  8  1  0
  7  5  4  0
  1  7  4  0
  4  6  1  0
  4  5  4  0
  3  4  4  0
  2  3  4  0
  1  2  4  0
M  END