1,2,3-Trichlorobenzene
  SciTegic12150910513D

  9  9  0  0  0  0            999 V2000
    0.1956    0.4499    0.8788 C   0  0  0  0  0  0  0  0  0  1  0  0
    0.3703    1.8233    0.7527 C   0  0  0  0  0  0  0  0  0  2  0  0
   -0.1724    2.4962   -0.3360 C   0  0  0  0  0  0  0  0  0  3  0  0
   -0.8902    1.7956   -1.2989 C   0  0  0  0  0  0  0  0  0  4  0  0
   -1.0650    0.4220   -1.1727 C   0  0  0  0  0  0  0  0  0  5  0  0
    0.0454    4.2028   -0.4916 Cl  0  0  0  0  0  0  0  0  0  6  0  0
    1.2621    2.6938    1.9489 Cl  0  0  0  0  0  0  0  0  0  7  0  0
   -0.5221   -0.2509   -0.0839 C   0  0  0  0  0  0  0  0  0  8  0  0
    0.8705   -0.3852    2.2321 Cl  0  0  0  0  0  0  0  0  0  9  0  0
  1  9  1  0
  8  5  4  0
  1  8  4  0
  2  7  1  0
  3  6  1  0
  4  5  4  0
  3  4  4  0
  2  3  4  0
  1  2  4  0
M  END