1,2,3,5 -Tetrachlorobenzene
  SciTegic12150910513D

 10 10  0  0  0  0            999 V2000
    1.3453    0.1716    0.2189 C   0  0  0  0  0  0  0  0  0  1  0  0
    1.5386    1.5153    0.5192 C   0  0  0  0  0  0  0  0  0  2  0  0
    0.4523    2.3822    0.5556 C   0  0  0  0  0  0  0  0  0  3  0  0
   -0.8266    1.9055    0.2918 C   0  0  0  0  0  0  0  0  0  4  0  0
   -1.0197    0.5620   -0.0085 C   0  0  0  0  0  0  0  0  0  5  0  0
   -2.6095   -0.0292   -0.3361 Cl  0  0  0  0  0  0  0  0  0  6  0  0
   -2.1761    2.9828    0.3371 Cl  0  0  0  0  0  0  0  0  0  7  0  0
    0.6910    4.0519    0.9286 Cl  0  0  0  0  0  0  0  0  0  8  0  0
    0.0663   -0.3053   -0.0450 C   0  0  0  0  0  0  0  0  0  9  0  0
    2.6951   -0.9060    0.1735 Cl  0  0  0  0  0  0  0  0  0 10  0  0
  1 10  1  0
  9  5  4  0
  1  9  4  0
  3  8  1  0
  4  7  1  0
  5  6  1  0
  4  5  4  0
  3  4  4  0
  2  3  4  0
  1  2  4  0
M  END