1,2,4,5-Tetrachlorobenzene
  SciTegic12150910513D

 10 10  0  0  0  0            999 V2000
    1.1698    1.0266    0.2884 C   0  0  0  0  0  0  0  0  0  1  0  0
    0.6954    2.0648    1.0820 C   0  0  0  0  0  0  0  0  0  2  0  0
   -0.6686    2.3271    1.1421 C   0  0  0  0  0  0  0  0  0  3  0  0
   -1.5579    1.5504    0.4081 C   0  0  0  0  0  0  0  0  0  4  0  0
   -1.0835    0.5121   -0.3855 C   0  0  0  0  0  0  0  0  0  5  0  0
   -2.1898   -0.4521   -1.2969 Cl  0  0  0  0  0  0  0  0  0  6  0  0
   -3.2531    1.8749    0.4816 Cl  0  0  0  0  0  0  0  0  0  7  0  0
    1.8017    3.0290    1.9934 Cl  0  0  0  0  0  0  0  0  0  8  0  0
    0.2805    0.2498   -0.4456 C   0  0  0  0  0  0  0  0  0  9  0  0
    2.8649    0.7020    0.2149 Cl  0  0  0  0  0  0  0  0  0 10  0  0
  1 10  1  0
  9  5  4  0
  1  9  4  0
  2  8  1  0
  4  7  1  0
  5  6  1  0
  4  5  4  0
  3  4  4  0
  2  3  4  0
  1  2  4  0
M  END