1,2,3,4-Tetrachlorobenzene
  DSViewer          3D                             0

 10 10  0  0  0  0  0  0  0  0999 V2000
    1.0827    0.4615    0.8078 C   0  0  0  0  0  0  0  0  0  1
    0.8042    1.8235    0.8031 C   0  0  0  0  0  0  0  0  0  2
   -0.3736    2.2901    0.2310 C   0  0  0  0  0  0  0  0  0  3
   -1.2730    1.3947   -0.3366 C   0  0  0  0  0  0  0  0  0  4
   -0.9946    0.0325   -0.3321 C   0  0  0  0  0  0  0  0  0  5
   -2.7364    1.9757   -1.0474 Cl  0  0  0  0  0  0  0  0  0  6
   -0.7197    3.9823    0.2253 Cl  0  0  0  0  0  0  0  0  0  7
    1.9215    2.9360    1.5083 Cl  0  0  0  0  0  0  0  0  0  8
    0.1834   -0.4342    0.2402 C   0  0  0  0  0  0  0  0  0  9
    2.5467   -0.1173    1.5191 Cl  0  0  0  0  0  0  0  0  0 10
  1 10  1  0  0  0
  9  5  4  0  0  0
  1  9  4  0  0  0
  2  8  1  0  0  0
  3  7  1  0  0  0
  4  6  1  0  0  0
  4  5  4  0  0  0
  3  4  4  0  0  0
  2  3  4  0  0  0
  1  2  4  0  0  0
M  END