Bromobenzene
  SciTegic12150910513D

  7  7  0  0  0  0            999 V2000
    0.8476    0.4686    0.4301 C   0  0  0  0  0  0  0  0  0  1  0  0
    0.9691    1.8147    0.7563 C   0  0  0  0  0  0  0  0  0  2  0  0
   -0.0885    2.6856    0.5192 C   0  0  0  0  0  0  0  0  0  3  0  0
   -1.2675    2.2103   -0.0440 C   0  0  0  0  0  0  0  0  0  4  0  0
   -1.3890    0.8641   -0.3703 C   0  0  0  0  0  0  0  0  0  5  0  0
   -0.3314   -0.0068   -0.1332 C   0  0  0  0  0  0  0  0  0  6  0  0
    2.2934   -0.7220    0.7542 Br  0  0  0  0  0  0  0  0  0  7  0  0
  1  7  1  0
  6  5  4  0
  1  6  4  0
  4  5  4  0
  3  4  4  0
  2  3  4  0
  1  2  4  0
M  END