1,4-Dibromobenzene
  SciTegic12150910513D

  8  8  0  0  0  0            999 V2000
    1.2153    0.3737    0.0380 C   0  0  0  0  0  0  0  0  0  1  0  0
    1.3503    1.6534    0.5646 C   0  0  0  0  0  0  0  0  0  2  0  0
    0.2243    2.3590    0.9735 C   0  0  0  0  0  0  0  0  0  3  0  0
   -1.0365    1.7846    0.8558 C   0  0  0  0  0  0  0  0  0  4  0  0
   -1.1715    0.5049    0.3292 C   0  0  0  0  0  0  0  0  0  5  0  0
   -2.5760    2.7492    1.4149 Br  0  0  0  0  0  0  0  0  0  6  0  0
   -0.0454   -0.2007   -0.0798 C   0  0  0  0  0  0  0  0  0  7  0  0
    2.7548   -0.5909   -0.5212 Br  0  0  0  0  0  0  0  0  0  8  0  0
  1  8  1  0
  7  5  4  0
  1  7  4  0
  4  6  1  0
  4  5  4  0
  3  4  4  0
  2  3  4  0
  1  2  4  0
M  END