1,2,4,5-Tetrabromobenzene
  SciTegic12150910513D

 10 10  0  0  0  0            999 V2000
    1.1719    1.0760    0.2456 C   0  0  0  0  0  0  0  0  0  1  0  0
    0.6850    2.0732    1.0830 C   0  0  0  0  0  0  0  0  0  2  0  0
   -0.6849    2.2861    1.1878 C   0  0  0  0  0  0  0  0  0  3  0  0
   -1.5675    1.5011    0.4546 C   0  0  0  0  0  0  0  0  0  4  0  0
   -1.0806    0.5039   -0.3828 C   0  0  0  0  0  0  0  0  0  5  0  0
   -2.2887   -0.5683   -1.3844 Br  0  0  0  0  0  0  0  0  0  6  0  0
   -3.4405    1.7906    0.5966 Br  0  0  0  0  0  0  0  0  0  7  0  0
    1.8930    3.1453    2.0846 Br  0  0  0  0  0  0  0  0  0  8  0  0
    0.2893    0.2910   -0.4877 C   0  0  0  0  0  0  0  0  0  9  0  0
    3.0449    0.7865    0.1035 Br  0  0  0  0  0  0  0  0  0 10  0  0
  1 10  1  0
  9  5  4  0
  1  9  4  0
  2  8  1  0
  4  7  1  0
  5  6  1  0
  4  5  4  0
  3  4  4  0
  2  3  4  0
  1  2  4  0
M  END