1,3,5-Tribromobenzene
  SciTegic12150910513D

  9  9  0  0  0  0            999 V2000
    0.9573    0.2674    0.5562 C   0  0  0  0  0  0  0  0  0  1  0  0
    1.2576    1.6193    0.6798 C   0  0  0  0  0  0  0  0  0  2  0  0
    0.3535    2.5758    0.2317 C   0  0  0  0  0  0  0  0  0  3  0  0
   -0.8507    2.1806   -0.3398 C   0  0  0  0  0  0  0  0  0  4  0  0
   -1.1508    0.8287   -0.4633 C   0  0  0  0  0  0  0  0  0  5  0  0
   -2.7970    0.2883   -1.2445 Br  0  0  0  0  0  0  0  0  0  6  0  0
    0.7639    4.4239    0.4005 Br  0  0  0  0  0  0  0  0  0  7  0  0
   -0.2469   -0.1280   -0.0153 C   0  0  0  0  0  0  0  0  0  8  0  0
    2.1932   -1.0403    1.1686 Br  0  0  0  0  0  0  0  0  0  9  0  0
  1  9  1  0
  8  5  4  0
  1  8  4  0
  3  7  1  0
  5  6  1  0
  4  5  4  0
  3  4  4  0
  2  3  4  0
  1  2  4  0
M  END