Octachloronaphthalene
  SciTegic12150910513D

 18 19  0  0  0  0            999 V2000
    0.8325    0.6269   -0.1829 C   0  0  0  0  0  0  0  0  0  1  0  0
    1.3472    1.2754    0.9546 C   0  0  0  0  0  0  0  0  0  2  0  0
    2.7329    1.2785    1.1752 C   0  0  0  0  0  0  0  0  0  3  0  0
    3.5862    0.6496    0.2827 C   0  0  0  0  0  0  0  0  0  4  0  0
    3.0806    0.0127   -0.8345 C   0  0  0  0  0  0  0  0  0  5  0  0
    4.1548   -0.7674   -1.9392 Cl  0  0  0  0  0  0  0  0  0  6  0  0
    5.2894    0.6622    0.5682 Cl  0  0  0  0  0  0  0  0  0  7  0  0
    3.4860    2.0405    2.5347 Cl  0  0  0  0  0  0  0  0  0  8  0  0
    0.4641    1.9055    1.8444 C   0  0  0  0  0  0  0  0  0  9  0  0
   -0.9009    1.8897    1.6062 C   0  0  0  0  0  0  0  0  0 10  0  0
   -1.4065    1.2527    0.4890 C   0  0  0  0  0  0  0  0  0 11  0  0
   -3.1097    1.2402    0.2035 Cl  0  0  0  0  0  0  0  0  0 12  0  0
   -1.9751    2.6697    2.7108 Cl  0  0  0  0  0  0  0  0  0 13  0  0
    0.9738    2.7347    3.2757 Cl  0  0  0  0  0  0  0  0  0 14  0  0
    1.7156   -0.0032   -1.0727 C   0  0  0  0  0  0  0  0  0 15  0  0
    1.2059   -0.8324   -2.5040 Cl  0  0  0  0  0  0  0  0  0 16  0  0
   -0.5531    0.6238   -0.4035 C   0  0  0  0  0  0  0  0  0 17  0  0
   -1.3063   -0.1381   -1.7630 Cl  0  0  0  0  0  0  0  0  0 18  0  0
 17 18  1  0
 17 11  4  0
  1 17  4  0
 15 16  1  0
 15  5  4  0
  1 15  4  0
  9 14  1  0
 10 13  1  0
 11 12  1  0
 10 11  4  0
  9 10  4  0
  2  9  4  0
  3  8  1  0
  4  7  1  0
  5  6  1  0
  4  5  4  0
  3  4  4  0
  2  3  4  0
  1  2  4  0
M  END