1,4-Dichloronaphthalene
  DSViewer          3D                             0

 12 13  0  0  0  0  0  0  0  0999 V2000
    0.8919    1.0374   -0.1647 C   0  0  0  0  0  0  0  0  0  1
    1.4080    1.1180    1.1241 C   0  0  0  0  0  0  0  0  0  2
    2.7765    0.9954    1.3336 C   0  0  0  0  0  0  0  0  0  3
    3.6296    0.7921    0.2548 C   0  0  0  0  0  0  0  0  0  4
    3.1136    0.7115   -1.0337 C   0  0  0  0  0  0  0  0  0  5
    3.4161    1.0958    2.9350 Cl  0  0  0  0  0  0  0  0  0  6
    0.5557    1.3213    2.2032 C   0  0  0  0  0  0  0  0  0  7
   -0.8131    1.4439    1.9931 C   0  0  0  0  0  0  0  0  0  8
   -1.3291    1.3632    0.7044 C   0  0  0  0  0  0  0  0  0  9
    1.7447    0.8342   -1.2432 C   0  0  0  0  0  0  0  0  0 10
    1.1023    0.7342   -2.8435 Cl  0  0  0  0  0  0  0  0  0 11
   -0.4766    1.1600   -0.3748 C   0  0  0  0  0  0  0  0  0 12
 12  9  4  0  0  0
  1 12  4  0  0  0
 10 11  1  0  0  0
 10  5  4  0  0  0
  1 10  4  0  0  0
  8  9  4  0  0  0
  7  8  4  0  0  0
  2  7  4  0  0  0
  3  6  1  0  0  0
  4  5  4  0  0  0
  3  4  4  0  0  0
  2  3  4  0  0  0
  1  2  4  0  0  0
M  END