2-Monochloronaphthalene
  SciTegic12150910513D

 11 12  0  0  0  0            999 V2000
    1.4415    0.5278   -0.2140 C   0  0  0  0  0  0  0  0  0  1  0  0
    1.8597    1.3057    0.8605 C   0  0  0  0  0  0  0  0  0  2  0  0
    0.9291    2.0219    1.6045 C   0  0  0  0  0  0  0  0  0  3  0  0
   -0.4198    1.9601    1.2740 C   0  0  0  0  0  0  0  0  0  4  0  0
   -0.8378    1.1824    0.1999 C   0  0  0  0  0  0  0  0  0  5  0  0
   -2.5143    1.1061   -0.2102 Cl  0  0  0  0  0  0  0  0  0  6  0  0
    3.2086    1.3674    1.1908 C   0  0  0  0  0  0  0  0  0  7  0  0
    4.1393    0.6511    0.4466 C   0  0  0  0  0  0  0  0  0  8  0  0
    3.7211   -0.1266   -0.6275 C   0  0  0  0  0  0  0  0  0  9  0  0
    2.3721   -0.1883   -0.9580 C   0  0  0  0  0  0  0  0  0 10  0  0
    0.0927    0.4661   -0.5443 C   0  0  0  0  0  0  0  0  0 11  0  0
 11  5  4  0
  1 11  4  0
 10  9  4  0
  1 10  4  0
  8  9  4  0
  7  8  4  0
  2  7  4  0
  5  6  1  0
  4  5  4  0
  3  4  4  0
  2  3  4  0
  1  2  4  0
M  END