1,8-Dichloronaphthalene
  SciTegic12150910513D

 12 13  0  0  0  0            999 V2000
    0.8419    0.2488   -0.2677 C   0  0  0  0  0  0  0  0  0  1  0  0
    1.3862    1.2806    0.5017 C   0  0  0  0  0  0  0  0  0  2  0  0
    2.7797    1.3489    0.6396 C   0  0  0  0  0  0  0  0  0  3  0  0
    3.5891    0.4037    0.0187 C   0  0  0  0  0  0  0  0  0  4  0  0
    3.0371   -0.6159   -0.7425 C   0  0  0  0  0  0  0  0  0  5  0  0
    3.5801    2.5744    1.5633 Cl  0  0  0  0  0  0  0  0  0  6  0  0
    0.5140    2.2004    1.1006 C   0  0  0  0  0  0  0  0  0  7  0  0
   -0.8598    2.0757    0.9238 C   0  0  0  0  0  0  0  0  0  8  0  0
   -1.3882    1.0473    0.1579 C   0  0  0  0  0  0  0  0  0  9  0  0
    1.0575    3.5224    2.0766 Cl  0  0  0  0  0  0  0  0  0 10  0  0
    1.6601   -0.6902   -0.8837 C   0  0  0  0  0  0  0  0  0 11  0  0
   -0.5323    0.1338   -0.4376 C   0  0  0  0  0  0  0  0  0 12  0  0
 12  9  4  0
  1 12  4  0
 11  5  4  0
  1 11  4  0
  7 10  1  0
  8  9  4  0
  7  8  4  0
  2  7  4  0
  3  6  1  0
  4  5  4  0
  3  4  4  0
  2  3  4  0
  1  2  4  0
M  END