1,2,3,4-Tetrachloronaphthalene
  SciTegic12150910513D

 14 15  0  0  0  0            999 V2000
    1.0274    2.4118    1.2415 C   0  0  0  0  0  0  0  0  0  1  0  0
   -0.1797    2.5686    0.5693 C   0  0  0  0  0  0  0  0  0  2  0  0
   -0.7318    1.4998   -0.1275 C   0  0  0  0  0  0  0  0  0  3  0  0
   -0.0763    0.2744   -0.1517 C   0  0  0  0  0  0  0  0  0  4  0  0
   -0.6277   -0.7945   -0.8481 C   0  0  0  0  0  0  0  0  0  5  0  0
   -2.1269   -0.5994   -1.6829 Cl  0  0  0  0  0  0  0  0  0  6  0  0
    0.0275   -2.0201   -0.8726 C   0  0  0  0  0  0  0  0  0  7  0  0
   -0.6578   -3.3483   -1.7380 Cl  0  0  0  0  0  0  0  0  0  8  0  0
    1.2343   -2.1768   -0.2005 C   0  0  0  0  0  0  0  0  0  9  0  0
    2.0482   -3.6997   -0.2311 Cl  0  0  0  0  0  0  0  0  0 10  0  0
    1.7860   -1.1079    0.4960 C   0  0  0  0  0  0  0  0  0 11  0  0
    3.2851   -1.3023    1.3310 Cl  0  0  0  0  0  0  0  0  0 12  0  0
    1.1310    0.1176    0.5206 C   0  0  0  0  0  0  0  0  0 13  0  0
    1.6830    1.1862    1.2173 C   0  0  0  0  0  0  0  0  0 14  0  0
 14  1  4  0
 13 14  4  0
 13  4  4  0
 11 13  4  0
 11 12  1  0
  9 11  4  0
  9 10  1  0
  7  9  4  0
  7  8  1  0
  5  7  4  0
  5  6  1  0
  4  5  4  0
  3  4  4  0
  2  3  4  0
  1  2  4  0
M  END