1,3,5,8-Tetrachloronaphthalene
  SciTegic12150910513D

 14 15  0  0  0  0            999 V2000
   -0.6342    1.7633    0.0566 C   0  0  0  0  0  0  0  0  0  1  0  0
    0.6052    2.2776    0.4070 C   0  0  0  0  0  0  0  0  0  2  0  0
    1.7000    1.4298    0.4715 C   0  0  0  0  0  0  0  0  0  3  0  0
    3.2503    2.0552    0.9063 Cl  0  0  0  0  0  0  0  0  0  4  0  0
    1.5549    0.0777    0.1874 C   0  0  0  0  0  0  0  0  0  5  0  0
    2.6807   -0.7325    0.2652 C   0  0  0  0  0  0  0  0  0  6  0  0
    2.5835   -2.0874   -0.0096 C   0  0  0  0  0  0  0  0  0  7  0  0
    3.9819   -3.0970    0.0866 Cl  0  0  0  0  0  0  0  0  0  8  0  0
    1.3555   -2.6267   -0.3623 C   0  0  0  0  0  0  0  0  0  9  0  0
    0.2226   -1.8243   -0.4431 C   0  0  0  0  0  0  0  0  0 10  0  0
   -1.2551   -2.6053   -0.8924 Cl  0  0  0  0  0  0  0  0  0 11  0  0
    0.3115   -0.4527   -0.1668 C   0  0  0  0  0  0  0  0  0 12  0  0
   -0.7907    0.4114   -0.2297 C   0  0  0  0  0  0  0  0  0 13  0  0
   -2.3834   -0.1160   -0.6548 Cl  0  0  0  0  0  0  0  0  0 14  0  0
 13 14  1  0
 13  1  4  0
 12 13  4  0
 12  5  4  0
 10 12  4  0
 10 11  1  0
  9 10  4  0
  7  9  4  0
  7  8  1  0
  6  7  4  0
  5  6  4  0
  3  5  4  0
  3  4  1  0
  2  3  4  0
  1  2  4  0
M  END