4-Chlorobiphenyl
  DSViewer          3D                             0

 13 14  0  0  0  0  0  0  0  0999 V2000
   -0.7756    5.6349    3.1345 Cl  0  0  0  0  0  0  0  0  0  1
   -0.4162    4.2468    2.1705 C   0  0  0  0  0  0  0  0  0  2
    0.2119    3.1467    2.7434 C   0  0  0  0  0  0  0  0  0  3
    0.5011    2.0299    1.9678 C   0  0  0  0  0  0  0  0  0  4
    0.1622    2.0133    0.6195 C   0  0  0  0  0  0  0  0  0  5
   -0.4659    3.1135    0.0467 C   0  0  0  0  0  0  0  0  0  6
   -0.7551    4.2304    0.8222 C   0  0  0  0  0  0  0  0  0  7
    0.4662    0.8394   -0.1957 C   0  0  0  0  0  0  0  0  0  8
    0.1273    0.8228   -1.5441 C   0  0  0  0  0  0  0  0  0  9
    0.4165   -0.2941   -2.3197 C   0  0  0  0  0  0  0  0  0 10
    1.0446   -1.3944   -1.7469 C   0  0  0  0  0  0  0  0  0 11
    1.3835   -1.3778   -0.3986 C   0  0  0  0  0  0  0  0  0 12
    1.0943   -0.2609    0.3770 C   0  0  0  0  0  0  0  0  0 13
 13  8  4  0  0  0
 12 13  4  0  0  0
 11 12  4  0  0  0
 10 11  4  0  0  0
  9 10  4  0  0  0
  8  9  4  0  0  0
  5  8  1  0  0  0
  7  2  4  0  0  0
  6  7  4  0  0  0
  5  6  4  0  0  0
  4  5  4  0  0  0
  3  4  4  0  0  0
  2  3  4  0  0  0
  1  2  1  0  0  0
M  END