2,2'-Dichlorobiphenyl
  SciTegic12150910513D

 14 15  0  0  0  0            999 V2000
   -1.4465    3.8181   -0.2065 Cl  0  0  0  0  0  0  0  0  0  1  0  0
   -0.6751    3.1643    1.2100 C   0  0  0  0  0  0  0  0  0  2  0  0
   -0.8130    3.9202    2.3708 C   0  0  0  0  0  0  0  0  0  3  0  0
   -0.2518    3.5114    3.5712 C   0  0  0  0  0  0  0  0  0  4  0  0
    0.4585    2.3234    3.6116 C   0  0  0  0  0  0  0  0  0  5  0  0
    0.5957    1.5676    2.4555 C   0  0  0  0  0  0  0  0  0  6  0  0
    0.0442    1.9552    1.2365 C   0  0  0  0  0  0  0  0  0  7  0  0
    0.2549    1.0449   -0.0177 C   0  0  0  0  0  0  0  0  0  8  0  0
   -0.1983    1.4859   -1.2589 C   0  0  0  0  0  0  0  0  0  9  0  0
   -0.0435    0.7397   -2.4190 C   0  0  0  0  0  0  0  0  0 10  0  0
    0.5824   -0.4942   -2.3595 C   0  0  0  0  0  0  0  0  0 11  0  0
    1.0417   -0.9583   -1.1361 C   0  0  0  0  0  0  0  0  0 12  0  0
    0.8887   -0.2105    0.0281 C   0  0  0  0  0  0  0  0  0 13  0  0
    1.5158   -0.9426    1.4771 Cl  0  0  0  0  0  0  0  0  0 14  0  0
 13 14  1  0
 13  8  4  0
 12 13  4  0
 11 12  4  0
 10 11  4  0
  9 10  4  0
  8  9  4  0
  7  8  1  0
  7  2  4  0
  6  7  4  0
  5  6  4  0
  4  5  4  0
  3  4  4  0
  2  3  4  0
  1  2  1  0
M  END