4,4'-Dichlorobiphenyl
  SciTegic12150910513D

 14 15  0  0  0  0            999 V2000
   -1.8100    5.6840    2.6600 Cl  0  0  0  0  0  0  0  0  0  1  0  0
   -0.9896    4.3552    1.9208 C   0  0  0  0  0  0  0  0  0  2  0  0
   -0.5205    3.3060    2.7032 C   0  0  0  0  0  0  0  0  0  3  0  0
    0.1396    2.2369    2.1084 C   0  0  0  0  0  0  0  0  0  4  0  0
    0.3305    2.2171    0.7314 C   0  0  0  0  0  0  0  0  0  5  0  0
   -0.1386    3.2664   -0.0510 C   0  0  0  0  0  0  0  0  0  6  0  0
   -0.7987    4.3355    0.5438 C   0  0  0  0  0  0  0  0  0  7  0  0
    1.0243    1.0934    0.1062 C   0  0  0  0  0  0  0  0  0  8  0  0
    1.2152    1.0736   -1.2708 C   0  0  0  0  0  0  0  0  0  9  0  0
    1.8753    0.0045   -1.8656 C   0  0  0  0  0  0  0  0  0 10  0  0
    2.3444   -1.0447   -1.0832 C   0  0  0  0  0  0  0  0  0 11  0  0
    3.1648   -2.3735   -1.8225 Cl  0  0  0  0  0  0  0  0  0 12  0  0
    2.1535   -1.0250    0.2938 C   0  0  0  0  0  0  0  0  0 13  0  0
    1.4934    0.0441    0.8886 C   0  0  0  0  0  0  0  0  0 14  0  0
 14  8  4  0
 13 14  4  0
 11 13  4  0
 11 12  1  0
 10 11  4  0
  9 10  4  0
  8  9  4  0
  5  8  1  0
  7  2  4  0
  6  7  4  0
  5  6  4  0
  4  5  4  0
  3  4  4  0
  2  3  4  0
  1  2  1  0
M  END