2,2',4,4',6-Pentachlorobiphenyl
  SciTegic12150910513D

 17 18  0  0  0  0            999 V2000
    1.1953    0.2994    3.0464 Cl  0  0  0  0  0  0  0  0  0  1  0  0
    0.0924    1.5627    2.6070 C   0  0  0  0  0  0  0  0  0  2  0  0
   -0.1378    1.9373    1.2749 C   0  0  0  0  0  0  0  0  0  3  0  0
   -0.9899    3.0232    1.0285 C   0  0  0  0  0  0  0  0  0  4  0  0
   -1.6051    3.6926    2.0798 C   0  0  0  0  0  0  0  0  0  5  0  0
   -1.3785    3.3052    3.3907 C   0  0  0  0  0  0  0  0  0  6  0  0
   -0.5244    2.2452    3.6490 C   0  0  0  0  0  0  0  0  0  7  0  0
   -2.1447    4.1442    4.6922 Cl  0  0  0  0  0  0  0  0  0  8  0  0
   -1.3601    3.5719   -0.5780 Cl  0  0  0  0  0  0  0  0  0  9  0  0
    0.5335    1.2146    0.1025 C   0  0  0  0  0  0  0  0  0 10  0  0
    1.0752    1.9843   -0.9249 C   0  0  0  0  0  0  0  0  0 11  0  0
    1.7043    1.4020   -2.0176 C   0  0  0  0  0  0  0  0  0 12  0  0
    1.7955    0.0208   -2.1010 C   0  0  0  0  0  0  0  0  0 13  0  0
    1.2472   -0.7631   -1.0956 C   0  0  0  0  0  0  0  0  0 14  0  0
    0.6208   -0.1806    0.0015 C   0  0  0  0  0  0  0  0  0 15  0  0
   -0.0891   -1.2505    1.1671 Cl  0  0  0  0  0  0  0  0  0 16  0  0
    2.5736   -0.7194   -3.4544 Cl  0  0  0  0  0  0  0  0  0 17  0  0
 13 17  1  0
 15 16  1  0
 15 10  4  0
 14 15  4  0
 13 14  4  0
 12 13  4  0
 11 12  4  0
 10 11  4  0
  3 10  1  0
  4  9  1  0
  6  8  1  0
  7  2  4  0
  6  7  4  0
  5  6  4  0
  4  5  4  0
  3  4  4  0
  2  3  4  0
  1  2  1  0
M  END