2,4',5-Trichlorobiphenyl
  DSViewer          3D                             0

 15 16  0  0  0  0  0  0  0  0999 V2000
   -1.6076    6.2420    1.9316 Cl  0  0  0  0  0  0  0  0  0  1
   -1.0289    4.7164    1.3633 C   0  0  0  0  0  0  0  0  0  2
    0.1924    4.2250    1.8072 C   0  0  0  0  0  0  0  0  0  3
    0.6551    2.9972    1.3480 C   0  0  0  0  0  0  0  0  0  4
   -0.0932    2.2491    0.4443 C   0  0  0  0  0  0  0  0  0  5
   -1.3148    2.7500    0.0059 C   0  0  0  0  0  0  0  0  0  6
   -1.7834    3.9770    0.4610 C   0  0  0  0  0  0  0  0  0  7
    0.4651    0.9321   -0.0108 C   0  0  0  0  0  0  0  0  0  8
    1.7002    0.5695    0.5190 C   0  0  0  0  0  0  0  0  0  9
    2.3100   -0.6275    0.1675 C   0  0  0  0  0  0  0  0  0 10
    3.8434   -1.0495    0.8422 Cl  0  0  0  0  0  0  0  0  0 11
    1.6838   -1.4831   -0.7271 C   0  0  0  0  0  0  0  0  0 12
    0.4515   -1.1321   -1.2621 C   0  0  0  0  0  0  0  0  0 13
   -0.1659    0.0656   -0.9147 C   0  0  0  0  0  0  0  0  0 14
   -1.7058    0.3971   -1.6478 Cl  0  0  0  0  0  0  0  0  0 15
 14 15  1  0  0  0
 14  8  4  0  0  0
 13 14  4  0  0  0
 12 13  4  0  0  0
 10 12  4  0  0  0
 10 11  1  0  0  0
  9 10  4  0  0  0
  8  9  4  0  0  0
  5  8  1  0  0  0
  7  2  4  0  0  0
  6  7  4  0  0  0
  5  6  4  0  0  0
  4  5  4  0  0  0
  3  4  4  0  0  0
  2  3  4  0  0  0
  1  2  1  0  0  0
M  END