3,3',4,4'-Tetrachlorobiphenyl
  SciTegic12150910513D

 16 17  0  0  0  0            999 V2000
   -0.8865    6.0949    1.2236 Cl  0  0  0  0  0  0  0  0  0  1  0  0
   -0.4553    4.4406    0.9751 C   0  0  0  0  0  0  0  0  0  2  0  0
    0.6733    3.9154    1.5943 C   0  0  0  0  0  0  0  0  0  3  0  0
    1.0194    2.5841    1.3936 C   0  0  0  0  0  0  0  0  0  4  0  0
    0.2371    1.7783    0.5740 C   0  0  0  0  0  0  0  0  0  5  0  0
   -0.8914    2.3036   -0.0452 C   0  0  0  0  0  0  0  0  0  6  0  0
   -1.2374    3.6348    0.1555 C   0  0  0  0  0  0  0  0  0  7  0  0
   -2.6393    4.2884   -0.6133 Cl  0  0  0  0  0  0  0  0  0  8  0  0
    0.6009    0.3795    0.3632 C   0  0  0  0  0  0  0  0  0  9  0  0
   -0.1814   -0.4262   -0.4564 C   0  0  0  0  0  0  0  0  0 10  0  0
    0.1647   -1.7576   -0.6571 C   0  0  0  0  0  0  0  0  0 11  0  0
    1.2933   -2.2827   -0.0378 C   0  0  0  0  0  0  0  0  0 12  0  0
    1.7245   -3.9370   -0.2863 Cl  0  0  0  0  0  0  0  0  0 13  0  0
    2.0754   -1.4770    0.7817 C   0  0  0  0  0  0  0  0  0 14  0  0
    3.4773   -2.1306    1.5506 Cl  0  0  0  0  0  0  0  0  0 15  0  0
    1.7294   -0.1457    0.9824 C   0  0  0  0  0  0  0  0  0 16  0  0
 16  9  4  0
 14 16  4  0
 14 15  1  0
 12 14  4  0
 12 13  1  0
 11 12  4  0
 10 11  4  0
  9 10  4  0
  5  9  1  0
  7  8  1  0
  7  2  4  0
  6  7  4  0
  5  6  4  0
  4  5  4  0
  3  4  4  0
  2  3  4  0
  1  2  1  0
M  END