2,4,5-Trichlorobiphenyl
  DSViewer          3D                             0

 15 16  0  0  0  0  0  0  0  0999 V2000
   -0.5276    5.6662    3.0325 Cl  0  0  0  0  0  0  0  0  0  1
   -0.2709    4.2070    2.1441 C   0  0  0  0  0  0  0  0  0  2
    0.2881    3.0993    2.7671 C   0  0  0  0  0  0  0  0  0  3
    0.5016    1.9164    2.0661 C   0  0  0  0  0  0  0  0  0  4
    1.2069    0.5968    2.9489 Cl  0  0  0  0  0  0  0  0  0  5
    0.1474    1.8416    0.7113 C   0  0  0  0  0  0  0  0  0  6
   -0.4121    2.9592    0.0984 C   0  0  0  0  0  0  0  0  0  7
   -0.6223    4.1364    0.8042 C   0  0  0  0  0  0  0  0  0  8
   -1.3185    5.5074    0.0173 Cl  0  0  0  0  0  0  0  0  0  9
    0.3254    0.6280   -0.1540 C   0  0  0  0  0  0  0  0  0 10
   -0.0763    0.7105   -1.4837 C   0  0  0  0  0  0  0  0  0 11
    0.0626   -0.3792   -2.3357 C   0  0  0  0  0  0  0  0  0 12
    0.6071   -1.5665   -1.8623 C   0  0  0  0  0  0  0  0  0 13
    1.0110   -1.6582   -0.5361 C   0  0  0  0  0  0  0  0  0 14
    0.8695   -0.5650    0.3108 C   0  0  0  0  0  0  0  0  0 15
 15 10  4  0  0  0
 14 15  4  0  0  0
 13 14  4  0  0  0
 12 13  4  0  0  0
 11 12  4  0  0  0
 10 11  4  0  0  0
  6 10  1  0  0  0
  8  9  1  0  0  0
  8  2  4  0  0  0
  7  8  4  0  0  0
  6  7  4  0  0  0
  4  6  4  0  0  0
  4  5  1  0  0  0
  3  4  4  0  0  0
  2  3  4  0  0  0
  1  2  1  0  0  0
M  END