2,2',3,3',4,4',5,5',6,6'-Decachlorobiphenyl
  SciTegic12150910513D

 22 23  0  0  0  0            999 V2000
   -3.3431    3.6315    3.2110 Cl  0  0  0  0  0  0  0  0  0  1  0  0
   -2.2314    2.6261    2.3528 C   0  0  0  0  0  0  0  0  0  2  0  0
   -0.9082    3.0162    2.2078 C   0  0  0  0  0  0  0  0  0  3  0  0
   -0.3748    4.5143    2.8813 Cl  0  0  0  0  0  0  0  0  0  4  0  0
   -0.0103    2.2092    1.5193 C   0  0  0  0  0  0  0  0  0  5  0  0
    1.6219    2.7696    1.3462 Cl  0  0  0  0  0  0  0  0  0  6  0  0
   -0.4302    0.9973    0.9624 C   0  0  0  0  0  0  0  0  0  7  0  0
   -1.7665    0.6142    1.1129 C   0  0  0  0  0  0  0  0  0  8  0  0
   -2.3555   -0.8898    0.4808 Cl  0  0  0  0  0  0  0  0  0  9  0  0
   -2.6577    1.4250    1.8054 C   0  0  0  0  0  0  0  0  0 10  0  0
   -4.3025    0.9320    1.9899 Cl  0  0  0  0  0  0  0  0  0 11  0  0
    0.5435    0.1167    0.2108 C   0  0  0  0  0  0  0  0  0 12  0  0
    0.2733   -0.2853   -1.1009 C   0  0  0  0  0  0  0  0  0 13  0  0
   -1.1599    0.2303   -1.9306 Cl  0  0  0  0  0  0  0  0  0 14  0  0
    1.1711   -1.0930   -1.7886 C   0  0  0  0  0  0  0  0  0 15  0  0
    0.8261   -1.5725   -3.4115 Cl  0  0  0  0  0  0  0  0  0 16  0  0
    2.3446   -1.5121   -1.1795 C   0  0  0  0  0  0  0  0  0 17  0  0
    3.4564   -2.5174   -2.0377 Cl  0  0  0  0  0  0  0  0  0 18  0  0
    2.6213   -1.1201    0.1220 C   0  0  0  0  0  0  0  0  0 19  0  0
    4.0778   -1.6457    0.8869 Cl  0  0  0  0  0  0  0  0  0 20  0  0
    1.7300   -0.3100    0.8152 C   0  0  0  0  0  0  0  0  0 21  0  0
    2.1200    0.1180    2.4501 Cl  0  0  0  0  0  0  0  0  0 22  0  0
 21 22  1  0
 21 12  4  0
 19 21  4  0
 19 20  1  0
 17 19  4  0
 17 18  1  0
 15 17  4  0
 15 16  1  0
 13 15  4  0
 13 14  1  0
 12 13  4  0
  7 12  1  0
 10 11  1  0
 10  2  4  0
  8 10  4  0
  8  9  1  0
  7  8  4  0
  5  7  4  0
  5  6  1  0
  3  5  4  0
  3  4  1  0
  2  3  4  0
  1  2  1  0
M  END