2,5-Dichlorobiphenyl
  DSViewer          3D                             0

 14 15  0  0  0  0  0  0  0  0999 V2000
    0.4096    5.7050    1.3799 Cl  0  0  0  0  0  0  0  0  0  1
    0.3984    4.0165    1.7450 C   0  0  0  0  0  0  0  0  0  2
    0.3624    3.5897    3.0645 C   0  0  0  0  0  0  0  0  0  3
    0.3537    2.2297    3.3444 C   0  0  0  0  0  0  0  0  0  4
    0.3806    1.2871    2.3210 C   0  0  0  0  0  0  0  0  0  5
    0.3665   -0.3850    2.7927 Cl  0  0  0  0  0  0  0  0  0  6
    0.4170    1.7160    0.9866 C   0  0  0  0  0  0  0  0  0  7
    0.4253    3.0819    0.7183 C   0  0  0  0  0  0  0  0  0  8
    0.4484    0.8038   -0.2051 C   0  0  0  0  0  0  0  0  0  9
    0.4831    1.3837   -1.4696 C   0  0  0  0  0  0  0  0  0 10
    0.5133    0.5925   -2.6123 C   0  0  0  0  0  0  0  0  0 11
    0.5091   -0.7922   -2.4991 C   0  0  0  0  0  0  0  0  0 12
    0.4746   -1.3801   -1.2407 C   0  0  0  0  0  0  0  0  0 13
    0.4445   -0.5835   -0.1019 C   0  0  0  0  0  0  0  0  0 14
 14  9  4  0  0  0
 13 14  4  0  0  0
 12 13  4  0  0  0
 11 12  4  0  0  0
 10 11  4  0  0  0
  9 10  4  0  0  0
  7  9  1  0  0  0
  8  2  4  0  0  0
  7  8  4  0  0  0
  5  7  4  0  0  0
  5  6  1  0  0  0
  4  5  4  0  0  0
  3  4  4  0  0  0
  2  3  4  0  0  0
  1  2  1  0  0  0
M  END