2,4,4'-Trichlorobiphenyl
  SciTegic12150910513D

 15 16  0  0  0  0            999 V2000
   -2.0552    2.2221   -0.0308 Cl  0  0  0  0  0  0  0  0  0  1  0  0
   -0.8136    2.7754    1.0511 C   0  0  0  0  0  0  0  0  0  2  0  0
   -1.1623    3.7813    1.9471 C   0  0  0  0  0  0  0  0  0  3  0  0
   -0.2358    4.2862    2.8496 C   0  0  0  0  0  0  0  0  0  4  0  0
   -0.6911    5.5353    3.9530 Cl  0  0  0  0  0  0  0  0  0  5  0  0
    1.0570    3.7833    2.8612 C   0  0  0  0  0  0  0  0  0  6  0  0
    1.4114    2.7793    1.9696 C   0  0  0  0  0  0  0  0  0  7  0  0
    0.4921    2.2643    1.0597 C   0  0  0  0  0  0  0  0  0  8  0  0
    0.9934    1.1821    0.1476 C   0  0  0  0  0  0  0  0  0  9  0  0
    2.3195    0.7813    0.2785 C   0  0  0  0  0  0  0  0  0 10  0  0
    2.8431   -0.2158   -0.5365 C   0  0  0  0  0  0  0  0  0 11  0  0
    2.0397   -0.8227   -1.4937 C   0  0  0  0  0  0  0  0  0 12  0  0
    2.6865   -2.0624   -2.5086 Cl  0  0  0  0  0  0  0  0  0 13  0  0
    0.7144   -0.4295   -1.6321 C   0  0  0  0  0  0  0  0  0 14  0  0
    0.1972    0.5681   -0.8139 C   0  0  0  0  0  0  0  0  0 15  0  0
 15  9  4  0
 14 15  4  0
 12 14  4  0
 12 13  1  0
 11 12  4  0
 10 11  4  0
  9 10  4  0
  8  9  1  0
  8  2  4  0
  7  8  4  0
  6  7  4  0
  4  6  4  0
  4  5  1  0
  3  4  4  0
  2  3  4  0
  1  2  1  0
M  END