2,2',4,4',5,5'-Hexachlorobiphenyl
  SciTegic12150910513D

 18 19  0  0  0  0            999 V2000
   -3.0270    5.3774    0.2088 Cl  0  0  0  0  0  0  0  0  0  1  0  0
   -1.9137    4.0615    0.3236 C   0  0  0  0  0  0  0  0  0  2  0  0
   -1.8788    3.2718    1.4633 C   0  0  0  0  0  0  0  0  0  3  0  0
   -0.9933    2.2041    1.5747 C   0  0  0  0  0  0  0  0  0  4  0  0
   -1.0166    1.3679    3.0802 Cl  0  0  0  0  0  0  0  0  0  5  0  0
   -0.1151    1.9130    0.5167 C   0  0  0  0  0  0  0  0  0  6  0  0
   -0.1507    2.7315   -0.6095 C   0  0  0  0  0  0  0  0  0  7  0  0
   -1.0396    3.7928   -0.7170 C   0  0  0  0  0  0  0  0  0  8  0  0
   -1.0576    4.7716   -2.1401 Cl  0  0  0  0  0  0  0  0  0  9  0  0
    0.9290    0.7995    0.4519 C   0  0  0  0  0  0  0  0  0 10  0  0
    2.0193    1.0852   -0.3685 C   0  0  0  0  0  0  0  0  0 11  0  0
    3.0607    0.1842   -0.5427 C   0  0  0  0  0  0  0  0  0 12  0  0
    4.3992    0.5879   -1.5573 Cl  0  0  0  0  0  0  0  0  0 13  0  0
    3.0219   -1.0409    0.1029 C   0  0  0  0  0  0  0  0  0 14  0  0
    4.3084   -2.1754   -0.1018 Cl  0  0  0  0  0  0  0  0  0 15  0  0
    1.9347   -1.3531    0.9059 C   0  0  0  0  0  0  0  0  0 16  0  0
    0.8899   -0.4517    1.0878 C   0  0  0  0  0  0  0  0  0 17  0  0
   -0.4231   -1.0153    2.0500 Cl  0  0  0  0  0  0  0  0  0 18  0  0
 17 18  1  0
 17 10  4  0
 16 17  4  0
 14 16  4  0
 14 15  1  0
 12 14  4  0
 12 13  1  0
 11 12  4  0
 10 11  4  0
  6 10  1  0
  8  9  1  0
  8  2  4  0
  7  8  4  0
  6  7  4  0
  4  6  4  0
  4  5  1  0
  3  4  4  0
  2  3  4  0
  1  2  1  0
M  END