2,2',4,5'-Tetrachlorobiphenyl
  DSViewer          3D                             0

 16 17  0  0  0  0  0  0  0  0999 V2000
   -3.3951    4.5104    3.4354 Cl  0  0  0  0  0  0  0  0  0  1
   -2.3502    3.5400    2.4599 C   0  0  0  0  0  0  0  0  0  2
   -1.1758    3.0289    2.9875 C   0  0  0  0  0  0  0  0  0  3
   -0.3494    2.2519    2.1874 C   0  0  0  0  0  0  0  0  0  4
   -0.6655    1.9558    0.8625 C   0  0  0  0  0  0  0  0  0  5
   -1.8502    2.4944    0.3323 C   0  0  0  0  0  0  0  0  0  6
   -2.3596    2.3264   -1.3019 Cl  0  0  0  0  0  0  0  0  0  7
   -2.6733    3.2770    1.1369 C   0  0  0  0  0  0  0  0  0  8
    0.3807    1.0837    0.1580 C   0  0  0  0  0  0  0  0  0  9
    1.6496    1.1568    0.7285 C   0  0  0  0  0  0  0  0  0 10
    2.7255    0.4366    0.2277 C   0  0  0  0  0  0  0  0  0 11
    4.2817    0.5753    0.9648 Cl  0  0  0  0  0  0  0  0  0 12
    2.5455   -0.3920   -0.8677 C   0  0  0  0  0  0  0  0  0 13
    1.2848   -0.4951   -1.4373 C   0  0  0  0  0  0  0  0  0 14
    0.2028    0.2275   -0.9425 C   0  0  0  0  0  0  0  0  0 15
   -1.3022   -0.0721   -1.7194 Cl  0  0  0  0  0  0  0  0  0 16
 15 16  1  0  0  0
 15  9  4  0  0  0
 14 15  4  0  0  0
 13 14  4  0  0  0
 11 13  4  0  0  0
 11 12  1  0  0  0
 10 11  4  0  0  0
  9 10  4  0  0  0
  5  9  1  0  0  0
  8  2  4  0  0  0
  6  8  4  0  0  0
  6  7  1  0  0  0
  5  6  4  0  0  0
  4  5  4  0  0  0
  3  4  4  0  0  0
  2  3  4  0  0  0
  1  2  1  0  0  0
M  END