2,2',4,4',6,6'-Hexachlorobiphenyl
  SciTegic12150910513D

 18 19  0  0  0  0            999 V2000
   -3.7898    4.2120    2.8428 Cl  0  0  0  0  0  0  0  0  0  1  0  0
   -2.4965    3.3260    2.1164 C   0  0  0  0  0  0  0  0  0  2  0  0
   -1.2927    3.1725    2.7883 C   0  0  0  0  0  0  0  0  0  3  0  0
   -0.2488    2.4629    2.2064 C   0  0  0  0  0  0  0  0  0  4  0  0
    1.2166    2.2749    3.1155 Cl  0  0  0  0  0  0  0  0  0  5  0  0
   -0.4011    1.8906    0.9394 C   0  0  0  0  0  0  0  0  0  6  0  0
   -1.6195    2.0485    0.2713 C   0  0  0  0  0  0  0  0  0  7  0  0
   -1.8707    1.4050   -1.3199 Cl  0  0  0  0  0  0  0  0  0  8  0  0
   -2.6564    2.7644    0.8581 C   0  0  0  0  0  0  0  0  0  9  0  0
    0.7324    1.1142    0.3028 C   0  0  0  0  0  0  0  0  0 10  0  0
    1.9936    1.6972    0.1437 C   0  0  0  0  0  0  0  0  0 11  0  0
    2.3023    3.3350    0.6246 Cl  0  0  0  0  0  0  0  0  0 12  0  0
    3.0305    0.9820   -0.4439 C   0  0  0  0  0  0  0  0  0 13  0  0
    2.8278   -0.3211   -0.8744 C   0  0  0  0  0  0  0  0  0 14  0  0
    4.1210   -1.2069   -1.6009 Cl  0  0  0  0  0  0  0  0  0 15  0  0
    1.5811   -0.9091   -0.7183 C   0  0  0  0  0  0  0  0  0 16  0  0
    0.5372   -0.1990   -0.1369 C   0  0  0  0  0  0  0  0  0 17  0  0
   -0.9856   -1.0052    0.0640 Cl  0  0  0  0  0  0  0  0  0 18  0  0
 17 18  1  0
 17 10  4  0
 16 17  4  0
 14 16  4  0
 14 15  1  0
 13 14  4  0
 11 13  4  0
 11 12  1  0
 10 11  4  0
  6 10  1  0
  9  2  4  0
  7  9  4  0
  7  8  1  0
  6  7  4  0
  4  6  4  0
  4  5  1  0
  3  4  4  0
  2  3  4  0
  1  2  1  0
M  END