2,2',4,5-Tetrachlorobiphenyl
  DSViewer          3D                             0

 16 17  0  0  0  0  0  0  0  0999 V2000
   -0.6494    5.5192    3.1897 Cl  0  0  0  0  0  0  0  0  0  1
   -0.3650    4.1049    2.2394 C   0  0  0  0  0  0  0  0  0  2
    0.1193    2.9482    2.8319 C   0  0  0  0  0  0  0  0  0  3
    0.3524    1.7957    2.0869 C   0  0  0  0  0  0  0  0  0  4
    1.0198    0.4754    2.9631 Cl  0  0  0  0  0  0  0  0  0  5
    0.0931    1.7939    0.7051 C   0  0  0  0  0  0  0  0  0  6
   -0.3741    2.9728    0.1276 C   0  0  0  0  0  0  0  0  0  7
   -0.6080    4.1181    0.8761 C   0  0  0  0  0  0  0  0  0  8
   -1.1998    5.5503    0.1130 Cl  0  0  0  0  0  0  0  0  0  9
    0.2847    0.6498   -0.2996 C   0  0  0  0  0  0  0  0  0 10
    0.4503    1.0816   -1.6143 C   0  0  0  0  0  0  0  0  0 11
    0.6374    0.1944   -2.6655 C   0  0  0  0  0  0  0  0  0 12
    0.6525   -1.1680   -2.4151 C   0  0  0  0  0  0  0  0  0 13
    0.4660   -1.6199   -1.1169 C   0  0  0  0  0  0  0  0  0 14
    0.2829   -0.7346   -0.0584 C   0  0  0  0  0  0  0  0  0 15
   -0.0031   -1.4652    1.4718 Cl  0  0  0  0  0  0  0  0  0 16
 15 16  1  0  0  0
 15 10  4  0  0  0
 14 15  4  0  0  0
 13 14  4  0  0  0
 12 13  4  0  0  0
 11 12  4  0  0  0
 10 11  4  0  0  0
  6 10  1  0  0  0
  8  9  1  0  0  0
  8  2  4  0  0  0
  7  8  4  0  0  0
  6  7  4  0  0  0
  4  6  4  0  0  0
  4  5  1  0  0  0
  3  4  4  0  0  0
  2  3  4  0  0  0
  1  2  1  0  0  0
M  END