2,2',3,3',4,4',5,5'-Octachlorobiphenyl
  SciTegic12150910513D

 20 21  0  0  0  0            999 V2000
   -4.7716   -0.9407    0.7137 Cl  0  0  0  0  0  0  0  0  0  1  0  0
   -3.4949    0.2225    0.6976 C   0  0  0  0  0  0  0  0  0  2  0  0
   -2.1750   -0.1900    0.5752 C   0  0  0  0  0  0  0  0  0  3  0  0
   -1.1203    0.7191    0.5703 C   0  0  0  0  0  0  0  0  0  4  0  0
   -1.4238    2.0877    0.6641 C   0  0  0  0  0  0  0  0  0  5  0  0
   -0.2561    3.3515    0.5831 Cl  0  0  0  0  0  0  0  0  0  6  0  0
   -2.7486    2.4971    0.7816 C   0  0  0  0  0  0  0  0  0  7  0  0
   -3.1100    4.1827    0.8866 Cl  0  0  0  0  0  0  0  0  0  8  0  0
   -3.7831    1.5734    0.8054 C   0  0  0  0  0  0  0  0  0  9  0  0
   -5.4199    2.1050    0.9528 Cl  0  0  0  0  0  0  0  0  0 10  0  0
    0.2596    0.0839    0.4312 C   0  0  0  0  0  0  0  0  0 11  0  0
    0.2678   -1.1283   -0.2560 C   0  0  0  0  0  0  0  0  0 12  0  0
    1.4416   -1.8365   -0.4732 C   0  0  0  0  0  0  0  0  0 13  0  0
    1.4085   -3.3284   -1.3432 Cl  0  0  0  0  0  0  0  0  0 14  0  0
    2.6408   -1.3412    0.0126 C   0  0  0  0  0  0  0  0  0 15  0  0
    4.1102   -2.2120   -0.2438 Cl  0  0  0  0  0  0  0  0  0 16  0  0
    2.6515   -0.1465    0.7178 C   0  0  0  0  0  0  0  0  0 17  0  0
    4.1418    0.4562    1.3487 Cl  0  0  0  0  0  0  0  0  0 18  0  0
    1.4775    0.5689    0.9338 C   0  0  0  0  0  0  0  0  0 19  0  0
    1.6389    1.9992    1.8808 Cl  0  0  0  0  0  0  0  0  0 20  0  0
 19 20  1  0
 19 11  4  0
 17 19  4  0
 17 18  1  0
 15 17  4  0
 15 16  1  0
 13 15  4  0
 13 14  1  0
 12 13  4  0
 11 12  4  0
  4 11  1  0
  9 10  1  0
  9  2  4  0
  7  9  4  0
  7  8  1  0
  5  7  4  0
  5  6  1  0
  4  5  4  0
  3  4  4  0
  2  3  4  0
  1  2  1  0
M  END