2,2',3,4,5'-pentachlorobiphenyl
  SciTegic12150910513D

 17 18  0  0  0  0            999 V2000
   -0.0823    5.3363   -0.5286 Cl  0  0  0  0  0  0  0  0  0  1  0  0
   -0.2204    3.9801    0.5326 C   0  0  0  0  0  0  0  0  0  2  0  0
   -0.7503    4.1403    1.8020 C   0  0  0  0  0  0  0  0  0  3  0  0
   -0.8593    3.0344    2.6321 C   0  0  0  0  0  0  0  0  0  4  0  0
   -0.4350    1.7728    2.2239 C   0  0  0  0  0  0  0  0  0  5  0  0
   -0.7080    0.5092    3.3554 Cl  0  0  0  0  0  0  0  0  0  6  0  0
    0.1190    1.6037    0.9429 C   0  0  0  0  0  0  0  0  0  7  0  0
    0.2012    2.7244    0.1182 C   0  0  0  0  0  0  0  0  0  8  0  0
    0.6415    0.3183    0.2796 C   0  0  0  0  0  0  0  0  0  9  0  0
    0.6612    0.3825   -1.1122 C   0  0  0  0  0  0  0  0  0 10  0  0
    1.0966   -0.6772   -1.8956 C   0  0  0  0  0  0  0  0  0 11  0  0
    1.5384   -1.8385   -1.2840 C   0  0  0  0  0  0  0  0  0 12  0  0
    2.0903   -3.1694   -2.2371 Cl  0  0  0  0  0  0  0  0  0 13  0  0
    1.5468   -1.9205    0.1005 C   0  0  0  0  0  0  0  0  0 14  0  0
    2.1225   -3.3601    0.8614 Cl  0  0  0  0  0  0  0  0  0 15  0  0
    1.1072   -0.8606    0.8886 C   0  0  0  0  0  0  0  0  0 16  0  0
    1.2374   -1.1111    2.5826 Cl  0  0  0  0  0  0  0  0  0 17  0  0
 16 17  1  0
 16  9  4  0
 14 16  4  0
 14 15  1  0
 12 14  4  0
 12 13  1  0
 11 12  4  0
 10 11  4  0
  9 10  4  0
  7  9  1  0
  8  2  4  0
  7  8  4  0
  5  7  4  0
  5  6  1  0
  4  5  4  0
  3  4  4  0
  2  3  4  0
  1  2  1  0
M  END