2,2',4,5,5'-Pentachlorobiphenyl
  DSViewer          3D                             0

 17 18  0  0  0  0  0  0  0  0999 V2000
   -0.0133    5.8021    0.3765 Cl  0  0  0  0  0  0  0  0  0  1
   -0.2895    4.2560    1.0961 C   0  0  0  0  0  0  0  0  0  2
   -1.1332    4.1370    2.1881 C   0  0  0  0  0  0  0  0  0  3
   -1.3320    2.8866    2.7548 C   0  0  0  0  0  0  0  0  0  4
   -0.7156    1.7490    2.2411 C   0  0  0  0  0  0  0  0  0  5
   -1.0173    0.2952    3.1077 Cl  0  0  0  0  0  0  0  0  0  6
    0.1291    1.8581    1.1228 C   0  0  0  0  0  0  0  0  0  7
    0.3313    3.1261    0.5815 C   0  0  0  0  0  0  0  0  0  8
    0.9119    0.7507    0.4030 C   0  0  0  0  0  0  0  0  0  9
    2.0188    1.2191   -0.3027 C   0  0  0  0  0  0  0  0  0 10
    2.8508    0.3696   -1.0185 C   0  0  0  0  0  0  0  0  0 11
    4.2173    1.0006   -1.8659 Cl  0  0  0  0  0  0  0  0  0 12
    2.5790   -0.9879   -1.0480 C   0  0  0  0  0  0  0  0  0 13
    3.6013   -2.0631   -1.9328 Cl  0  0  0  0  0  0  0  0  0 14
    1.4714   -1.4736   -0.3691 C   0  0  0  0  0  0  0  0  0 15
    0.6355   -0.6268    0.3534 C   0  0  0  0  0  0  0  0  0 16
   -0.7291   -1.3828    1.0753 Cl  0  0  0  0  0  0  0  0  0 17
 16 17  1  0  0  0
 16  9  4  0  0  0
 15 16  4  0  0  0
 13 15  4  0  0  0
 13 14  1  0  0  0
 11 13  4  0  0  0
 11 12  1  0  0  0
 10 11  4  0  0  0
  9 10  4  0  0  0
  7  9  1  0  0  0
  8  2  4  0  0  0
  7  8  4  0  0  0
  5  7  4  0  0  0
  5  6  1  0  0  0
  4  5  4  0  0  0
  3  4  4  0  0  0
  2  3  4  0  0  0
  1  2  1  0  0  0
M  END