2,2',3',4,5-Pentachlorobiphenyl
  DSViewer          3D                             0

 17 18  0  0  0  0  0  0  0  0999 V2000
   -0.8071    6.0649    1.5096 Cl  0  0  0  0  0  0  0  0  0  1
   -0.3561    4.4335    1.1643 C   0  0  0  0  0  0  0  0  0  2
    0.2087    3.6391    2.1509 C   0  0  0  0  0  0  0  0  0  3
    0.5756    2.3207    1.8965 C   0  0  0  0  0  0  0  0  0  4
    1.3294    1.4969    3.2052 Cl  0  0  0  0  0  0  0  0  0  5
    0.3720    1.7747    0.6172 C   0  0  0  0  0  0  0  0  0  6
   -0.1773    2.5965   -0.3644 C   0  0  0  0  0  0  0  0  0  7
   -0.5449    3.9096   -0.1038 C   0  0  0  0  0  0  0  0  0  8
   -1.2352    4.8837   -1.3521 Cl  0  0  0  0  0  0  0  0  0  9
    0.7083    0.3629    0.1262 C   0  0  0  0  0  0  0  0  0 10
    0.9222    0.2805   -1.2484 C   0  0  0  0  0  0  0  0  0 11
    1.2400   -0.9174   -1.8731 C   0  0  0  0  0  0  0  0  0 12
    1.3379   -2.0762   -1.1200 C   0  0  0  0  0  0  0  0  0 13
    1.1081   -2.0214    0.2473 C   0  0  0  0  0  0  0  0  0 14
    1.1979   -3.4707    1.1828 Cl  0  0  0  0  0  0  0  0  0 15
    0.7938   -0.8207    0.8777 C   0  0  0  0  0  0  0  0  0 16
    0.4785   -0.9355    2.5649 Cl  0  0  0  0  0  0  0  0  0 17
 16 17  1  0  0  0
 16 10  4  0  0  0
 14 16  4  0  0  0
 14 15  1  0  0  0
 13 14  4  0  0  0
 12 13  4  0  0  0
 11 12  4  0  0  0
 10 11  4  0  0  0
  6 10  1  0  0  0
  8  9  1  0  0  0
  8  2  4  0  0  0
  7  8  4  0  0  0
  6  7  4  0  0  0
  4  6  4  0  0  0
  4  5  1  0  0  0
  3  4  4  0  0  0
  2  3  4  0  0  0
  1  2  1  0  0  0
M  END