2,2',3,3',6,6'-Hexachlorobiphenyl
  SciTegic12150910513D

 18 19  0  0  0  0            999 V2000
   -1.1344    5.2000    0.1237 Cl  0  0  0  0  0  0  0  0  0  1  0  0
   -0.3922    3.8745    0.9457 C   0  0  0  0  0  0  0  0  0  2  0  0
   -0.1415    3.9594    2.3077 C   0  0  0  0  0  0  0  0  0  3  0  0
    0.4483    2.8884    2.9632 C   0  0  0  0  0  0  0  0  0  4  0  0
    0.7838    1.7342    2.2653 C   0  0  0  0  0  0  0  0  0  5  0  0
    1.5540    0.4475    3.1375 Cl  0  0  0  0  0  0  0  0  0  6  0  0
    0.5369    1.6404    0.8922 C   0  0  0  0  0  0  0  0  0  7  0  0
   -0.0555    2.7258    0.2394 C   0  0  0  0  0  0  0  0  0  8  0  0
   -0.4258    2.6734   -1.4543 Cl  0  0  0  0  0  0  0  0  0  9  0  0
    0.9049    0.3877    0.1266 C   0  0  0  0  0  0  0  0  0 10  0  0
    1.7318    0.4580   -0.9988 C   0  0  0  0  0  0  0  0  0 11  0  0
    2.4013    1.9645   -1.5388 Cl  0  0  0  0  0  0  0  0  0 12  0  0
    2.0709   -0.6957   -1.6958 C   0  0  0  0  0  0  0  0  0 13  0  0
    1.5879   -1.9306   -1.2878 C   0  0  0  0  0  0  0  0  0 14  0  0
    0.7650   -2.0098   -0.1736 C   0  0  0  0  0  0  0  0  0 15  0  0
    0.1523   -3.5423    0.3358 Cl  0  0  0  0  0  0  0  0  0 16  0  0
    0.4249   -0.8616    0.5319 C   0  0  0  0  0  0  0  0  0 17  0  0
   -0.6334   -1.0274    1.8960 Cl  0  0  0  0  0  0  0  0  0 18  0  0
 17 18  1  0
 17 10  4  0
 15 17  4  0
 15 16  1  0
 14 15  4  0
 13 14  4  0
 11 13  4  0
 11 12  1  0
 10 11  4  0
  7 10  1  0
  8  9  1  0
  8  2  4  0
  7  8  4  0
  5  7  4  0
  5  6  1  0
  4  5  4  0
  3  4  4  0
  2  3  4  0
  1  2  1  0
M  END