2,2',3,3',4,4',5,5',6-Nonachlorobiphenyl
  SciTegic12150910513D

 21 22  0  0  0  0            999 V2000
   -2.1057   -0.8235    0.8650 Cl  0  0  0  0  0  0  0  0  0  1  0  0
   -0.8933   -0.0045    1.7938 C   0  0  0  0  0  0  0  0  0  2  0  0
   -1.2472    0.3757    3.0830 C   0  0  0  0  0  0  0  0  0  3  0  0
   -2.8144   -0.0187    3.6920 Cl  0  0  0  0  0  0  0  0  0  4  0  0
   -0.3568    1.0766    3.8800 C   0  0  0  0  0  0  0  0  0  5  0  0
   -0.8048    1.5452    5.4809 Cl  0  0  0  0  0  0  0  0  0  6  0  0
    0.8926    1.4063    3.3805 C   0  0  0  0  0  0  0  0  0  7  0  0
    2.0062    2.2837    4.3668 Cl  0  0  0  0  0  0  0  0  0  8  0  0
    1.2573    1.0349    2.0919 C   0  0  0  0  0  0  0  0  0  9  0  0
    2.8532    1.4799    1.5688 Cl  0  0  0  0  0  0  0  0  0 10  0  0
    0.3723    0.3129    1.2788 C   0  0  0  0  0  0  0  0  0 11  0  0
    0.7950   -0.0828   -0.1399 C   0  0  0  0  0  0  0  0  0 12  0  0
    0.5711   -1.3520   -0.6911 C   0  0  0  0  0  0  0  0  0 13  0  0
   -0.1615   -2.6464    0.1995 Cl  0  0  0  0  0  0  0  0  0 14  0  0
    0.9816   -1.6331   -1.9905 C   0  0  0  0  0  0  0  0  0 15  0  0
    0.7066   -3.2046   -2.6517 Cl  0  0  0  0  0  0  0  0  0 16  0  0
    1.6173   -0.6672   -2.7577 C   0  0  0  0  0  0  0  0  0 17  0  0
    2.1224   -1.0308   -4.3690 Cl  0  0  0  0  0  0  0  0  0 18  0  0
    1.8533    0.5882   -2.2193 C   0  0  0  0  0  0  0  0  0 19  0  0
    2.6524    1.7978   -3.1581 Cl  0  0  0  0  0  0  0  0  0 20  0  0
    1.4461    0.8686   -0.9220 C   0  0  0  0  0  0  0  0  0 21  0  0
 21 12  4  0
 19 21  4  0
 19 20  1  0
 17 19  4  0
 17 18  1  0
 15 17  4  0
 15 16  1  0
 13 15  4  0
 13 14  1  0
 12 13  4  0
 11 12  1  0
 11  2  4  0
  9 11  4  0
  9 10  1  0
  7  9  4  0
  7  8  1  0
  5  7  4  0
  5  6  1  0
  3  5  4  0
  3  4  1  0
  2  3  4  0
  1  2  1  0
M  END