2,2',3,3',4,4'-Hexachlorobiphenyl
  DSViewer          3D                             0

 18 19  0  0  0  0  0  0  0  0999 V2000
   -3.5131    4.3453    2.6213 Cl  0  0  0  0  0  0  0  0  0  1
   -2.4147    3.1955    1.9461 C   0  0  0  0  0  0  0  0  0  2
   -1.4583    2.5902    2.7433 C   0  0  0  0  0  0  0  0  0  3
   -0.5855    1.6691    2.1815 C   0  0  0  0  0  0  0  0  0  4
   -0.6286    1.3219    0.8332 C   0  0  0  0  0  0  0  0  0  5
   -1.6068    1.9465    0.0374 C   0  0  0  0  0  0  0  0  0  6
   -1.8279    1.6498   -1.6630 Cl  0  0  0  0  0  0  0  0  0  7
   -2.4835    2.8701    0.6000 C   0  0  0  0  0  0  0  0  0  8
   -3.6771    3.6229   -0.3957 Cl  0  0  0  0  0  0  0  0  0  9
    0.3973    0.2748    0.2843 C   0  0  0  0  0  0  0  0  0 10
    0.3844   -0.0382   -1.0730 C   0  0  0  0  0  0  0  0  0 11
    1.2624   -0.9534   -1.6363 C   0  0  0  0  0  0  0  0  0 12
    2.1925   -1.5885   -0.8313 C   0  0  0  0  0  0  0  0  0 13
    3.2964   -2.7320   -1.5082 Cl  0  0  0  0  0  0  0  0  0 14
    2.2298   -1.2989    0.5241 C   0  0  0  0  0  0  0  0  0 15
    3.3883   -2.0916    1.5303 Cl  0  0  0  0  0  0  0  0  0 16
    1.3490   -0.3800    1.0879 C   0  0  0  0  0  0  0  0  0 17
    1.5268   -0.1324    2.8013 Cl  0  0  0  0  0  0  0  0  0 18
 17 18  1  0  0  0
 17 10  4  0  0  0
 15 17  4  0  0  0
 15 16  1  0  0  0
 13 15  4  0  0  0
 13 14  1  0  0  0
 12 13  4  0  0  0
 11 12  4  0  0  0
 10 11  4  0  0  0
  5 10  1  0  0  0
  8  9  1  0  0  0
  8  2  4  0  0  0
  6  8  4  0  0  0
  6  7  1  0  0  0
  5  6  4  0  0  0
  4  5  4  0  0  0
  3  4  4  0  0  0
  2  3  4  0  0  0
  1  2  1  0  0  0
M  END