2,2',3,3',5,5',6,6'-Octachlorobiphenyl
  SciTegic12150910513D

 20 21  0  0  0  0            999 V2000
   -2.1964    4.0558    1.2261 Cl  0  0  0  0  0  0  0  0  0  1  0  0
   -0.6483    3.2908    1.2668 C   0  0  0  0  0  0  0  0  0  2  0  0
    0.4455    3.9723    1.7806 C   0  0  0  0  0  0  0  0  0  3  0  0
    1.6882    3.3557    1.8034 C   0  0  0  0  0  0  0  0  0  4  0  0
    3.0524    4.1943    2.4507 Cl  0  0  0  0  0  0  0  0  0  5  0  0
    1.8407    2.0639    1.3141 C   0  0  0  0  0  0  0  0  0  6  0  0
    3.4143    1.3397    1.4021 Cl  0  0  0  0  0  0  0  0  0  7  0  0
    0.7440    1.3685    0.7957 C   0  0  0  0  0  0  0  0  0  8  0  0
   -0.5045    1.9976    0.7784 C   0  0  0  0  0  0  0  0  0  9  0  0
   -1.9054    1.2148    0.1202 Cl  0  0  0  0  0  0  0  0  0 10  0  0
    0.9053   -0.0384    0.2636 C   0  0  0  0  0  0  0  0  0 11  0  0
    1.8444   -0.3192   -0.7335 C   0  0  0  0  0  0  0  0  0 12  0  0
    2.8337    0.9268   -1.4244 Cl  0  0  0  0  0  0  0  0  0 13  0  0
    1.9885   -1.6127   -1.2209 C   0  0  0  0  0  0  0  0  0 14  0  0
    3.1457   -1.9379   -2.4612 Cl  0  0  0  0  0  0  0  0  0 15  0  0
    1.2038   -2.6420   -0.7214 C   0  0  0  0  0  0  0  0  0 16  0  0
    0.2703   -2.3734    0.2692 C   0  0  0  0  0  0  0  0  0 17  0  0
   -0.7032   -3.6517    0.9029 Cl  0  0  0  0  0  0  0  0  0 18  0  0
    0.1181   -1.0819    0.7596 C   0  0  0  0  0  0  0  0  0 19  0  0
   -1.0441   -0.8208    2.0205 Cl  0  0  0  0  0  0  0  0  0 20  0  0
 19 20  1  0
 19 11  4  0
 17 19  4  0
 17 18  1  0
 16 17  4  0
 14 16  4  0
 14 15  1  0
 12 14  4  0
 12 13  1  0
 11 12  4  0
  8 11  1  0
  9 10  1  0
  9  2  4  0
  8  9  4  0
  6  8  4  0
  6  7  1  0
  4  6  4  0
  4  5  1  0
  3  4  4  0
  2  3  4  0
  1  2  1  0
M  END