2,2',3,3',4,5,5',6-Octachlorobiphenyl
  SciTegic12150910513D

 20 21  0  0  0  0            999 V2000
   -0.6684   -0.1078    0.8899 C   0  0  0  0  0  0  0  0  0  1  0  0
   -1.1070   -1.5389    0.0154 Cl  0  0  0  0  0  0  0  0  0  2  0  0
   -1.6251    0.4861    1.7037 C   0  0  0  0  0  0  0  0  0  3  0  0
   -3.1988   -0.2147    1.8303 Cl  0  0  0  0  0  0  0  0  0  4  0  0
   -1.3248    1.6397    2.4127 C   0  0  0  0  0  0  0  0  0  5  0  0
   -2.5156    2.3702    3.4277 Cl  0  0  0  0  0  0  0  0  0  6  0  0
   -0.0611    2.2038    2.3070 C   0  0  0  0  0  0  0  0  0  7  0  0
    0.3243    3.6287    3.2025 Cl  0  0  0  0  0  0  0  0  0  8  0  0
    0.8983    1.6216    1.4874 C   0  0  0  0  0  0  0  0  0  9  0  0
    2.4702    2.3547    1.4290 Cl  0  0  0  0  0  0  0  0  0 10  0  0
    0.6032    0.4632    0.7673 C   0  0  0  0  0  0  0  0  0 11  0  0
    1.6291   -0.1818   -0.1146 C   0  0  0  0  0  0  0  0  0 12  0  0
    2.3054    0.5389   -1.1051 C   0  0  0  0  0  0  0  0  0 13  0  0
    1.9620    2.2116   -1.4074 Cl  0  0  0  0  0  0  0  0  0 14  0  0
    3.2522   -0.0938   -1.9012 C   0  0  0  0  0  0  0  0  0 15  0  0
    4.0650    0.8005   -3.1353 Cl  0  0  0  0  0  0  0  0  0 16  0  0
    3.5421   -1.4393   -1.7166 C   0  0  0  0  0  0  0  0  0 17  0  0
    2.8719   -2.1598   -0.7370 C   0  0  0  0  0  0  0  0  0 18  0  0
    3.2306   -3.8320   -0.4960 Cl  0  0  0  0  0  0  0  0  0 19  0  0
    1.9157   -1.5316    0.0522 C   0  0  0  0  0  0  0  0  0 20  0  0
 20 12  4  0
 18 20  4  0
 18 19  1  0
 17 18  4  0
 15 17  4  0
 15 16  1  0
 13 15  4  0
 13 14  1  0
 12 13  4  0
 11 12  1  0
 11  1  4  0
  9 11  4  0
  9 10  1  0
  7  9  4  0
  7  8  1  0
  5  7  4  0
  5  6  1  0
  3  5  4  0
  3  4  1  0
  1  3  4  0
  1  2  1  0
M  END