2,2',3,3',4,4',5,6-Octachlorobiphenyl
  DSViewer          3D                             0

 20 21  0  0  0  0  0  0  0  0999 V2000
   -3.8662    3.5939    3.1691 Cl  0  0  0  0  0  0  0  0  0  1
   -2.6708    2.6120    2.4002 C   0  0  0  0  0  0  0  0  0  2
   -1.7538    1.9040    3.1621 C   0  0  0  0  0  0  0  0  0  3
   -0.8005    1.1151    2.5319 C   0  0  0  0  0  0  0  0  0  4
   -0.7340    1.0197    1.1436 C   0  0  0  0  0  0  0  0  0  5
   -1.6732    1.7310    0.3847 C   0  0  0  0  0  0  0  0  0  6
   -1.7440    1.6391   -1.3453 Cl  0  0  0  0  0  0  0  0  0  7
   -2.6304    2.5186    1.0161 C   0  0  0  0  0  0  0  0  0  8
   -3.7869    3.3818    0.0672 Cl  0  0  0  0  0  0  0  0  0  9
    0.3539    0.1353    0.5290 C   0  0  0  0  0  0  0  0  0 10
    0.6111   -1.1307    1.0731 C   0  0  0  0  0  0  0  0  0 11
   -0.2884   -1.7679    2.4157 Cl  0  0  0  0  0  0  0  0  0 12
    1.5962   -1.9475    0.5311 C   0  0  0  0  0  0  0  0  0 13
    1.8845   -3.5089    1.2106 Cl  0  0  0  0  0  0  0  0  0 14
    2.3476   -1.5188   -0.5511 C   0  0  0  0  0  0  0  0  0 15
    3.5734   -2.5373   -1.2168 Cl  0  0  0  0  0  0  0  0  0 16
    2.1142   -0.2641   -1.0903 C   0  0  0  0  0  0  0  0  0 17
    3.0627    0.2848   -2.4251 Cl  0  0  0  0  0  0  0  0  0 18
    1.1292    0.5603   -0.5597 C   0  0  0  0  0  0  0  0  0 19
    0.9622    2.1318   -1.2716 Cl  0  0  0  0  0  0  0  0  0 20
 19 20  1  0  0  0
 19 10  4  0  0  0
 17 19  4  0  0  0
 17 18  1  0  0  0
 15 17  4  0  0  0
 15 16  1  0  0  0
 13 15  4  0  0  0
 13 14  1  0  0  0
 11 13  4  0  0  0
 11 12  1  0  0  0
 10 11  4  0  0  0
  5 10  1  0  0  0
  8  9  1  0  0  0
  8  2  4  0  0  0
  6  8  4  0  0  0
  6  7  1  0  0  0
  5  6  4  0  0  0
  4  5  4  0  0  0
  3  4  4  0  0  0
  2  3  4  0  0  0
  1  2  1  0  0  0
M  END