2,2',3,4,5,5',6'-Heptachlorobiphenyl
  SciTegic12150910513D

 19 20  0  0  0  0            999 V2000
   -1.9604    4.8085    2.4020 Cl  0  0  0  0  0  0  0  0  0  1  0  0
   -0.6404    3.7522    2.0496 C   0  0  0  0  0  0  0  0  0  2  0  0
    0.5161    3.8198    2.8137 C   0  0  0  0  0  0  0  0  0  3  0  0
    1.5681    2.9591    2.5408 C   0  0  0  0  0  0  0  0  0  4  0  0
    1.4573    2.0433    1.5031 C   0  0  0  0  0  0  0  0  0  5  0  0
    0.3100    1.9688    0.7164 C   0  0  0  0  0  0  0  0  0  6  0  0
   -0.7510    2.8368    1.0079 C   0  0  0  0  0  0  0  0  0  7  0  0
   -2.2581    2.7956    0.1516 Cl  0  0  0  0  0  0  0  0  0  8  0  0
    0.2719    0.9368   -0.4138 C   0  0  0  0  0  0  0  0  0  9  0  0
   -0.1993    1.2564   -1.6953 C   0  0  0  0  0  0  0  0  0 10  0  0
   -0.2094    0.2987   -2.7025 C   0  0  0  0  0  0  0  0  0 11  0  0
    0.2420   -0.9888   -2.4594 C   0  0  0  0  0  0  0  0  0 12  0  0
    0.7201   -1.3138   -1.1999 C   0  0  0  0  0  0  0  0  0 13  0  0
    0.7414   -0.3641   -0.1853 C   0  0  0  0  0  0  0  0  0 14  0  0
    1.3414   -0.8796    1.3616 Cl  0  0  0  0  0  0  0  0  0 15  0  0
    1.2894   -2.9141   -0.8856 Cl  0  0  0  0  0  0  0  0  0 16  0  0
   -0.7183    2.8525   -2.1301 Cl  0  0  0  0  0  0  0  0  0 17  0  0
    3.0101    3.0249    3.4892 Cl  0  0  0  0  0  0  0  0  0 18  0  0
    0.6393    4.9609    4.1044 Cl  0  0  0  0  0  0  0  0  0 19  0  0
  3 19  1  0
  4 18  1  0
 10 17  1  0
 13 16  1  0
 14 15  1  0
 14  9  4  0
 13 14  4  0
 12 13  4  0
 11 12  4  0
 10 11  4  0
  9 10  4  0
  6  9  1  0
  7  8  1  0
  7  2  4  0
  6  7  4  0
  5  6  4  0
  4  5  4  0
  3  4  4  0
  2  3  4  0
  1  2  1  0
M  END