2,4,6-Tribromobiphenyl
  SciTegic12150910513D

 15 16  0  0  0  0            999 V2000
    1.4455   -0.0145    2.8723 Br  0  0  0  0  0  0  0  0  0  1  0  0
    0.3811    1.5184    2.4147 C   0  0  0  0  0  0  0  0  0  2  0  0
   -0.0371    1.8750    1.1112 C   0  0  0  0  0  0  0  0  0  3  0  0
   -0.8181    3.0479    0.9886 C   0  0  0  0  0  0  0  0  0  4  0  0
   -1.1505    3.8037    2.1067 C   0  0  0  0  0  0  0  0  0  5  0  0
   -0.7312    3.4369    3.3702 C   0  0  0  0  0  0  0  0  0  6  0  0
    0.0323    2.2953    3.5131 C   0  0  0  0  0  0  0  0  0  7  0  0
   -1.1970    4.4849    4.8858 Br  0  0  0  0  0  0  0  0  0  8  0  0
   -1.5194    3.7635   -0.6510 Br  0  0  0  0  0  0  0  0  0  9  0  0
    0.3517    0.9999   -0.1541 C   0  0  0  0  0  0  0  0  0 10  0  0
   -0.0472    1.3517   -1.4405 C   0  0  0  0  0  0  0  0  0 11  0  0
    0.2876    0.5931   -2.5562 C   0  0  0  0  0  0  0  0  0 12  0  0
    1.0448   -0.5597   -2.4097 C   0  0  0  0  0  0  0  0  0 13  0  0
    1.4568   -0.9357   -1.1399 C   0  0  0  0  0  0  0  0  0 14  0  0
    1.1103   -0.1613   -0.0386 C   0  0  0  0  0  0  0  0  0 15  0  0
 15 10  4  0
 14 15  4  0
 13 14  4  0
 12 13  4  0
 11 12  4  0
 10 11  4  0
  3 10  1  0
  4  9  1  0
  6  8  1  0
  7  2  4  0
  6  7  4  0
  5  6  4  0
  4  5  4  0
  3  4  4  0
  2  3  4  0
  1  2  1  0
M  END