2,2',4,4',6,6'-Hexabromobiphenyl
  SciTegic12150910513D

 18 19  0  0  0  0            999 V2000
    1.7781    0.6427    2.9628 Br  0  0  0  0  0  0  0  0  0  1  0  0
    0.2417    1.7157    2.5980 C   0  0  0  0  0  0  0  0  0  2  0  0
   -0.2248    1.8970    1.2936 C   0  0  0  0  0  0  0  0  0  3  0  0
   -1.3364    2.7150    1.0761 C   0  0  0  0  0  0  0  0  0  4  0  0
   -1.9687    3.3364    2.1466 C   0  0  0  0  0  0  0  0  0  5  0  0
   -1.4986    3.1537    3.4396 C   0  0  0  0  0  0  0  0  0  6  0  0
   -0.3934    2.3444    3.6626 C   0  0  0  0  0  0  0  0  0  7  0  0
   -2.3652    4.0085    4.8994 Br  0  0  0  0  0  0  0  0  0  8  0  0
   -2.0501    2.9751   -0.6754 Br  0  0  0  0  0  0  0  0  0  9  0  0
    0.4586    1.2225    0.1421 C   0  0  0  0  0  0  0  0  0 10  0  0
    1.0816    1.9798   -0.8531 C   0  0  0  0  0  0  0  0  0 11  0  0
    1.7162    1.3507   -1.9177 C   0  0  0  0  0  0  0  0  0 12  0  0
    1.7322   -0.0345   -2.0039 C   0  0  0  0  0  0  0  0  0 13  0  0
    1.1131   -0.7928   -1.0201 C   0  0  0  0  0  0  0  0  0 14  0  0
    0.4805   -0.1715    0.0502 C   0  0  0  0  0  0  0  0  0 15  0  0
   -0.3842   -1.2660    1.3537 Br  0  0  0  0  0  0  0  0  0 16  0  0
    2.5986   -0.8895   -3.4636 Br  0  0  0  0  0  0  0  0  0 17  0  0
    1.1234    3.8866   -0.7696 Br  0  0  0  0  0  0  0  0  0 18  0  0
 11 18  1  0
 13 17  1  0
 15 16  1  0
 15 10  4  0
 14 15  4  0
 13 14  4  0
 12 13  4  0
 11 12  4  0
 10 11  4  0
  3 10  1  0
  4  9  1  0
  6  8  1  0
  7  2  4  0
  6  7  4  0
  5  6  4  0
  4  5  4  0
  3  4  4  0
  2  3  4  0
  1  2  1  0
M  END