4,4'-Dibromobiphenyl
  SciTegic12150910513D

 14 15  0  0  0  0            999 V2000
    1.7928    0.1900   -0.2357 C   0  0  0  0  0  0  0  0  0  1  0  0
    2.0153    1.2495    0.6368 C   0  0  0  0  0  0  0  0  0  2  0  0
    0.9380    1.9256    1.1978 C   0  0  0  0  0  0  0  0  0  3  0  0
   -0.3616    1.5422    0.8864 C   0  0  0  0  0  0  0  0  0  4  0  0
   -1.4940    2.2530    1.4762 C   0  0  0  0  0  0  0  0  0  5  0  0
   -1.2715    3.3124    2.3487 C   0  0  0  0  0  0  0  0  0  6  0  0
   -2.3488    3.9886    2.9098 C   0  0  0  0  0  0  0  0  0  7  0  0
   -3.6484    3.6051    2.5983 C   0  0  0  0  0  0  0  0  0  8  0  0
   -3.8710    2.5457    1.7259 C   0  0  0  0  0  0  0  0  0  9  0  0
   -5.1215    4.5297    3.3655 Br  0  0  0  0  0  0  0  0  0 10  0  0
   -2.7937    1.8696    1.1648 C   0  0  0  0  0  0  0  0  0 11  0  0
   -0.5841    0.4828    0.0140 C   0  0  0  0  0  0  0  0  0 12  0  0
    0.4931   -0.1934   -0.5471 C   0  0  0  0  0  0  0  0  0 13  0  0
    3.2658   -0.7345   -1.0029 Br  0  0  0  0  0  0  0  0  0 14  0  0
  1 14  1  0
 13 12  4  0
  1 13  4  0
  4 12  4  0
 11  9  4  0
  5 11  4  0
  8 10  1  0
  8  9  4  0
  7  8  4  0
  6  7  4  0
  5  6  4  0
  4  5  1  0
  3  4  4  0
  2  3  4  0
  1  2  4  0
M  END