2,7-Dichlorodibenzo-p-dioxin
  DSViewer          3D                             0

 16 18  0  0  0  0  0  0  0  0999 V2000
   -3.0045    1.5510   -0.3489 Cl  0  0  0  0  0  0  0  0  0  1
   -1.2835    1.4950   -0.2082 C   0  0  0  0  0  0  0  0  0  2
   -0.5537    2.6761   -0.1322 C   0  0  0  0  0  0  0  0  0  3
    0.8313    2.6318   -0.0189 C   0  0  0  0  0  0  0  0  0  4
    1.4857    1.4060    0.0182 C   0  0  0  0  0  0  0  0  0  5
    2.8393    1.3615    0.1289 O   0  0  0  0  0  0  0  0  0  6
    3.4801    0.1639    0.1655 C   0  0  0  0  0  0  0  0  0  7
    4.8648    0.1197    0.2788 C   0  0  0  0  0  0  0  0  0  8
    5.5193   -1.1063    0.3161 C   0  0  0  0  0  0  0  0  0  9
    7.2404   -1.1623    0.4570 Cl  0  0  0  0  0  0  0  0  0 10
    4.7895   -2.2874    0.2401 C   0  0  0  0  0  0  0  0  0 11
    3.4046   -2.2432    0.1267 C   0  0  0  0  0  0  0  0  0 12
    2.7502   -1.0174    0.0894 C   0  0  0  0  0  0  0  0  0 13
    1.3966   -0.9729   -0.0213 O   0  0  0  0  0  0  0  0  0 14
    0.7557    0.2248   -0.0578 C   0  0  0  0  0  0  0  0  0 15
   -0.6290    0.2690   -0.1710 C   0  0  0  0  0  0  0  0  0 16
 16  2  4  0  0  0
 15 16  4  0  0  0
 15  5  4  0  0  0
 14 15  1  0  0  0
 13 14  1  0  0  0
 13  7  4  0  0  0
 12 13  4  0  0  0
 11 12  4  0  0  0
  9 11  4  0  0  0
  9 10  1  0  0  0
  8  9  4  0  0  0
  7  8  4  0  0  0
  6  7  1  0  0  0
  5  6  1  0  0  0
  4  5  4  0  0  0
  3  4  4  0  0  0
  2  3  4  0  0  0
  1  2  1  0  0  0
M  END