1,2,3,4-tetrachlorodibenzo-p-dioxin
  SciTegic12150910513D

 18 20  0  0  0  0            999 V2000
   -2.5770    1.8380   -0.6356 Cl  0  0  0  0  0  0  0  0  0  1  0  0
   -0.9141    1.5880   -0.2414 C   0  0  0  0  0  0  0  0  0  2  0  0
   -0.2101    2.5648    0.4535 C   0  0  0  0  0  0  0  0  0  3  0  0
   -0.9985    4.0283    0.9224 Cl  0  0  0  0  0  0  0  0  0  4  0  0
    1.1282    2.3639    0.7709 C   0  0  0  0  0  0  0  0  0  5  0  0
    2.0036    3.5766    1.6339 Cl  0  0  0  0  0  0  0  0  0  6  0  0
    1.7622    1.1863    0.3934 C   0  0  0  0  0  0  0  0  0  7  0  0
    3.0697    0.9897    0.7034 O   0  0  0  0  0  0  0  0  0  8  0  0
    3.6902   -0.1612    0.3347 C   0  0  0  0  0  0  0  0  0  9  0  0
    5.0285   -0.3618    0.6523 C   0  0  0  0  0  0  0  0  0 10  0  0
    5.6625   -1.5400    0.2745 C   0  0  0  0  0  0  0  0  0 11  0  0
    4.9584   -2.5171   -0.4205 C   0  0  0  0  0  0  0  0  0 12  0  0
    3.6198   -2.3165   -0.7381 C   0  0  0  0  0  0  0  0  0 13  0  0
    2.9859   -1.1384   -0.3604 C   0  0  0  0  0  0  0  0  0 14  0  0
    1.6780   -0.9414   -0.6703 O   0  0  0  0  0  0  0  0  0 15  0  0
    1.0581    0.2093   -0.3016 C   0  0  0  0  0  0  0  0  0 16  0  0
   -0.2798    0.4101   -0.6189 C   0  0  0  0  0  0  0  0  0 17  0  0
   -1.1534   -0.8039   -1.4821 Cl  0  0  0  0  0  0  0  0  0 18  0  0
 17 18  1  0
 17  2  4  0
 16 17  4  0
 16  7  4  0
 15 16  1  0
 14 15  1  0
 14  9  4  0
 13 14  4  0
 12 13  4  0
 11 12  4  0
 10 11  4  0
  9 10  4  0
  8  9  1  0
  7  8  1  0
  5  7  4  0
  5  6  1  0
  3  5  4  0
  3  4  1  0
  2  3  4  0
  1  2  1  0
M  END