Octachlorodibenzo-p-dioxin
  SciTegic12150910513D

 22 24  0  0  0  0            999 V2000
   -1.5773    3.0184    2.7409 Cl  0  0  0  0  0  0  0  0  0  1  0  0
   -0.5614    2.2147    1.5985 C   0  0  0  0  0  0  0  0  0  2  0  0
   -0.2224    2.8444    0.4062 C   0  0  0  0  0  0  0  0  0  3  0  0
   -0.8173    4.4302    0.0677 Cl  0  0  0  0  0  0  0  0  0  4  0  0
    0.5951    2.1978   -0.5134 C   0  0  0  0  0  0  0  0  0  5  0  0
    1.0169    2.9785   -1.9948 Cl  0  0  0  0  0  0  0  0  0  6  0  0
    1.0733    0.9219   -0.2408 C   0  0  0  0  0  0  0  0  0  7  0  0
    1.8712    0.2901   -1.1390 O   0  0  0  0  0  0  0  0  0  8  0  0
    2.3362   -0.9575   -0.8743 C   0  0  0  0  0  0  0  0  0  9  0  0
    3.1506   -1.6051   -1.7952 C   0  0  0  0  0  0  0  0  0 10  0  0
    3.5707   -0.8218   -3.2757 Cl  0  0  0  0  0  0  0  0  0 11  0  0
    3.6262   -2.8828   -1.5241 C   0  0  0  0  0  0  0  0  0 12  0  0
    4.6383   -3.6883   -2.6686 Cl  0  0  0  0  0  0  0  0  0 13  0  0
    3.2873   -3.5124   -0.3319 C   0  0  0  0  0  0  0  0  0 14  0  0
    3.8783   -5.1001    0.0045 Cl  0  0  0  0  0  0  0  0  0 15  0  0
    2.4726   -2.8644    0.5894 C   0  0  0  0  0  0  0  0  0 16  0  0
    2.0506   -3.6453    2.0706 Cl  0  0  0  0  0  0  0  0  0 17  0  0
    1.9971   -1.5872    0.3182 C   0  0  0  0  0  0  0  0  0 18  0  0
    1.2012   -0.9544    1.2175 O   0  0  0  0  0  0  0  0  0 19  0  0
    0.7342    0.2921    0.9516 C   0  0  0  0  0  0  0  0  0 20  0  0
   -0.0829    0.9384    1.8711 C   0  0  0  0  0  0  0  0  0 21  0  0
   -0.5032    0.1550    3.3515 Cl  0  0  0  0  0  0  0  0  0 22  0  0
 21 22  1  0
 21  2  4  0
 20 21  4  0
 20  7  4  0
 19 20  1  0
 18 19  1  0
 18  9  4  0
 16 18  4  0
 16 17  1  0
 14 16  4  0
 14 15  1  0
 12 14  4  0
 12 13  1  0
 10 12  4  0
 10 11  1  0
  9 10  4  0
  8  9  1  0
  7  8  1  0
  5  7  4  0
  5  6  1  0
  3  5  4  0
  3  4  1  0
  2  3  4  0
  1  2  1  0
M  END