2,8-Dichlorodibenzo-p-dioxin
  SciTegic12150910513D

 16 18  0  0  0  0            999 V2000
   -2.1497    2.3294    1.5127 Cl  0  0  0  0  0  0  0  0  0  1  0  0
   -0.7166    1.7769    0.7215 C   0  0  0  0  0  0  0  0  0  2  0  0
   -0.1609    2.5241   -0.3111 C   0  0  0  0  0  0  0  0  0  3  0  0
    0.9923    2.0803   -0.9482 C   0  0  0  0  0  0  0  0  0  4  0  0
    1.5892    0.8890   -0.5522 C   0  0  0  0  0  0  0  0  0  5  0  0
    2.7164    0.4541   -1.1743 O   0  0  0  0  0  0  0  0  0  6  0  0
    3.3005   -0.7102   -0.7879 C   0  0  0  0  0  0  0  0  0  7  0  0
    4.4536   -1.1550   -1.4242 C   0  0  0  0  0  0  0  0  0  8  0  0
    5.0499   -2.3466   -1.0275 C   0  0  0  0  0  0  0  0  0  9  0  0
    4.4934   -3.0932    0.0052 C   0  0  0  0  0  0  0  0  0 10  0  0
    3.3402   -2.6479    0.6413 C   0  0  0  0  0  0  0  0  0 11  0  0
    2.6471   -3.5735    1.9243 Cl  0  0  0  0  0  0  0  0  0 12  0  0
    2.7440   -1.4568    0.2448 C   0  0  0  0  0  0  0  0  0 13  0  0
    1.6173   -1.0222    0.8666 O   0  0  0  0  0  0  0  0  0 14  0  0
    1.0332    0.1417    0.4805 C   0  0  0  0  0  0  0  0  0 15  0  0
   -0.1197    0.5855    1.1176 C   0  0  0  0  0  0  0  0  0 16  0  0
 16  2  4  0
 15 16  4  0
 15  5  4  0
 14 15  1  0
 13 14  1  0
 13  7  4  0
 11 13  4  0
 11 12  1  0
 10 11  4  0
  9 10  4  0
  8  9  4  0
  7  8  4  0
  6  7  1  0
  5  6  1  0
  4  5  4  0
  3  4  4  0
  2  3  4  0
  1  2  1  0
M  END