1,2,3,4,6,7,8-Heptachlorodibenzo-p-dioxin
  SciTegic12150910513D

 21 23  0  0  0  0            999 V2000
   -2.1808    2.5145    2.3452 Cl  0  0  0  0  0  0  0  0  0  1  0  0
   -0.8618    1.9655    1.3746 C   0  0  0  0  0  0  0  0  0  2  0  0
   -0.2489    2.8345    0.4792 C   0  0  0  0  0  0  0  0  0  3  0  0
   -0.8065    4.4630    0.3374 Cl  0  0  0  0  0  0  0  0  0  4  0  0
    0.8126    2.3929   -0.3022 C   0  0  0  0  0  0  0  0  0  5  0  0
    1.5745    3.4715   -1.4149 Cl  0  0  0  0  0  0  0  0  0  6  0  0
    1.2609    1.0824   -0.1880 C   0  0  0  0  0  0  0  0  0  7  0  0
    2.2978    0.6504   -0.9515 O   0  0  0  0  0  0  0  0  0  8  0  0
    2.7345   -0.6311   -0.8415 C   0  0  0  0  0  0  0  0  0  9  0  0
    3.7941   -1.0745   -1.6243 C   0  0  0  0  0  0  0  0  0 10  0  0
    4.2393   -2.3867   -1.5104 C   0  0  0  0  0  0  0  0  0 11  0  0
    5.5558   -2.9398   -2.4825 Cl  0  0  0  0  0  0  0  0  0 12  0  0
    3.6253   -3.2545   -0.6145 C   0  0  0  0  0  0  0  0  0 13  0  0
    4.1791   -4.8845   -0.4739 Cl  0  0  0  0  0  0  0  0  0 14  0  0
    2.5658   -2.8107    0.1682 C   0  0  0  0  0  0  0  0  0 15  0  0
    1.8022   -3.8875    1.2814 Cl  0  0  0  0  0  0  0  0  0 16  0  0
    2.1206   -1.4993    0.0545 C   0  0  0  0  0  0  0  0  0 17  0  0
    1.0855   -1.0665    0.8189 O   0  0  0  0  0  0  0  0  0 18  0  0
    0.6478    0.2135    0.7076 C   0  0  0  0  0  0  0  0  0 19  0  0
   -0.4133    0.6548    1.4889 C   0  0  0  0  0  0  0  0  0 20  0  0
   -1.1736   -0.4259    2.6007 Cl  0  0  0  0  0  0  0  0  0 21  0  0
 20 21  1  0
 20  2  4  0
 19 20  4  0
 19  7  4  0
 18 19  1  0
 17 18  1  0
 17  9  4  0
 15 17  4  0
 15 16  1  0
 13 15  4  0
 13 14  1  0
 11 13  4  0
 11 12  1  0
 10 11  4  0
  9 10  4  0
  8  9  1  0
  7  8  1  0
  5  7  4  0
  5  6  1  0
  3  5  4  0
  3  4  1  0
  2  3  4  0
  1  2  1  0
M  END