1,2,3,4,7-Pentachlorodibenzo-p-dioxin
  SciTegic12150910513D

 19 21  0  0  0  0            999 V2000
   -2.5117    1.9578   -0.3864 Cl  0  0  0  0  0  0  0  0  0  1  0  0
   -0.8140    1.6922   -0.2123 C   0  0  0  0  0  0  0  0  0  2  0  0
    0.0561    2.7747   -0.1502 C   0  0  0  0  0  0  0  0  0  3  0  0
   -0.5609    4.3850   -0.2472 Cl  0  0  0  0  0  0  0  0  0  4  0  0
    1.4225    2.5612   -0.0101 C   0  0  0  0  0  0  0  0  0  5  0  0
    2.5040    3.9051    0.0671 Cl  0  0  0  0  0  0  0  0  0  6  0  0
    1.9185    1.2654    0.0679 C   0  0  0  0  0  0  0  0  0  7  0  0
    3.2533    1.0566    0.2048 O   0  0  0  0  0  0  0  0  0  8  0  0
    3.7390   -0.2098    0.2813 C   0  0  0  0  0  0  0  0  0  9  0  0
    5.1054   -0.4228    0.4216 C   0  0  0  0  0  0  0  0  0 10  0  0
    5.6013   -1.7192    0.4998 C   0  0  0  0  0  0  0  0  0 11  0  0
    4.7310   -2.8018    0.4377 C   0  0  0  0  0  0  0  0  0 12  0  0
    5.3483   -4.4126    0.5350 Cl  0  0  0  0  0  0  0  0  0 13  0  0
    3.3644   -2.5889    0.2973 C   0  0  0  0  0  0  0  0  0 14  0  0
    2.8686   -1.2927    0.2191 C   0  0  0  0  0  0  0  0  0 15  0  0
    1.5334   -1.0834    0.0820 O   0  0  0  0  0  0  0  0  0 16  0  0
    1.0483    0.1828    0.0058 C   0  0  0  0  0  0  0  0  0 17  0  0
   -0.3177    0.3961   -0.1343 C   0  0  0  0  0  0  0  0  0 18  0  0
   -1.3976   -0.9492   -0.2113 Cl  0  0  0  0  0  0  0  0  0 19  0  0
 18 19  1  0
 18  2  4  0
 17 18  4  0
 17  7  4  0
 16 17  1  0
 15 16  1  0
 15  9  4  0
 14 15  4  0
 12 14  4  0
 12 13  1  0
 11 12  4  0
 10 11  4  0
  9 10  4  0
  8  9  1  0
  7  8  1  0
  5  7  4  0
  5  6  1  0
  3  5  4  0
  3  4  1  0
  2  3  4  0
  1  2  1  0
M  END