1,2,3,4,7,8-Hexachlorodibenzo-p-dioxin
  DSViewer          3D                             0

 20 22  0  0  0  0  0  0  0  0999 V2000
   -1.8031    2.8128   -1.8297 Cl  0  0  0  0  0  0  0  0  0  1
   -0.5795    2.0683   -0.8645 C   0  0  0  0  0  0  0  0  0  2
   -0.1264    2.6970    0.2897 C   0  0  0  0  0  0  0  0  0  3
   -0.7873    4.2223    0.7583 Cl  0  0  0  0  0  0  0  0  0  4
    0.8584    2.0980    1.0667 C   0  0  0  0  0  0  0  0  0  5
    1.4218    2.8781    2.5006 Cl  0  0  0  0  0  0  0  0  0  6
    1.3899    0.8707    0.6894 C   0  0  0  0  0  0  0  0  0  7
    2.3522    0.2851    1.4483 O   0  0  0  0  0  0  0  0  0  8
    2.8716   -0.9146    1.0796 C   0  0  0  0  0  0  0  0  0  9
    3.8563   -1.5145    1.8559 C   0  0  0  0  0  0  0  0  0 10
    4.3869   -2.7425    1.4769 C   0  0  0  0  0  0  0  0  0 11
    3.9326   -3.3699    0.3222 C   0  0  0  0  0  0  0  0  0 12
    4.5916   -4.8957   -0.1488 Cl  0  0  0  0  0  0  0  0  0 13
    2.9479   -2.7696   -0.4538 C   0  0  0  0  0  0  0  0  0 14
    2.3828   -3.5477   -1.8882 Cl  0  0  0  0  0  0  0  0  0 15
    2.4176   -1.5423   -0.0752 C   0  0  0  0  0  0  0  0  0 16
    1.4558   -0.9566   -0.8335 O   0  0  0  0  0  0  0  0  0 17
    0.9367    0.2421   -0.4650 C   0  0  0  0  0  0  0  0  0 18
   -0.0477    0.8407   -1.2419 C   0  0  0  0  0  0  0  0  0 19
   -0.6095    0.0586   -2.6753 Cl  0  0  0  0  0  0  0  0  0 20
 19 20  1  0  0  0
 19  2  4  0  0  0
 18 19  4  0  0  0
 18  7  4  0  0  0
 17 18  1  0  0  0
 16 17  1  0  0  0
 16  9  4  0  0  0
 14 16  4  0  0  0
 14 15  1  0  0  0
 12 14  4  0  0  0
 12 13  1  0  0  0
 11 12  4  0  0  0
 10 11  4  0  0  0
  9 10  4  0  0  0
  8  9  1  0  0  0
  7  8  1  0  0  0
  5  7  4  0  0  0
  5  6  1  0  0  0
  3  5  4  0  0  0
  3  4  1  0  0  0
  2  3  4  0  0  0
  1  2  1  0  0  0
M  END