Dibenzo(1,4)dioxan
  SciTegic12150910513D

 14 16  0  0  0  0            999 V2000
    2.0705    0.1467    0.6955 O   0  0  0  0  0  0  0  0  0  1  0  0
    2.2459   -1.1106    0.2107 C   0  0  0  0  0  0  0  0  0  2  0  0
    3.4573   -1.7657    0.3994 C   0  0  0  0  0  0  0  0  0  3  0  0
    3.6356   -3.0520   -0.0971 C   0  0  0  0  0  0  0  0  0  4  0  0
    2.6028   -3.6828   -0.7819 C   0  0  0  0  0  0  0  0  0  5  0  0
    1.3912   -3.0276   -0.9706 C   0  0  0  0  0  0  0  0  0  6  0  0
    1.2129   -1.7414   -0.4742 C   0  0  0  0  0  0  0  0  0  7  0  0
    0.0292   -1.1000   -0.6580 O   0  0  0  0  0  0  0  0  0  8  0  0
   -0.1462    0.1572   -0.1732 C   0  0  0  0  0  0  0  0  0  9  0  0
   -1.3576    0.8123   -0.3618 C   0  0  0  0  0  0  0  0  0 10  0  0
   -1.5359    2.0987    0.1347 C   0  0  0  0  0  0  0  0  0 11  0  0
   -0.5031    2.7294    0.8194 C   0  0  0  0  0  0  0  0  0 12  0  0
    0.7085    2.0742    1.0081 C   0  0  0  0  0  0  0  0  0 13  0  0
    0.8867    0.7881    0.5117 C   0  0  0  0  0  0  0  0  0 14  0  0
 14  9  4  0
 14  1  1  0
 13 14  4  0
 12 13  4  0
 11 12  4  0
 10 11  4  0
  9 10  4  0
  8  9  1  0
  7  8  1  0
  7  2  4  0
  6  7  4  0
  5  6  4  0
  4  5  4  0
  3  4  4  0
  2  3  4  0
  1  2  1  0
M  END