Octachlorodibenzofuran
  SciTegic12150910513D

 21 23  0  0  0  0            999 V2000
    0.3990   -0.2688    2.2570 Cl  0  0  0  0  0  0  0  0  0  1  0  0
    1.3718    0.1402    0.7837 C   0  0  0  0  0  0  0  0  0  2  0  0
    2.8256    0.1468    1.0173 C   0  0  0  0  0  0  0  0  0  3  0  0
    3.3620   -0.1581    2.6292 Cl  0  0  0  0  0  0  0  0  0  4  0  0
    3.8642    0.3562   -0.0053 C   0  0  0  0  0  0  0  0  0  5  0  0
    5.5085    0.3242    0.5197 Cl  0  0  0  0  0  0  0  0  0  6  0  0
    3.6225    0.6108   -1.3920 C   0  0  0  0  0  0  0  0  0  7  0  0
    2.3352    0.9965   -1.9372 C   0  0  0  0  0  0  0  0  0  8  0  0
    2.5261    2.0061   -1.1650 O   0  0  0  0  0  0  0  0  0  9  0  0
    1.4199    2.0159   -0.6462 C   0  0  0  0  0  0  0  0  0 10  0  0
   -0.3758    1.7026    0.0504 C   0  0  0  0  0  0  0  0  0 11  0  0
   -1.3461    2.9861    0.6771 Cl  0  0  0  0  0  0  0  0  0 12  0  0
   -0.9825    0.0159   -0.0538 C   0  0  0  0  0  0  0  0  0 13  0  0
   -2.6085   -0.2497    0.4643 Cl  0  0  0  0  0  0  0  0  0 14  0  0
   -0.0549   -1.4425   -0.5315 C   0  0  0  0  0  0  0  0  0 15  0  0
   -0.9020   -2.9428   -0.4209 Cl  0  0  0  0  0  0  0  0  0 16  0  0
    1.6613   -1.5465   -1.0148 C   0  0  0  0  0  0  0  0  0 17  0  0
    2.4636   -3.0447   -1.3199 Cl  0  0  0  0  0  0  0  0  0 18  0  0
    2.5097    0.1314   -1.2234 C   0  0  0  0  0  0  0  0  0 19  0  0
    0.8766    0.5983   -1.5544 C   0  0  0  0  0  0  0  0  0 20  0  0
   -0.5371    0.6971   -2.7091 Cl  0  0  0  0  0  0  0  0  0 21  0  0
 20 21  1  0
 20  2  4  0
  8 20  4  0
 19 10  4  0
 19  7  4  0
 17 19  4  0
 17 18  1  0
 15 17  4  0
 15 16  1  0
 13 15  4  0
 13 14  1  0
 11 13  4  0
 11 12  1  0
 10 11  4  0
  9 10  4  0
  8  9  4  0
  7  8  4  0
  5  7  4  0
  5  6  1  0
  3  5  4  0
  3  4  1  0
  2  3  4  0
  1  2  1  0
M  END