Dibenzofuran
  SciTegic12150910513D

 13 15  0  0  0  0            999 V2000
    0.5056   -0.6888    2.0706 O   0  0  0  0  0  0  0  0  0  1  0  0
    1.2794    0.3538    1.9628 C   0  0  0  0  0  0  0  0  0  2  0  0
    1.3626    0.7713    0.6537 C   0  0  0  0  0  0  0  0  0  3  0  0
    0.5730   -0.0995   -0.0560 C   0  0  0  0  0  0  0  0  0  4  0  0
    0.2766   -0.1712   -1.4062 C   0  0  0  0  0  0  0  0  0  5  0  0
   -0.5776   -1.2021   -1.7961 C   0  0  0  0  0  0  0  0  0  6  0  0
   -1.0954   -2.1035   -0.8587 C   0  0  0  0  0  0  0  0  0  7  0  0
   -0.7782   -2.0059    0.4973 C   0  0  0  0  0  0  0  0  0  8  0  0
    2.1170    1.8586    0.2479 C   0  0  0  0  0  0  0  0  0  9  0  0
    2.8115    2.5356    1.2498 C   0  0  0  0  0  0  0  0  0 10  0  0
    2.7364    2.1225    2.5851 C   0  0  0  0  0  0  0  0  0 11  0  0
    1.9667    1.0214    2.9642 C   0  0  0  0  0  0  0  0  0 12  0  0
    0.0712   -0.9787    0.8770 C   0  0  0  0  0  0  0  0  0 13  0  0
 13  8  4  0
 13  4  4  0
  1 13  4  0
 12 11  4  0
  2 12  4  0
 10 11  4  0
  9 10  4  0
  3  9  4  0
  7  8  4  0
  6  7  4  0
  5  6  4  0
  4  5  4  0
  3  4  4  0
  2  3  4  0
  1  2  4  0
M  END