2,3,7,8-Tetrachlorodibenzofuran
  SciTegic12150910513D

 17 19  0  0  0  0            999 V2000
   -2.8332    1.6234   -0.3926 Cl  0  0  0  0  0  0  0  0  0  1  0  0
   -1.1838    1.1751   -0.1426 C   0  0  0  0  0  0  0  0  0  2  0  0
   -0.2093    1.6223   -1.0368 C   0  0  0  0  0  0  0  0  0  3  0  0
    1.1001    1.2379   -0.7967 C   0  0  0  0  0  0  0  0  0  4  0  0
    2.1675    1.5286   -1.4848 O   0  0  0  0  0  0  0  0  0  5  0  0
    3.1794    0.9563   -0.8964 C   0  0  0  0  0  0  0  0  0  6  0  0
    4.5152    0.9824   -1.2635 C   0  0  0  0  0  0  0  0  0  7  0  0
    5.4156    0.2813   -0.4592 C   0  0  0  0  0  0  0  0  0  8  0  0
    7.0938    0.2789   -0.8688 Cl  0  0  0  0  0  0  0  0  0  9  0  0
    4.9851   -0.4204    0.6733 C   0  0  0  0  0  0  0  0  0 10  0  0
    6.1395   -1.2721    1.6354 Cl  0  0  0  0  0  0  0  0  0 11  0  0
    3.6387   -0.4418    1.0360 C   0  0  0  0  0  0  0  0  0 12  0  0
    2.7713    0.2623    0.2195 C   0  0  0  0  0  0  0  0  0 13  0  0
    1.4123    0.4463    0.2847 C   0  0  0  0  0  0  0  0  0 14  0  0
    0.4699   -0.0126    1.1881 C   0  0  0  0  0  0  0  0  0 15  0  0
   -0.8504    0.3700    0.9533 C   0  0  0  0  0  0  0  0  0 16  0  0
   -2.0937   -0.1570    2.0304 Cl  0  0  0  0  0  0  0  0  0 17  0  0
 16 17  1  0
 16  2  4  0
 15 16  4  0
 14 15  4  0
 14  4  4  0
 13 14  4  0
 13  6  4  0
 12 13  4  0
 10 12  4  0
 10 11  1  0
  8 10  4  0
  8  9  1  0
  7  8  4  0
  6  7  4  0
  5  6  4  0
  4  5  4  0
  3  4  4  0
  2  3  4  0
  1  2  1  0
M  END