1,2,3,4,6,7,8-Heptachlorodibenzofuran
  SciTegic12150910513D

 20 22  0  0  0  0            999 V2000
    1.1857    1.7151   -0.5721 C   0  0  0  0  0  0  0  0  0  1  0  0
    1.7406    3.3124   -0.2207 Cl  0  0  0  0  0  0  0  0  0  2  0  0
    1.4833    0.6733    0.3055 C   0  0  0  0  0  0  0  0  0  3  0  0
    2.4017    0.9613    1.7424 Cl  0  0  0  0  0  0  0  0  0  4  0  0
    1.0125   -0.5871   -0.0271 C   0  0  0  0  0  0  0  0  0  5  0  0
    1.1206   -1.8077    0.5973 C   0  0  0  0  0  0  0  0  0  6  0  0
    1.7399   -2.1902    1.7757 C   0  0  0  0  0  0  0  0  0  7  0  0
    1.6535   -3.5390    2.1204 C   0  0  0  0  0  0  0  0  0  8  0  0
    2.3998   -4.0959    3.5751 Cl  0  0  0  0  0  0  0  0  0  9  0  0
    0.9706   -4.4481    1.3042 C   0  0  0  0  0  0  0  0  0 10  0  0
    0.8863   -6.1103    1.7660 Cl  0  0  0  0  0  0  0  0  0 11  0  0
    0.3571   -4.0307    0.1229 C   0  0  0  0  0  0  0  0  0 12  0  0
   -0.4864   -5.1492   -0.8868 Cl  0  0  0  0  0  0  0  0  0 13  0  0
    0.4457   -2.6906   -0.2148 C   0  0  0  0  0  0  0  0  0 14  0  0
   -0.0453   -2.0864   -1.2583 O   0  0  0  0  0  0  0  0  0 15  0  0
    0.2806   -0.8290   -1.1677 C   0  0  0  0  0  0  0  0  0 16  0  0
   -0.0190    0.2009   -2.0445 C   0  0  0  0  0  0  0  0  0 17  0  0
   -0.9363   -0.0912   -3.4781 Cl  0  0  0  0  0  0  0  0  0 18  0  0
    0.4425    1.4808   -1.7345 C   0  0  0  0  0  0  0  0  0 19  0  0
    0.0916    2.7939   -2.8001 Cl  0  0  0  0  0  0  0  0  0 20  0  0
 19 20  1  0
 19  1  4  0
 17 19  4  0
 17 18  1  0
 16 17  4  0
 16  5  4  0
 15 16  4  0
 14 15  4  0
 14  6  4  0
 12 14  4  0
 12 13  1  0
 10 12  4  0
 10 11  1  0
  8 10  4  0
  8  9  1  0
  7  8  4  0
  6  7  4  0
  5  6  4  0
  3  5  4  0
  3  4  1  0
  1  3  4  0
  1  2  1  0
M  END