2,3,4,7,8-Pentachlorodibenzofuran
  SciTegic12150910513D

 18 20  0  0  0  0            999 V2000
    1.6470    1.0329   -0.0191 C   0  0  0  0  0  0  0  0  0  1  0  0
    2.5978    2.4696   -0.1434 Cl  0  0  0  0  0  0  0  0  0  2  0  0
    2.2645   -0.2127   -0.1351 C   0  0  0  0  0  0  0  0  0  3  0  0
    1.4431   -1.3217   -0.0256 C   0  0  0  0  0  0  0  0  0  4  0  0
    1.7175   -2.6653   -0.0899 C   0  0  0  0  0  0  0  0  0  5  0  0
    2.9056   -3.3474   -0.2853 C   0  0  0  0  0  0  0  0  0  6  0  0
    2.8257   -4.7396   -0.2954 C   0  0  0  0  0  0  0  0  0  7  0  0
    4.2597   -5.6728   -0.5330 Cl  0  0  0  0  0  0  0  0  0  8  0  0
    1.6004   -5.3928   -0.1159 C   0  0  0  0  0  0  0  0  0  9  0  0
    1.5510   -7.1195   -0.1362 Cl  0  0  0  0  0  0  0  0  0 10  0  0
    0.4183   -4.6760    0.0791 C   0  0  0  0  0  0  0  0  0 11  0  0
    0.5059   -3.2933    0.0879 C   0  0  0  0  0  0  0  0  0 12  0  0
   -0.4505   -2.4235    0.2504 O   0  0  0  0  0  0  0  0  0 13  0  0
    0.0864   -1.2383    0.1863 C   0  0  0  0  0  0  0  0  0 14  0  0
   -0.5305   -0.0040    0.3020 C   0  0  0  0  0  0  0  0  0 15  0  0
   -2.2322    0.1201    0.5680 Cl  0  0  0  0  0  0  0  0  0 16  0  0
    0.2675    1.1358    0.1966 C   0  0  0  0  0  0  0  0  0 17  0  0
   -0.4577    2.6974    0.3344 Cl  0  0  0  0  0  0  0  0  0 18  0  0
 17 18  1  0
 17  1  4  0
 15 17  4  0
 15 16  1  0
 14 15  4  0
 14  4  4  0
 13 14  4  0
 12 13  4  0
 12  5  4  0
 11 12  4  0
  9 11  4  0
  9 10  1  0
  7  9  4  0
  7  8  1  0
  6  7  4  0
  5  6  4  0
  4  5  4  0
  3  4  4  0
  1  3  4  0
  1  2  1  0
M  END