2-Methyl phenol
  DSViewer          3D                             0

  8  8  0  0  0  0  0  0  0  0999 V2000
    1.2394   -0.0567    1.5797 O   0  0  0  0  0  0  0  0  0  1
    0.4138    0.6372    0.7017 C   0  0  0  0  0  0  0  0  0  2
    0.1106    1.9727    0.9417 C   0  0  0  0  0  0  0  0  0  3
   -0.7147    2.6670    0.0643 C   0  0  0  0  0  0  0  0  0  4
   -1.2369    2.0253   -1.0532 C   0  0  0  0  0  0  0  0  0  5
   -0.9337    0.6897   -1.2933 C   0  0  0  0  0  0  0  0  0  6
    0.6744    2.6648    2.1481 C   0  0  0  0  0  0  0  0  0  7
   -0.1083   -0.0044   -0.4158 C   0  0  0  0  0  0  0  0  0  8
  8  6  4  0  0  0
  2  8  4  0  0  0
  3  7  1  0  0  0
  5  6  4  0  0  0
  4  5  4  0  0  0
  3  4  4  0  0  0
  2  3  4  0  0  0
  1  2  1  0  0  0
M  END