Phenol
  DSViewer          3D                             0

  7  7  0  0  0  0  0  0  0  0999 V2000
    1.9815   -0.4158    0.6958 O   0  0  0  0  0  0  0  0  0  1
    0.9110    0.4372    0.4494 C   0  0  0  0  0  0  0  0  0  2
    1.0130    1.7884    0.7609 C   0  0  0  0  0  0  0  0  0  3
   -0.0572    2.6412    0.5146 C   0  0  0  0  0  0  0  0  0  4
   -1.2292    2.1426   -0.0432 C   0  0  0  0  0  0  0  0  0  5
   -1.3312    0.7913   -0.3546 C   0  0  0  0  0  0  0  0  0  6
   -0.2610   -0.0615   -0.1083 C   0  0  0  0  0  0  0  0  0  7
  7  6  4  0  0  0
  2  7  4  0  0  0
  5  6  4  0  0  0
  4  5  4  0  0  0
  3  4  4  0  0  0
  2  3  4  0  0  0
  1  2  1  0  0  0
M  END