4-Bromophenol
  SciTegic12150910513D

  8  8  0  0  0  0            999 V2000
    2.3992   -0.2806   -0.5043 O   0  0  0  0  0  0  0  0  0  1  0  0
    1.2695    0.3841   -0.0394 C   0  0  0  0  0  0  0  0  0  2  0  0
    1.3877    1.6577    0.5058 C   0  0  0  0  0  0  0  0  0  3  0  0
    0.2584    2.3223    0.9706 C   0  0  0  0  0  0  0  0  0  4  0  0
   -0.9889    1.7130    0.8901 C   0  0  0  0  0  0  0  0  0  5  0  0
   -1.1071    0.4394    0.3449 C   0  0  0  0  0  0  0  0  0  6  0  0
   -2.5329    2.6215    1.5255 Br  0  0  0  0  0  0  0  0  0  7  0  0
    0.0223   -0.2251   -0.1199 C   0  0  0  0  0  0  0  0  0  8  0  0
  8  6  4  0
  2  8  4  0
  5  7  1  0
  5  6  4  0
  4  5  4  0
  3  4  4  0
  2  3  4  0
  1  2  1  0
M  END