Hydroquinone
  SciTegic12150910513D

  8  8  0  0  0  0            999 V2000
    2.3078   -0.8162   -0.2066 O   0  0  0  0  0  0  0  0  0  1  0  0
    1.3042    0.0823    0.1391 C   0  0  0  0  0  0  0  0  0  2  0  0
    1.5856    1.1445    0.9911 C   0  0  0  0  0  0  0  0  0  3  0  0
    0.5823    2.0428    1.3367 C   0  0  0  0  0  0  0  0  0  4  0  0
   -0.7021    1.8787    0.8301 C   0  0  0  0  0  0  0  0  0  5  0  0
   -1.7058    2.7773    1.1758 O   0  0  0  0  0  0  0  0  0  6  0  0
   -0.9835    0.8165   -0.0219 C   0  0  0  0  0  0  0  0  0  7  0  0
    0.0198   -0.0818   -0.3674 C   0  0  0  0  0  0  0  0  0  8  0  0
  8  7  4  0
  2  8  4  0
  5  7  4  0
  5  6  1  0
  4  5  4  0
  3  4  4  0
  2  3  4  0
  1  2  1  0
M  END