2,6-Dibromo-4-Cyanophenol
  SciTegic12150910513D

 11 11  0  0  0  0            999 V2000
   -0.3204    0.8088   -2.3455 O   0  0  0  0  0  0  0  0  0  1  0  0
    0.3849    0.9005   -1.1566 C   0  0  0  0  0  0  0  0  0  2  0  0
    1.4372    1.8035   -1.0419 C   0  0  0  0  0  0  0  0  0  3  0  0
    1.9204    2.9113   -2.5070 Br  0  0  0  0  0  0  0  0  0  4  0  0
    2.1123    1.9297    0.1641 C   0  0  0  0  0  0  0  0  0  5  0  0
    1.7359    1.1455    1.2465 C   0  0  0  0  0  0  0  0  0  6  0  0
    2.3208    1.3676    2.4975 C   0  0  0  0  0  0  0  0  0  7  0  0
    2.7988    1.5487    3.5263 N   0  0  0  0  0  0  0  0  0  8  0  0
    0.7021    0.2278    1.1304 C   0  0  0  0  0  0  0  0  0  9  0  0
    0.0273    0.1019   -0.0751 C   0  0  0  0  0  0  0  0  0 10  0  0
   -1.4189   -1.1206   -0.2144 Br  0  0  0  0  0  0  0  0  0 11  0  0
 10 11  1  0
 10  2  4  0
  9 10  4  0
  6  9  4  0
  7  8  3  0
  6  7  1  0
  5  6  4  0
  3  5  4  0
  3  4  1  0
  2  3  4  0
  1  2  1  0
M  END