4-t-Butyl phenol
  SciTegic12150910513D

 11 11  0  0  0  0            999 V2000
    2.3935   -0.0294   -1.7753 O   0  0  0  0  0  0  0  0  0  1  0  0
    1.4996    0.4151   -0.8071 C   0  0  0  0  0  0  0  0  0  2  0  0
    1.7385    1.6091   -0.1364 C   0  0  0  0  0  0  0  0  0  3  0  0
    0.8448    2.0532    0.8315 C   0  0  0  0  0  0  0  0  0  4  0  0
   -0.2886    1.3044    1.1295 C   0  0  0  0  0  0  0  0  0  5  0  0
   -0.5261    0.1098    0.4580 C   0  0  0  0  0  0  0  0  0  6  0  0
   -1.2540    1.7897    2.1807 C   0  0  0  0  0  0  0  0  0  7  0  0
   -1.5971    3.2674    1.9126 C   0  0  0  0  0  0  0  0  0  8  0  0
   -0.5428    1.7488    3.5456 C   0  0  0  0  0  0  0  0  0  9  0  0
   -2.5259    0.9188    2.2236 C   0  0  0  0  0  0  0  0  0 10  0  0
    0.3673   -0.3347   -0.5099 C   0  0  0  0  0  0  0  0  0 11  0  0
 11  6  4  0
  2 11  4  0
  7 10  1  0
  7  9  1  0
  7  8  1  0
  5  7  1  0
  5  6  4  0
  4  5  4  0
  3  4  4  0
  2  3  4  0
  1  2  1  0
M  END