4,5,6-Trichloroguaiacol
  DSViewer          3D                             0

 12 12  0  0  0  0  0  0  0  0999 V2000
   -2.1779    1.9799    0.2004 C   0  0  0  0  0  0  0  0  0  1
   -1.8443    0.6938    0.7383 O   0  0  0  0  0  0  0  0  0  2
   -0.5431    0.1315    0.4325 C   0  0  0  0  0  0  0  0  0  3
   -0.2928   -1.1191    0.9903 C   0  0  0  0  0  0  0  0  0  4
    0.9119   -1.7768    0.7812 C   0  0  0  0  0  0  0  0  0  5
    1.1884   -3.3281    1.4890 Cl  0  0  0  0  0  0  0  0  0  6
    1.8927   -1.1832    0.0016 C   0  0  0  0  0  0  0  0  0  7
    3.3957   -1.9912   -0.2661 Cl  0  0  0  0  0  0  0  0  0  8
    1.6610    0.0635   -0.5628 C   0  0  0  0  0  0  0  0  0  9
    2.8848    0.8003   -1.5335 Cl  0  0  0  0  0  0  0  0  0 10
    0.4555    0.7278   -0.3569 C   0  0  0  0  0  0  0  0  0 11
    0.3221    1.9765   -0.9684 O   0  0  0  0  0  0  0  0  0 12
 11 12  1  0  0  0
 11  3  4  0  0  0
  9 11  4  0  0  0
  9 10  1  0  0  0
  7  9  4  0  0  0
  7  8  1  0  0  0
  5  7  4  0  0  0
  5  6  1  0  0  0
  4  5  4  0  0  0
  3  4  4  0  0  0
  2  3  1  0  0  0
  1  2  1  0  0  0
M  END