2,3,5,6-Tetrachlorophenol
  SciTegic12150910513D

 11 11  0  0  0  0            999 V2000
    0.7939   -0.8387   -2.3234 O   0  0  0  0  0  0  0  0  0  1  0  0
    1.1184   -0.5169   -1.0105 C   0  0  0  0  0  0  0  0  0  2  0  0
    2.4240   -0.6719   -0.5590 C   0  0  0  0  0  0  0  0  0  3  0  0
    3.6432   -1.2644   -1.6295 Cl  0  0  0  0  0  0  0  0  0  4  0  0
    2.7486   -0.3500    0.7538 C   0  0  0  0  0  0  0  0  0  5  0  0
    4.3713   -0.5431    1.3136 Cl  0  0  0  0  0  0  0  0  0  6  0  0
    1.7675    0.1270    1.6158 C   0  0  0  0  0  0  0  0  0  7  0  0
    0.4618    0.2819    1.1641 C   0  0  0  0  0  0  0  0  0  8  0  0
   -0.7582    0.8745    2.2339 Cl  0  0  0  0  0  0  0  0  0  9  0  0
    0.1374   -0.0399   -0.1488 C   0  0  0  0  0  0  0  0  0 10  0  0
   -1.4849    0.1527   -0.7095 Cl  0  0  0  0  0  0  0  0  0 11  0  0
 10 11  1  0
 10  2  4  0
  8 10  4  0
  8  9  1  0
  7  8  4  0
  5  7  4  0
  5  6  1  0
  3  5  4  0
  3  4  1  0
  2  3  4  0
  1  2  1  0
M  END