2,4-Dimethylphenol
  SciTegic12150910513D

  9  9  0  0  0  0            999 V2000
    2.3431    0.1732    0.9001 O   0  0  0  0  0  0  0  0  0  1  0  0
    1.0759    0.6477    0.5795 C   0  0  0  0  0  0  0  0  0  2  0  0
    0.6453    1.8717    1.0789 C   0  0  0  0  0  0  0  0  0  3  0  0
   -0.6214    2.3467    0.7587 C   0  0  0  0  0  0  0  0  0  4  0  0
   -1.4574    1.5971   -0.0611 C   0  0  0  0  0  0  0  0  0  5  0  0
   -1.0272    0.3730   -0.5608 C   0  0  0  0  0  0  0  0  0  6  0  0
   -2.8246    2.1096   -0.4068 C   0  0  0  0  0  0  0  0  0  7  0  0
    1.5480    2.6802    1.9636 C   0  0  0  0  0  0  0  0  0  8  0  0
    0.2397   -0.1017   -0.2404 C   0  0  0  0  0  0  0  0  0  9  0  0
  9  6  4  0
  2  9  4  0
  3  8  1  0
  5  7  1  0
  5  6  4  0
  4  5  4  0
  3  4  4  0
  2  3  4  0
  1  2  1  0
M  END