2-Chlorophenol
  SciTegic12150910513D

  8  8  0  0  0  0            999 V2000
    1.1696   -0.0887    1.5969 O   0  0  0  0  0  0  0  0  0  1  0  0
    0.3866    0.6184    0.6910 C   0  0  0  0  0  0  0  0  0  2  0  0
    0.0731    1.9505    0.9357 C   0  0  0  0  0  0  0  0  0  3  0  0
   -0.7097    2.6584    0.0306 C   0  0  0  0  0  0  0  0  0  4  0  0
   -1.1789    2.0335   -1.1195 C   0  0  0  0  0  0  0  0  0  5  0  0
   -0.8654    0.7011   -1.3642 C   0  0  0  0  0  0  0  0  0  6  0  0
    0.6567    2.7259    2.3650 Cl  0  0  0  0  0  0  0  0  0  7  0  0
   -0.0826   -0.0066   -0.4589 C   0  0  0  0  0  0  0  0  0  8  0  0
  8  6  4  0
  2  8  4  0
  3  7  1  0
  5  6  4  0
  4  5  4  0
  3  4  4  0
  2  3  4  0
  1  2  1  0
M  END