3,4,5-Trichloroguaiacol
  DSViewer          3D                             0

 12 12  0  0  0  0  0  0  0  0999 V2000
   -1.4965    1.4498   -1.6262 C   0  0  0  0  0  0  0  0  0  1
   -0.4828    0.4891   -1.9172 O   0  0  0  0  0  0  0  0  0  2
    0.3394   -0.0361   -0.8402 C   0  0  0  0  0  0  0  0  0  3
    1.2904   -0.9649   -1.2555 C   0  0  0  0  0  0  0  0  0  4
    1.3709   -1.2973   -2.6030 O   0  0  0  0  0  0  0  0  0  5
    2.1590   -1.5655   -0.3545 C   0  0  0  0  0  0  0  0  0  6
    2.0857   -1.2400    0.9902 C   0  0  0  0  0  0  0  0  0  7
    3.1601   -1.9794    2.1229 Cl  0  0  0  0  0  0  0  0  0  8
    1.1448   -0.3169    1.4229 C   0  0  0  0  0  0  0  0  0  9
    1.0585    0.0846    3.1005 Cl  0  0  0  0  0  0  0  0  0 10
    0.2690    0.2914    0.5283 C   0  0  0  0  0  0  0  0  0 11
   -0.8494    1.4271    1.2411 Cl  0  0  0  0  0  0  0  0  0 12
 11 12  1  0  0  0
 11  3  4  0  0  0
  9 11  4  0  0  0
  9 10  1  0  0  0
  7  9  4  0  0  0
  7  8  1  0  0  0
  6  7  4  0  0  0
  4  6  4  0  0  0
  4  5  1  0  0  0
  3  4  4  0  0  0
  2  3  1  0  0  0
  1  2  1  0  0  0
M  END