2,4,6-Trichlorophenol
  SciTegic12150910513D

 10 10  0  0  0  0            999 V2000
    2.2554    0.3095    0.7616 O   0  0  0  0  0  0  0  0  0  1  0  0
    0.9603    0.7748    0.5628 C   0  0  0  0  0  0  0  0  0  2  0  0
    0.6011    2.0418    1.0082 C   0  0  0  0  0  0  0  0  0  3  0  0
   -0.6938    2.5072    0.8096 C   0  0  0  0  0  0  0  0  0  4  0  0
   -1.6292    1.7053    0.1655 C   0  0  0  0  0  0  0  0  0  5  0  0
   -1.2700    0.4381   -0.2800 C   0  0  0  0  0  0  0  0  0  6  0  0
   -3.2384    2.2835   -0.0815 Cl  0  0  0  0  0  0  0  0  0  7  0  0
    1.7642    3.0372    1.8084 Cl  0  0  0  0  0  0  0  0  0  8  0  0
    0.0250   -0.0270   -0.0812 C   0  0  0  0  0  0  0  0  0  9  0  0
    0.4725   -1.6011   -0.6342 Cl  0  0  0  0  0  0  0  0  0 10  0  0
  9 10  1  0
  9  6  4  0
  2  9  4  0
  3  8  1  0
  5  7  1  0
  5  6  4  0
  4  5  4  0
  3  4  4  0
  2  3  4  0
  1  2  1  0
M  END