p-Nonyl phenol
  SciTegic12150910513D

 16 16  0  0  0  0            999 V2000
    2.2256   -1.0985   -1.1857 O   0  0  0  0  0  0  0  0  0  1  0  0
    1.1709   -0.2014   -1.0581 C   0  0  0  0  0  0  0  0  0  2  0  0
    1.2307    1.0372   -1.6885 C   0  0  0  0  0  0  0  0  0  3  0  0
    0.1777    1.9347   -1.5596 C   0  0  0  0  0  0  0  0  0  4  0  0
   -0.9356    1.5995   -0.7956 C   0  0  0  0  0  0  0  0  0  5  0  0
   -0.9964    0.3571   -0.1743 C   0  0  0  0  0  0  0  0  0  6  0  0
   -2.0788    2.5911   -0.6644 C   0  0  0  0  0  0  0  0  0  7  0  0
   -2.9397    2.4155    0.6371 C   0  0  0  0  0  0  0  0  0  8  0  0
   -2.3890    3.2769    1.8383 C   0  0  0  0  0  0  0  0  0  9  0  0
   -1.0213    2.8058    2.3829 C   0  0  0  0  0  0  0  0  0 10  0  0
   -1.1750    1.4544    3.1273 C   0  0  0  0  0  0  0  0  0 11  0  0
    0.1813    0.7774    3.5716 C   0  0  0  0  0  0  0  0  0 12  0  0
    1.0351    1.5578    4.6364 C   0  0  0  0  0  0  0  0  0 13  0  0
    1.8803    2.7208    4.0446 C   0  0  0  0  0  0  0  0  0 14  0  0
    2.8778    2.1648    3.0048 C   0  0  0  0  0  0  0  0  0 15  0  0
    0.0561   -0.5426   -0.3032 C   0  0  0  0  0  0  0  0  0 16  0  0
 16  6  4  0
  2 16  4  0
 14 15  1  0
 13 14  1  0
 12 13  1  0
 11 12  1  0
 10 11  1  0
  9 10  1  0
  8  9  1  0
  7  8  1  0
  5  7  1  0
  5  6  4  0
  4  5  4  0
  3  4  4  0
  2  3  4  0
  1  2  1  0
M  END