Tetrachloroguaiacol
  SciTegic12150910513D

 13 13  0  0  0  0            999 V2000
   -2.3665    1.6004   -0.0982 C   0  0  0  0  0  0  0  0  0  1  0  0
   -1.8994    0.3795    0.4730 O   0  0  0  0  0  0  0  0  0  2  0  0
   -0.5300   -0.0460    0.2376 C   0  0  0  0  0  0  0  0  0  3  0  0
   -0.1991   -1.2525    0.8492 C   0  0  0  0  0  0  0  0  0  4  0  0
   -1.1603   -1.9199    1.5995 O   0  0  0  0  0  0  0  0  0  5  0  0
    1.0690   -1.8029    0.7258 C   0  0  0  0  0  0  0  0  0  6  0  0
    1.4424   -3.3015    1.4991 Cl  0  0  0  0  0  0  0  0  0  7  0  0
    2.0342   -1.1461   -0.0196 C   0  0  0  0  0  0  0  0  0  8  0  0
    3.6159   -1.8210   -0.1804 Cl  0  0  0  0  0  0  0  0  0  9  0  0
    1.7232    0.0570   -0.6363 C   0  0  0  0  0  0  0  0  0 10  0  0
    2.9302    0.8721   -1.5646 Cl  0  0  0  0  0  0  0  0  0 11  0  0
    0.4549    0.6187   -0.5197 C   0  0  0  0  0  0  0  0  0 12  0  0
    0.2349    2.1342   -1.3584 Cl  0  0  0  0  0  0  0  0  0 13  0  0
 12 13  1  0
 12  3  4  0
 10 12  4  0
 10 11  1  0
  8 10  4  0
  8  9  1  0
  6  8  4  0
  6  7  1  0
  4  6  4  0
  4  5  1  0
  3  4  4  0
  2  3  1  0
  1  2  1  0
M  END