Pentachlorophenol
  SciTegic12150910513D

 12 12  0  0  0  0            999 V2000
    2.1431   -0.1261    1.1730 O   0  0  0  0  0  0  0  0  0  1  0  0
    1.0187    0.5549    0.7204 C   0  0  0  0  0  0  0  0  0  2  0  0
    0.8760    1.9125    0.9826 C   0  0  0  0  0  0  0  0  0  3  0  0
   -0.2483    2.5934    0.5301 C   0  0  0  0  0  0  0  0  0  4  0  0
   -1.2299    1.9166   -0.1846 C   0  0  0  0  0  0  0  0  0  5  0  0
   -1.0872    0.5589   -0.4468 C   0  0  0  0  0  0  0  0  0  6  0  0
   -2.3068   -0.2820   -1.3349 Cl  0  0  0  0  0  0  0  0  0  7  0  0
   -2.6268    2.7625   -0.7469 Cl  0  0  0  0  0  0  0  0  0  8  0  0
   -0.4257    4.2803    0.8558 Cl  0  0  0  0  0  0  0  0  0  9  0  0
    2.0955    2.7536    1.8706 Cl  0  0  0  0  0  0  0  0  0 10  0  0
    0.0371   -0.1220    0.0057 C   0  0  0  0  0  0  0  0  0 11  0  0
    0.2144   -1.8088   -0.3201 Cl  0  0  0  0  0  0  0  0  0 12  0  0
 11 12  1  0
 11  6  4  0
  2 11  4  0
  3 10  1  0
  4  9  1  0
  5  8  1  0
  6  7  1  0
  5  6  4  0
  4  5  4  0
  3  4  4  0
  2  3  4  0
  1  2  1  0
M  END