p-Dodecyl phenol
  SciTegic12150910513D

 19 19  0  0  0  0            999 V2000
    2.2987   -3.2012   -2.0885 O   0  0  0  0  0  0  0  0  0  1  0  0
    1.7870   -2.0171   -1.5690 C   0  0  0  0  0  0  0  0  0  2  0  0
    2.6069   -0.9017   -1.4432 C   0  0  0  0  0  0  0  0  0  3  0  0
    2.0944    0.2813   -0.9242 C   0  0  0  0  0  0  0  0  0  4  0  0
    0.7622    0.3540   -0.5260 C   0  0  0  0  0  0  0  0  0  5  0  0
   -0.0555   -0.7626   -0.6584 C   0  0  0  0  0  0  0  0  0  6  0  0
    0.1728    1.6383    0.0314 C   0  0  0  0  0  0  0  0  0  7  0  0
    1.2523    2.7036    0.4127 C   0  0  0  0  0  0  0  0  0  8  0  0
    2.1290    2.3822    1.6966 C   0  0  0  0  0  0  0  0  0  9  0  0
    1.3706    2.5117    3.0669 C   0  0  0  0  0  0  0  0  0 10  0  0
    0.3769    1.3529    3.3607 C   0  0  0  0  0  0  0  0  0 11  0  0
   -0.3873    1.6249    4.6764 C   0  0  0  0  0  0  0  0  0 12  0  0
   -1.2438    2.9050    4.5362 C   0  0  0  0  0  0  0  0  0 13  0  0
   -2.2925    2.7143    3.4177 C   0  0  0  0  0  0  0  0  0 14  0  0
   -3.1109    4.0112    3.2481 C   0  0  0  0  0  0  0  0  0 15  0  0
   -4.1342    3.8426    2.1012 C   0  0  0  0  0  0  0  0  0 16  0  0
   -3.4116    3.6167    0.7499 C   0  0  0  0  0  0  0  0  0 17  0  0
   -2.5683    4.8590    0.3791 C   0  0  0  0  0  0  0  0  0 18  0  0
    0.4555   -1.9472   -1.1769 C   0  0  0  0  0  0  0  0  0 19  0  0
 19  6  4  0
  2 19  4  0
 17 18  1  0
 16 17  1  0
 15 16  1  0
 14 15  1  0
 13 14  1  0
 12 13  1  0
 11 12  1  0
 10 11  1  0
  9 10  1  0
  8  9  1  0
  7  8  1  0
  5  7  1  0
  5  6  4  0
  4  5  4  0
  3  4  4  0
  2  3  4  0
  1  2  1  0
M  END