4-Chloroaniline
  SciTegic12150910513D

  8  8  0  0  0  0            999 V2000
    2.4016   -0.3146   -0.3952 N   0  0  0  0  0  0  0  0  0  1  0  0
    1.2604    0.3731    0.0205 C   0  0  0  0  0  0  0  0  0  2  0  0
    1.3748    1.6539    0.5493 C   0  0  0  0  0  0  0  0  0  3  0  0
    0.2379    2.3388    0.9634 C   0  0  0  0  0  0  0  0  0  4  0  0
   -1.0130    1.7427    0.8485 C   0  0  0  0  0  0  0  0  0  5  0  0
   -1.1274    0.4619    0.3197 C   0  0  0  0  0  0  0  0  0  6  0  0
   -2.4258    2.5939    1.3631 Cl  0  0  0  0  0  0  0  0  0  7  0  0
    0.0095   -0.2230   -0.0944 C   0  0  0  0  0  0  0  0  0  8  0  0
  8  6  4  0
  2  8  4  0
  5  7  1  0
  5  6  4  0
  4  5  4  0
  3  4  4  0
  2  3  4  0
  1  2  1  0
M  END