3-Chloroaniline
  SciTegic12150910513D

  8  8  0  0  0  0            999 V2000
    2.1126   -0.4547    0.6441 N   0  0  0  0  0  0  0  0  0  1  0  0
    1.0685    0.4579    0.4861 C   0  0  0  0  0  0  0  0  0  2  0  0
    1.1359    1.7042    1.0989 C   0  0  0  0  0  0  0  0  0  3  0  0
    0.0958    2.6134    0.9416 C   0  0  0  0  0  0  0  0  0  4  0  0
   -1.0116    2.2761    0.1715 C   0  0  0  0  0  0  0  0  0  5  0  0
   -1.0789    1.0298   -0.4412 C   0  0  0  0  0  0  0  0  0  6  0  0
   -2.4550    0.6109   -1.3982 Cl  0  0  0  0  0  0  0  0  0  7  0  0
   -0.0389    0.1206   -0.2840 C   0  0  0  0  0  0  0  0  0  8  0  0
  8  6  4  0
  2  8  4  0
  6  7  1  0
  5  6  4  0
  4  5  4  0
  3  4  4  0
  2  3  4  0
  1  2  1  0
M  END