Aniline
  SciTegic12150910513D

  7  7  0  0  0  0            999 V2000
    1.9858   -0.4192    0.6950 N   0  0  0  0  0  0  0  0  0  1  0  0
    0.9111    0.4365    0.4481 C   0  0  0  0  0  0  0  0  0  2  0  0
    1.0128    1.7878    0.7594 C   0  0  0  0  0  0  0  0  0  3  0  0
   -0.0578    2.6402    0.5135 C   0  0  0  0  0  0  0  0  0  4  0  0
   -1.2299    2.1412   -0.0437 C   0  0  0  0  0  0  0  0  0  5  0  0
   -1.3316    0.7898   -0.3549 C   0  0  0  0  0  0  0  0  0  6  0  0
   -0.2610   -0.0626   -0.1090 C   0  0  0  0  0  0  0  0  0  7  0  0
  7  6  4  0
  2  7  4  0
  5  6  4  0
  4  5  4  0
  3  4  4  0
  2  3  4  0
  1  2  1  0
M  END