2-Chloroaniline
  DSViewer          3D                             0

  8  8  0  0  0  0  0  0  0  0999 V2000
    1.1707   -0.0915    1.5998 N   0  0  0  0  0  0  0  0  0  1
    0.3855    0.6185    0.6904 C   0  0  0  0  0  0  0  0  0  2
    0.0719    1.9506    0.9353 C   0  0  0  0  0  0  0  0  0  3
   -0.7103    2.6588    0.0299 C   0  0  0  0  0  0  0  0  0  4
   -1.1788    2.0343   -1.1206 C   0  0  0  0  0  0  0  0  0  5
   -0.8651    0.7021   -1.3656 C   0  0  0  0  0  0  0  0  0  6
    0.6546    2.7254    2.3653 Cl  0  0  0  0  0  0  0  0  0  7
   -0.0829   -0.0060   -0.4601 C   0  0  0  0  0  0  0  0  0  8
  8  6  4  0  0  0
  2  8  4  0  0  0
  3  7  1  0  0  0
  5  6  4  0  0  0
  4  5  4  0  0  0
  3  4  4  0  0  0
  2  3  4  0  0  0
  1  2  1  0  0  0
M  END