3,4-Dichloroaniline
  SciTegic12150910513D

  9  9  0  0  0  0            999 V2000
    2.5727   -0.2615   -0.2929 N   0  0  0  0  0  0  0  0  0  1  0  0
    1.4251    0.4402    0.0792 C   0  0  0  0  0  0  0  0  0  2  0  0
    1.5106    1.4683    1.0113 C   0  0  0  0  0  0  0  0  0  3  0  0
    0.3675    2.1674    1.3820 C   0  0  0  0  0  0  0  0  0  4  0  0
   -0.8609    1.8381    0.8204 C   0  0  0  0  0  0  0  0  0  5  0  0
   -0.9464    0.8100   -0.1116 C   0  0  0  0  0  0  0  0  0  6  0  0
   -2.4735    0.4019   -0.8086 Cl  0  0  0  0  0  0  0  0  0  7  0  0
   -2.2821    2.7060    1.2802 Cl  0  0  0  0  0  0  0  0  0  8  0  0
    0.1966    0.1108   -0.4825 C   0  0  0  0  0  0  0  0  0  9  0  0
  9  6  4  0
  2  9  4  0
  5  8  1  0
  6  7  1  0
  5  6  4  0
  4  5  4  0
  3  4  4  0
  2  3  4  0
  1  2  1  0
M  END