N-Phenyl-2-naphthylamine
  SciTegic12150910513D

 17 19  0  0  0  0            999 V2000
    1.3502    0.0578   -0.9953 N   0  0  0  0  0  0  0  0  0  1  0  0
    2.4629    0.8858   -1.2003 C   0  0  0  0  0  0  0  0  0  2  0  0
    2.4781    1.8158   -2.2364 C   0  0  0  0  0  0  0  0  0  3  0  0
    3.5901    2.6302   -2.4229 C   0  0  0  0  0  0  0  0  0  4  0  0
    4.6834    2.5167   -1.5731 C   0  0  0  0  0  0  0  0  0  5  0  0
    4.6694    1.5864   -0.5396 C   0  0  0  0  0  0  0  0  0  6  0  0
    5.7597    1.4736    0.3133 C   0  0  0  0  0  0  0  0  0  7  0  0
    6.8687    2.2929    0.1338 C   0  0  0  0  0  0  0  0  0  8  0  0
    6.8853    3.2225   -0.9001 C   0  0  0  0  0  0  0  0  0  9  0  0
    5.7940    3.3348   -1.7537 C   0  0  0  0  0  0  0  0  0 10  0  0
    3.5603    0.7689   -0.3569 C   0  0  0  0  0  0  0  0  0 11  0  0
    0.1533    0.5569   -0.4455 C   0  0  0  0  0  0  0  0  0 12  0  0
    0.0739    1.8651    0.0235 C   0  0  0  0  0  0  0  0  0 13  0  0
   -1.1071    2.3382    0.5828 C   0  0  0  0  0  0  0  0  0 14  0  0
   -2.2133    1.5020    0.6774 C   0  0  0  0  0  0  0  0  0 15  0  0
   -2.1364    0.1941    0.2123 C   0  0  0  0  0  0  0  0  0 16  0  0
   -0.9540   -0.2780   -0.3465 C   0  0  0  0  0  0  0  0  0 17  0  0
 17 16  4  0
 12 17  4  0
 15 16  4  0
 14 15  4  0
 13 14  4  0
 12 13  4  0
  1 12  1  0
 11  6  4  0
  2 11  4  0
 10  9  4  0
  5 10  4  0
  8  9  4  0
  7  8  4  0
  6  7  4  0
  5  6  4  0
  4  5  4  0
  3  4  4  0
  2  3  4  0
  1  2  1  0
M  END