2,3,4,5-Tetrachloroaniline
  SciTegic12150910513D

 11 11  0  0  0  0            999 V2000
   -2.1931    0.0769    0.4037 N   0  0  0  0  0  0  0  0  0  1  0  0
   -0.8456   -0.2761    0.3199 C   0  0  0  0  0  0  0  0  0  2  0  0
   -0.3601   -1.3483    1.0599 C   0  0  0  0  0  0  0  0  0  3  0  0
    0.9825   -1.6991    0.9756 C   0  0  0  0  0  0  0  0  0  4  0  0
    1.5872   -3.0311    1.8944 Cl  0  0  0  0  0  0  0  0  0  5  0  0
    1.8392   -0.9780    0.1517 C   0  0  0  0  0  0  0  0  0  6  0  0
    3.5072   -1.4141    0.0473 Cl  0  0  0  0  0  0  0  0  0  7  0  0
    1.3536    0.0940   -0.5880 C   0  0  0  0  0  0  0  0  0  8  0  0
    2.4180    0.9898   -1.6116 Cl  0  0  0  0  0  0  0  0  0  9  0  0
    0.0112    0.4449   -0.5039 C   0  0  0  0  0  0  0  0  0 10  0  0
   -0.5923    1.7769   -1.4232 Cl  0  0  0  0  0  0  0  0  0 11  0  0
 10 11  1  0
 10  2  4  0
  8 10  4  0
  8  9  1  0
  6  8  4  0
  6  7  1  0
  4  6  4  0
  4  5  1  0
  3  4  4  0
  2  3  4  0
  1  2  1  0
M  END