2,3,5,6-Tetrachloroaniline
  SciTegic12150910513D

 11 11  0  0  0  0            999 V2000
    0.7933   -0.8368   -2.3292 N   0  0  0  0  0  0  0  0  0  1  0  0
    1.1187   -0.5152   -1.0111 C   0  0  0  0  0  0  0  0  0  2  0  0
    2.4244   -0.6697   -0.5598 C   0  0  0  0  0  0  0  0  0  3  0  0
    3.6440   -1.2600   -1.6310 Cl  0  0  0  0  0  0  0  0  0  4  0  0
    2.7486   -0.3493    0.7535 C   0  0  0  0  0  0  0  0  0  5  0  0
    4.3716   -0.5418    1.3130 Cl  0  0  0  0  0  0  0  0  0  6  0  0
    1.7672    0.1259    1.6160 C   0  0  0  0  0  0  0  0  0  7  0  0
    0.4614    0.2804    1.1645 C   0  0  0  0  0  0  0  0  0  8  0  0
   -0.7591    0.8707    2.2350 Cl  0  0  0  0  0  0  0  0  0  9  0  0
    0.1372   -0.0401   -0.1489 C   0  0  0  0  0  0  0  0  0 10  0  0
   -1.4852    0.1521   -0.7094 Cl  0  0  0  0  0  0  0  0  0 11  0  0
 10 11  1  0
 10  2  4  0
  8 10  4  0
  8  9  1  0
  7  8  4  0
  5  7  4  0
  5  6  1  0
  3  5  4  0
  3  4  1  0
  2  3  4  0
  1  2  1  0
M  END