Ethyl acetate
  SciTegic12150910513D

  6  5  0  0  0  0            999 V2000
   -0.2783   -1.0134   -0.3027 O   0  0  0  0  0  0  0  0  0  1  0  0
    0.7089   -0.2878   -0.1392 C   0  0  0  0  0  0  0  0  0  2  0  0
    0.9864    0.2057    1.1686 O   0  0  0  0  0  0  0  0  0  3  0  0
    2.1494    1.0639    1.2560 C   0  0  0  0  0  0  0  0  0  4  0  0
    1.7673    2.5468    0.9775 C   0  0  0  0  0  0  0  0  0  5  0  0
    1.6101   -0.0058   -1.3256 C   0  0  0  0  0  0  0  0  0  6  0  0
  2  6  1  0
  4  5  1  0
  3  4  1  0
  2  3  1  0
  1  2  2  0
M  END