Dimethyl phthalate
  SciTegic12150910513D

 14 14  0  0  0  0            999 V2000
    1.3352   -1.3365    0.0129 O   0  0  0  0  0  0  0  0  0  1  0  0
    0.7986   -0.3337    0.4978 C   0  0  0  0  0  0  0  0  0  2  0  0
    0.8998   -0.1338    1.8572 O   0  0  0  0  0  0  0  0  0  3  0  0
    1.6514   -1.1971    2.4513 C   0  0  0  0  0  0  0  0  0  4  0  0
    0.0774    0.5903   -0.4333 C   0  0  0  0  0  0  0  0  0  5  0  0
   -0.5964    1.7777   -0.0905 C   0  0  0  0  0  0  0  0  0  6  0  0
   -1.2142    2.5132   -1.0985 C   0  0  0  0  0  0  0  0  0  7  0  0
   -1.1818    2.1063   -2.4248 C   0  0  0  0  0  0  0  0  0  8  0  0
   -0.5187    0.9376   -2.7623 C   0  0  0  0  0  0  0  0  0  9  0  0
   -0.7350    2.3684    1.2780 C   0  0  0  0  0  0  0  0  0 10  0  0
   -1.3666    3.4256    1.3877 O   0  0  0  0  0  0  0  0  0 11  0  0
   -0.2030    1.8063    2.4178 O   0  0  0  0  0  0  0  0  0 12  0  0
   -0.5163    2.6188    3.5535 C   0  0  0  0  0  0  0  0  0 13  0  0
    0.1017    0.1943   -1.7680 C   0  0  0  0  0  0  0  0  0 14  0  0
 14  9  4  0
  5 14  4  0
 12 13  1  0
 10 12  1  0
 10 11  2  0
  6 10  1  0
  8  9  4  0
  7  8  4  0
  6  7  4  0
  5  6  4  0
  2  5  1  0
  3  4  1  0
  2  3  1  0
  1  2  2  0
M  END