Diethyl phthalate
  SciTegic12150910513D

 16 16  0  0  0  0            999 V2000
    0.9391   -1.4963   -0.2564 O   0  0  0  0  0  0  0  0  0  1  0  0
    0.4967   -0.4357    0.2015 C   0  0  0  0  0  0  0  0  0  2  0  0
    0.4959   -0.2408    1.5787 O   0  0  0  0  0  0  0  0  0  3  0  0
    1.0863   -1.3463    2.2919 C   0  0  0  0  0  0  0  0  0  4  0  0
    2.6288   -1.3376    2.1401 C   0  0  0  0  0  0  0  0  0  5  0  0
   -0.0347    0.5635   -0.7787 C   0  0  0  0  0  0  0  0  0  6  0  0
   -0.5907    1.8239   -0.4882 C   0  0  0  0  0  0  0  0  0  7  0  0
   -1.0340    2.6196   -1.5413 C   0  0  0  0  0  0  0  0  0  8  0  0
   -0.9417    2.2036   -2.8620 C   0  0  0  0  0  0  0  0  0  9  0  0
   -0.3945    0.9635   -3.1479 C   0  0  0  0  0  0  0  0  0 10  0  0
   -0.7725    2.4395    0.8644 C   0  0  0  0  0  0  0  0  0 11  0  0
   -1.2771    3.5681    0.9084 O   0  0  0  0  0  0  0  0  0 12  0  0
   -0.3877    1.8231    2.0505 O   0  0  0  0  0  0  0  0  0 13  0  0
   -0.6974    2.6205    3.2114 C   0  0  0  0  0  0  0  0  0 14  0  0
   -2.2177    2.5873    3.5115 C   0  0  0  0  0  0  0  0  0 15  0  0
    0.0515    0.1595   -2.1084 C   0  0  0  0  0  0  0  0  0 16  0  0
 16 10  4  0
  6 16  4  0
 14 15  1  0
 13 14  1  0
 11 13  1  0
 11 12  2  0
  7 11  1  0
  9 10  4  0
  8  9  4  0
  7  8  4  0
  6  7  4  0
  2  6  1  0
  4  5  1  0
  3  4  1  0
  2  3  1  0
  1  2  2  0
M  END