Deltamethrin
  SciTegic12150910513D

 28 30  0  0  0  0            999 V2000
    4.2626    4.0217    0.9275 C   0  0  0  0  0  0  0  0  0  1  0  0
    2.8281    4.4355    1.3132 C   0  0  0  0  0  0  0  0  0  2  0  0
    2.2426    5.7282    0.7075 C   0  0  0  0  0  0  0  0  0  3  0  0
    2.2079    3.8926    2.6420 C   0  0  0  0  0  0  0  0  0  4  0  0
    2.4221    2.5121    3.2242 C   0  0  0  0  0  0  0  0  0  5  0  0
    2.8992    2.2647    4.4413 C   0  0  0  0  0  0  0  0  0  6  0  0
    2.9356    0.4662    5.0644 Br  0  0  0  0  0  0  0  0  0  7  0  0
    3.5123    3.6633    5.5626 Br  0  0  0  0  0  0  0  0  0  8  0  0
    1.9025    3.2859    1.2353 C   0  0  0  0  0  0  0  0  0  9  0  0
    0.4512    3.4275    0.9106 C   0  0  0  0  0  0  0  0  0 10  0  0
   -0.3162    4.2318    1.4525 O   0  0  0  0  0  0  0  0  0 11  0  0
    0.0567    2.4414    0.0590 O   0  0  0  0  0  0  0  0  0 12  0  0
   -1.2785    2.1656   -0.3644 C   0  0  0  0  0  0  0  0  0 13  0  0
   -2.0380    1.8737    0.8553 C   0  0  0  0  0  0  0  0  0 14  0  0
   -2.6353    1.6462    1.8126 N   0  0  0  0  0  0  0  0  0 15  0  0
   -0.7766    0.8910   -0.8529 C   0  0  0  0  0  0  0  0  0 16  0  0
   -0.4694    0.6123   -2.1769 C   0  0  0  0  0  0  0  0  0 17  0  0
    0.2098   -0.5684   -2.4660 C   0  0  0  0  0  0  0  0  0 18  0  0
    0.6769   -1.3809   -1.4377 C   0  0  0  0  0  0  0  0  0 19  0  0
    0.5023   -0.9975   -0.1183 C   0  0  0  0  0  0  0  0  0 20  0  0
    1.6390   -0.3494    0.2659 O   0  0  0  0  0  0  0  0  0 21  0  0
    2.5275   -0.8247    1.0692 C   0  0  0  0  0  0  0  0  0 22  0  0
    2.3780   -2.0204    1.7487 C   0  0  0  0  0  0  0  0  0 23  0  0
    3.3970   -2.4194    2.6032 C   0  0  0  0  0  0  0  0  0 24  0  0
    4.5368   -1.6344    2.7592 C   0  0  0  0  0  0  0  0  0 25  0  0
    4.6739   -0.4373    2.0694 C   0  0  0  0  0  0  0  0  0 26  0  0
    3.6567   -0.0343    1.2247 C   0  0  0  0  0  0  0  0  0 27  0  0
   -0.3014    0.0830    0.1512 C   0  0  0  0  0  0  0  0  0 28  0  0
 28 16  4  0
 20 28  4  0
 27 22  4  0
 26 27  4  0
 25 26  4  0
 24 25  4  0
 23 24  4  0
 22 23  4  0
 21 22  1  0
 20 21  1  0
 19 20  4  0
 18 19  4  0
 17 18  4  0
 16 17  4  0
 13 16  1  0
 14 15  3  0
 13 14  1  0
 12 13  1  0
 10 12  1  0
 10 11  2  0
  9 10  1  0
  9  2  1  0
  4  9  1  0
  6  8  1  0
  6  7  1  0
  5  6  2  0
  4  5  1  0
  2  4  1  0
  2  3  1  0
  1  2  1  0
M  END