Cypermethrin
  SciTegic12150910513D

 28 30  0  0  0  0            999 V2000
    5.0713    5.6680    0.1459 Cl  0  0  0  0  0  0  0  0  0  1  0  0
    3.5977    5.3879    0.9980 C   0  0  0  0  0  0  0  0  0  2  0  0
    2.2374    6.4245    0.7524 Cl  0  0  0  0  0  0  0  0  0  3  0  0
    3.4732    4.3568    1.8239 C   0  0  0  0  0  0  0  0  0  4  0  0
    2.1401    4.1690    2.4568 C   0  0  0  0  0  0  0  0  0  5  0  0
    2.0595    3.0953    3.5106 C   0  0  0  0  0  0  0  0  0  6  0  0
    0.8019    2.8595    4.3698 C   0  0  0  0  0  0  0  0  0  7  0  0
    3.3966    2.4986    3.9962 C   0  0  0  0  0  0  0  0  0  8  0  0
    1.7769    2.7273    2.0511 C   0  0  0  0  0  0  0  0  0  9  0  0
    0.4592    3.0084    1.4002 C   0  0  0  0  0  0  0  0  0 10  0  0
   -0.2450    3.9911    1.6605 O   0  0  0  0  0  0  0  0  0 11  0  0
    0.1303    2.0806    0.4860 O   0  0  0  0  0  0  0  0  0 12  0  0
   -1.0929    2.0758   -0.2289 C   0  0  0  0  0  0  0  0  0 13  0  0
   -2.1078    1.8114    0.7764 C   0  0  0  0  0  0  0  0  0 14  0  0
   -2.9113    1.6026    1.5722 N   0  0  0  0  0  0  0  0  0 15  0  0
   -0.7074    0.8117   -0.8216 C   0  0  0  0  0  0  0  0  0 16  0  0
   -0.6080    0.5979   -2.1887 C   0  0  0  0  0  0  0  0  0 17  0  0
   -0.0845   -0.6089   -2.6342 C   0  0  0  0  0  0  0  0  0 18  0  0
    0.4334   -1.5169   -1.7238 C   0  0  0  0  0  0  0  0  0 19  0  0
    0.4889   -1.2103   -0.3795 C   0  0  0  0  0  0  0  0  0 20  0  0
    1.7491   -0.6927   -0.2229 O   0  0  0  0  0  0  0  0  0 21  0  0
    2.5411   -0.9425    0.7968 C   0  0  0  0  0  0  0  0  0 22  0  0
    2.2836   -1.9242    1.7402 C   0  0  0  0  0  0  0  0  0 23  0  0
    3.2420   -2.1695    2.7161 C   0  0  0  0  0  0  0  0  0 24  0  0
    4.4254   -1.4362    2.7448 C   0  0  0  0  0  0  0  0  0 25  0  0
    4.6633   -0.4420    1.8053 C   0  0  0  0  0  0  0  0  0 26  0  0
    3.7170   -0.2059    0.8243 C   0  0  0  0  0  0  0  0  0 27  0  0
   -0.1852   -0.0986    0.0801 C   0  0  0  0  0  0  0  0  0 28  0  0
 28 16  4  0
 20 28  4  0
 27 22  4  0
 26 27  4  0
 25 26  4  0
 24 25  4  0
 23 24  4  0
 22 23  4  0
 21 22  1  0
 20 21  1  0
 19 20  4  0
 18 19  4  0
 17 18  4  0
 16 17  4  0
 13 16  1  0
 14 15  3  0
 13 14  1  0
 12 13  1  0
 10 12  1  0
 10 11  2  0
  9 10  1  0
  9  5  1  0
  6  9  1  0
  6  8  1  0
  6  7  1  0
  5  6  1  0
  4  5  1  0
  2  4  2  0
  2  3  1  0
  1  2  1  0
M  END