Permethrin
  SciTegic12150910513D

 26 28  0  0  0  0            999 V2000
   -1.8241    4.5768    2.7063 C   0  0  0  0  0  0  0  0  0  1  0  0
   -0.3874    4.9454    2.2722 C   0  0  0  0  0  0  0  0  0  2  0  0
   -0.0096    6.4439    2.2213 C   0  0  0  0  0  0  0  0  0  3  0  0
    0.7240    3.9641    2.6880 C   0  0  0  0  0  0  0  0  0  4  0  0
    1.9567    4.7919    2.9364 C   0  0  0  0  0  0  0  0  0  5  0  0
    2.8068    4.4564    3.9037 C   0  0  0  0  0  0  0  0  0  6  0  0
    2.4907    3.0749    4.8915 Cl  0  0  0  0  0  0  0  0  0  7  0  0
    4.2288    5.4018    4.1666 Cl  0  0  0  0  0  0  0  0  0  8  0  0
    0.2886    4.0869    1.1838 C   0  0  0  0  0  0  0  0  0  9  0  0
   -0.5933    2.9223    0.7704 C   0  0  0  0  0  0  0  0  0 10  0  0
   -0.9663    2.0659    1.5843 O   0  0  0  0  0  0  0  0  0 11  0  0
   -0.9241    2.8101   -0.5849 O   0  0  0  0  0  0  0  0  0 12  0  0
   -1.7204    1.6541   -0.9228 C   0  0  0  0  0  0  0  0  0 13  0  0
   -0.8755    0.4355   -1.2705 C   0  0  0  0  0  0  0  0  0 14  0  0
   -1.4134   -0.5277   -2.1142 C   0  0  0  0  0  0  0  0  0 15  0  0
   -0.6541   -1.6313   -2.4797 C   0  0  0  0  0  0  0  0  0 16  0  0
    0.6400   -1.7756   -1.9956 C   0  0  0  0  0  0  0  0  0 17  0  0
    1.1935   -0.8297   -1.1382 C   0  0  0  0  0  0  0  0  0 18  0  0
    2.5497   -1.0970   -0.6758 O   0  0  0  0  0  0  0  0  0 19  0  0
    3.2705   -0.2909    0.2988 C   0  0  0  0  0  0  0  0  0 20  0  0
    2.7537    0.8172    0.9665 C   0  0  0  0  0  0  0  0  0 21  0  0
    3.5159    1.5088    1.9001 C   0  0  0  0  0  0  0  0  0 22  0  0
    4.8124    1.1014    2.1828 C   0  0  0  0  0  0  0  0  0 23  0  0
    5.3405   -0.0015    1.5248 C   0  0  0  0  0  0  0  0  0 24  0  0
    4.5713   -0.6898    0.5935 C   0  0  0  0  0  0  0  0  0 25  0  0
    0.4218    0.2781   -0.7902 C   0  0  0  0  0  0  0  0  0 26  0  0
 26 14  4  0
 18 26  4  0
 25 20  4  0
 24 25  4  0
 23 24  4  0
 22 23  4  0
 21 22  4  0
 20 21  4  0
 19 20  1  0
 18 19  1  0
 17 18  4  0
 16 17  4  0
 15 16  4  0
 14 15  4  0
 13 14  1  0
 12 13  1  0
 10 12  1  0
 10 11  2  0
  9 10  1  0
  9  2  1  0
  4  9  1  0
  6  8  1  0
  6  7  1  0
  5  6  2  0
  4  5  1  0
  2  4  1  0
  2  3  1  0
  1  2  1  0
M  END