2-t-Butoxy ethanol
  SciTegic12150910513D

  8  7  0  0  0  0            999 V2000
    1.7815   -2.3513    0.2257 O   0  0  0  0  0  0  0  0  0  1  0  0
    2.0626   -1.0326   -0.2489 C   0  0  0  0  0  0  0  0  0  2  0  0
    0.7900   -0.1727   -0.1490 C   0  0  0  0  0  0  0  0  0  3  0  0
    0.3609   -0.1148    1.2212 O   0  0  0  0  0  0  0  0  0  4  0  0
   -0.8365    0.6782    1.3569 C   0  0  0  0  0  0  0  0  0  5  0  0
   -0.5747    2.1231    0.8784 C   0  0  0  0  0  0  0  0  0  6  0  0
   -1.2519    0.7075    2.8388 C   0  0  0  0  0  0  0  0  0  7  0  0
   -1.9810    0.0588    0.5251 C   0  0  0  0  0  0  0  0  0  8  0  0
  5  8  1  0
  5  7  1  0
  5  6  1  0
  4  5  1  0
  3  4  1  0
  2  3  1  0
  1  2  1  0
M  END