t-Butyl methyl ether
  SciTegic12150910513D

  6  5  0  0  0  0            999 V2000
   -0.3490   -0.0070   -0.2175 O   0  0  0  0  0  0  0  0  0  1  0  0
    1.0853   -0.0492   -0.0625 C   0  0  0  0  0  0  0  0  0  2  0  0
    1.4600    0.0284    1.4336 C   0  0  0  0  0  0  0  0  0  3  0  0
    1.7358    1.1297   -0.8188 C   0  0  0  0  0  0  0  0  0  4  0  0
    1.6141   -1.3727   -0.6449 C   0  0  0  0  0  0  0  0  0  5  0  0
   -0.8899    1.2146    0.3136 C   0  0  0  0  0  0  0  0  0  6  0  0
  1  6  1  0
  2  5  1  0
  2  4  1  0
  2  3  1  0
  1  2  1  0
M  END