t-Butyl isopropyl ether
  SciTegic12150910513D

  8  7  0  0  0  0            999 V2000
   -0.1624    0.0551   -0.3885 O   0  0  0  0  0  0  0  0  0  1  0  0
    1.2884   -0.2892   -0.1196 C   0  0  0  0  0  0  0  0  0  2  0  0
    1.6076   -0.5675    1.3703 C   0  0  0  0  0  0  0  0  0  3  0  0
    2.2978    0.7520   -0.6637 C   0  0  0  0  0  0  0  0  0  4  0  0
    1.5655   -1.6006   -0.8763 C   0  0  0  0  0  0  0  0  0  5  0  0
   -0.8468    1.2802    0.1741 C   0  0  0  0  0  0  0  0  0  6  0  0
   -0.4104    2.6639   -0.3775 C   0  0  0  0  0  0  0  0  0  7  0  0
   -1.1161    1.3147    1.7023 C   0  0  0  0  0  0  0  0  0  8  0  0
  6  8  1  0
  6  7  1  0
  1  6  1  0
  2  5  1  0
  2  4  1  0
  2  3  1  0
  1  2  1  0
M  END