2,4,6-Tribromoanisole
  SciTegic12150910513D

 11 11  0  0  0  0            999 V2000
    2.1605    0.2117    0.3913 O   0  0  0  0  0  0  0  0  0  1  0  0
    0.7577    0.5990    0.3792 C   0  0  0  0  0  0  0  0  0  2  0  0
    0.5430    1.9148    0.7839 C   0  0  0  0  0  0  0  0  0  3  0  0
   -0.7314    2.4627    0.8363 C   0  0  0  0  0  0  0  0  0  4  0  0
   -1.8240    1.6901    0.4794 C   0  0  0  0  0  0  0  0  0  5  0  0
   -1.6292    0.3781    0.0740 C   0  0  0  0  0  0  0  0  0  6  0  0
   -3.5769    2.4220    0.5445 Br  0  0  0  0  0  0  0  0  0  7  0  0
    2.0335    2.9858    1.2763 Br  0  0  0  0  0  0  0  0  0  8  0  0
   -0.3575   -0.1852    0.0163 C   0  0  0  0  0  0  0  0  0  9  0  0
   -0.3196   -2.0184   -0.5731 Br  0  0  0  0  0  0  0  0  0 10  0  0
    2.5441   -1.1031    0.0035 C   0  0  0  0  0  0  0  0  0 11  0  0
  1 11  1  0
  9 10  1  0
  9  6  4  0
  2  9  4  0
  3  8  1  0
  5  7  1  0
  5  6  4  0
  4  5  4  0
  3  4  4  0
  2  3  4  0
  1  2  1  0
M  END