Methoxychlor
  SciTegic12150910513D

 21 22  0  0  0  0            999 V2000
    2.0413    7.4708    0.7717 C   0  0  0  0  0  0  0  0  0  1  0  0
    1.5902    7.0021   -0.5084 O   0  0  0  0  0  0  0  0  0  2  0  0
    0.9919    5.7346   -0.4071 C   0  0  0  0  0  0  0  0  0  3  0  0
    0.8866    5.0893    0.8210 C   0  0  0  0  0  0  0  0  0  4  0  0
    0.2938    3.8350    0.9014 C   0  0  0  0  0  0  0  0  0  5  0  0
   -0.1948    3.2129   -0.2434 C   0  0  0  0  0  0  0  0  0  6  0  0
   -0.0899    3.8617   -1.4700 C   0  0  0  0  0  0  0  0  0  7  0  0
    0.5002    5.1177   -1.5516 C   0  0  0  0  0  0  0  0  0  8  0  0
   -0.8468    1.8333   -0.1840 C   0  0  0  0  0  0  0  0  0  9  0  0
    0.2686    0.7635   -0.0798 C   0  0  0  0  0  0  0  0  0 10  0  0
    1.4988    0.9986   -0.6878 C   0  0  0  0  0  0  0  0  0 11  0  0
    2.5227    0.0623   -0.6067 C   0  0  0  0  0  0  0  0  0 12  0  0
    2.3277   -1.1270    0.0878 C   0  0  0  0  0  0  0  0  0 13  0  0
    3.3503   -2.0861    0.1836 O   0  0  0  0  0  0  0  0  0 14  0  0
    4.5352   -1.6574   -0.5045 C   0  0  0  0  0  0  0  0  0 15  0  0
    1.1026   -1.3698    0.6961 C   0  0  0  0  0  0  0  0  0 16  0  0
    0.0822   -0.4297    0.6112 C   0  0  0  0  0  0  0  0  0 17  0  0
   -1.9542    1.6986    0.9421 C   0  0  0  0  0  0  0  0  0 18  0  0
   -2.8236    0.1539    0.8225 Cl  0  0  0  0  0  0  0  0  0 19  0  0
   -3.1404    2.9848    0.6944 Cl  0  0  0  0  0  0  0  0  0 20  0  0
   -1.2777    1.8460    2.5764 Cl  0  0  0  0  0  0  0  0  0 21  0  0
 18 21  1  0
 18 20  1  0
 18 19  1  0
  9 18  1  0
 17 10  4  0
 16 17  4  0
 13 16  4  0
 14 15  1  0
 13 14  1  0
 12 13  4  0
 11 12  4  0
 10 11  4  0
  9 10  1  0
  6  9  1  0
  8  3  4  0
  7  8  4  0
  6  7  4  0
  5  6  4  0
  4  5  4  0
  3  4  4  0
  2  3  1  0
  1  2  1  0
M  END