2,4,5-Trichlorodiphenyl ether
  SciTegic12150910513D

 16 17  0  0  0  0            999 V2000
   -1.5803    3.2025    0.1496 C   0  0  0  0  0  0  0  0  0  1  0  0
   -1.5701    4.5897    0.0572 C   0  0  0  0  0  0  0  0  0  2  0  0
   -0.3725    5.2648   -0.1403 C   0  0  0  0  0  0  0  0  0  3  0  0
    0.8105    4.5449   -0.2445 C   0  0  0  0  0  0  0  0  0  4  0  0
    0.7908    3.1581   -0.1509 C   0  0  0  0  0  0  0  0  0  5  0  0
   -0.4034    2.4666    0.0473 C   0  0  0  0  0  0  0  0  0  6  0  0
   -0.5325    1.0185    0.1589 O   0  0  0  0  0  0  0  0  0  7  0  0
    0.5748    0.0732    0.0791 C   0  0  0  0  0  0  0  0  0  8  0  0
    0.2466   -1.2730    0.2097 C   0  0  0  0  0  0  0  0  0  9  0  0
   -1.4026   -1.7259    0.4510 Cl  0  0  0  0  0  0  0  0  0 10  0  0
    1.2272   -2.2569    0.1487 C   0  0  0  0  0  0  0  0  0 11  0  0
    2.5561   -1.9041   -0.0449 C   0  0  0  0  0  0  0  0  0 12  0  0
    3.7769   -3.1239   -0.1212 Cl  0  0  0  0  0  0  0  0  0 13  0  0
    2.8988   -0.5653   -0.1769 C   0  0  0  0  0  0  0  0  0 14  0  0
    4.5489   -0.1151   -0.4181 Cl  0  0  0  0  0  0  0  0  0 15  0  0
    1.9130    0.4123   -0.1148 C   0  0  0  0  0  0  0  0  0 16  0  0
 16  8  4  0
 14 16  4  0
 14 15  1  0
 12 14  4  0
 12 13  1  0
 11 12  4  0
  9 11  4  0
  9 10  1  0
  8  9  4  0
  7  8  1  0
  6  7  1  0
  6  1  4  0
  5  6  4  0
  4  5  4  0
  3  4  4  0
  2  3  4  0
  1  2  4  0
M  END