3,3',4,4'-Tetrachlorodiphenyl ether
  SciTegic12150910513D

 17 18  0  0  0  0            999 V2000
   -1.1948    6.9509    1.6794 Cl  0  0  0  0  0  0  0  0  0  1  0  0
   -0.2878    5.7241    0.8691 C   0  0  0  0  0  0  0  0  0  2  0  0
    0.7944    6.0736    0.0725 C   0  0  0  0  0  0  0  0  0  3  0  0
    1.5183    5.0822   -0.5766 C   0  0  0  0  0  0  0  0  0  4  0  0
    1.1568    3.7486   -0.4262 C   0  0  0  0  0  0  0  0  0  5  0  0
    0.0729    3.3812    0.3705 C   0  0  0  0  0  0  0  0  0  6  0  0
   -0.6414    4.3873    1.0142 C   0  0  0  0  0  0  0  0  0  7  0  0
   -0.3864    2.0148    0.5938 O   0  0  0  0  0  0  0  0  0  8  0  0
    0.2167    0.8247    0.0043 C   0  0  0  0  0  0  0  0  0  9  0  0
    1.3091    0.8186   -0.8621 C   0  0  0  0  0  0  0  0  0 10  0  0
    1.8114   -0.3712   -1.3752 C   0  0  0  0  0  0  0  0  0 11  0  0
    1.2239   -1.5800   -1.0261 C   0  0  0  0  0  0  0  0  0 12  0  0
    0.1352   -1.5909   -0.1643 C   0  0  0  0  0  0  0  0  0 13  0  0
   -0.3607   -0.3953    0.3436 C   0  0  0  0  0  0  0  0  0 14  0  0
    1.8445   -3.0618   -1.6615 Cl  0  0  0  0  0  0  0  0  0 15  0  0
    3.1654   -0.3466   -2.4475 Cl  0  0  0  0  0  0  0  0  0 16  0  0
    1.2371    7.7335   -0.1099 Cl  0  0  0  0  0  0  0  0  0 17  0  0
  3 17  1  0
 11 16  1  0
 12 15  1  0
 14  9  4  0
 13 14  4  0
 12 13  4  0
 11 12  4  0
 10 11  4  0
  9 10  4  0
  8  9  1  0
  6  8  1  0
  7  2  4  0
  6  7  4  0
  5  6  4  0
  4  5  4  0
  3  4  4  0
  2  3  4  0
  1  2  1  0
M  END