2-Methyl-4,6-Dinitrophenol
  SciTegic12150910513D

 14 14  0  0  0  0            999 V2000
    2.1299   -1.3113   -0.1736 N   0  0  0  0  0  0  0  0  0  1  0  0
    3.0918   -1.0862    0.4639 O   0  0  0  0  0  0  0  0  0  2  0  0
    1.5623   -2.0063   -0.9333 O   0  0  0  0  0  0  0  0  0  3  0  0
    1.2488   -0.2612    0.0995 C   0  0  0  0  0  0  0  0  0  4  0  0
    1.6214    0.7499    0.9767 C   0  0  0  0  0  0  0  0  0  5  0  0
    0.7540    1.8006    1.2570 C   0  0  0  0  0  0  0  0  0  6  0  0
    1.1908    2.8055    2.1623 N   0  0  0  0  0  0  0  0  0  7  0  0
    2.2730    2.4747    2.4811 O   0  0  0  0  0  0  0  0  0  8  0  0
    0.3244    3.5894    2.2612 O   0  0  0  0  0  0  0  0  0  9  0  0
   -0.5026    1.8333    0.6471 C   0  0  0  0  0  0  0  0  0 10  0  0
   -1.4110    2.8630    0.8925 O   0  0  0  0  0  0  0  0  0 11  0  0
   -0.8727    0.8198   -0.2305 C   0  0  0  0  0  0  0  0  0 12  0  0
   -2.2222    0.8564   -0.8845 C   0  0  0  0  0  0  0  0  0 13  0  0
   -0.0008   -0.2261   -0.5053 C   0  0  0  0  0  0  0  0  0 14  0  0
 14 12  4  0
  4 14  4  0
 12 13  1  0
 10 12  4  0
 10 11  1  0
  6 10  4  0
  7  9  2  0
  7  8  2  0
  6  7  1  0
  5  6  4  0
  4  5  4  0
  1  4  1  0
  1  3  2  0
  1  2  2  0
M  END