2-Nitroaniline
  DSViewer          3D                             0

 10 10  0  0  0  0  0  0  0  0999 V2000
    1.6169   -0.3457    0.6862 N   0  0  0  0  0  0  0  0  0  1
    2.0646    0.1097    1.6696 O   0  0  0  0  0  0  0  0  0  2
    1.6409   -1.2131   -0.1072 O   0  0  0  0  0  0  0  0  0  3
    0.5843    0.5266    0.2423 C   0  0  0  0  0  0  0  0  0  4
    0.2391    1.6955    0.9263 C   0  0  0  0  0  0  0  0  0  5
    0.8939    2.0843    2.1015 N   0  0  0  0  0  0  0  0  0  6
   -0.7809    2.5059    0.4391 C   0  0  0  0  0  0  0  0  0  7
   -1.4605    2.1629   -0.7231 C   0  0  0  0  0  0  0  0  0  8
   -1.1194    1.0019   -1.4046 C   0  0  0  0  0  0  0  0  0  9
   -0.1009    0.1898   -0.9210 C   0  0  0  0  0  0  0  0  0 10
 10  9  4  0  0  0
  4 10  4  0  0  0
  8  9  4  0  0  0
  7  8  4  0  0  0
  5  7  4  0  0  0
  5  6  1  0  0  0
  4  5  4  0  0  0
  1  4  1  0  0  0
  1  3  2  0  0  0
  1  2  2  0  0  0
M  END