3-Nitroaniline
  DSViewer          3D                             0

 10 10  0  0  0  0  0  0  0  0999 V2000
    2.0192   -0.5763    0.3341 N   0  0  0  0  0  0  0  0  0  1
    2.7660   -0.1997    1.1603 O   0  0  0  0  0  0  0  0  0  2
    1.7391   -1.3697   -0.4871 O   0  0  0  0  0  0  0  0  0  3
    0.9762    0.3552    0.3226 C   0  0  0  0  0  0  0  0  0  4
    1.0027    1.4402    1.1919 C   0  0  0  0  0  0  0  0  0  5
   -0.0341    2.3663    1.1806 C   0  0  0  0  0  0  0  0  0  6
   -1.0980    2.2077    0.2998 C   0  0  0  0  0  0  0  0  0  7
   -1.1248    1.1230   -0.5695 C   0  0  0  0  0  0  0  0  0  8
   -2.1928    0.9636   -1.4538 N   0  0  0  0  0  0  0  0  0  9
   -0.0880    0.1970   -0.5582 C   0  0  0  0  0  0  0  0  0 10
 10  8  4  0  0  0
  4 10  4  0  0  0
  8  9  1  0  0  0
  7  8  4  0  0  0
  6  7  4  0  0  0
  5  6  4  0  0  0
  4  5  4  0  0  0
  1  4  1  0  0  0
  1  3  2  0  0  0
  1  2  2  0  0  0
M  END