2-Nitrophenol
  SciTegic12150910513D

 10 10  0  0  0  0            999 V2000
    1.6153   -0.3457    0.6861 N   0  0  0  0  0  0  0  0  0  1  0  0
    2.0612    0.1111    1.6697 O   0  0  0  0  0  0  0  0  0  2  0  0
    1.6402   -1.2133   -0.1070 O   0  0  0  0  0  0  0  0  0  3  0  0
    0.5838    0.5261    0.2415 C   0  0  0  0  0  0  0  0  0  4  0  0
    0.2400    1.6944    0.9267 C   0  0  0  0  0  0  0  0  0  5  0  0
    0.8940    2.0783    2.0977 O   0  0  0  0  0  0  0  0  0  6  0  0
   -0.7791    2.5066    0.4407 C   0  0  0  0  0  0  0  0  0  7  0  0
   -1.4591    2.1653   -0.7219 C   0  0  0  0  0  0  0  0  0  8  0  0
   -1.1192    1.0047   -1.4047 C   0  0  0  0  0  0  0  0  0  9  0  0
   -0.1016    0.1908   -0.9221 C   0  0  0  0  0  0  0  0  0 10  0  0
 10  9  4  0
  4 10  4  0
  8  9  4  0
  7  8  4  0
  5  7  4  0
  5  6  1  0
  4  5  4  0
  1  4  1  0
  1  3  2  0
  1  2  2  0
M  END