2,4,5-Trichloronitrobenzene
  DSViewer          3D                             0

 12 12  0  0  0  0  0  0  0  0999 V2000
    3.0267    0.6043    0.9622 O   0  0  0  0  0  0  0  0  0  1
    2.3310    0.0445    0.2060 N   0  0  0  0  0  0  0  0  0  2
    2.2324   -0.7935   -0.6127 O   0  0  0  0  0  0  0  0  0  3
    1.0244    0.6116    0.3042 C   0  0  0  0  0  0  0  0  0  4
    0.6967    1.6574    1.1764 C   0  0  0  0  0  0  0  0  0  5
   -0.6052    2.1473    1.2036 C   0  0  0  0  0  0  0  0  0  6
   -1.5831    1.6112    0.3760 C   0  0  0  0  0  0  0  0  0  7
   -1.2608    0.5750   -0.4889 C   0  0  0  0  0  0  0  0  0  8
   -2.4704   -0.0983   -1.5222 Cl  0  0  0  0  0  0  0  0  0  9
   -3.1947    2.2313    0.4225 Cl  0  0  0  0  0  0  0  0  0 10
    1.8529    2.3920    2.2493 Cl  0  0  0  0  0  0  0  0  0 11
    0.0370    0.0813   -0.5211 C   0  0  0  0  0  0  0  0  0 12
 12  8  4  0  0  0
  4 12  4  0  0  0
  5 11  1  0  0  0
  7 10  1  0  0  0
  8  9  1  0  0  0
  7  8  4  0  0  0
  6  7  4  0  0  0
  5  6  4  0  0  0
  4  5  4  0  0  0
  2  4  1  0  0  0
  2  3  2  0  0  0
  1  2  2  0  0  0
M  END