2,3,4,5-Tetrachloronitrobenzene
  DSViewer          3D                             0

 13 13  0  0  0  0  0  0  0  0999 V2000
   -2.4655    0.2013    0.4181 Cl  0  0  0  0  0  0  0  0  0  1
   -0.8012   -0.2412    0.2837 C   0  0  0  0  0  0  0  0  0  2
   -0.4485   -1.4737   -0.2504 C   0  0  0  0  0  0  0  0  0  3
    0.8874   -1.8462   -0.3660 C   0  0  0  0  0  0  0  0  0  4
    1.1607   -3.1307   -0.9262 N   0  0  0  0  0  0  0  0  0  5
    0.1025   -3.5832   -1.1666 O   0  0  0  0  0  0  0  0  0  6
    2.3214   -3.2770   -0.9479 O   0  0  0  0  0  0  0  0  0  7
    1.8833   -0.9605    0.0645 C   0  0  0  0  0  0  0  0  0  8
    3.5814   -1.3259   -0.0344 Cl  0  0  0  0  0  0  0  0  0  9
    1.5241    0.2728    0.5987 C   0  0  0  0  0  0  0  0  0 10
    2.7522    1.3651    1.1296 Cl  0  0  0  0  0  0  0  0  0 11
    0.1877    0.6341    0.7093 C   0  0  0  0  0  0  0  0  0 12
   -0.2420    2.1690    1.3748 Cl  0  0  0  0  0  0  0  0  0 13
 12 13  1  0  0  0
 12  2  4  0  0  0
 10 12  4  0  0  0
 10 11  1  0  0  0
  8 10  4  0  0  0
  8  9  1  0  0  0
  4  8  4  0  0  0
  5  7  2  0  0  0
  5  6  2  0  0  0
  4  5  1  0  0  0
  3  4  4  0  0  0
  2  3  4  0  0  0
  1  2  1  0  0  0
M  END