2,5-Dichloronitrobenzene
  SciTegic12150910513D

 11 11  0  0  0  0            999 V2000
    2.2273   -0.0007    1.6552 O   0  0  0  0  0  0  0  0  0  1  0  0
    1.6662   -0.3954    0.7073 N   0  0  0  0  0  0  0  0  0  2  0  0
    1.5724   -1.2388   -0.1064 O   0  0  0  0  0  0  0  0  0  3  0  0
    0.6429    0.5438    0.3764 C   0  0  0  0  0  0  0  0  0  4  0  0
    0.4031    1.7172    1.1024 C   0  0  0  0  0  0  0  0  0  5  0  0
   -0.6180    2.5746    0.7051 C   0  0  0  0  0  0  0  0  0  6  0  0
   -1.4027    2.2812   -0.4027 C   0  0  0  0  0  0  0  0  0  7  0  0
   -1.1665    1.1188   -1.1233 C   0  0  0  0  0  0  0  0  0  8  0  0
   -2.1358    0.7429   -2.5032 Cl  0  0  0  0  0  0  0  0  0  9  0  0
    1.3319    2.1698    2.5025 Cl  0  0  0  0  0  0  0  0  0 10  0  0
   -0.1487    0.2583   -0.7323 C   0  0  0  0  0  0  0  0  0 11  0  0
 11  8  4  0
  4 11  4  0
  5 10  1  0
  8  9  1  0
  7  8  4  0
  6  7  4  0
  5  6  4  0
  4  5  4  0
  2  4  1  0
  2  3  2  0
  1  2  2  0
M  END