3,4-Dichloronitrobenzene
  DSViewer          3D                             0

 11 11  0  0  0  0  0  0  0  0999 V2000
    2.3271   -0.5957   -0.0591 N   0  0  0  0  0  0  0  0  0  1
    3.1693   -0.2948    0.7040 O   0  0  0  0  0  0  0  0  0  2
    1.9720   -1.2653   -0.9579 O   0  0  0  0  0  0  0  0  0  3
    1.2386    0.2282    0.2438 C   0  0  0  0  0  0  0  0  0  4
    1.3328    1.1538    1.2773 C   0  0  0  0  0  0  0  0  0  5
    0.2508    1.9729    1.5786 C   0  0  0  0  0  0  0  0  0  6
   -0.9260    1.8665    0.8461 C   0  0  0  0  0  0  0  0  0  7
   -1.0207    0.9414   -0.1872 C   0  0  0  0  0  0  0  0  0  8
   -2.4836    0.8101   -1.0967 Cl  0  0  0  0  0  0  0  0  0  9
   -2.2715    2.8838    1.2194 Cl  0  0  0  0  0  0  0  0  0 10
    0.0612    0.1223   -0.4885 C   0  0  0  0  0  0  0  0  0 11
 11  8  4  0  0  0
  4 11  4  0  0  0
  7 10  1  0  0  0
  8  9  1  0  0  0
  7  8  4  0  0  0
  6  7  4  0  0  0
  5  6  4  0  0  0
  4  5  4  0  0  0
  1  4  1  0  0  0
  1  3  2  0  0  0
  1  2  2  0  0  0
M  END