2-Chloronitrobenzene
  DSViewer          3D                             0

 10 10  0  0  0  0  0  0  0  0999 V2000
    1.9969    0.0853    1.7272 O   0  0  0  0  0  0  0  0  0  1
    1.5981   -0.3492    0.7165 N   0  0  0  0  0  0  0  0  0  2
    1.6673   -1.2036   -0.0881 O   0  0  0  0  0  0  0  0  0  3
    0.5806    0.5266    0.2298 C   0  0  0  0  0  0  0  0  0  4
    0.1759    1.6903    0.8956 C   0  0  0  0  0  0  0  0  0  5
   -0.8253    2.4839    0.3447 C   0  0  0  0  0  0  0  0  0  6
   -1.4282    2.1361   -0.8574 C   0  0  0  0  0  0  0  0  0  7
   -1.0287    0.9832   -1.5190 C   0  0  0  0  0  0  0  0  0  8
    0.8711    2.2077    2.4044 Cl  0  0  0  0  0  0  0  0  0  9
   -0.0296    0.1866   -0.9741 C   0  0  0  0  0  0  0  0  0 10
 10  8  4  0  0  0
  4 10  4  0  0  0
  5  9  1  0  0  0
  7  8  4  0  0  0
  6  7  4  0  0  0
  5  6  4  0  0  0
  4  5  4  0  0  0
  2  4  1  0  0  0
  2  3  2  0  0  0
  1  2  2  0  0  0
M  END