2,3-Dichloronitrobenzene
  DSViewer          3D                             0

 11 11  0  0  0  0  0  0  0  0999 V2000
    1.9658   -0.0501    1.8238 O   0  0  0  0  0  0  0  0  0  1
    1.3558   -0.6293    1.0105 N   0  0  0  0  0  0  0  0  0  2
    1.1048   -1.6651    0.5141 O   0  0  0  0  0  0  0  0  0  3
    0.5612    0.3179    0.2960 C   0  0  0  0  0  0  0  0  0  4
    0.5580    1.6911    0.5709 C   0  0  0  0  0  0  0  0  0  5
   -0.2494    2.5414   -0.1779 C   0  0  0  0  0  0  0  0  0  6
   -1.0526    2.0422   -1.1955 C   0  0  0  0  0  0  0  0  0  7
   -1.0517    0.6818   -1.4702 C   0  0  0  0  0  0  0  0  0  8
   -0.2525    4.2351    0.1620 Cl  0  0  0  0  0  0  0  0  0  9
    1.5293    2.4073    1.8242 Cl  0  0  0  0  0  0  0  0  0 10
   -0.2474   -0.1713   -0.7256 C   0  0  0  0  0  0  0  0  0 11
 11  8  4  0  0  0
  4 11  4  0  0  0
  5 10  1  0  0  0
  6  9  1  0  0  0
  7  8  4  0  0  0
  6  7  4  0  0  0
  5  6  4  0  0  0
  4  5  4  0  0  0
  2  4  1  0  0  0
  2  3  2  0  0  0
  1  2  2  0  0  0
M  END