2,3,4-Trichloronitrobenzene
  SciTegic12150910513D

 12 12  0  0  0  0            999 V2000
   -1.8687    0.6396   -1.6295 Cl  0  0  0  0  0  0  0  0  0  1  0  0
   -0.3923    0.0244   -0.9768 C   0  0  0  0  0  0  0  0  0  2  0  0
    0.4962   -0.6629   -1.7918 C   0  0  0  0  0  0  0  0  0  3  0  0
    1.6809   -1.1539   -1.2586 C   0  0  0  0  0  0  0  0  0  4  0  0
    1.9923   -0.9671    0.0850 C   0  0  0  0  0  0  0  0  0  5  0  0
    3.2309   -1.5051    0.5490 N   0  0  0  0  0  0  0  0  0  6  0  0
    3.7114   -2.0097   -0.3980 O   0  0  0  0  0  0  0  0  0  7  0  0
    3.3288   -1.2581    1.6886 O   0  0  0  0  0  0  0  0  0  8  0  0
    1.0934   -0.2731    0.9044 C   0  0  0  0  0  0  0  0  0  9  0  0
    1.3837    0.0161    2.5952 Cl  0  0  0  0  0  0  0  0  0 10  0  0
   -0.0919    0.2168    0.3655 C   0  0  0  0  0  0  0  0  0 11  0  0
   -1.2009    1.0728    1.3759 Cl  0  0  0  0  0  0  0  0  0 12  0  0
 11 12  1  0
 11  2  4  0
  9 11  4  0
  9 10  1  0
  5  9  4  0
  6  8  2  0
  6  7  2  0
  5  6  1  0
  4  5  4  0
  3  4  4  0
  2  3  4  0
  1  2  1  0
M  END