Pentachloronitrobenzene
  SciTegic12150910513D

 14 14  0  0  0  0            999 V2000
    2.9121    0.2346    1.3508 O   0  0  0  0  0  0  0  0  0  1  0  0
    2.1746   -0.4143    0.7190 N   0  0  0  0  0  0  0  0  0  2  0  0
    2.0141   -1.4629    0.2305 O   0  0  0  0  0  0  0  0  0  3  0  0
    0.9885    0.4074    0.4248 C   0  0  0  0  0  0  0  0  0  4  0  0
    0.8941    1.7309    0.8881 C   0  0  0  0  0  0  0  0  0  5  0  0
   -0.2292    2.4991    0.6055 C   0  0  0  0  0  0  0  0  0  6  0  0
   -1.2742    1.9749   -0.1367 C   0  0  0  0  0  0  0  0  0  7  0  0
   -1.1956    0.6723   -0.6000 C   0  0  0  0  0  0  0  0  0  8  0  0
   -2.4964    0.0139   -1.5261 Cl  0  0  0  0  0  0  0  0  0  9  0  0
   -2.6654    2.9386   -0.4818 Cl  0  0  0  0  0  0  0  0  0 10  0  0
   -0.3225    4.1232    1.1856 Cl  0  0  0  0  0  0  0  0  0 11  0  0
    2.1371    2.5085    1.8304 Cl  0  0  0  0  0  0  0  0  0 12  0  0
   -0.0801   -0.1105   -0.3271 C   0  0  0  0  0  0  0  0  0 13  0  0
   -0.1059   -1.7313   -0.9674 Cl  0  0  0  0  0  0  0  0  0 14  0  0
 13 14  1  0
 13  8  4  0
  4 13  4  0
  5 12  1  0
  6 11  1  0
  7 10  1  0
  8  9  1  0
  7  8  4  0
  6  7  4  0
  5  6  4  0
  4  5  4  0
  2  4  1  0
  2  3  2  0
  1  2  2  0
M  END