2,4,6-Trichloronitrobenzene
  SciTegic12150910513D

 12 12  0  0  0  0            999 V2000
    2.7688    0.3194    1.2538 O   0  0  0  0  0  0  0  0  0  1  0  0
    2.0598   -0.3035    0.5658 N   0  0  0  0  0  0  0  0  0  2  0  0
    1.9668   -1.2869   -0.0575 O   0  0  0  0  0  0  0  0  0  3  0  0
    0.7938    0.4371    0.4328 C   0  0  0  0  0  0  0  0  0  4  0  0
    0.6083    1.6717    1.0790 C   0  0  0  0  0  0  0  0  0  5  0  0
   -0.5904    2.3630    0.9472 C   0  0  0  0  0  0  0  0  0  6  0  0
   -1.6226    1.8507    0.1790 C   0  0  0  0  0  0  0  0  0  7  0  0
   -1.4530    0.6354   -0.4630 C   0  0  0  0  0  0  0  0  0  8  0  0
   -3.1077    2.7196    0.0230 Cl  0  0  0  0  0  0  0  0  0  9  0  0
    1.8248    2.4262    2.0736 Cl  0  0  0  0  0  0  0  0  0 10  0  0
   -0.2619   -0.0713   -0.3437 C   0  0  0  0  0  0  0  0  0 11  0  0
   -0.1786   -1.5863   -1.2017 Cl  0  0  0  0  0  0  0  0  0 12  0  0
 11 12  1  0
 11  8  4  0
  4 11  4  0
  5 10  1  0
  7  9  1  0
  7  8  4  0
  6  7  4  0
  5  6  4  0
  4  5  4  0
  2  4  1  0
  2  3  2  0
  1  2  2  0
M  END