2,3,5,6-Tetrachloronitrobenzene
  SciTegic12150910513D

 13 13  0  0  0  0            999 V2000
   -2.6320    0.0599    0.4897 Cl  0  0  0  0  0  0  0  0  0  1  0  0
   -0.9909   -0.3196    0.1069 C   0  0  0  0  0  0  0  0  0  2  0  0
   -0.7114   -1.3849   -0.7331 C   0  0  0  0  0  0  0  0  0  3  0  0
    0.6068   -1.6837   -1.0359 C   0  0  0  0  0  0  0  0  0  4  0  0
    0.9643   -3.0105   -2.0826 Cl  0  0  0  0  0  0  0  0  0  5  0  0
    1.6459   -0.9274   -0.5064 C   0  0  0  0  0  0  0  0  0  6  0  0
    3.2564   -1.4092   -0.9667 Cl  0  0  0  0  0  0  0  0  0  7  0  0
    1.3770    0.1561    0.3471 C   0  0  0  0  0  0  0  0  0  8  0  0
    2.4709    0.9633    0.9130 N   0  0  0  0  0  0  0  0  0  9  0  0
    3.4797    0.5256    0.5194 O   0  0  0  0  0  0  0  0  0 10  0  0
    1.9944    1.7937    1.5818 O   0  0  0  0  0  0  0  0  0 11  0  0
    0.0351    0.4478    0.6457 C   0  0  0  0  0  0  0  0  0 12  0  0
   -0.4530    1.7579    1.6865 Cl  0  0  0  0  0  0  0  0  0 13  0  0
 12 13  1  0
 12  2  4  0
  8 12  4  0
  9 11  2  0
  9 10  2  0
  8  9  1  0
  6  8  4  0
  6  7  1  0
  4  6  4  0
  4  5  1  0
  3  4  4  0
  2  3  4  0
  1  2  1  0
M  END