IBP
  SciTegic12150910513D

 16 16  0  0  0  0            999 V2000
   -1.2767    4.3584    1.4206 O   0  0  0  0  0  0  0  0  0  1  0  0
    0.0710    4.0746    1.3290 P   0  0  0  0  0  0  0  0  0  2  0  0
    0.5745    3.5571    2.6981 O   0  0  0  0  0  0  0  0  0  3  0  0
    1.9705    3.2550    2.6023 C   0  0  0  0  0  0  0  0  0  4  0  0
    2.4668    2.6848    3.9416 C   0  0  0  0  0  0  0  0  0  5  0  0
    0.8588    5.3908    0.9798 O   0  0  0  0  0  0  0  0  0  6  0  0
    0.3469    6.0795   -0.1878 C   0  0  0  0  0  0  0  0  0  7  0  0
    0.7771    5.4063   -1.5062 C   0  0  0  0  0  0  0  0  0  8  0  0
    0.3552    2.6588    0.0424 S   0  0  0  0  0  0  0  0  0  9  0  0
   -0.5554    1.1849    0.5629 C   0  0  0  0  0  0  0  0  0 10  0  0
   -0.2037    0.0487   -0.3443 C   0  0  0  0  0  0  0  0  0 11  0  0
    0.6753    0.2542   -1.4018 C   0  0  0  0  0  0  0  0  0 12  0  0
    1.0112   -0.8020   -2.2407 C   0  0  0  0  0  0  0  0  0 13  0  0
    0.4692   -2.0635   -2.0207 C   0  0  0  0  0  0  0  0  0 14  0  0
   -0.4092   -2.2685   -0.9625 C   0  0  0  0  0  0  0  0  0 15  0  0
   -0.7458   -1.2121   -0.1236 C   0  0  0  0  0  0  0  0  0 16  0  0
 16 11  4  0
 15 16  4  0
 14 15  4  0
 13 14  4  0
 12 13  4  0
 11 12  4  0
 10 11  1  0
  9 10  1  0
  2  9  1  0
  7  8  1  0
  6  7  1  0
  2  6  1  0
  4  5  1  0
  3  4  1  0
  2  3  1  0
  1  2  2  0
M  END