Diazinon
  SciTegic12150910513D

 19 19  0  0  0  0            999 V2000
    1.3536   -0.8804    1.2329 O   0  0  0  0  0  0  0  0  0  1  0  0
    0.0685   -0.1338    0.7149 P   0  0  0  0  0  0  0  0  0  2  0  0
    0.0133   -0.2971   -0.8476 O   0  0  0  0  0  0  0  0  0  3  0  0
   -1.2960    0.0056   -1.4091 C   0  0  0  0  0  0  0  0  0  4  0  0
   -1.6610    1.5040   -1.3380 C   0  0  0  0  0  0  0  0  0  5  0  0
    0.0890    1.3840    1.1085 O   0  0  0  0  0  0  0  0  0  6  0  0
    1.2435    2.0074    0.6053 C   0  0  0  0  0  0  0  0  0  7  0  0
    2.1435    1.3027   -0.0660 N   0  0  0  0  0  0  0  0  0  8  0  0
    3.2456    1.8743   -0.5404 C   0  0  0  0  0  0  0  0  0  9  0  0
    3.4763    3.1697   -0.3593 N   0  0  0  0  0  0  0  0  0 10  0  0
    2.6119    3.9295    0.3027 C   0  0  0  0  0  0  0  0  0 11  0  0
    2.8874    5.3908    0.4978 C   0  0  0  0  0  0  0  0  0 12  0  0
    4.2420    1.0395   -1.2842 C   0  0  0  0  0  0  0  0  0 13  0  0
    3.6034   -0.2128   -1.9112 C   0  0  0  0  0  0  0  0  0 14  0  0
    5.0909    1.8710   -2.2624 C   0  0  0  0  0  0  0  0  0 15  0  0
    1.4540    3.3627    0.8145 C   0  0  0  0  0  0  0  0  0 16  0  0
   -1.3072   -0.8968    1.3839 S   0  0  0  0  0  0  0  0  0 17  0  0
    1.3352   -1.1399    2.6638 C   0  0  0  0  0  0  0  0  0 18  0  0
    1.4913    0.1362    3.5160 C   0  0  0  0  0  0  0  0  0 19  0  0
 18 19  1  0
  1 18  1  0
  2 17  2  0
 16 11  4  0
  7 16  4  0
 13 15  1  0
 13 14  1  0
  9 13  1  0
 11 12  1  0
 10 11  4  0
  9 10  4  0
  8  9  4  0
  7  8  4  0
  6  7  1  0
  2  6  1  0
  4  5  1  0
  3  4  1  0
  2  3  1  0
  1  2  1  0
M  END