Disulfoton
  SciTegic12150910513D

 14 13  0  0  0  0            999 V2000
    1.9634    1.5215   -2.0365 C   0  0  0  0  0  0  0  0  0  1  0  0
    2.5469    0.5024   -1.0347 C   0  0  0  0  0  0  0  0  0  2  0  0
    2.5467    0.9924    0.3318 O   0  0  0  0  0  0  0  0  0  3  0  0
    1.1254    0.9537    1.0119 P   0  0  0  0  0  0  0  0  0  4  0  0
    0.0577    2.1093    0.3381 S   0  0  0  0  0  0  0  0  0  5  0  0
    1.2349    1.2395    2.5507 O   0  0  0  0  0  0  0  0  0  6  0  0
    1.6123    2.6061    2.8461 C   0  0  0  0  0  0  0  0  0  7  0  0
    3.0965    2.8873    2.5289 C   0  0  0  0  0  0  0  0  0  8  0  0
    0.4200   -0.8357    0.7833 S   0  0  0  0  0  0  0  0  0  9  0  0
   -1.1716   -1.0380    1.6342 C   0  0  0  0  0  0  0  0  0 10  0  0
   -2.2394   -0.1257    1.0071 C   0  0  0  0  0  0  0  0  0 11  0  0
   -2.4090   -0.5258   -0.7486 S   0  0  0  0  0  0  0  0  0 12  0  0
   -2.8918   -2.2603   -0.9284 C   0  0  0  0  0  0  0  0  0 13  0  0
   -3.0261   -2.6027   -2.4232 C   0  0  0  0  0  0  0  0  0 14  0  0
 13 14  1  0
 12 13  1  0
 11 12  1  0
 10 11  1  0
  9 10  1  0
  4  9  1  0
  7  8  1  0
  6  7  1  0
  4  6  1  0
  4  5  2  0
  3  4  1  0
  2  3  1  0
  1  2  1  0
M  END