Fenthion
  SciTegic12150910513D

 16 16  0  0  0  0            999 V2000
    1.9958    3.6507   -0.4510 C   0  0  0  0  0  0  0  0  0  1  0  0
    0.7334    3.9663   -1.0611 O   0  0  0  0  0  0  0  0  0  2  0  0
   -0.4559    2.9458   -0.7687 P   0  0  0  0  0  0  0  0  0  3  0  0
   -1.8117    3.5751   -1.5968 S   0  0  0  0  0  0  0  0  0  4  0  0
   -0.8303    2.8948    0.7450 O   0  0  0  0  0  0  0  0  0  5  0  0
   -1.2369    4.1941    1.1993 C   0  0  0  0  0  0  0  0  0  6  0  0
   -0.2039    1.4937   -1.3855 O   0  0  0  0  0  0  0  0  0  7  0  0
    0.5072    0.5109   -0.6211 C   0  0  0  0  0  0  0  0  0  8  0  0
    0.7447   -0.7268   -1.2102 C   0  0  0  0  0  0  0  0  0  9  0  0
    1.4233   -1.7223   -0.5165 C   0  0  0  0  0  0  0  0  0 10  0  0
    1.8676   -1.4868    0.7788 C   0  0  0  0  0  0  0  0  0 11  0  0
    2.7332   -2.7517    1.6648 S   0  0  0  0  0  0  0  0  0 12  0  0
    2.9199   -4.2078    0.6072 C   0  0  0  0  0  0  0  0  0 13  0  0
    1.6301   -0.2558    1.3769 C   0  0  0  0  0  0  0  0  0 14  0  0
    2.1052    0.0043    2.7756 C   0  0  0  0  0  0  0  0  0 15  0  0
    0.9520    0.7358    0.6782 C   0  0  0  0  0  0  0  0  0 16  0  0
 16  8  4  0
 14 16  4  0
 14 15  1  0
 11 14  4  0
 12 13  1  0
 11 12  1  0
 10 11  4  0
  9 10  4  0
  8  9  4  0
  7  8  1  0
  3  7  1  0
  5  6  1  0
  3  5  1  0
  3  4  2  0
  2  3  1  0
  1  2  1  0
M  END