EPN
  SciTegic12150910513D

 21 22  0  0  0  0            999 V2000
    1.7036    5.5522    0.7527 C   0  0  0  0  0  0  0  0  0  1  0  0
    1.5668    4.3230    1.6756 C   0  0  0  0  0  0  0  0  0  2  0  0
    1.5509    3.0644    0.9393 O   0  0  0  0  0  0  0  0  0  3  0  0
    0.1603    2.7192    0.2607 P   0  0  2  0  0  0  0  0  0  4  0  0
   -0.2686    3.8638   -0.9354 S   0  0  0  0  0  0  0  0  0  5  0  0
   -1.0299    2.7068    1.3070 O   0  0  0  0  0  0  0  0  0  6  0  0
   -0.8961    1.8552    2.4503 C   0  0  0  0  0  0  0  0  0  7  0  0
    0.2326    1.0723    2.6788 C   0  0  0  0  0  0  0  0  0  8  0  0
    0.3199    0.2700    3.8099 C   0  0  0  0  0  0  0  0  0  9  0  0
   -0.7248    0.2459    4.7261 C   0  0  0  0  0  0  0  0  0 10  0  0
   -1.8541    1.0249    4.5056 C   0  0  0  0  0  0  0  0  0 11  0  0
   -1.9369    1.8258    3.3723 C   0  0  0  0  0  0  0  0  0 12  0  0
   -0.6387   -0.5583    5.8672 N   0  0  0  0  0  0  0  0  0 13  0  0
   -1.6442   -0.3823    6.4506 O   0  0  0  0  0  0  0  0  0 14  0  0
    0.4055   -1.0937    5.7950 O   0  0  0  0  0  0  0  0  0 15  0  0
    0.2579    1.2932   -0.5233 C   0  0  0  0  0  0  0  0  0 16  0  0
   -0.8648    0.7757   -1.1594 C   0  0  0  0  0  0  0  0  0 17  0  0
   -0.7838   -0.4367   -1.8345 C   0  0  0  0  0  0  0  0  0 18  0  0
    0.4201   -1.1312   -1.8738 C   0  0  0  0  0  0  0  0  0 19  0  0
    1.5434   -0.6126   -1.2393 C   0  0  0  0  0  0  0  0  0 20  0  0
    1.4630    0.6005   -0.5654 C   0  0  0  0  0  0  0  0  0 21  0  0
 21 16  4  0
 20 21  4  0
 19 20  4  0
 18 19  4  0
 17 18  4  0
 16 17  4  0
  4 16  1  0
 13 15  2  0
 13 14  2  0
 10 13  1  0
 12  7  4  0
 11 12  4  0
 10 11  4  0
  9 10  4  0
  8  9  4  0
  7  8  4  0
  6  7  1  0
  4  6  1  0
  4  5  2  0
  3  4  1  0
  2  3  1  0
  1  2  1  0
M  END