Chlorpyriphos
  SciTegic12150910513D

 18 18  0  0  0  0            999 V2000
    0.8927    5.5313   -1.8371 C   0  0  0  0  0  0  0  0  0  1  0  0
    1.5101    4.6882   -0.7014 C   0  0  0  0  0  0  0  0  0  2  0  0
    1.1389    3.2804   -0.7765 O   0  0  0  0  0  0  0  0  0  3  0  0
   -0.3152    2.9463   -0.2378 P   0  0  0  0  0  0  0  0  0  4  0  0
   -1.5170    3.6942   -1.1977 S   0  0  0  0  0  0  0  0  0  5  0  0
   -0.5319    3.4875    1.2441 O   0  0  0  0  0  0  0  0  0  6  0  0
    0.3568    2.9491    2.2400 C   0  0  0  0  0  0  0  0  0  7  0  0
    0.0212    3.5622    3.6097 C   0  0  0  0  0  0  0  0  0  8  0  0
   -0.5906    1.3913   -0.3615 O   0  0  0  0  0  0  0  0  0  9  0  0
    0.5050    0.5480   -0.0663 C   0  0  0  0  0  0  0  0  0 10  0  0
    1.6923    1.0536    0.2558 N   0  0  0  0  0  0  0  0  0 11  0  0
    2.7357    0.2780    0.5308 C   0  0  0  0  0  0  0  0  0 12  0  0
    4.2516    0.9960    0.9420 Cl  0  0  0  0  0  0  0  0  0 13  0  0
    2.6155   -1.1057    0.4892 C   0  0  0  0  0  0  0  0  0 14  0  0
    3.9746   -2.1102    0.8475 Cl  0  0  0  0  0  0  0  0  0 15  0  0
    1.3933   -1.6719    0.1564 C   0  0  0  0  0  0  0  0  0 16  0  0
    0.3270   -0.8290   -0.1252 C   0  0  0  0  0  0  0  0  0 17  0  0
   -1.2137   -1.4868   -0.5458 Cl  0  0  0  0  0  0  0  0  0 18  0  0
 17 18  1  0
 17 10  4  0
 16 17  4  0
 14 16  4  0
 14 15  1  0
 12 14  4  0
 12 13  1  0
 11 12  4  0
 10 11  4  0
  9 10  1  0
  4  9  1  0
  7  8  1  0
  6  7  1  0
  4  6  1  0
  4  5  2  0
  3  4  1  0
  2  3  1  0
  1  2  1  0
M  END