Leptophos
  SciTegic12150910513D

 20 21  0  0  0  0            999 V2000
   -0.3239    4.2005    0.7500 C   0  0  0  0  0  0  0  0  0  1  0  0
   -0.0612    2.9291    1.3740 O   0  0  0  0  0  0  0  0  0  2  0  0
   -0.9810    1.8032    0.7850 P   0  0  2  0  0  0  0  0  0  3  0  0
   -2.5897    2.3779    0.7506 S   0  0  0  0  0  0  0  0  0  4  0  0
   -1.0046    0.5504    1.7455 O   0  0  0  0  0  0  0  0  0  5  0  0
    0.2450   -0.0651    2.0387 C   0  0  0  0  0  0  0  0  0  6  0  0
    1.4523    0.4028    1.5288 C   0  0  0  0  0  0  0  0  0  7  0  0
    2.6462   -0.2356    1.8417 C   0  0  0  0  0  0  0  0  0  8  0  0
    4.1355    0.3530    1.1949 Cl  0  0  0  0  0  0  0  0  0  9  0  0
    2.6403   -1.3484    2.6732 C   0  0  0  0  0  0  0  0  0 10  0  0
    4.2711   -2.2250    3.1020 Br  0  0  0  0  0  0  0  0  0 11  0  0
    1.4394   -1.8187    3.1901 C   0  0  0  0  0  0  0  0  0 12  0  0
    0.2471   -1.1780    2.8729 C   0  0  0  0  0  0  0  0  0 13  0  0
   -1.2430   -1.7667    3.5178 Cl  0  0  0  0  0  0  0  0  0 14  0  0
   -0.5917    1.3353   -0.7568 C   0  0  0  0  0  0  0  0  0 15  0  0
    0.5317    1.8341   -1.4123 C   0  0  0  0  0  0  0  0  0 16  0  0
    0.8372    1.4153   -2.7018 C   0  0  0  0  0  0  0  0  0 17  0  0
    0.0207    0.4914   -3.3427 C   0  0  0  0  0  0  0  0  0 18  0  0
   -1.0999   -0.0114   -2.6920 C   0  0  0  0  0  0  0  0  0 19  0  0
   -1.4041    0.4096   -1.4024 C   0  0  0  0  0  0  0  0  0 20  0  0
 20 15  4  0
 19 20  4  0
 18 19  4  0
 17 18  4  0
 16 17  4  0
 15 16  4  0
  3 15  1  0
 13 14  1  0
 13  6  4  0
 12 13  4  0
 10 12  4  0
 10 11  1  0
  8 10  4  0
  8  9  1  0
  7  8  4  0
  6  7  4  0
  5  6  1  0
  3  5  1  0
  3  4  2  0
  2  3  1  0
  1  2  1  0
M  END