5-Bromoindole
  SciTegic12150910513D

 10 11  0  0  0  0            999 V2000
   -2.3583    1.7264    1.0814 Br  0  0  0  0  0  0  0  0  0  1  0  0
   -0.6024    1.2768    0.5094 C   0  0  0  0  0  0  0  0  0  2  0  0
    0.2361    2.2755    0.0026 C   0  0  0  0  0  0  0  0  0  3  0  0
    1.5308    1.9833   -0.4268 C   0  0  0  0  0  0  0  0  0  4  0  0
    1.9456    0.6647   -0.3284 C   0  0  0  0  0  0  0  0  0  5  0  0
    3.1136    0.1340   -0.6642 N   0  0  0  0  0  0  0  0  0  6  0  0
    3.0617   -1.1759   -0.3925 C   0  0  0  0  0  0  0  0  0  7  0  0
    1.8127   -1.5083    0.1400 C   0  0  0  0  0  0  0  0  0  8  0  0
    1.1232   -0.3112    0.1680 C   0  0  0  0  0  0  0  0  0  9  0  0
   -0.1659   -0.0447    0.6002 C   0  0  0  0  0  0  0  0  0 10  0  0
 10  2  4  0
  9 10  4  0
  9  5  4  0
  8  9  4  0
  7  8  4  0
  6  7  4  0
  5  6  4  0
  4  5  4  0
  3  4  4  0
  2  3  4  0
  1  2  1  0
M  END