Carbaryl
  SciTegic12150910513D

 15 16  0  0  0  0            999 V2000
    2.1171   -0.5620   -2.3204 O   0  0  0  0  0  0  0  0  0  1  0  0
    1.8658   -0.0048   -1.2463 C   0  0  0  0  0  0  0  0  0  2  0  0
    0.6823   -0.4889   -0.5302 O   0  0  0  0  0  0  0  0  0  3  0  0
   -0.1721    0.2255    0.4263 C   0  0  0  0  0  0  0  0  0  4  0  0
   -0.4243    1.6096    0.4699 C   0  0  0  0  0  0  0  0  0  5  0  0
   -1.2831    2.1232    1.4441 C   0  0  0  0  0  0  0  0  0  6  0  0
   -1.5571    3.4853    1.5054 C   0  0  0  0  0  0  0  0  0  7  0  0
   -0.9908    4.3602    0.5888 C   0  0  0  0  0  0  0  0  0  8  0  0
   -0.1557    3.8621   -0.4006 C   0  0  0  0  0  0  0  0  0  9  0  0
   -1.8977    1.2845    2.3636 C   0  0  0  0  0  0  0  0  0 10  0  0
   -1.6780   -0.0822    2.3045 C   0  0  0  0  0  0  0  0  0 11  0  0
    0.1162    2.5006   -0.4554 C   0  0  0  0  0  0  0  0  0 12  0  0
   -0.8306   -0.5980    1.3347 C   0  0  0  0  0  0  0  0  0 13  0  0
    2.8313    0.9996   -0.8142 N   0  0  0  0  0  0  0  0  0 14  0  0
    2.9562    1.5879    0.5132 C   0  0  0  0  0  0  0  0  0 15  0  0
 14 15  1  0
  2 14  1  0
 13 11  4  0
  4 13  4  0
 12  9  4  0
  5 12  4  0
 10 11  4  0
  6 10  4  0
  8  9  4  0
  7  8  4  0
  6  7  4  0
  5  6  4  0
  4  5  4  0
  3  4  1  0
  2  3  1  0
  1  2  2  0
M  END