Molinate
  SciTegic12150910513D

 12 12  0  0  0  0            999 V2000
    1.3484    3.0192    1.7711 C   0  0  0  0  0  0  0  0  0  1  0  0
    2.2540    2.0265    1.0173 C   0  0  0  0  0  0  0  0  0  2  0  0
    1.5906    0.3471    1.1668 S   0  0  0  0  0  0  0  0  0  3  0  0
   -0.0108    0.2506    0.4098 C   0  0  0  0  0  0  0  0  0  4  0  0
   -0.5198    1.2551   -0.0991 O   0  0  0  0  0  0  0  0  0  5  0  0
   -0.6913   -0.9758    0.3765 N   0  0  0  0  0  0  0  0  0  6  0  0
   -1.9690   -1.1000   -0.2158 C   0  0  0  0  0  0  0  0  0  7  0  0
   -1.8591   -1.1763   -1.7383 C   0  0  0  0  0  0  0  0  0  8  0  0
   -0.7278   -2.1396   -2.1998 C   0  0  0  0  0  0  0  0  0  9  0  0
   -0.5418   -3.3986   -1.3014 C   0  0  0  0  0  0  0  0  0 10  0  0
    0.4355   -3.0909   -0.1122 C   0  0  0  0  0  0  0  0  0 11  0  0
   -0.1366   -2.1388    0.9690 C   0  0  0  0  0  0  0  0  0 12  0  0
 12  6  1  0
 11 12  1  0
 10 11  1  0
  9 10  1  0
  8  9  1  0
  7  8  1  0
  6  7  1  0
  4  6  1  0
  4  5  2  0
  3  4  1  0
  2  3  1  0
  1  2  1  0
M  END