Acrylonitrile
  SciTegic12150910513D

  4  3  0  0  0  0            999 V2000
    1.2153   -0.0719    0.0005 C   0  0  0  0  0  0  0  0  0  1  0  0
    2.3663   -0.0722   -0.0013 N   0  0  0  0  0  0  0  0  0  2  0  0
   -0.2089   -0.0714    0.0027 C   0  0  0  0  0  0  0  0  0  3  0  0
   -0.8738    1.0819   -0.0001 C   0  0  0  0  0  0  0  0  0  4  0  0
  3  4  2  0
  1  3  1  0
  1  2  3  0
M  END