Lindane
  SciTegic12150910513D

 12 12  0  0  0  0            999 V2000
    0.4505    1.1062    1.3182 C   0  0  0  0  0  0  0  0  0  1  0  0
    0.2150    2.5285    1.6268 C   0  0  0  0  0  0  0  0  0  2  0  0
    1.0936    3.3055    0.5079 C   0  0  0  0  0  0  0  0  0  3  0  0
    1.2999    2.5379   -0.9164 C   0  0  0  0  0  0  0  0  0  4  0  0
    0.0086    1.8782   -1.2519 C   0  0  0  0  0  0  0  0  0  5  0  0
   -1.2084    3.1689   -1.2323 Cl  0  0  0  0  0  0  0  0  0  6  0  0
    2.5523    1.2651   -0.8767 Cl  0  0  0  0  0  0  0  0  0  7  0  0
    2.7522    3.5690    1.0528 Cl  0  0  0  0  0  0  0  0  0  8  0  0
   -1.5386    2.7790    1.5458 Cl  0  0  0  0  0  0  0  0  0  9  0  0
   -0.1784    0.7432   -0.1240 C   0  0  0  0  0  0  0  0  0 10  0  0
   -1.9020    0.3419   -0.1075 Cl  0  0  0  0  0  0  0  0  0 11  0  0
   -0.1645   -0.0312    2.5201 Cl  0  0  0  0  0  0  0  0  0 12  0  0
  1 12  1  0
 10 11  1  0
 10  5  1  0
  1 10  1  0
  2  9  1  0
  3  8  1  0
  4  7  1  0
  5  6  1  0
  4  5  1  0
  3  4  1  0
  2  3  1  0
  1  2  1  0
M  END