beta-BHC
  SciTegic12150910513D

 12 12  0  0  0  0            999 V2000
    0.4880    1.0934    1.3007 C   0  0  0  0  0  0  0  0  0  1  0  0
    0.2517    2.5093    1.6370 C   0  0  0  0  0  0  0  0  0  2  0  0
    1.0886    3.3089    0.5022 C   0  0  0  0  0  0  0  0  0  3  0  0
    1.2554    2.5633   -0.9387 C   0  0  0  0  0  0  0  0  0  4  0  0
   -0.0409    1.8981   -1.2428 C   0  0  0  0  0  0  0  0  0  5  0  0
   -1.2663    3.1787   -1.1663 Cl  0  0  0  0  0  0  0  0  0  6  0  0
    2.5179    1.2999   -0.9569 Cl  0  0  0  0  0  0  0  0  0  7  0  0
    2.7616    3.5778    0.9983 Cl  0  0  0  0  0  0  0  0  0  8  0  0
   -1.5054    2.7470    1.6150 Cl  0  0  0  0  0  0  0  0  0  9  0  0
   -0.1836    0.7459   -0.1260 C   0  0  0  0  0  0  0  0  0 10  0  0
   -1.9028    0.3307   -0.0609 Cl  0  0  0  0  0  0  0  0  0 11  0  0
   -0.0801   -0.0657    2.5050 Cl  0  0  0  0  0  0  0  0  0 12  0  0
  1 12  1  0
 10 11  1  0
 10  5  1  0
  1 10  1  0
  2  9  1  0
  3  8  1  0
  4  7  1  0
  5  6  1  0
  4  5  1  0
  3  4  1  0
  2  3  1  0
  1  2  1  0
M  END