alpha-BHC
  SciTegic12150910513D

 12 12  0  0  0  0            999 V2000
    0.2450    0.5733    0.8524 C   0  0  0  0  0  0  0  0  0  1  0  0
    0.6675    1.9685    1.5113 C   0  0  0  0  0  0  0  0  0  2  0  0
    0.7899    3.1421    0.4350 C   0  0  0  0  0  0  0  0  0  3  0  0
    1.3712    2.5626   -0.7940 C   0  0  0  0  0  0  0  0  0  4  0  0
    0.2176    1.5905   -1.3709 C   0  0  0  0  0  0  0  0  0  5  0  0
   -0.9589    2.4451   -2.3726 Cl  0  0  0  0  0  0  0  0  0  6  0  0
    2.8672    1.7342   -0.2902 Cl  0  0  0  0  0  0  0  0  0  7  0  0
    1.7282    4.4554    1.1502 Cl  0  0  0  0  0  0  0  0  0  8  0  0
   -0.4667    2.5690    2.7303 Cl  0  0  0  0  0  0  0  0  0  9  0  0
   -0.6854    0.8315   -0.2733 C   0  0  0  0  0  0  0  0  0 10  0  0
   -2.0403    1.8009    0.3512 Cl  0  0  0  0  0  0  0  0  0 11  0  0
   -0.3627   -0.4961    2.1190 Cl  0  0  0  0  0  0  0  0  0 12  0  0
  1 12  1  0
 10 11  1  0
 10  5  1  0
  1 10  1  0
  2  9  1  0
  3  8  1  0
  4  7  1  0
  5  6  1  0
  4  5  1  0
  3  4  1  0
  2  3  1  0
  1  2  1  0
M  END