Hexachlorocyclopentadiene
  SciTegic12150910513D

 11 11  0  0  0  0            999 V2000
   -0.0921    2.7261    0.2982 C   0  0  0  0  0  0  0  0  0  1  0  0
   -0.7019    2.1088    1.3046 C   0  0  0  0  0  0  0  0  0  2  0  0
   -0.7886    0.6966    1.0169 C   0  0  0  0  0  0  0  0  0  3  0  0
   -0.2315    0.4535   -0.1648 C   0  0  0  0  0  0  0  0  0  4  0  0
   -0.1180   -1.1070   -0.8969 Cl  0  0  0  0  0  0  0  0  0  5  0  0
   -1.5041   -0.4910    2.0473 Cl  0  0  0  0  0  0  0  0  0  6  0  0
   -1.2975    2.8760    2.7332 Cl  0  0  0  0  0  0  0  0  0  7  0  0
    0.2897    1.7345   -0.7799 C   0  0  0  0  0  0  0  0  0  8  0  0
    2.0310    1.6868   -1.0702 Cl  0  0  0  0  0  0  0  0  0  9  0  0
   -0.4687    2.0975   -2.3330 Cl  0  0  0  0  0  0  0  0  0 10  0  0
    0.2213    4.4235    0.2297 Cl  0  0  0  0  0  0  0  0  0 11  0  0
  1 11  1  0
  8 10  1  0
  8  9  1  0
  8  4  1  0
  1  8  1  0
  2  7  1  0
  3  6  1  0
  4  5  1  0
  3  4  2  0
  2  3  1  0
  1  2  2  0
M  END