Xanthene
  SciTegic12150910513D

 14 16  0  0  0  0            999 V2000
    1.9241   -0.0928    0.2223 O   0  0  0  0  0  0  0  0  0  1  0  0
    2.0923    1.1091   -0.3839 C   0  0  0  0  0  0  0  0  0  2  0  0
    1.0113    1.8121   -0.9069 C   0  0  0  0  0  0  0  0  0  3  0  0
    1.2193    3.0418   -1.5220 C   0  0  0  0  0  0  0  0  0  4  0  0
    2.5008    3.5712   -1.6166 C   0  0  0  0  0  0  0  0  0  5  0  0
    3.5801    2.8692   -1.0943 C   0  0  0  0  0  0  0  0  0  6  0  0
   -0.3864    1.2707   -0.8227 C   0  0  0  0  0  0  0  0  0  7  0  0
   -0.4444   -0.0613   -0.1326 C   0  0  0  0  0  0  0  0  0  8  0  0
   -1.6775   -0.6860    0.0189 C   0  0  0  0  0  0  0  0  0  9  0  0
   -1.7659   -1.9195    0.6530 C   0  0  0  0  0  0  0  0  0 10  0  0
   -0.6172   -2.5323    1.1384 C   0  0  0  0  0  0  0  0  0 11  0  0
    0.6159   -1.9093    0.9879 C   0  0  0  0  0  0  0  0  0 12  0  0
    3.3740    1.6401   -0.4793 C   0  0  0  0  0  0  0  0  0 13  0  0
    0.7059   -0.6751    0.3536 C   0  0  0  0  0  0  0  0  0 14  0  0
 14 12  4  0
 14  8  4  0
  1 14  1  0
 13  6  4  0
  2 13  4  0
 11 12  4  0
 10 11  4  0
  9 10  4  0
  8  9  4  0
  7  8  1  0
  3  7  1  0
  5  6  4  0
  4  5  4  0
  3  4  4  0
  2  3  4  0
  1  2  1  0
M  END