Dieldrin
  SciTegic12150910513D

 19 23  0  0  0  0            999 V2000
    0.3700   -1.9252   -0.1666 Cl  0  0  0  0  0  0  0  0  0  1  0  0
   -0.0487   -0.3593    0.4265 C   0  0  0  0  0  0  0  0  0  2  0  0
   -0.0175    0.0172    1.6864 C   0  0  0  0  0  0  0  0  0  3  0  0
    0.4495   -0.9726    3.0212 Cl  0  0  0  0  0  0  0  0  0  4  0  0
   -0.4791    1.4345    1.7737 C   0  0  1  0  0  0  0  0  0  5  0  0
   -0.9082    1.9302    3.4121 Cl  0  0  0  0  0  0  0  0  0  6  0  0
    0.4799    2.4600    1.0437 C   0  0  0  0  0  0  0  0  0  7  0  0
    2.0083    2.6003    1.3774 C   0  0  0  0  0  0  0  0  0  8  0  0
    2.6092    1.4420    0.5086 C   0  0  0  0  0  0  0  0  0  9  0  0
    1.9534    1.9423   -0.8245 C   0  0  0  0  0  0  0  0  0 10  0  0
    2.4726    3.3992   -0.8436 C   0  0  0  0  0  0  0  0  0 11  0  0
    3.7531    3.5037   -0.1360 O   0  0  0  0  0  0  0  0  0 12  0  0
    2.5078    3.8219    0.5708 C   0  0  0  0  0  0  0  0  0 13  0  0
    0.4439    2.0289   -0.3990 C   0  0  0  0  0  0  0  0  0 14  0  0
   -0.5333    0.7842   -0.4023 C   0  0  1  0  0  0  0  0  0 15  0  0
   -1.0437    0.3061   -2.0226 Cl  0  0  0  0  0  0  0  0  0 16  0  0
   -1.5749    1.3557    0.6387 C   0  0  0  0  0  0  0  0  0 17  0  0
   -2.8278    0.1727    1.0235 Cl  0  0  0  0  0  0  0  0  0 18  0  0
   -2.3066    2.9006    0.1953 Cl  0  0  0  0  0  0  0  0  0 19  0  0
 17 19  1  0
 17 18  1  0
 17  5  1  0
 15 17  1  0
 15 16  1  0
 15  2  1  0
 14 15  1  0
 14  7  1  0
 10 14  1  0
 13 11  1  0
 13  8  1  0
 12 13  1  0
 11 12  1  0
 10 11  1  0
  9 10  1  0
  8  9  1  0
  7  8  1  0
  5  7  1  0
  5  6  1  0
  3  5  1  0
  3  4  1  0
  2  3  2  0
  1  2  1  0
M  END