Heptachlor
  SciTegic12150910513D

 17 19  0  0  0  0            999 V2000
    0.2837    4.5244   -1.6291 Cl  0  0  0  0  0  0  0  0  0  1  0  0
   -0.2696    3.3989   -0.3867 C   0  0  0  0  0  0  0  0  0  2  0  0
   -0.4097    3.8390    1.0560 C   0  0  0  0  0  0  0  0  0  3  0  0
   -1.2794    3.0176    1.6845 C   0  0  0  0  0  0  0  0  0  4  0  0
   -1.9556    2.1074    0.6664 C   0  0  0  0  0  0  0  0  0  5  0  0
   -1.5817    2.6834   -0.6266 C   0  0  0  0  0  0  0  0  0  6  0  0
   -1.4204    1.4470   -1.5514 C   0  0  1  0  0  0  0  0  0  7  0  0
   -1.3555    1.8279   -3.2737 Cl  0  0  0  0  0  0  0  0  0  8  0  0
   -0.2415    0.6282   -1.0586 C   0  0  0  0  0  0  0  0  0  9  0  0
   -0.5075    0.1407    0.1415 C   0  0  0  0  0  0  0  0  0 10  0  0
    0.5323   -0.8693    1.0784 Cl  0  0  0  0  0  0  0  0  0 11  0  0
   -1.8652    0.5804    0.5248 C   0  0  1  0  0  0  0  0  0 12  0  0
   -2.5814   -0.3213    1.8625 Cl  0  0  0  0  0  0  0  0  0 13  0  0
   -2.5472    0.5438   -0.9264 C   0  0  0  0  0  0  0  0  0 14  0  0
   -4.1715    1.2333   -1.0025 Cl  0  0  0  0  0  0  0  0  0 15  0  0
   -2.5408   -1.0846   -1.6084 Cl  0  0  0  0  0  0  0  0  0 16  0  0
    1.2182    0.3559   -1.9408 Cl  0  0  0  0  0  0  0  0  0 17  0  0
  9 17  1  0
 14 16  1  0
 14 15  1  0
 14  7  1  0
 12 14  1  0
 12 13  1  0
 12  5  1  0
 10 12  1  0
 10 11  1  0
  9 10  2  0
  7  9  1  0
  7  8  1  0
  6  7  1  0
  6  2  1  0
  5  6  1  0
  4  5  1  0
  3  4  2  0
  2  3  1  0
  1  2  1  0
M  END