p,p'-DDE
  SciTegic12150910513D

 18 19  0  0  0  0            999 V2000
    1.8161    4.1118    0.4120 Cl  0  0  0  0  0  0  0  0  0  1  0  0
    0.2629    3.3380    0.5592 C   0  0  0  0  0  0  0  0  0  2  0  0
   -1.0031    4.4847    0.8991 Cl  0  0  0  0  0  0  0  0  0  3  0  0
    0.0580    1.9772    0.4193 C   0  0  0  0  0  0  0  0  0  4  0  0
   -1.4195    1.3646    0.5957 C   0  0  0  0  0  0  0  0  0  5  0  0
   -1.7206    0.0420    0.2662 C   0  0  0  0  0  0  0  0  0  6  0  0
   -2.9947   -0.4928    0.4127 C   0  0  0  0  0  0  0  0  0  7  0  0
   -4.0231    0.2972    0.9035 C   0  0  0  0  0  0  0  0  0  8  0  0
   -5.6121   -0.3539    1.0926 Cl  0  0  0  0  0  0  0  0  0  9  0  0
   -3.7599    1.6160    1.2400 C   0  0  0  0  0  0  0  0  0 10  0  0
   -2.4770    2.1287    1.0829 C   0  0  0  0  0  0  0  0  0 11  0  0
    1.2969    1.0057    0.0825 C   0  0  0  0  0  0  0  0  0 12  0  0
    2.5588    1.5055   -0.2295 C   0  0  0  0  0  0  0  0  0 13  0  0
    3.6405    0.6799   -0.5156 C   0  0  0  0  0  0  0  0  0 14  0  0
    3.4837   -0.6973   -0.4938 C   0  0  0  0  0  0  0  0  0 15  0  0
    4.8186   -1.7362   -0.8455 Cl  0  0  0  0  0  0  0  0  0 16  0  0
    2.2417   -1.2306   -0.1850 C   0  0  0  0  0  0  0  0  0 17  0  0
    1.1759   -0.3848    0.0966 C   0  0  0  0  0  0  0  0  0 18  0  0
 18 12  4  0
 17 18  4  0
 15 17  4  0
 15 16  1  0
 14 15  4  0
 13 14  4  0
 12 13  4  0
  4 12  1  0
 11  5  4  0
 10 11  4  0
  8 10  4  0
  8  9  1  0
  7  8  4  0
  6  7  4  0
  5  6  4  0
  4  5  1  0
  2  4  2  0
  2  3  1  0
  1  2  1  0
M  END