./000061-82-5.hin
 OpenBabel10051109203D

 10 10  0  0  0  0  0  0  0  0999 V2000
   -1.0922   -0.7375    0.0000 C   0  0  0  0  0  0  0  0  0  0  0  0
   -1.1398    0.6096    0.0000 N   0  0  0  0  0  0  0  0  0  0  0  0
    0.2362   -1.1697    0.0000 N   0  0  0  0  0  0  0  0  0  0  0  0
    1.0847   -0.1313    0.0000 N   0  0  0  0  0  0  0  0  0  0  0  0
    0.2491    0.9854   -0.0000 C   0  0  0  0  0  0  0  0  0  0  0  0
    0.6759    2.2936   -0.0000 N   0  0  0  0  0  0  0  0  0  0  0  0
   -1.9537   -1.4131    0.0000 H   0  0  0  0  0  0  0  0  0  0  0  0
    0.5876   -2.0960   -0.0000 H   0  0  0  0  0  0  0  0  0  0  0  0
    1.6414    2.4901    0.0000 H   0  0  0  0  0  0  0  0  0  0  0  0
    0.0080    3.0185    0.0000 H   0  0  0  0  0  0  0  0  0  0  0  0
  1  2  2  0  0  0  0
  1  3  1  0  0  0  0
  1  7  1  0  0  0  0
  2  5  1  0  0  0  0
  3  4  1  0  0  0  0
  3  8  1  0  0  0  0
  4  5  2  0  0  0  0
  5  6  1  0  0  0  0
  6  9  1  0  0  0  0
  6 10  1  0  0  0  0
M  END
