./000094-97-3.hin
 OpenBabel10051109203D

 14 15  0  0  0  0  0  0  0  0999 V2000
   -1.8728   -0.1823   -0.0005 C   0  0  0  0  0  0  0  0  0  0  0  0
   -1.5135    1.1838   -0.0007 C   0  0  0  0  0  0  0  0  0  0  0  0
   -0.1878    1.6089   -0.0004 C   0  0  0  0  0  0  0  0  0  0  0  0
    0.7952    0.6170    0.0002 C   0  0  0  0  0  0  0  0  0  0  0  0
    0.4247   -0.7859    0.0005 C   0  0  0  0  0  0  0  0  0  0  0  0
   -0.9156   -1.1853    0.0000 C   0  0  0  0  0  0  0  0  0  0  0  0
   -2.7552    2.3470   -0.0012 Cl  0  0  0  0  0  0  0  0  0  0  0  0
    1.6625   -1.4460    0.0012 N   0  0  0  0  0  0  0  0  0  0  0  0
    2.6606   -0.5348    0.0013 N   0  0  0  0  0  0  0  0  0  0  0  0
    2.2230    0.6503    0.0007 N   0  0  0  0  0  0  0  0  0  0  0  0
    1.8363   -2.4213    0.0021 H   0  0  0  0  0  0  0  0  0  0  0  0
    0.0830    2.6754   -0.0006 H   0  0  0  0  0  0  0  0  0  0  0  0
   -2.9406   -0.4555   -0.0009 H   0  0  0  0  0  0  0  0  0  0  0  0
   -1.2004   -2.2457    0.0001 H   0  0  0  0  0  0  0  0  0  0  0  0
  1  2  2  0  0  0  0
  1  6  1  0  0  0  0
  1 13  1  0  0  0  0
  2  3  1  0  0  0  0
  2  7  1  0  0  0  0
  3  4  2  0  0  0  0
  3 12  1  0  0  0  0
  4  5  1  0  0  0  0
  4 10  1  0  0  0  0
  5  6  2  0  0  0  0
  5  8  1  0  0  0  0
  6 14  1  0  0  0  0
  8  9  1  0  0  0  0
  8 11  1  0  0  0  0
  9 10  2  0  0  0  0
M  END
