./000130-34-7.hin
 OpenBabel10051109203D

 40 43  0  0  0  0  0  0  0  0999 V2000
   -3.9387   -2.3675    0.0326 C   0  0  0  0  0  0  0  0  0  0  0  0
   -4.9894   -3.2787    0.0356 C   0  0  0  0  0  0  0  0  0  0  0  0
   -6.3121   -2.8182   -0.0432 C   0  0  0  0  0  0  0  0  0  0  0  0
   -6.5862   -1.4448   -0.1258 C   0  0  0  0  0  0  0  0  0  0  0  0
   -5.5391   -0.5298   -0.1294 C   0  0  0  0  0  0  0  0  0  0  0  0
   -4.2058   -0.9847   -0.0498 C   0  0  0  0  0  0  0  0  0  0  0  0
   -7.4344   -3.7944   -0.0391 N   0  3  0  0  0  0  0  0  0  0  0  0
   -7.1819   -4.9666    0.0314 O   0  0  0  0  0  0  0  0  0  0  0  0
   -8.5606   -3.3816   -0.1065 O   0  5  0  0  0  0  0  0  0  0  0  0
   -3.1181   -0.0369   -0.0523 N   0  0  0  0  0  0  0  0  0  0  0  0
   -1.8212   -0.4273    0.0187 N   0  0  0  0  0  0  0  0  0  0  0  0
   -3.3219    1.2970   -0.1231 N   0  0  0  0  0  0  0  0  0  0  0  0
   -2.0732    1.8421   -0.0975 C   0  0  0  0  0  0  0  0  0  0  0  0
   -1.1073    0.7320   -0.0063 C   0  0  0  0  0  0  0  0  0  0  0  0
   -1.5968    3.1881   -0.1354 C   0  0  0  0  0  0  0  0  0  0  0  0
   -0.2570    3.4114   -0.0921 C   0  0  0  0  0  0  0  0  0  0  0  0
    0.7247    2.3525   -0.0101 C   0  0  0  0  0  0  0  0  0  0  0  0
    0.3020    0.9978    0.0368 C   0  0  0  0  0  0  0  0  0  0  0  0
    2.1156    2.6347    0.0210 C   0  0  0  0  0  0  0  0  0  0  0  0
    3.0134    1.5713    0.1032 C   0  0  0  0  0  0  0  0  0  0  0  0
    2.6057    0.2303    0.1541 C   0  0  0  0  0  0  0  0  0  0  0  0
    1.2377   -0.0416    0.1193 C   0  0  0  0  0  0  0  0  0  0  0  0
    2.7711    4.1709   -0.0839 S   0  0  0  0  0  0  0  0  0  0  0  0
    3.7148   -1.0080    0.2514 S   0  0  0  0  0  0  0  0  0  0  0  0
    4.9749   -0.5413    0.5729 O   0  0  0  0  0  0  0  0  0  0  0  0
    3.1619   -2.1178    0.8497 O   0  0  0  0  0  0  0  0  0  0  0  0
    3.8993   -1.4274   -1.3376 O   0  0  0  0  0  0  0  0  0  0  0  0
    3.2757    4.4158   -1.3381 O   0  0  0  0  0  0  0  0  0  0  0  0
    2.0450    5.1368    0.5860 O   0  0  0  0  0  0  0  0  0  0  0  0
    4.1009    4.0056    0.8900 O   0  0  0  0  0  0  0  0  0  0  0  0
   -2.9081   -2.7560    0.0959 H   0  0  0  0  0  0  0  0  0  0  0  0
   -4.7784   -4.3615    0.1003 H   0  0  0  0  0  0  0  0  0  0  0  0
   -2.3222    4.0155   -0.1949 H   0  0  0  0  0  0  0  0  0  0  0  0
    0.0987    4.4584   -0.0968 H   0  0  0  0  0  0  0  0  0  0  0  0
    4.1049    1.7885    0.1466 H   0  0  0  0  0  0  0  0  0  0  0  0
    0.8890   -1.0927    0.1643 H   0  0  0  0  0  0  0  0  0  0  0  0
    4.7648   -1.3187   -1.7292 H   0  0  0  0  0  0  0  0  0  0  0  0
    4.1943    4.6162    1.6197 H   0  0  0  0  0  0  0  0  0  0  0  0
   -7.6298   -1.0871   -0.1879 H   0  0  0  0  0  0  0  0  0  0  0  0
   -5.7816    0.5441   -0.1952 H   0  0  0  0  0  0  0  0  0  0  0  0
  1  2  2  0  0  0  0
  1  6  1  0  0  0  0
  1 31  1  0  0  0  0
  2  3  1  0  0  0  0
  2 32  1  0  0  0  0
  3  4  2  0  0  0  0
  3  7  1  0  0  0  0
  4  5  1  0  0  0  0
  4 39  1  0  0  0  0
  5  6  2  0  0  0  0
  5 40  1  0  0  0  0
  6 10  1  0  0  0  0
  7  8  2  0  0  0  0
  7  9  1  0  0  0  0
 10 11  1  0  0  0  0
 10 12  1  0  0  0  0
 11 14  2  0  0  0  0
 12 13  2  0  0  0  0
 13 14  1  0  0  0  0
 13 15  1  0  0  0  0
 14 18  1  0  0  0  0
 15 16  2  0  0  0  0
 15 33  1  0  0  0  0
 16 17  1  0  0  0  0
 16 34  1  0  0  0  0
 17 18  2  0  0  0  0
 17 19  1  0  0  0  0
 18 22  1  0  0  0  0
 19 20  2  0  0  0  0
 19 23  1  0  0  0  0
 20 21  1  0  0  0  0
 20 35  1  0  0  0  0
 21 22  2  0  0  0  0
 21 24  1  0  0  0  0
 22 36  1  0  0  0  0
 23 28  2  0  0  0  0
 23 29  2  0  0  0  0
 23 30  1  0  0  0  0
 24 25  2  0  0  0  0
 24 26  2  0  0  0  0
 24 27  1  0  0  0  0
 27 37  1  0  0  0  0
 30 38  1  0  0  0  0
M  CHG   2   7   1   9  -1
M  END
