./000131-43-1.hin
 OpenBabel10051109203D

 57 61  0  0  0  0  0  0  0  0999 V2000
    1.8297   -3.2587   -0.3127 N   0  0  0  0  0  0  0  0  0  0  0  0
    2.0240   -2.0112    0.1491 N   0  0  0  0  0  0  0  0  0  0  0  0
    3.2741   -1.7248    0.5926 N   0  0  0  0  0  0  0  0  0  0  0  0
    3.9706   -2.8812    0.4096 C   0  0  0  0  0  0  0  0  0  0  0  0
    3.0476   -3.8687   -0.1719 C   0  0  0  0  0  0  0  0  0  0  0  0
    5.3390   -3.2506    0.6817 C   0  0  0  0  0  0  0  0  0  0  0  0
    5.7270   -4.5842    0.3529 C   0  0  0  0  0  0  0  0  0  0  0  0
    4.8037   -5.5273   -0.2402 C   0  0  0  0  0  0  0  0  0  0  0  0
    3.5018   -5.1794   -0.4822 C   0  0  0  0  0  0  0  0  0  0  0  0
    7.0664   -4.9465    0.6431 C   0  0  0  0  0  0  0  0  0  0  0  0
    7.9249   -4.0206    1.2050 C   0  0  0  0  0  0  0  0  0  0  0  0
    7.4372   -2.7189    1.4823 C   0  0  0  0  0  0  0  0  0  0  0  0
    6.1855   -2.3328    1.2359 C   0  0  0  0  0  0  0  0  0  0  0  0
    0.9617   -1.0335    0.1811 C   0  0  0  0  0  0  0  0  0  0  0  0
    1.2535    0.3300    0.0096 C   0  0  0  0  0  0  0  0  0  0  0  0
    0.2345    1.2909    0.0448 C   0  0  0  0  0  0  0  0  0  0  0  0
   -1.0873    0.8726    0.2809 C   0  0  0  0  0  0  0  0  0  0  0  0
   -1.3759   -0.4896    0.4300 C   0  0  0  0  0  0  0  0  0  0  0  0
   -0.3691   -1.4469    0.3857 C   0  0  0  0  0  0  0  0  0  0  0  0
    0.6717    2.8915   -0.2480 S   0  0  0  0  0  0  0  0  0  0  0  0
   -0.1738    3.4765   -1.1782 O   0  0  0  0  0  0  0  0  0  0  0  0
    2.0350    2.9997   -0.4094 O   0  0  0  0  0  0  0  0  0  0  0  0
    0.3311    3.6149    1.1760 O   0  0  0  0  0  0  0  0  0  0  0  0
   -2.1748    1.8405    0.4227 C   0  0  0  0  0  0  0  0  0  0  0  0
   -3.3141    1.7609   -0.2764 C   0  0  0  0  0  0  0  0  0  0  0  0
   -4.4762    2.6341   -0.1124 C   0  0  0  0  0  0  0  0  0  0  0  0
   -4.4543    4.0273   -0.2982 C   0  0  0  0  0  0  0  0  0  0  0  0
   -5.6540    4.7435   -0.1528 C   0  0  0  0  0  0  0  0  0  0  0  0
   -6.8417    4.0905    0.1874 C   0  0  0  0  0  0  0  0  0  0  0  0
   -6.8616    2.6965    0.3733 C   0  0  0  0  0  0  0  0  0  0  0  0
   -5.6815    1.9856    0.2146 C   0  0  0  0  0  0  0  0  0  0  0  0
   -3.0925    4.9456   -0.6920 S   0  0  0  0  0  0  0  0  0  0  0  0
   -2.0515    4.6760    0.1827 O   0  0  0  0  0  0  0  0  0  0  0  0
   -3.4488    6.2537   -0.9324 O   0  0  0  0  0  0  0  0  0  0  0  0
   -2.6764    4.3195   -2.1370 O   0  0  0  0  0  0  0  0  0  0  0  0
   -8.0990    4.8694    0.3516 N   0  3  0  0  0  0  0  0  0  0  0  0
   -8.0650    6.0609    0.2141 O   0  0  0  0  0  0  0  0  0  0  0  0
   -9.1095    4.2775    0.6205 O   0  5  0  0  0  0  0  0  0  0  0  0
    5.2936   -7.0693   -0.6685 S   0  0  0  0  0  0  0  0  0  0  0  0
    6.4512   -7.0835   -1.4115 O   0  0  0  0  0  0  0  0  0  0  0  0
    4.2025   -7.8463   -1.0237 O   0  0  0  0  0  0  0  0  0  0  0  0
    5.7305   -7.7323    0.7843 O   0  0  0  0  0  0  0  0  0  0  0  0
    2.7853   -5.9018   -0.9218 H   0  0  0  0  0  0  0  0  0  0  0  0
    8.0981   -1.9526    1.9287 H   0  0  0  0  0  0  0  0  0  0  0  0
   -2.4169   -0.8082    0.6000 H   0  0  0  0  0  0  0  0  0  0  0  0
   -0.6262   -2.5121    0.5133 H   0  0  0  0  0  0  0  0  0  0  0  0
   -0.3109    4.3314    1.1971 H   0  0  0  0  0  0  0  0  0  0  0  0
   -1.9901    2.6437    1.1657 H   0  0  0  0  0  0  0  0  0  0  0  0
   -3.4663    0.9598   -1.0254 H   0  0  0  0  0  0  0  0  0  0  0  0
   -7.8028    2.1812    0.6378 H   0  0  0  0  0  0  0  0  0  0  0  0
   -5.6872    0.8917    0.3490 H   0  0  0  0  0  0  0  0  0  0  0  0
   -1.7630    4.0585   -2.2956 H   0  0  0  0  0  0  0  0  0  0  0  0
    5.2060   -8.4603    1.1136 H   0  0  0  0  0  0  0  0  0  0  0  0
    7.4272   -5.9671    0.4240 H   0  0  0  0  0  0  0  0  0  0  0  0
    8.9676   -4.2786    1.4365 H   0  0  0  0  0  0  0  0  0  0  0  0
    2.2986    0.6688   -0.1537 H   0  0  0  0  0  0  0  0  0  0  0  0
   -5.6593    5.8448   -0.3143 H   0  0  0  0  0  0  0  0  0  0  0  0
  1  2  1  0  0  0  0
  1  5  2  0  0  0  0
  2  3  1  0  0  0  0
  2 14  1  0  0  0  0
  3  4  2  0  0  0  0
  4  5  1  0  0  0  0
  4  6  1  0  0  0  0
  5  9  1  0  0  0  0
  6  7  2  0  0  0  0
  6 13  1  0  0  0  0
  7  8  1  0  0  0  0
  7 10  1  0  0  0  0
  8  9  2  0  0  0  0
  8 39  1  0  0  0  0
  9 43  1  0  0  0  0
 10 11  2  0  0  0  0
 10 54  1  0  0  0  0
 11 12  1  0  0  0  0
 11 55  1  0  0  0  0
 12 13  2  0  0  0  0
 12 44  1  0  0  0  0
 14 15  2  0  0  0  0
 14 19  1  0  0  0  0
 15 16  1  0  0  0  0
 15 56  1  0  0  0  0
 16 17  2  0  0  0  0
 16 20  1  0  0  0  0
 17 18  1  0  0  0  0
 17 24  1  0  0  0  0
 18 19  2  0  0  0  0
 18 45  1  0  0  0  0
 19 46  1  0  0  0  0
 20 21  2  0  0  0  0
 20 22  2  0  0  0  0
 20 23  1  0  0  0  0
 23 47  1  0  0  0  0
 24 25  2  0  0  0  0
 24 48  1  0  0  0  0
 25 26  1  0  0  0  0
 25 49  1  0  0  0  0
 26 27  2  0  0  0  0
 26 31  1  0  0  0  0
 27 28  1  0  0  0  0
 27 32  1  0  0  0  0
 28 29  2  0  0  0  0
 28 57  1  0  0  0  0
 29 30  1  0  0  0  0
 29 36  1  0  0  0  0
 30 31  2  0  0  0  0
 30 50  1  0  0  0  0
 31 51  1  0  0  0  0
 32 33  2  0  0  0  0
 32 34  2  0  0  0  0
 32 35  1  0  0  0  0
 35 52  1  0  0  0  0
 36 37  2  0  0  0  0
 36 38  1  0  0  0  0
 39 40  2  0  0  0  0
 39 41  2  0  0  0  0
 39 42  1  0  0  0  0
 42 53  1  0  0  0  0
M  CHG   2  36   1  38  -1
M  END
