./000136-85-6.hin
 OpenBabel10051109203D

 17 18  0  0  0  0  0  0  0  0999 V2000
   -1.4785   -0.9725   -0.0000 C   0  0  0  0  0  0  0  0  0  0  0  0
   -0.2250   -1.5639    0.0000 C   0  0  0  0  0  0  0  0  0  0  0  0
    0.9720   -0.8105    0.0000 C   0  0  0  0  0  0  0  0  0  0  0  0
    0.9468    0.5817    0.0000 C   0  0  0  0  0  0  0  0  0  0  0  0
   -0.2996    1.2121   -0.0000 C   0  0  0  0  0  0  0  0  0  0  0  0
   -1.5177    0.4253   -0.0000 C   0  0  0  0  0  0  0  0  0  0  0  0
    2.2656   -1.5346    0.0000 C   0  0  0  0  0  0  0  0  0  0  0  0
   -2.5302    1.3973   -0.0000 N   0  0  0  0  0  0  0  0  0  0  0  0
   -0.7113    2.5794   -0.0000 N   0  0  0  0  0  0  0  0  0  0  0  0
   -1.9740    2.6286   -0.0000 N   0  0  0  0  0  0  0  0  0  0  0  0
   -3.5107    1.2596   -0.0000 H   0  0  0  0  0  0  0  0  0  0  0  0
   -2.3971   -1.5732   -0.0000 H   0  0  0  0  0  0  0  0  0  0  0  0
   -0.1503   -2.6631    0.0000 H   0  0  0  0  0  0  0  0  0  0  0  0
    1.8741    1.1730    0.0000 H   0  0  0  0  0  0  0  0  0  0  0  0
    2.3446   -2.1860   -0.9062 H   0  0  0  0  0  0  0  0  0  0  0  0
    3.1292   -0.8255   -0.0000 H   0  0  0  0  0  0  0  0  0  0  0  0
    2.3446   -2.1860    0.9062 H   0  0  0  0  0  0  0  0  0  0  0  0
  1  2  2  0  0  0  0
  1  6  1  0  0  0  0
  1 12  1  0  0  0  0
  2  3  1  0  0  0  0
  2 13  1  0  0  0  0
  3  4  2  0  0  0  0
  3  7  1  0  0  0  0
  4  5  1  0  0  0  0
  4 14  1  0  0  0  0
  5  6  2  0  0  0  0
  5  9  1  0  0  0  0
  6  8  1  0  0  0  0
  7 15  1  0  0  0  0
  7 16  1  0  0  0  0
  7 17  1  0  0  0  0
  8 10  1  0  0  0  0
  8 11  1  0  0  0  0
  9 10  2  0  0  0  0
M  END
