./000273-40-5.hin
 OpenBabel10051109203D

 12 13  0  0  0  0  0  0  0  0999 V2000
   -0.6364   -1.5923    0.0000 C   0  0  0  0  0  0  0  0  0  0  0  0
    0.5354   -2.1918   -0.0000 N   0  0  0  0  0  0  0  0  0  0  0  0
    1.6838   -1.3928   -0.0000 C   0  0  0  0  0  0  0  0  0  0  0  0
    1.7878   -0.0676   -0.0000 N   0  0  0  0  0  0  0  0  0  0  0  0
    0.5683    0.5911    0.0000 C   0  0  0  0  0  0  0  0  0  0  0  0
    0.2368    1.9337    0.0000 N   0  0  0  0  0  0  0  0  0  0  0  0
   -1.0976    1.9320    0.0000 N   0  0  0  0  0  0  0  0  0  0  0  0
   -1.7320    0.7643   -0.0000 N   0  0  0  0  0  0  0  0  0  0  0  0
   -0.7236   -0.1599    0.0000 C   0  0  0  0  0  0  0  0  0  0  0  0
   -1.5497   -2.2150    0.0000 H   0  0  0  0  0  0  0  0  0  0  0  0
    2.6369   -1.9649   -0.0000 H   0  0  0  0  0  0  0  0  0  0  0  0
   -1.6083    2.7988   -0.0000 H   0  0  0  0  0  0  0  0  0  0  0  0
  1  2  2  0  0  0  0
  1  9  1  0  0  0  0
  1 10  1  0  0  0  0
  2  3  1  0  0  0  0
  3  4  2  0  0  0  0
  3 11  1  0  0  0  0
  4  5  1  0  0  0  0
  5  6  2  0  0  0  0
  5  9  1  0  0  0  0
  6  7  1  0  0  0  0
  7  8  1  0  0  0  0
  7 12  1  0  0  0  0
  8  9  2  0  0  0  0
M  END
