./000288-36-8.hin
 OpenBabel10051109203D

  8  8  0  0  0  0  0  0  0  0999 V2000
   -1.7554   -0.3507    0.0000 C   0  0  0  0  0  0  0  0  0  0  0  0
   -1.7554    1.1088    0.0000 C   0  0  0  0  0  0  0  0  0  0  0  0
   -0.4586   -0.7533    0.0000 N   0  0  0  0  0  0  0  0  0  0  0  0
   -0.4586    1.5114    0.0000 N   0  0  0  0  0  0  0  0  0  0  0  0
    0.2544    0.3791    0.0000 N   0  0  0  0  0  0  0  0  0  0  0  0
   -2.6043   -1.0309    0.0000 H   0  0  0  0  0  0  0  0  0  0  0  0
   -2.6043    1.7890    0.0000 H   0  0  0  0  0  0  0  0  0  0  0  0
    1.2546    0.3791    0.0000 H   0  0  0  0  0  0  0  0  0  0  0  0
  1  2  1  0  0  0  0
  1  3  2  0  0  0  0
  1  6  1  0  0  0  0
  2  4  2  0  0  0  0
  2  7  1  0  0  0  0
  3  5  1  0  0  0  0
  4  5  1  0  0  0  0
  5  8  1  0  0  0  0
M  END
