./000288-88-0.hin
 OpenBabel10051109203D

  8  8  0  0  0  0  0  0  0  0999 V2000
   -1.4771   -0.2295    0.0000 N   0  0  0  0  0  0  0  0  0  0  0  0
   -1.5221    1.1049    0.0000 N   0  0  0  0  0  0  0  0  0  0  0  0
   -0.2133    1.4929    0.0000 C   0  0  0  0  0  0  0  0  0  0  0  0
    0.6755    0.4024   -0.0000 N   0  0  0  0  0  0  0  0  0  0  0  0
   -0.1420   -0.6727   -0.0000 C   0  0  0  0  0  0  0  0  0  0  0  0
   -2.3099   -0.7683    0.0000 H   0  0  0  0  0  0  0  0  0  0  0  0
    0.1225    2.5344    0.0000 H   0  0  0  0  0  0  0  0  0  0  0  0
    0.1501   -1.7267   -0.0000 H   0  0  0  0  0  0  0  0  0  0  0  0
  1  2  1  0  0  0  0
  1  5  1  0  0  0  0
  1  6  1  0  0  0  0
  2  3  2  0  0  0  0
  3  4  1  0  0  0  0
  3  7  1  0  0  0  0
  4  5  2  0  0  0  0
  5  8  1  0  0  0  0
M  END
