./000944-91-2.hin
 OpenBabel10051109203D

 25 26  0  0  0  0  0  0  0  0999 V2000
   -0.0621   -0.0057   -0.0000 C   0  0  0  0  0  0  0  0  0  0  0  0
   -0.1019    1.3533   -0.0000 N   0  0  0  0  0  0  0  0  0  0  0  0
    1.1670    1.8135    0.0000 N   0  0  0  0  0  0  0  0  0  0  0  0
    2.1005    0.7391    0.0000 C   0  0  0  0  0  0  0  0  0  0  0  0
    1.2926   -0.4421    0.0000 N   0  0  0  0  0  0  0  0  0  0  0  0
    1.9453   -1.7090    0.0000 C   0  0  0  0  0  0  0  0  0  0  0  0
    3.3426    0.8025    0.0000 O   0  0  0  0  0  0  0  0  0  0  0  0
    1.5325    3.2047   -0.0000 C   0  0  0  0  0  0  0  0  0  0  0  0
   -1.2980   -0.8013   -0.0000 C   0  0  0  0  0  0  0  0  0  0  0  0
   -1.3380   -2.1996   -0.0000 C   0  0  0  0  0  0  0  0  0  0  0  0
   -2.5559   -2.8811   -0.0000 C   0  0  0  0  0  0  0  0  0  0  0  0
   -3.7591   -2.1812   -0.0000 C   0  0  0  0  0  0  0  0  0  0  0  0
   -3.7356   -0.7870    0.0000 C   0  0  0  0  0  0  0  0  0  0  0  0
   -2.5237   -0.1026    0.0000 C   0  0  0  0  0  0  0  0  0  0  0  0
    2.6016   -1.7820    0.9120 H   0  0  0  0  0  0  0  0  0  0  0  0
    1.2335   -2.5647    0.0000 H   0  0  0  0  0  0  0  0  0  0  0  0
    2.6015   -1.7820   -0.9120 H   0  0  0  0  0  0  0  0  0  0  0  0
    1.1246    3.7128    0.9142 H   0  0  0  0  0  0  0  0  0  0  0  0
    2.6539    3.2630    0.0000 H   0  0  0  0  0  0  0  0  0  0  0  0
    1.1246    3.7128   -0.9143 H   0  0  0  0  0  0  0  0  0  0  0  0
   -0.4292   -2.8108   -0.0000 H   0  0  0  0  0  0  0  0  0  0  0  0
   -2.5586   -3.9815   -0.0000 H   0  0  0  0  0  0  0  0  0  0  0  0
   -4.7172   -2.7211    0.0000 H   0  0  0  0  0  0  0  0  0  0  0  0
   -4.6790   -0.2203    0.0000 H   0  0  0  0  0  0  0  0  0  0  0  0
   -2.5465    0.9991    0.0000 H   0  0  0  0  0  0  0  0  0  0  0  0
  1  2  2  0  0  0  0
  1  5  1  0  0  0  0
  1  9  1  0  0  0  0
  2  3  1  0  0  0  0
  3  4  1  0  0  0  0
  3  8  1  0  0  0  0
  4  5  1  0  0  0  0
  4  7  2  0  0  0  0
  5  6  1  0  0  0  0
  6 15  1  0  0  0  0
  6 16  1  0  0  0  0
  6 17  1  0  0  0  0
  8 18  1  0  0  0  0
  8 19  1  0  0  0  0
  8 20  1  0  0  0  0
  9 10  2  0  0  0  0
  9 14  1  0  0  0  0
 10 11  1  0  0  0  0
 10 21  1  0  0  0  0
 11 12  2  0  0  0  0
 11 22  1  0  0  0  0
 12 13  1  0  0  0  0
 12 23  1  0  0  0  0
 13 14  2  0  0  0  0
 13 24  1  0  0  0  0
 14 25  1  0  0  0  0
M  END
