./000974-29-8.hin
 OpenBabel10051109203D

 41 44  0  0  0  0  0  0  0  0999 V2000
   -2.5174    0.8017    4.0892 C   0  0  0  0  0  0  0  0  0  0  0  0
   -2.0942    1.8411    3.2617 C   0  0  0  0  0  0  0  0  0  0  0  0
   -1.3864    1.5591    2.0906 C   0  0  0  0  0  0  0  0  0  0  0  0
   -1.1015    0.2387    1.7485 C   0  0  0  0  0  0  0  0  0  0  0  0
   -1.5222   -0.7997    2.5787 C   0  0  0  0  0  0  0  0  0  0  0  0
   -2.2313   -0.5205    3.7478 C   0  0  0  0  0  0  0  0  0  0  0  0
   -0.0785   -0.1968   -0.0041 Sn  0  0  0  0  0  0  0  0  0  0  0  0
    0.7773   -2.0918   -0.0068 C   0  0  0  0  0  0  0  0  0  0  0  0
    1.1845   -2.6790    1.1907 C   0  0  0  0  0  0  0  0  0  0  0  0
    1.7710   -3.9461    1.1900 C   0  0  0  0  0  0  0  0  0  0  0  0
    1.9519   -4.6294   -0.0124 C   0  0  0  0  0  0  0  0  0  0  0  0
    1.5467   -4.0446   -1.2122 C   0  0  0  0  0  0  0  0  0  0  0  0
    0.9615   -2.7770   -1.2073 C   0  0  0  0  0  0  0  0  0  0  0  0
   -1.1579    0.2171   -1.7292 C   0  0  0  0  0  0  0  0  0  0  0  0
   -1.2963    1.5261   -2.1861 C   0  0  0  0  0  0  0  0  0  0  0  0
   -2.0413    1.7903   -3.3382 C   0  0  0  0  0  0  0  0  0  0  0  0
   -2.6501    0.7450   -4.0312 C   0  0  0  0  0  0  0  0  0  0  0  0
   -2.5133   -0.5660   -3.5737 C   0  0  0  0  0  0  0  0  0  0  0  0
   -1.7661   -0.8279   -2.4244 C   0  0  0  0  0  0  0  0  0  0  0  0
    1.6118    1.0574   -0.0416 N   0  0  0  0  0  0  0  0  0  0  0  0
    2.9982    0.8617   -0.1217 C   0  0  0  0  0  0  0  0  0  0  0  0
    3.6383    2.0581   -0.0927 N   0  0  0  0  0  0  0  0  0  0  0  0
    2.5880    2.9797    0.0079 C   0  0  0  0  0  0  0  0  0  0  0  0
    1.3674    2.3615    0.0378 N   0  0  0  0  0  0  0  0  0  0  0  0
   -3.0753    1.0233    5.0111 H   0  0  0  0  0  0  0  0  0  0  0  0
   -2.3154    2.8847    3.5299 H   0  0  0  0  0  0  0  0  0  0  0  0
   -1.0549    2.3939    1.4509 H   0  0  0  0  0  0  0  0  0  0  0  0
   -1.2993   -1.8491    2.3255 H   0  0  0  0  0  0  0  0  0  0  0  0
   -2.5629   -1.3421    4.3992 H   0  0  0  0  0  0  0  0  0  0  0  0
    1.0514   -2.1521    2.1500 H   0  0  0  0  0  0  0  0  0  0  0  0
    2.0921   -4.4033    2.1376 H   0  0  0  0  0  0  0  0  0  0  0  0
    2.4151   -5.6273   -0.0147 H   0  0  0  0  0  0  0  0  0  0  0  0
    1.6901   -4.5799   -2.1624 H   0  0  0  0  0  0  0  0  0  0  0  0
    0.6497   -2.3276   -2.1647 H   0  0  0  0  0  0  0  0  0  0  0  0
   -0.8219    2.3660   -1.6520 H   0  0  0  0  0  0  0  0  0  0  0  0
   -2.1458    2.8249   -3.6971 H   0  0  0  0  0  0  0  0  0  0  0  0
   -3.2376    0.9527   -4.9379 H   0  0  0  0  0  0  0  0  0  0  0  0
   -2.9930   -1.3926   -4.1179 H   0  0  0  0  0  0  0  0  0  0  0  0
   -1.6656   -1.8695   -2.0786 H   0  0  0  0  0  0  0  0  0  0  0  0
    3.4746   -0.1203   -0.1968 H   0  0  0  0  0  0  0  0  0  0  0  0
    2.7403    4.0606    0.0566 H   0  0  0  0  0  0  0  0  0  0  0  0
  1  2  2  0  0  0  0
  1  6  1  0  0  0  0
  1 25  1  0  0  0  0
  2  3  1  0  0  0  0
  2 26  1  0  0  0  0
  3  4  2  0  0  0  0
  3 27  1  0  0  0  0
  4  5  1  0  0  0  0
  4  7  1  0  0  0  0
  5  6  2  0  0  0  0
  5 28  1  0  0  0  0
  6 29  1  0  0  0  0
  7  8  1  0  0  0  0
  7 14  1  0  0  0  0
  7 20  1  0  0  0  0
  8  9  2  0  0  0  0
  8 13  1  0  0  0  0
  9 10  1  0  0  0  0
  9 30  1  0  0  0  0
 10 11  2  0  0  0  0
 10 31  1  0  0  0  0
 11 12  1  0  0  0  0
 11 32  1  0  0  0  0
 12 13  2  0  0  0  0
 12 33  1  0  0  0  0
 13 34  1  0  0  0  0
 14 15  2  0  0  0  0
 14 19  1  0  0  0  0
 15 16  1  0  0  0  0
 15 35  1  0  0  0  0
 16 17  2  0  0  0  0
 16 36  1  0  0  0  0
 17 18  1  0  0  0  0
 17 37  1  0  0  0  0
 18 19  2  0  0  0  0
 18 38  1  0  0  0  0
 19 39  1  0  0  0  0
 20 21  1  0  0  0  0
 20 24  1  0  0  0  0
 21 22  2  0  0  0  0
 21 40  1  0  0  0  0
 22 23  1  0  0  0  0
 23 24  2  0  0  0  0
 23 41  1  0  0  0  0
M  END
