./001028-08-6.hin
 OpenBabel10051109203D

 44 44  0  0  0  0  0  0  0  0999 V2000
   -6.2962   -3.3273   -2.5318 C   0  0  0  0  0  0  0  0  0  0  0  0
   -4.9665   -2.6307   -2.4008 C   0  0  0  0  0  0  0  0  0  0  0  0
   -4.3599   -2.8462   -1.0305 C   0  0  0  0  0  0  0  0  0  0  0  0
   -3.0261   -2.1404   -0.9043 C   0  0  0  0  0  0  0  0  0  0  0  0
   -2.4357   -2.3558    0.4753 C   0  0  0  0  0  0  0  0  0  0  0  0
   -1.1088   -1.6856    0.6095 C   0  0  0  0  0  0  0  0  0  0  0  0
   -0.9035   -0.3409    0.5515 N   0  0  0  0  0  0  0  0  0  0  0  0
    0.4149   -0.1318    0.7251 N   0  0  0  0  0  0  0  0  0  0  0  0
    1.0452   -1.4097    0.9084 C   0  0  0  0  0  0  0  0  0  0  0  0
    0.0920   -2.3929    0.8395 N   0  0  0  0  0  0  0  0  0  0  0  0
    2.4322   -1.6263    1.0090 N   0  0  0  0  0  0  0  0  0  0  0  0
    0.8724    1.4710    0.8682 P   0  0  0  0  0  0  0  0  0  0  0  0
    0.5736    1.9571    2.2350 O   0  0  0  0  0  0  0  0  0  0  0  0
    2.4512    1.4719    0.5970 N   0  0  0  0  0  0  0  0  0  0  0  0
    3.0485    1.1029   -0.6386 C   0  0  0  0  0  0  0  0  0  0  0  0
    3.3435    1.9045    1.6242 C   0  0  0  0  0  0  0  0  0  0  0  0
    0.1315    2.3077   -0.2670 N   0  0  0  0  0  0  0  0  0  0  0  0
   -0.5296    3.5242    0.0923 C   0  0  0  0  0  0  0  0  0  0  0  0
   -0.0383    1.8827   -1.6127 C   0  0  0  0  0  0  0  0  0  0  0  0
   -6.7258   -3.1559   -3.5482 H   0  0  0  0  0  0  0  0  0  0  0  0
   -6.1821   -4.4277   -2.3780 H   0  0  0  0  0  0  0  0  0  0  0  0
   -7.0200   -2.9416   -1.7735 H   0  0  0  0  0  0  0  0  0  0  0  0
   -4.2614   -3.0130   -3.1856 H   0  0  0  0  0  0  0  0  0  0  0  0
   -5.0975   -1.5311   -2.5824 H   0  0  0  0  0  0  0  0  0  0  0  0
   -5.0638   -2.4648   -0.2444 H   0  0  0  0  0  0  0  0  0  0  0  0
   -4.2245   -3.9451   -0.8487 H   0  0  0  0  0  0  0  0  0  0  0  0
   -2.3187   -2.5295   -1.6828 H   0  0  0  0  0  0  0  0  0  0  0  0
   -3.1617   -1.0431   -1.0931 H   0  0  0  0  0  0  0  0  0  0  0  0
   -2.3237   -3.4557    0.6725 H   0  0  0  0  0  0  0  0  0  0  0  0
   -3.1285   -1.9393    1.2560 H   0  0  0  0  0  0  0  0  0  0  0  0
    2.8827   -1.0603    1.6991 H   0  0  0  0  0  0  0  0  0  0  0  0
    2.6457   -2.5978    1.1278 H   0  0  0  0  0  0  0  0  0  0  0  0
    3.5045    1.9895   -1.1650 H   0  0  0  0  0  0  0  0  0  0  0  0
    3.8733    0.3507   -0.4863 H   0  0  0  0  0  0  0  0  0  0  0  0
    2.2746    0.6436   -1.3075 H   0  0  0  0  0  0  0  0  0  0  0  0
    4.0591    1.0829    1.9138 H   0  0  0  0  0  0  0  0  0  0  0  0
    3.9701    2.7756    1.2812 H   0  0  0  0  0  0  0  0  0  0  0  0
    2.7507    2.2132    2.5300 H   0  0  0  0  0  0  0  0  0  0  0  0
   -1.6289    3.4826   -0.1516 H   0  0  0  0  0  0  0  0  0  0  0  0
   -0.4116    3.7009    1.1973 H   0  0  0  0  0  0  0  0  0  0  0  0
   -0.0998    4.3982   -0.4740 H   0  0  0  0  0  0  0  0  0  0  0  0
   -1.1238    1.8991   -1.9153 H   0  0  0  0  0  0  0  0  0  0  0  0
    0.5144    2.5566   -2.3281 H   0  0  0  0  0  0  0  0  0  0  0  0
    0.3399    0.8353   -1.7417 H   0  0  0  0  0  0  0  0  0  0  0  0
  1  2  1  0  0  0  0
  1 20  1  0  0  0  0
  1 21  1  0  0  0  0
  1 22  1  0  0  0  0
  2  3  1  0  0  0  0
  2 23  1  0  0  0  0
  2 24  1  0  0  0  0
  3  4  1  0  0  0  0
  3 25  1  0  0  0  0
  3 26  1  0  0  0  0
  4  5  1  0  0  0  0
  4 27  1  0  0  0  0
  4 28  1  0  0  0  0
  5  6  1  0  0  0  0
  5 29  1  0  0  0  0
  5 30  1  0  0  0  0
  6  7  2  0  0  0  0
  6 10  1  0  0  0  0
  7  8  1  0  0  0  0
  8  9  1  0  0  0  0
  8 12  1  0  0  0  0
  9 10  2  0  0  0  0
  9 11  1  0  0  0  0
 11 31  1  0  0  0  0
 11 32  1  0  0  0  0
 12 13  2  0  0  0  0
 12 14  1  0  0  0  0
 12 17  1  0  0  0  0
 14 15  1  0  0  0  0
 14 16  1  0  0  0  0
 15 33  1  0  0  0  0
 15 34  1  0  0  0  0
 15 35  1  0  0  0  0
 16 36  1  0  0  0  0
 16 37  1  0  0  0  0
 16 38  1  0  0  0  0
 17 18  1  0  0  0  0
 17 19  1  0  0  0  0
 18 39  1  0  0  0  0
 18 40  1  0  0  0  0
 18 41  1  0  0  0  0
 19 42  1  0  0  0  0
 19 43  1  0  0  0  0
 19 44  1  0  0  0  0
M  END
