./001031-47-6.hin
 OpenBabel10051109203D

 39 40  0  0  0  0  0  0  0  0999 V2000
   -0.3454   -1.0022   -0.0712 N   0  0  0  0  0  0  0  0  0  0  0  0
   -1.8005   -1.8324   -0.0490 P   0  0  0  0  0  0  0  0  0  0  0  0
   -2.7970   -1.1192   -1.0662 N   0  0  0  0  0  0  0  0  0  0  0  0
   -4.1333   -0.8381   -0.6400 C   0  0  0  0  0  0  0  0  0  0  0  0
   -2.4353   -0.6160   -2.3457 C   0  0  0  0  0  0  0  0  0  0  0  0
   -1.4418   -3.3000   -0.5802 N   0  0  0  0  0  0  0  0  0  0  0  0
   -1.6199   -4.4250    0.2808 C   0  0  0  0  0  0  0  0  0  0  0  0
   -0.9896   -3.5831   -1.8975 C   0  0  0  0  0  0  0  0  0  0  0  0
   -2.3239   -1.8858    1.3352 O   0  0  0  0  0  0  0  0  0  0  0  0
   -0.4500    0.3358    0.0063 N   0  0  0  0  0  0  0  0  0  0  0  0
    0.8165    0.8344    0.1082 C   0  0  0  0  0  0  0  0  0  0  0  0
    1.1523    2.2544    0.2150 C   0  0  0  0  0  0  0  0  0  0  0  0
    2.4126    2.7123   -0.1938 C   0  0  0  0  0  0  0  0  0  0  0  0
    2.7261    4.0665   -0.0908 C   0  0  0  0  0  0  0  0  0  0  0  0
    1.7919    4.9682    0.4188 C   0  0  0  0  0  0  0  0  0  0  0  0
    0.5387    4.5136    0.8281 C   0  0  0  0  0  0  0  0  0  0  0  0
    0.2149    3.1613    0.7292 C   0  0  0  0  0  0  0  0  0  0  0  0
    1.7875   -0.1950    0.1104 N   0  0  0  0  0  0  0  0  0  0  0  0
    1.0488   -1.3436   -0.0044 C   0  0  0  0  0  0  0  0  0  0  0  0
    1.5773   -2.6385   -0.1610 N   0  0  0  0  0  0  0  0  0  0  0  0
   -4.3571    0.2651   -0.6887 H   0  0  0  0  0  0  0  0  0  0  0  0
   -4.8840   -1.3555   -1.3019 H   0  0  0  0  0  0  0  0  0  0  0  0
   -4.2680   -1.1871    0.4213 H   0  0  0  0  0  0  0  0  0  0  0  0
   -2.9716   -1.1686   -3.1692 H   0  0  0  0  0  0  0  0  0  0  0  0
   -2.7032    0.4738   -2.4498 H   0  0  0  0  0  0  0  0  0  0  0  0
   -1.3305   -0.7164   -2.5069 H   0  0  0  0  0  0  0  0  0  0  0  0
   -2.3309   -5.1746   -0.1681 H   0  0  0  0  0  0  0  0  0  0  0  0
   -0.6447   -4.9640    0.4525 H   0  0  0  0  0  0  0  0  0  0  0  0
   -2.0293   -4.0786    1.2705 H   0  0  0  0  0  0  0  0  0  0  0  0
   -0.0635   -4.2244   -1.8834 H   0  0  0  0  0  0  0  0  0  0  0  0
   -1.7661   -4.1394   -2.4966 H   0  0  0  0  0  0  0  0  0  0  0  0
   -0.7442   -2.6243   -2.4245 H   0  0  0  0  0  0  0  0  0  0  0  0
    3.1571    2.0074   -0.5944 H   0  0  0  0  0  0  0  0  0  0  0  0
    3.7158    4.4227   -0.4122 H   0  0  0  0  0  0  0  0  0  0  0  0
    2.0439    6.0358    0.4993 H   0  0  0  0  0  0  0  0  0  0  0  0
   -0.1986    5.2221    1.2334 H   0  0  0  0  0  0  0  0  0  0  0  0
   -0.7750    2.8110    1.0602 H   0  0  0  0  0  0  0  0  0  0  0  0
    2.5759   -2.6415   -0.0795 H   0  0  0  0  0  0  0  0  0  0  0  0
    1.1547   -3.3236    0.4322 H   0  0  0  0  0  0  0  0  0  0  0  0
  1  2  1  0  0  0  0
  1 10  1  0  0  0  0
  1 19  1  0  0  0  0
  2  3  1  0  0  0  0
  2  6  1  0  0  0  0
  2  9  2  0  0  0  0
  3  4  1  0  0  0  0
  3  5  1  0  0  0  0
  4 21  1  0  0  0  0
  4 22  1  0  0  0  0
  4 23  1  0  0  0  0
  5 24  1  0  0  0  0
  5 25  1  0  0  0  0
  5 26  1  0  0  0  0
  6  7  1  0  0  0  0
  6  8  1  0  0  0  0
  7 27  1  0  0  0  0
  7 28  1  0  0  0  0
  7 29  1  0  0  0  0
  8 30  1  0  0  0  0
  8 31  1  0  0  0  0
  8 32  1  0  0  0  0
 10 11  2  0  0  0  0
 11 12  1  0  0  0  0
 11 18  1  0  0  0  0
 12 13  2  0  0  0  0
 12 17  1  0  0  0  0
 13 14  1  0  0  0  0
 13 33  1  0  0  0  0
 14 15  2  0  0  0  0
 14 34  1  0  0  0  0
 15 16  1  0  0  0  0
 15 35  1  0  0  0  0
 16 17  2  0  0  0  0
 16 36  1  0  0  0  0
 17 37  1  0  0  0  0
 18 19  2  0  0  0  0
 19 20  1  0  0  0  0
 20 38  1  0  0  0  0
 20 39  1  0  0  0  0
M  END
