./001325-58-2.hin
 OpenBabel10051109203D

111116  0  0  0  0  0  0  0  0999 V2000
    5.7142    0.4678    1.8509 N   0  0  0  0  0  0  0  0  0  0  0  0
    6.3343   -0.2455    0.7465 C   0  0  0  0  0  0  0  0  0  0  0  0
    5.4691   -0.3002   -0.5320 C   0  0  0  0  0  0  0  0  0  0  0  0
    4.0849   -0.6487   -0.2921 N   0  0  0  0  0  0  0  0  0  0  0  0
    3.4601    0.0127    0.8268 C   0  0  0  0  0  0  0  0  0  0  0  0
    4.3450    0.0635    2.0963 C   0  0  0  0  0  0  0  0  0  0  0  0
    6.0824    1.8124    2.0129 C   0  0  0  0  0  0  0  0  0  0  0  0
    7.1374    2.3266    1.6057 O   0  0  0  0  0  0  0  0  0  0  0  0
    5.1965    2.5524    2.7592 O   0  0  0  0  0  0  0  0  0  0  0  0
    3.5317   -1.7637   -0.9169 C   0  0  0  0  0  0  0  0  0  0  0  0
    2.0885   -2.0772   -0.7015 C   0  0  0  0  0  0  0  0  0  0  0  0
    1.1094   -1.0997   -0.8863 C   0  0  0  0  0  0  0  0  0  0  0  0
   -0.2470   -1.4271   -0.7396 C   0  0  0  0  0  0  0  0  0  0  0  0
   -0.6069   -2.7424   -0.4162 C   0  0  0  0  0  0  0  0  0  0  0  0
    0.3782   -3.7239   -0.2375 C   0  0  0  0  0  0  0  0  0  0  0  0
    1.7323   -3.3907   -0.3839 C   0  0  0  0  0  0  0  0  0  0  0  0
    4.2234   -2.4577   -1.6885 O   0  0  0  0  0  0  0  0  0  0  0  0
   -1.0621   -7.0133    0.3489 N   0  0  0  0  0  0  0  0  0  0  0  0
    0.1752   -7.1130    0.9091 N   0  0  0  0  0  0  0  0  0  0  0  0
    0.7988   -6.0220    0.7726 N   0  0  0  0  0  0  0  0  0  0  0  0
   -0.0178   -5.0751    0.0890 C   0  0  0  0  0  0  0  0  0  0  0  0
   -1.2375   -5.7273   -0.1829 C   0  0  0  0  0  0  0  0  0  0  0  0
   -2.6272   -8.2805   -1.0444 C   0  0  0  0  0  0  0  0  0  0  0  0
   -2.0643   -8.0681    0.3662 C   0  0  0  0  0  0  0  0  0  0  0  0
   -3.2292   -7.7690    1.3267 C   0  0  0  0  0  0  0  0  0  0  0  0
   -4.1897   -8.9493    1.4254 C   0  0  0  0  0  0  0  0  0  0  0  0
   -4.5757   -9.1984    2.8691 C   0  0  0  0  0  0  0  0  0  0  0  0
   -3.1376   -7.4294   -1.7725 O   0  0  0  0  0  0  0  0  0  0  0  0
   -2.5151   -9.5768   -1.4210 O   0  0  0  0  0  0  0  0  0  0  0  0
   -4.4725   -9.8017   -2.8659 C   0  0  0  0  0  0  0  0  0  0  0  0
   -2.9747  -10.0154   -2.7305 C   0  0  0  0  0  0  0  0  0  0  0  0
   -2.2048   -9.3016   -3.8283 C   0  0  0  0  0  0  0  0  0  0  0  0
   -2.6435  -11.5060   -2.7261 C   0  0  0  0  0  0  0  0  0  0  0  0
   -5.4295   -8.7098    0.5870 C   0  0  0  0  0  0  0  0  0  0  0  0
   -2.3674    1.4930   -1.2101 N   0  0  0  0  0  0  0  0  0  0  0  0
   -3.2630    0.4985   -0.9790 N   0  0  0  0  0  0  0  0  0  0  0  0
   -2.6560   -0.5983   -0.8051 N   0  0  0  0  0  0  0  0  0  0  0  0
   -1.2488   -0.3991   -0.9060 C   0  0  0  0  0  0  0  0  0  0  0  0
   -1.0654    0.9740   -1.1735 C   0  0  0  0  0  0  0  0  0  0  0  0
   -3.4552    3.1281   -2.6935 C   0  0  0  0  0  0  0  0  0  0  0  0
   -2.6952    2.8965   -1.3885 C   0  0  0  0  0  0  0  0  0  0  0  0
   -3.5214    3.5010   -0.2363 C   0  0  0  0  0  0  0  0  0  0  0  0
   -4.6299    3.4543   -2.8446 O   0  0  0  0  0  0  0  0  0  0  0  0
   -2.6559    2.9828   -3.7892 O   0  0  0  0  0  0  0  0  0  0  0  0
   -3.2753    3.1624   -5.0657 C   0  0  0  0  0  0  0  0  0  0  0  0
   -2.2720    2.7976    3.1794 N   0  0  0  0  0  0  0  0  0  0  0  0
   -3.1633    2.6047    2.1257 C   0  0  0  0  0  0  0  0  0  0  0  0
   -2.8156    3.4199    1.0452 C   0  0  0  0  0  0  0  0  0  0  0  0
   -1.6404    4.1691    1.4412 C   0  0  0  0  0  0  0  0  0  0  0  0
   -0.8385    5.1285    0.8204 C   0  0  0  0  0  0  0  0  0  0  0  0
    0.2498    5.6431    1.5087 C   0  0  0  0  0  0  0  0  0  0  0  0
    0.5563    5.2191    2.8146 C   0  0  0  0  0  0  0  0  0  0  0  0
   -0.2180    4.2766    3.4729 C   0  0  0  0  0  0  0  0  0  0  0  0
   -1.3229    3.7467    2.7883 C   0  0  0  0  0  0  0  0  0  0  0  0
    5.5856    3.8733    3.2221 C   0  0  0  0  0  0  0  0  0  0  0  0
    4.3846    4.2981    4.0671 C   0  0  0  0  0  0  0  0  0  0  0  0
    5.7652    4.8212    2.0481 C   0  0  0  0  0  0  0  0  0  0  0  0
    6.8359    3.8008    4.0819 C   0  0  0  0  0  0  0  0  0  0  0  0
    6.5298   -1.2928    1.1133 H   0  0  0  0  0  0  0  0  0  0  0  0
    7.3187    0.2361    0.4866 H   0  0  0  0  0  0  0  0  0  0  0  0
    5.9356   -1.0468   -1.2360 H   0  0  0  0  0  0  0  0  0  0  0  0
    5.4847    0.7128   -1.0281 H   0  0  0  0  0  0  0  0  0  0  0  0
    2.4995   -0.5020    1.1079 H   0  0  0  0  0  0  0  0  0  0  0  0
    3.2148    1.0692    0.5138 H   0  0  0  0  0  0  0  0  0  0  0  0
    3.8569    0.7570    2.8350 H   0  0  0  0  0  0  0  0  0  0  0  0
    4.3942   -0.9669    2.5521 H   0  0  0  0  0  0  0  0  0  0  0  0
    1.4028   -0.0727   -1.1528 H   0  0  0  0  0  0  0  0  0  0  0  0
   -1.6684   -3.0136   -0.2998 H   0  0  0  0  0  0  0  0  0  0  0  0
    2.5165   -4.1562   -0.2651 H   0  0  0  0  0  0  0  0  0  0  0  0
   -2.1448   -5.4248   -0.7090 H   0  0  0  0  0  0  0  0  0  0  0  0
   -1.5582   -9.0293    0.6932 H   0  0  0  0  0  0  0  0  0  0  0  0
   -2.8002   -7.5432    2.3395 H   0  0  0  0  0  0  0  0  0  0  0  0
   -3.7753   -6.8530    0.9784 H   0  0  0  0  0  0  0  0  0  0  0  0
   -3.6757   -9.8745    1.0331 H   0  0  0  0  0  0  0  0  0  0  0  0
   -5.2945  -10.0508    2.9316 H   0  0  0  0  0  0  0  0  0  0  0  0
   -3.6745   -9.4486    3.4790 H   0  0  0  0  0  0  0  0  0  0  0  0
   -5.0617   -8.2936    3.3075 H   0  0  0  0  0  0  0  0  0  0  0  0
   -4.8330  -10.2922   -3.8011 H   0  0  0  0  0  0  0  0  0  0  0  0
   -5.0053  -10.2483   -1.9920 H   0  0  0  0  0  0  0  0  0  0  0  0
   -4.7099   -8.7111   -2.9137 H   0  0  0  0  0  0  0  0  0  0  0  0
   -2.4466   -9.7680   -4.8128 H   0  0  0  0  0  0  0  0  0  0  0  0
   -2.4817   -8.2201   -3.8622 H   0  0  0  0  0  0  0  0  0  0  0  0
   -1.1070   -9.3873   -3.6456 H   0  0  0  0  0  0  0  0  0  0  0  0
   -2.9523  -11.9494   -3.7017 H   0  0  0  0  0  0  0  0  0  0  0  0
   -1.5474  -11.6559   -2.5822 H   0  0  0  0  0  0  0  0  0  0  0  0
   -3.1871  -12.0193   -1.8982 H   0  0  0  0  0  0  0  0  0  0  0  0
   -6.0893   -9.6102    0.6101 H   0  0  0  0  0  0  0  0  0  0  0  0
   -6.0073   -7.8373    0.9761 H   0  0  0  0  0  0  0  0  0  0  0  0
   -5.1444   -8.5037   -0.4753 H   0  0  0  0  0  0  0  0  0  0  0  0
   -0.1774    1.5816   -1.3338 H   0  0  0  0  0  0  0  0  0  0  0  0
   -1.7116    3.4548   -1.4632 H   0  0  0  0  0  0  0  0  0  0  0  0
   -3.7143    4.5764   -0.5048 H   0  0  0  0  0  0  0  0  0  0  0  0
   -4.5177    2.9849   -0.1785 H   0  0  0  0  0  0  0  0  0  0  0  0
   -2.4455    2.9689   -5.7891 H   0  0  0  0  0  0  0  0  0  0  0  0
   -4.1085    2.4297   -5.1899 H   0  0  0  0  0  0  0  0  0  0  0  0
   -3.6634    4.2055   -5.1536 H   0  0  0  0  0  0  0  0  0  0  0  0
   -2.2950    2.3368    4.0492 H   0  0  0  0  0  0  0  0  0  0  0  0
   -3.9904    1.8952    2.2131 H   0  0  0  0  0  0  0  0  0  0  0  0
   -1.0762    5.4709   -0.1969 H   0  0  0  0  0  0  0  0  0  0  0  0
    0.8895    6.4000    1.0312 H   0  0  0  0  0  0  0  0  0  0  0  0
    1.4331    5.6485    3.3233 H   0  0  0  0  0  0  0  0  0  0  0  0
    0.0232    3.9545    4.4945 H   0  0  0  0  0  0  0  0  0  0  0  0
    4.5837    5.3074    4.4976 H   0  0  0  0  0  0  0  0  0  0  0  0
    3.4639    4.3403    3.4377 H   0  0  0  0  0  0  0  0  0  0  0  0
    4.2202    3.5691    4.8952 H   0  0  0  0  0  0  0  0  0  0  0  0
    5.8674    5.8653    2.4280 H   0  0  0  0  0  0  0  0  0  0  0  0
    6.6808    4.5548    1.4662 H   0  0  0  0  0  0  0  0  0  0  0  0
    4.8798    4.7648    1.3713 H   0  0  0  0  0  0  0  0  0  0  0  0
    7.0106    4.7910    4.5655 H   0  0  0  0  0  0  0  0  0  0  0  0
    6.7117    3.0249    4.8744 H   0  0  0  0  0  0  0  0  0  0  0  0
    7.7254    3.5401    3.4583 H   0  0  0  0  0  0  0  0  0  0  0  0
  1  2  1  0  0  0  0
  1  6  1  0  0  0  0
  1  7  1  0  0  0  0
  2  3  1  0  0  0  0
  2 59  1  0  0  0  0
  2 60  1  0  0  0  0
  3  4  1  0  0  0  0
  3 61  1  0  0  0  0
  3 62  1  0  0  0  0
  4  5  1  0  0  0  0
  4 10  1  0  0  0  0
  5  6  1  0  0  0  0
  5 63  1  0  0  0  0
  5 64  1  0  0  0  0
  6 65  1  0  0  0  0
  6 66  1  0  0  0  0
  7  8  2  0  0  0  0
  7  9  1  0  0  0  0
  9 55  1  0  0  0  0
 10 11  1  0  0  0  0
 10 17  2  0  0  0  0
 11 12  2  0  0  0  0
 11 16  1  0  0  0  0
 12 13  1  0  0  0  0
 12 67  1  0  0  0  0
 13 14  2  0  0  0  0
 13 38  1  0  0  0  0
 14 15  1  0  0  0  0
 14 68  1  0  0  0  0
 15 16  2  0  0  0  0
 15 21  1  0  0  0  0
 16 69  1  0  0  0  0
 18 19  1  0  0  0  0
 18 22  1  0  0  0  0
 18 24  1  0  0  0  0
 19 20  2  0  0  0  0
 20 21  1  0  0  0  0
 21 22  2  0  0  0  0
 22 70  1  0  0  0  0
 23 24  1  0  0  0  0
 23 28  2  0  0  0  0
 23 29  1  0  0  0  0
 24 25  1  0  0  0  0
 24 71  1  0  0  0  0
 25 26  1  0  0  0  0
 25 72  1  0  0  0  0
 25 73  1  0  0  0  0
 26 27  1  0  0  0  0
 26 34  1  0  0  0  0
 26 74  1  0  0  0  0
 27 75  1  0  0  0  0
 27 76  1  0  0  0  0
 27 77  1  0  0  0  0
 29 31  1  0  0  0  0
 30 31  1  0  0  0  0
 30 78  1  0  0  0  0
 30 79  1  0  0  0  0
 30 80  1  0  0  0  0
 31 32  1  0  0  0  0
 31 33  1  0  0  0  0
 32 81  1  0  0  0  0
 32 82  1  0  0  0  0
 32 83  1  0  0  0  0
 33 84  1  0  0  0  0
 33 85  1  0  0  0  0
 33 86  1  0  0  0  0
 34 87  1  0  0  0  0
 34 88  1  0  0  0  0
 34 89  1  0  0  0  0
 35 36  1  0  0  0  0
 35 39  1  0  0  0  0
 35 41  1  0  0  0  0
 36 37  2  0  0  0  0
 37 38  1  0  0  0  0
 38 39  2  0  0  0  0
 39 90  1  0  0  0  0
 40 41  1  0  0  0  0
 40 43  2  0  0  0  0
 40 44  1  0  0  0  0
 41 42  1  0  0  0  0
 41 91  1  0  0  0  0
 42 48  1  0  0  0  0
 42 92  1  0  0  0  0
 42 93  1  0  0  0  0
 44 45  1  0  0  0  0
 45 94  1  0  0  0  0
 45 95  1  0  0  0  0
 45 96  1  0  0  0  0
 46 47  1  0  0  0  0
 46 54  1  0  0  0  0
 46 97  1  0  0  0  0
 47 48  2  0  0  0  0
 47 98  1  0  0  0  0
 48 49  1  0  0  0  0
 49 50  2  0  0  0  0
 49 54  1  0  0  0  0
 50 51  1  0  0  0  0
 50 99  1  0  0  0  0
 51 52  2  0  0  0  0
 51100  1  0  0  0  0
 52 53  1  0  0  0  0
 52101  1  0  0  0  0
 53 54  2  0  0  0  0
 53102  1  0  0  0  0
 55 56  1  0  0  0  0
 55 57  1  0  0  0  0
 55 58  1  0  0  0  0
 56103  1  0  0  0  0
 56104  1  0  0  0  0
 56105  1  0  0  0  0
 57106  1  0  0  0  0
 57107  1  0  0  0  0
 57108  1  0  0  0  0
 58109  1  0  0  0  0
 58110  1  0  0  0  0
 58111  1  0  0  0  0
M  END
