./001326-66-5.hin
 OpenBabel10051109203D

 36 38  0  0  0  0  0  0  0  0999 V2000
   -5.6630   -2.6207   -1.0746 C   0  0  0  0  0  0  0  0  0  0  0  0
   -5.4532   -1.3288   -0.5910 C   0  0  0  0  0  0  0  0  0  0  0  0
   -4.1985   -0.7333   -0.7032 C   0  0  0  0  0  0  0  0  0  0  0  0
   -3.1449   -1.4336   -1.3064 C   0  0  0  0  0  0  0  0  0  0  0  0
   -3.3546   -2.7334   -1.7874 C   0  0  0  0  0  0  0  0  0  0  0  0
   -4.6138   -3.3206   -1.6695 C   0  0  0  0  0  0  0  0  0  0  0  0
   -1.8245   -0.8252   -1.4349 C   0  0  0  0  0  0  0  0  0  0  0  0
   -0.6159   -1.4498   -1.4320 N   0  0  0  0  0  0  0  0  0  0  0  0
    0.3142   -0.4014   -1.5981 C   0  0  0  0  0  0  0  0  0  0  0  0
   -0.3032    0.8249   -1.6983 N   0  0  0  0  0  0  0  0  0  0  0  0
   -1.6038    0.5605   -1.5939 N   0  0  0  0  0  0  0  0  0  0  0  0
    1.9891   -0.6090   -1.6762 S   0  0  0  0  0  0  0  0  0  0  0  0
    2.2282   -2.3336   -1.4376 C   0  0  0  0  0  0  0  0  0  0  0  0
    1.8269   -3.2679   -2.5443 C   0  0  0  0  0  0  0  0  0  0  0  0
    1.6848   -2.9071   -3.7154 O   0  0  0  0  0  0  0  0  0  0  0  0
    1.6210   -4.6783   -2.1374 C   0  0  0  0  0  0  0  0  0  0  0  0
    0.7262   -5.4594   -2.8786 C   0  0  0  0  0  0  0  0  0  0  0  0
    0.5001   -6.7912   -2.5125 C   0  0  0  0  0  0  0  0  0  0  0  0
    1.1885   -7.3400   -1.4085 C   0  0  0  0  0  0  0  0  0  0  0  0
    2.0919   -6.5584   -0.6818 C   0  0  0  0  0  0  0  0  0  0  0  0
    2.3007   -5.2309   -1.0463 C   0  0  0  0  0  0  0  0  0  0  0  0
    0.9141   -8.6581   -1.1136 O   0  0  0  0  0  0  0  0  0  0  0  0
   -0.4016   -7.5085   -3.2619 O   0  0  0  0  0  0  0  0  0  0  0  0
   -6.6554   -3.0870   -0.9844 H   0  0  0  0  0  0  0  0  0  0  0  0
   -6.2787   -0.7780   -0.1163 H   0  0  0  0  0  0  0  0  0  0  0  0
   -4.0422    0.2790   -0.3025 H   0  0  0  0  0  0  0  0  0  0  0  0
   -2.5271   -3.2891   -2.2561 H   0  0  0  0  0  0  0  0  0  0  0  0
   -4.7761   -4.3408   -2.0485 H   0  0  0  0  0  0  0  0  0  0  0  0
   -2.2815    1.2822   -1.6680 H   0  0  0  0  0  0  0  0  0  0  0  0
    3.3405   -2.4227   -1.2993 H   0  0  0  0  0  0  0  0  0  0  0  0
    1.7298   -2.6668   -0.4913 H   0  0  0  0  0  0  0  0  0  0  0  0
    0.2028   -5.0335   -3.7497 H   0  0  0  0  0  0  0  0  0  0  0  0
    2.6309   -6.9917    0.1727 H   0  0  0  0  0  0  0  0  0  0  0  0
    3.0138   -4.6223   -0.4698 H   0  0  0  0  0  0  0  0  0  0  0  0
    1.4558   -8.9122   -0.3527 H   0  0  0  0  0  0  0  0  0  0  0  0
   -0.4270   -8.4136   -2.9142 H   0  0  0  0  0  0  0  0  0  0  0  0
  1  2  2  0  0  0  0
  1  6  1  0  0  0  0
  1 24  1  0  0  0  0
  2  3  1  0  0  0  0
  2 25  1  0  0  0  0
  3  4  2  0  0  0  0
  3 26  1  0  0  0  0
  4  5  1  0  0  0  0
  4  7  1  0  0  0  0
  5  6  2  0  0  0  0
  5 27  1  0  0  0  0
  6 28  1  0  0  0  0
  7  8  2  0  0  0  0
  7 11  1  0  0  0  0
  8  9  1  0  0  0  0
  9 10  2  0  0  0  0
  9 12  1  0  0  0  0
 10 11  1  0  0  0  0
 11 29  1  0  0  0  0
 12 13  1  0  0  0  0
 13 14  1  0  0  0  0
 13 30  1  0  0  0  0
 13 31  1  0  0  0  0
 14 15  2  0  0  0  0
 14 16  1  0  0  0  0
 16 17  2  0  0  0  0
 16 21  1  0  0  0  0
 17 18  1  0  0  0  0
 17 32  1  0  0  0  0
 18 19  2  0  0  0  0
 18 23  1  0  0  0  0
 19 20  1  0  0  0  0
 19 22  1  0  0  0  0
 20 21  2  0  0  0  0
 20 33  1  0  0  0  0
 21 34  1  0  0  0  0
 22 35  1  0  0  0  0
 23 36  1  0  0  0  0
M  END
