./001455-77-2.hin
 OpenBabel10051109203D

 12 12  0  0  0  0  0  0  0  0999 V2000
   -0.6708   -0.7966    0.0674 C   0  0  0  0  0  0  0  0  0  0  0  0
   -0.7142    0.5705    0.0748 N   0  0  0  0  0  0  0  0  0  0  0  0
    0.6740    0.9380    0.0626 C   0  0  0  0  0  0  0  0  0  0  0  0
    1.5114   -0.1619    0.0080 N   0  0  0  0  0  0  0  0  0  0  0  0
    0.6945   -1.2272   -0.0591 N   0  0  0  0  0  0  0  0  0  0  0  0
    1.1053    2.2657    0.1832 N   0  0  0  0  0  0  0  0  0  0  0  0
   -1.7515   -1.6825    0.1752 N   0  0  0  0  0  0  0  0  0  0  0  0
    0.4166    2.9308   -0.0983 H   0  0  0  0  0  0  0  0  0  0  0  0
    2.0010    2.4288   -0.2258 H   0  0  0  0  0  0  0  0  0  0  0  0
   -2.6317   -1.2416   -0.0013 H   0  0  0  0  0  0  0  0  0  0  0  0
   -1.6301   -2.5247   -0.3474 H   0  0  0  0  0  0  0  0  0  0  0  0
    1.0369   -2.0952    0.2898 H   0  0  0  0  0  0  0  0  0  0  0  0
  1  2  2  0  0  0  0
  1  5  1  0  0  0  0
  1  7  1  0  0  0  0
  2  3  1  0  0  0  0
  3  4  2  0  0  0  0
  3  6  1  0  0  0  0
  4  5  1  0  0  0  0
  5 12  1  0  0  0  0
  6  8  1  0  0  0  0
  6  9  1  0  0  0  0
  7 10  1  0  0  0  0
  7 11  1  0  0  0  0
M  END
