./001468-26-4.hin
 OpenBabel10051109203D

 14 15  0  0  0  0  0  0  0  0999 V2000
   -0.5622   -1.0927    0.0004 C   0  0  0  0  0  0  0  0  0  0  0  0
   -0.5366    0.3389    0.0001 C   0  0  0  0  0  0  0  0  0  0  0  0
    0.7068    1.0942   -0.0002 C   0  0  0  0  0  0  0  0  0  0  0  0
    1.8492    0.2765   -0.0004 N   0  0  0  0  0  0  0  0  0  0  0  0
    1.8318   -1.1348   -0.0005 C   0  0  0  0  0  0  0  0  0  0  0  0
    0.6002   -1.8289    0.0003 N   0  0  0  0  0  0  0  0  0  0  0  0
    2.8996   -1.7798   -0.0012 O   0  0  0  0  0  0  0  0  0  0  0  0
    0.8058    2.3301   -0.0002 O   0  0  0  0  0  0  0  0  0  0  0  0
   -1.8856    0.6962    0.0001 N   0  0  0  0  0  0  0  0  0  0  0  0
   -2.6380   -0.4055    0.0005 N   0  0  0  0  0  0  0  0  0  0  0  0
   -1.9316   -1.4749    0.0007 N   0  0  0  0  0  0  0  0  0  0  0  0
    2.7502    0.7079   -0.0006 H   0  0  0  0  0  0  0  0  0  0  0  0
    0.6020   -2.8240    0.0002 H   0  0  0  0  0  0  0  0  0  0  0  0
   -2.2636    1.6176   -0.0003 H   0  0  0  0  0  0  0  0  0  0  0  0
  1  2  2  0  0  0  0
  1  6  1  0  0  0  0
  1 11  1  0  0  0  0
  2  3  1  0  0  0  0
  2  9  1  0  0  0  0
  3  4  1  0  0  0  0
  3  8  2  0  0  0  0
  4  5  1  0  0  0  0
  4 12  1  0  0  0  0
  5  6  1  0  0  0  0
  5  7  2  0  0  0  0
  6 13  1  0  0  0  0
  9 10  1  0  0  0  0
  9 14  1  0  0  0  0
 10 11  2  0  0  0  0
M  END
