./001600-61-9.hin
 OpenBabel10051109203D

 21 22  0  0  0  0  0  0  0  0999 V2000
   -0.6075   -2.6105   -0.1709 N   0  0  0  0  0  0  0  0  0  0  0  0
   -0.5796   -1.2808   -0.1267 C   0  0  0  0  0  0  0  0  0  0  0  0
   -1.8914   -0.6538   -0.1426 N   0  0  0  0  0  0  0  0  0  0  0  0
   -2.7987   -1.6818   -0.4455 N   0  0  0  0  0  0  0  0  0  0  0  0
   -2.0187   -2.9446   -0.3345 C   0  0  0  0  0  0  0  0  0  0  0  0
   -2.5134   -4.0680   -0.4284 O   0  0  0  0  0  0  0  0  0  0  0  0
   -4.0490   -1.6735    0.2999 C   0  0  0  0  0  0  0  0  0  0  0  0
    0.6285   -0.4931    0.0038 C   0  0  0  0  0  0  0  0  0  0  0  0
    0.5129    0.8902   -0.1855 O   0  0  0  0  0  0  0  0  0  0  0  0
    1.8132    1.3891   -0.0076 C   0  0  0  0  0  0  0  0  0  0  0  0
    1.9980    2.8344   -0.1523 N   0  3  0  0  0  0  0  0  0  0  0  0
    1.0567    3.5200   -0.4316 O   0  0  0  0  0  0  0  0  0  0  0  0
    2.7100    0.3683    0.2816 C   0  0  0  0  0  0  0  0  0  0  0  0
    1.9397   -0.8490    0.2857 C   0  0  0  0  0  0  0  0  0  0  0  0
   -1.9730    0.0953   -0.8147 H   0  0  0  0  0  0  0  0  0  0  0  0
   -4.6531   -0.7878   -0.0289 H   0  0  0  0  0  0  0  0  0  0  0  0
   -4.5874   -2.6203    0.0268 H   0  0  0  0  0  0  0  0  0  0  0  0
   -3.9145   -1.6292    1.4131 H   0  0  0  0  0  0  0  0  0  0  0  0
    3.7797    0.4685    0.4669 H   0  0  0  0  0  0  0  0  0  0  0  0
    2.3190   -1.8538    0.4737 H   0  0  0  0  0  0  0  0  0  0  0  0
    3.1051    3.2681    0.0177 O   0  5  0  0  0  0  0  0  0  0  0  0
  1  2  2  0  0  0  0
  1  5  1  0  0  0  0
  2  3  1  0  0  0  0
  2  8  1  0  0  0  0
  3  4  1  0  0  0  0
  3 15  1  0  0  0  0
  4  5  1  0  0  0  0
  4  7  1  0  0  0  0
  5  6  2  0  0  0  0
  7 16  1  0  0  0  0
  7 17  1  0  0  0  0
  7 18  1  0  0  0  0
  8  9  1  0  0  0  0
  8 14  2  0  0  0  0
  9 10  1  0  0  0  0
 10 11  1  0  0  0  0
 10 13  2  0  0  0  0
 11 12  2  0  0  0  0
 11 21  1  0  0  0  0
 13 14  1  0  0  0  0
 13 19  1  0  0  0  0
 14 20  1  0  0  0  0
M  CHG   2  11   1  21  -1
M  END
