./001680-44-0.hin
 OpenBabel10051109203D

 18 19  0  0  0  0  0  0  0  0999 V2000
   -2.6085   -1.8861    0.0000 C   0  0  0  0  0  0  0  0  0  0  0  0
   -2.7400   -0.4981    0.0000 C   0  0  0  0  0  0  0  0  0  0  0  0
   -1.6090    0.3165    0.0000 C   0  0  0  0  0  0  0  0  0  0  0  0
   -0.3278   -0.2561    0.0000 C   0  0  0  0  0  0  0  0  0  0  0  0
   -0.2027   -1.6544   -0.0000 C   0  0  0  0  0  0  0  0  0  0  0  0
   -1.3376   -2.4613    0.0000 C   0  0  0  0  0  0  0  0  0  0  0  0
    0.8599    0.5724   -0.0000 C   0  0  0  0  0  0  0  0  0  0  0  0
    0.9004    1.9427   -0.0000 N   0  0  0  0  0  0  0  0  0  0  0  0
    2.1986    2.2506   -0.0000 N   0  0  0  0  0  0  0  0  0  0  0  0
    3.0458    1.2147   -0.0000 N   0  0  0  0  0  0  0  0  0  0  0  0
    2.2539    0.1148   -0.0000 C   0  0  0  0  0  0  0  0  0  0  0  0
   -3.5030   -2.5258    0.0000 H   0  0  0  0  0  0  0  0  0  0  0  0
   -3.7405   -0.0406    0.0000 H   0  0  0  0  0  0  0  0  0  0  0  0
   -1.7283    1.4107    0.0000 H   0  0  0  0  0  0  0  0  0  0  0  0
    0.7949   -2.1178   -0.0000 H   0  0  0  0  0  0  0  0  0  0  0  0
   -1.2291   -3.5559    0.0000 H   0  0  0  0  0  0  0  0  0  0  0  0
    2.5165    3.1993   -0.0000 H   0  0  0  0  0  0  0  0  0  0  0  0
    2.6337   -0.9047   -0.0000 H   0  0  0  0  0  0  0  0  0  0  0  0
  1  2  2  0  0  0  0
  1  6  1  0  0  0  0
  1 12  1  0  0  0  0
  2  3  1  0  0  0  0
  2 13  1  0  0  0  0
  3  4  2  0  0  0  0
  3 14  1  0  0  0  0
  4  5  1  0  0  0  0
  4  7  1  0  0  0  0
  5  6  2  0  0  0  0
  5 15  1  0  0  0  0
  6 16  1  0  0  0  0
  7  8  2  0  0  0  0
  7 11  1  0  0  0  0
  8  9  1  0  0  0  0
  9 10  1  0  0  0  0
  9 17  1  0  0  0  0
 10 11  2  0  0  0  0
 11 18  1  0  0  0  0
M  END
