./001704-66-1.hin
 OpenBabel10051109203D

 24 25  0  0  0  0  0  0  0  0999 V2000
    1.4241   -1.0311    0.0101 C   0  0  0  0  0  0  0  0  0  0  0  0
    1.2624    0.4027    0.0101 C   0  0  0  0  0  0  0  0  0  0  0  0
    0.0117    1.0641    0.0101 N   0  0  0  0  0  0  0  0  0  0  0  0
    0.3597    2.3904    0.0101 C   0  0  0  0  0  0  0  0  0  0  0  0
   -0.4584    3.5196    0.0101 N   0  0  0  0  0  0  0  0  0  0  0  0
   -1.8648    3.4991    0.0101 C   0  0  0  0  0  0  0  0  0  0  0  0
   -2.5176    4.8615    0.0101 C   0  0  0  0  0  0  0  0  0  0  0  0
   -2.5171    2.4517    0.0100 O   0  0  0  0  0  0  0  0  0  0  0  0
    0.7340   -3.1435    0.0101 C   0  0  0  0  0  0  0  0  0  0  0  0
   -0.2637   -4.2082    0.0101 N   0  3  0  0  0  0  0  0  0  0  0  0
    0.1401   -5.3424    0.0101 O   0  0  0  0  0  0  0  0  0  0  0  0
   -1.4295   -3.9329    0.0101 O   0  5  0  0  0  0  0  0  0  0  0  0
    2.1239   -3.1908    0.0101 C   0  0  0  0  0  0  0  0  0  0  0  0
    2.5669   -1.8249    0.0101 C   0  0  0  0  0  0  0  0  0  0  0  0
    0.2701   -1.8161    0.0101 O   0  0  0  0  0  0  0  0  0  0  0  0
    1.7939    2.4809    0.0101 N   0  0  0  0  0  0  0  0  0  0  0  0
    2.3341    1.2680    0.0101 N   0  0  0  0  0  0  0  0  0  0  0  0
   -0.0041    4.4039    0.0101 H   0  0  0  0  0  0  0  0  0  0  0  0
   -3.6266    4.7172    0.0101 H   0  0  0  0  0  0  0  0  0  0  0  0
   -2.2280    5.4386    0.9211 H   0  0  0  0  0  0  0  0  0  0  0  0
   -2.2280    5.4386   -0.9009 H   0  0  0  0  0  0  0  0  0  0  0  0
    2.7462   -4.0848    0.0101 H   0  0  0  0  0  0  0  0  0  0  0  0
    3.5996   -1.4827    0.0101 H   0  0  0  0  0  0  0  0  0  0  0  0
    2.3662    3.2912    0.0101 H   0  0  0  0  0  0  0  0  0  0  0  0
  1  2  1  0  0  0  0
  1 14  2  0  0  0  0
  1 15  1  0  0  0  0
  2  3  1  0  0  0  0
  2 17  2  0  0  0  0
  3  4  2  0  0  0  0
  4  5  1  0  0  0  0
  4 16  1  0  0  0  0
  5  6  1  0  0  0  0
  5 18  1  0  0  0  0
  6  7  1  0  0  0  0
  6  8  2  0  0  0  0
  7 19  1  0  0  0  0
  7 20  1  0  0  0  0
  7 21  1  0  0  0  0
  9 10  1  0  0  0  0
  9 13  2  0  0  0  0
  9 15  1  0  0  0  0
 10 11  2  0  0  0  0
 10 12  1  0  0  0  0
 13 14  1  0  0  0  0
 13 22  1  0  0  0  0
 14 23  1  0  0  0  0
 16 17  1  0  0  0  0
 16 24  1  0  0  0  0
M  CHG   2  10   1  12  -1
M  END
