./002338-12-7.hin
 OpenBabel10051109203D

 16 17  0  0  0  0  0  0  0  0999 V2000
   -1.2796   -0.3577   -0.0000 C   0  0  0  0  0  0  0  0  0  0  0  0
   -1.2598    1.0955   -0.0000 C   0  0  0  0  0  0  0  0  0  0  0  0
   -0.0547    1.8081   -0.0000 C   0  0  0  0  0  0  0  0  0  0  0  0
    1.1176    1.0719   -0.0000 C   0  0  0  0  0  0  0  0  0  0  0  0
    1.0969   -0.3471   -0.0000 C   0  0  0  0  0  0  0  0  0  0  0  0
   -0.0920   -1.0867   -0.0000 C   0  0  0  0  0  0  0  0  0  0  0  0
    2.3938   -1.0742    0.0000 N   0  3  0  0  0  0  0  0  0  0  0  0
    3.4149   -0.4403    0.0000 O   0  0  0  0  0  0  0  0  0  0  0  0
    2.3859   -2.2758   -0.0000 O   0  5  0  0  0  0  0  0  0  0  0  0
   -2.6162    1.4357    0.0000 N   0  0  0  0  0  0  0  0  0  0  0  0
   -3.3674    0.3074    0.0000 N   0  0  0  0  0  0  0  0  0  0  0  0
   -2.6583   -0.7356   -0.0000 N   0  0  0  0  0  0  0  0  0  0  0  0
   -0.0353    2.9065   -0.0000 H   0  0  0  0  0  0  0  0  0  0  0  0
    2.0917    1.5948   -0.0000 H   0  0  0  0  0  0  0  0  0  0  0  0
   -0.0921   -2.1908   -0.0000 H   0  0  0  0  0  0  0  0  0  0  0  0
   -3.0230    2.3404    0.0000 H   0  0  0  0  0  0  0  0  0  0  0  0
  1  2  2  0  0  0  0
  1  6  1  0  0  0  0
  1 12  1  0  0  0  0
  2  3  1  0  0  0  0
  2 10  1  0  0  0  0
  3  4  2  0  0  0  0
  3 13  1  0  0  0  0
  4  5  1  0  0  0  0
  4 14  1  0  0  0  0
  5  6  2  0  0  0  0
  5  7  1  0  0  0  0
  6 15  1  0  0  0  0
  7  8  2  0  0  0  0
  7  9  1  0  0  0  0
 10 11  1  0  0  0  0
 10 16  1  0  0  0  0
 11 12  2  0  0  0  0
M  CHG   2   7   1   9  -1
M  END
