./002592-95-2.hin
 OpenBabel10051109203D

 15 16  0  0  0  0  0  0  0  0999 V2000
    1.6840   -0.2716   -0.2627 N   0  0  0  0  0  0  0  0  0  0  0  0
    1.8172    1.1402   -0.1042 N   0  0  0  0  0  0  0  0  0  0  0  0
    0.7291    1.7318   -0.0568 N   0  0  0  0  0  0  0  0  0  0  0  0
   -0.3520    0.7673   -0.0163 C   0  0  0  0  0  0  0  0  0  0  0  0
    0.2616   -0.5377   -0.0762 C   0  0  0  0  0  0  0  0  0  0  0  0
   -1.7314    0.9014    0.0313 C   0  0  0  0  0  0  0  0  0  0  0  0
   -2.4892   -0.2756    0.0478 C   0  0  0  0  0  0  0  0  0  0  0  0
   -1.8904   -1.5365    0.0014 C   0  0  0  0  0  0  0  0  0  0  0  0
   -0.5003   -1.6939   -0.0679 C   0  0  0  0  0  0  0  0  0  0  0  0
    2.4850   -1.0137    0.4961 O   0  0  0  0  0  0  0  0  0  0  0  0
   -2.2115    1.8901    0.0553 H   0  0  0  0  0  0  0  0  0  0  0  0
   -3.5865   -0.2019    0.0995 H   0  0  0  0  0  0  0  0  0  0  0  0
   -2.5256   -2.4360    0.0204 H   0  0  0  0  0  0  0  0  0  0  0  0
   -0.0387   -2.6897   -0.1110 H   0  0  0  0  0  0  0  0  0  0  0  0
    3.2780   -1.1788   -0.0566 H   0  0  0  0  0  0  0  0  0  0  0  0
  1  2  1  0  0  0  0
  1  5  1  0  0  0  0
  1 10  1  0  0  0  0
  2  3  2  0  0  0  0
  3  4  1  0  0  0  0
  4  5  2  0  0  0  0
  4  6  1  0  0  0  0
  5  9  1  0  0  0  0
  6  7  2  0  0  0  0
  6 11  1  0  0  0  0
  7  8  1  0  0  0  0
  7 12  1  0  0  0  0
  8  9  2  0  0  0  0
  8 13  1  0  0  0  0
  9 14  1  0  0  0  0
 10 15  1  0  0  0  0
M  END
