./003142-42-5.hin
 OpenBabel10051109203D

 61 63  0  0  0  0  0  0  0  0999 V2000
   -3.4264   -0.1387   -1.3962 C   0  0  0  0  0  0  0  0  0  0  0  0
   -2.2508    0.6346   -1.5297 C   0  0  0  0  0  0  0  0  0  0  0  0
   -0.9997   -0.0112   -1.5891 C   0  0  0  0  0  0  0  0  0  0  0  0
   -0.9143   -1.4005   -1.5195 C   0  0  0  0  0  0  0  0  0  0  0  0
   -2.0863   -2.1607   -1.4001 C   0  0  0  0  0  0  0  0  0  0  0  0
   -3.3252   -1.5443   -1.3391 C   0  0  0  0  0  0  0  0  0  0  0  0
    0.4167   -2.0654   -1.5779 C   0  0  0  0  0  0  0  0  0  0  0  0
    1.1910   -1.8794   -0.2865 C   0  0  0  0  0  0  0  0  0  0  0  0
    2.5513   -2.5386   -0.3644 C   0  0  0  0  0  0  0  0  0  0  0  0
    3.3278   -2.3329    0.9184 C   0  0  0  0  0  0  0  0  0  0  0  0
    4.6868   -2.9965    0.8552 C   0  0  0  0  0  0  0  0  0  0  0  0
    5.4660   -2.7650    2.1321 C   0  0  0  0  0  0  0  0  0  0  0  0
    6.8229   -3.4337    2.0810 C   0  0  0  0  0  0  0  0  0  0  0  0
    7.6059   -3.1785    3.3511 C   0  0  0  0  0  0  0  0  0  0  0  0
    8.9607   -3.8518    3.3093 C   0  0  0  0  0  0  0  0  0  0  0  0
    9.7474   -3.5791    4.5734 C   0  0  0  0  0  0  0  0  0  0  0  0
   11.1011   -4.2560    4.5384 C   0  0  0  0  0  0  0  0  0  0  0  0
   11.8903   -3.9785    5.7917 C   0  0  0  0  0  0  0  0  0  0  0  0
   -3.1256    2.7259   -2.4407 N   0  0  0  0  0  0  0  0  0  0  0  0
   -2.2945    2.0778   -1.6007 N   0  0  0  0  0  0  0  0  0  0  0  0
   -1.4461    2.8435   -0.8899 N   0  0  0  0  0  0  0  0  0  0  0  0
   -1.7368    4.1281   -1.2729 C   0  0  0  0  0  0  0  0  0  0  0  0
   -2.8230    4.0524   -2.2717 C   0  0  0  0  0  0  0  0  0  0  0  0
   -1.2138    5.3950   -0.8948 C   0  0  0  0  0  0  0  0  0  0  0  0
   -1.7453    6.5107   -1.4806 C   0  0  0  0  0  0  0  0  0  0  0  0
   -2.7961    6.4373   -2.4459 C   0  0  0  0  0  0  0  0  0  0  0  0
   -3.3377    5.2469   -2.8460 C   0  0  0  0  0  0  0  0  0  0  0  0
   -4.7088    0.3350   -1.3152 O   0  0  0  0  0  0  0  0  0  0  0  0
   -0.0732    0.5789   -1.6866 H   0  0  0  0  0  0  0  0  0  0  0  0
   -2.0225   -3.2592   -1.3524 H   0  0  0  0  0  0  0  0  0  0  0  0
   -4.2514   -2.1307   -1.2429 H   0  0  0  0  0  0  0  0  0  0  0  0
    0.2886   -3.1623   -1.7808 H   0  0  0  0  0  0  0  0  0  0  0  0
    1.0091   -1.6380   -2.4318 H   0  0  0  0  0  0  0  0  0  0  0  0
    1.3127   -0.7833   -0.0789 H   0  0  0  0  0  0  0  0  0  0  0  0
    0.6091   -2.3159    0.5672 H   0  0  0  0  0  0  0  0  0  0  0  0
    2.4284   -3.6365   -0.5591 H   0  0  0  0  0  0  0  0  0  0  0  0
    3.1290   -2.1124   -1.2267 H   0  0  0  0  0  0  0  0  0  0  0  0
    3.4547   -1.2341    1.1078 H   0  0  0  0  0  0  0  0  0  0  0  0
    2.7454   -2.7514    1.7813 H   0  0  0  0  0  0  0  0  0  0  0  0
    4.5608   -4.0981    0.6846 H   0  0  0  0  0  0  0  0  0  0  0  0
    5.2642   -2.5909   -0.0170 H   0  0  0  0  0  0  0  0  0  0  0  0
    5.5964   -1.6628    2.2973 H   0  0  0  0  0  0  0  0  0  0  0  0
    4.8839   -3.1630    3.0049 H   0  0  0  0  0  0  0  0  0  0  0  0
    6.6932   -4.5383    1.9336 H   0  0  0  0  0  0  0  0  0  0  0  0
    7.3999   -3.0483    1.1994 H   0  0  0  0  0  0  0  0  0  0  0  0
    7.7396   -2.0737    3.4941 H   0  0  0  0  0  0  0  0  0  0  0  0
    7.0251   -3.5575    4.2332 H   0  0  0  0  0  0  0  0  0  0  0  0
    8.8273   -4.9583    3.1801 H   0  0  0  0  0  0  0  0  0  0  0  0
    9.5373   -3.4826    2.4204 H   0  0  0  0  0  0  0  0  0  0  0  0
    9.8844   -2.4727    4.6996 H   0  0  0  0  0  0  0  0  0  0  0  0
    9.1686   -3.9436    5.4627 H   0  0  0  0  0  0  0  0  0  0  0  0
   10.9621   -5.3629    4.4177 H   0  0  0  0  0  0  0  0  0  0  0  0
   11.6755   -3.8965    3.6440 H   0  0  0  0  0  0  0  0  0  0  0  0
   12.8829   -4.4880    5.7466 H   0  0  0  0  0  0  0  0  0  0  0  0
   12.0620   -2.8817    5.9149 H   0  0  0  0  0  0  0  0  0  0  0  0
   11.3438   -4.3498    6.6923 H   0  0  0  0  0  0  0  0  0  0  0  0
   -0.4054    5.4501   -0.1521 H   0  0  0  0  0  0  0  0  0  0  0  0
   -4.1449    5.1892   -3.5897 H   0  0  0  0  0  0  0  0  0  0  0  0
   -4.7159    1.3011   -1.2934 H   0  0  0  0  0  0  0  0  0  0  0  0
   -1.3637    7.5082   -1.2125 H   0  0  0  0  0  0  0  0  0  0  0  0
   -3.1694    7.3822   -2.8706 H   0  0  0  0  0  0  0  0  0  0  0  0
  1  2  2  0  0  0  0
  1  6  1  0  0  0  0
  1 28  1  0  0  0  0
  2  3  1  0  0  0  0
  2 20  1  0  0  0  0
  3  4  2  0  0  0  0
  3 29  1  0  0  0  0
  4  5  1  0  0  0  0
  4  7  1  0  0  0  0
  5  6  2  0  0  0  0
  5 30  1  0  0  0  0
  6 31  1  0  0  0  0
  7  8  1  0  0  0  0
  7 32  1  0  0  0  0
  7 33  1  0  0  0  0
  8  9  1  0  0  0  0
  8 34  1  0  0  0  0
  8 35  1  0  0  0  0
  9 10  1  0  0  0  0
  9 36  1  0  0  0  0
  9 37  1  0  0  0  0
 10 11  1  0  0  0  0
 10 38  1  0  0  0  0
 10 39  1  0  0  0  0
 11 12  1  0  0  0  0
 11 40  1  0  0  0  0
 11 41  1  0  0  0  0
 12 13  1  0  0  0  0
 12 42  1  0  0  0  0
 12 43  1  0  0  0  0
 13 14  1  0  0  0  0
 13 44  1  0  0  0  0
 13 45  1  0  0  0  0
 14 15  1  0  0  0  0
 14 46  1  0  0  0  0
 14 47  1  0  0  0  0
 15 16  1  0  0  0  0
 15 48  1  0  0  0  0
 15 49  1  0  0  0  0
 16 17  1  0  0  0  0
 16 50  1  0  0  0  0
 16 51  1  0  0  0  0
 17 18  1  0  0  0  0
 17 52  1  0  0  0  0
 17 53  1  0  0  0  0
 18 54  1  0  0  0  0
 18 55  1  0  0  0  0
 18 56  1  0  0  0  0
 19 20  1  0  0  0  0
 19 23  2  0  0  0  0
 20 21  1  0  0  0  0
 21 22  2  0  0  0  0
 22 23  1  0  0  0  0
 22 24  1  0  0  0  0
 23 27  1  0  0  0  0
 24 25  2  0  0  0  0
 24 57  1  0  0  0  0
 25 26  1  0  0  0  0
 25 60  1  0  0  0  0
 26 27  2  0  0  0  0
 26 61  1  0  0  0  0
 27 58  1  0  0  0  0
 28 59  1  0  0  0  0
M  END
