./003147-75-9.hin
 OpenBabel10051109203D

 49 51  0  0  0  0  0  0  0  0999 V2000
    0.0745   -1.4806   -1.8150 C   0  0  0  0  0  0  0  0  0  0  0  0
    0.1664   -0.3330   -0.9936 C   0  0  0  0  0  0  0  0  0  0  0  0
   -1.0091    0.3160   -0.5733 C   0  0  0  0  0  0  0  0  0  0  0  0
   -2.2678   -0.1659   -0.9427 C   0  0  0  0  0  0  0  0  0  0  0  0
   -2.3399   -1.3110   -1.7520 C   0  0  0  0  0  0  0  0  0  0  0  0
   -1.1921   -1.9633   -2.1797 C   0  0  0  0  0  0  0  0  0  0  0  0
   -3.2794    1.7457    0.3507 C   0  0  0  0  0  0  0  0  0  0  0  0
   -3.5378    0.5437   -0.5467 C   0  0  0  0  0  0  0  0  0  0  0  0
   -4.5618   -0.4058    0.0934 C   0  0  0  0  0  0  0  0  0  0  0  0
   -4.3134   -1.0133    1.4771 C   0  0  0  0  0  0  0  0  0  0  0  0
   -5.2085   -2.2500    1.5931 C   0  0  0  0  0  0  0  0  0  0  0  0
   -2.8738   -1.4489    1.6802 C   0  0  0  0  0  0  0  0  0  0  0  0
   -4.7170   -0.0496    2.5854 C   0  0  0  0  0  0  0  0  0  0  0  0
   -4.1799    1.0779   -1.8373 C   0  0  0  0  0  0  0  0  0  0  0  0
    1.7921    1.4712   -0.8332 N   0  0  0  0  0  0  0  0  0  0  0  0
    1.4487    0.1924   -0.5848 N   0  0  0  0  0  0  0  0  0  0  0  0
    2.3586   -0.5648    0.0525 N   0  0  0  0  0  0  0  0  0  0  0  0
    3.4220    0.2783    0.2557 C   0  0  0  0  0  0  0  0  0  0  0  0
    3.0560    1.5914   -0.3149 C   0  0  0  0  0  0  0  0  0  0  0  0
    4.6930    0.1063    0.8689 C   0  0  0  0  0  0  0  0  0  0  0  0
    5.5402    1.1791    0.9066 C   0  0  0  0  0  0  0  0  0  0  0  0
    5.1866    2.4483    0.3543 C   0  0  0  0  0  0  0  0  0  0  0  0
    3.9785    2.6710   -0.2466 C   0  0  0  0  0  0  0  0  0  0  0  0
    1.2323   -2.0747   -2.2496 O   0  0  0  0  0  0  0  0  0  0  0  0
   -0.9195    1.2203    0.0518 H   0  0  0  0  0  0  0  0  0  0  0  0
   -2.7305    2.5404   -0.2113 H   0  0  0  0  0  0  0  0  0  0  0  0
   -4.2531    2.1699    0.6981 H   0  0  0  0  0  0  0  0  0  0  0  0
   -2.6769    1.4627    1.2466 H   0  0  0  0  0  0  0  0  0  0  0  0
   -5.5363    0.1545    0.1484 H   0  0  0  0  0  0  0  0  0  0  0  0
   -4.7187   -1.2556   -0.6264 H   0  0  0  0  0  0  0  0  0  0  0  0
   -5.1216   -2.6927    2.6140 H   0  0  0  0  0  0  0  0  0  0  0  0
   -6.2747   -1.9740    1.4131 H   0  0  0  0  0  0  0  0  0  0  0  0
   -4.9062   -3.0225    0.8464 H   0  0  0  0  0  0  0  0  0  0  0  0
   -2.7651   -1.9680    2.6630 H   0  0  0  0  0  0  0  0  0  0  0  0
   -2.5648   -2.1503    0.8676 H   0  0  0  0  0  0  0  0  0  0  0  0
   -2.1870   -0.5685    1.6656 H   0  0  0  0  0  0  0  0  0  0  0  0
   -4.6584   -0.5642    3.5754 H   0  0  0  0  0  0  0  0  0  0  0  0
   -4.0435    0.8381    2.6163 H   0  0  0  0  0  0  0  0  0  0  0  0
   -5.7652    0.3035    2.4322 H   0  0  0  0  0  0  0  0  0  0  0  0
   -3.4599    1.7353   -2.3800 H   0  0  0  0  0  0  0  0  0  0  0  0
   -4.4710    0.2355   -2.5085 H   0  0  0  0  0  0  0  0  0  0  0  0
   -5.0920    1.6724   -1.5919 H   0  0  0  0  0  0  0  0  0  0  0  0
    4.9644   -0.8711    1.2918 H   0  0  0  0  0  0  0  0  0  0  0  0
    6.5327    1.0812    1.3730 H   0  0  0  0  0  0  0  0  0  0  0  0
    0.9906   -2.8808   -2.7311 H   0  0  0  0  0  0  0  0  0  0  0  0
   -3.3208   -1.7022   -2.0655 H   0  0  0  0  0  0  0  0  0  0  0  0
   -1.2672   -2.8586   -2.8141 H   0  0  0  0  0  0  0  0  0  0  0  0
    5.9254    3.2617    0.4237 H   0  0  0  0  0  0  0  0  0  0  0  0
    3.7066    3.6464   -0.6735 H   0  0  0  0  0  0  0  0  0  0  0  0
  1  2  2  0  0  0  0
  1  6  1  0  0  0  0
  1 24  1  0  0  0  0
  2  3  1  0  0  0  0
  2 16  1  0  0  0  0
  3  4  2  0  0  0  0
  3 25  1  0  0  0  0
  4  5  1  0  0  0  0
  4  8  1  0  0  0  0
  5  6  2  0  0  0  0
  5 46  1  0  0  0  0
  6 47  1  0  0  0  0
  7  8  1  0  0  0  0
  7 26  1  0  0  0  0
  7 27  1  0  0  0  0
  7 28  1  0  0  0  0
  8  9  1  0  0  0  0
  8 14  1  0  0  0  0
  9 10  1  0  0  0  0
  9 29  1  0  0  0  0
  9 30  1  0  0  0  0
 10 11  1  0  0  0  0
 10 12  1  0  0  0  0
 10 13  1  0  0  0  0
 11 31  1  0  0  0  0
 11 32  1  0  0  0  0
 11 33  1  0  0  0  0
 12 34  1  0  0  0  0
 12 35  1  0  0  0  0
 12 36  1  0  0  0  0
 13 37  1  0  0  0  0
 13 38  1  0  0  0  0
 13 39  1  0  0  0  0
 14 40  1  0  0  0  0
 14 41  1  0  0  0  0
 14 42  1  0  0  0  0
 15 16  1  0  0  0  0
 15 19  2  0  0  0  0
 16 17  1  0  0  0  0
 17 18  2  0  0  0  0
 18 19  1  0  0  0  0
 18 20  1  0  0  0  0
 19 23  1  0  0  0  0
 20 21  2  0  0  0  0
 20 43  1  0  0  0  0
 21 22  1  0  0  0  0
 21 44  1  0  0  0  0
 22 23  2  0  0  0  0
 22 48  1  0  0  0  0
 23 49  1  0  0  0  0
 24 45  1  0  0  0  0
M  END
