./003147-76-0.hin
 OpenBabel10051109203D

 37 39  0  0  0  0  0  0  0  0999 V2000
   -0.0316   -2.2102   -0.4173 C   0  0  0  0  0  0  0  0  0  0  0  0
   -0.0386   -0.8195   -0.1495 C   0  0  0  0  0  0  0  0  0  0  0  0
    1.1821   -0.1337   -0.0435 C   0  0  0  0  0  0  0  0  0  0  0  0
    2.4033   -0.8060   -0.1798 C   0  0  0  0  0  0  0  0  0  0  0  0
    2.3927   -2.1841   -0.4206 C   0  0  0  0  0  0  0  0  0  0  0  0
    1.1946   -2.8794   -0.5390 C   0  0  0  0  0  0  0  0  0  0  0  0
    3.6816   -0.0178   -0.0612 C   0  0  0  0  0  0  0  0  0  0  0  0
    4.9183   -0.8948   -0.2154 C   0  0  0  0  0  0  0  0  0  0  0  0
    3.7181    1.0534   -1.1486 C   0  0  0  0  0  0  0  0  0  0  0  0
    3.7418    0.6523    1.3093 C   0  0  0  0  0  0  0  0  0  0  0  0
   -2.2214   -0.4795    0.8865 N   0  0  0  0  0  0  0  0  0  0  0  0
   -1.2767   -0.0932    0.0111 N   0  0  0  0  0  0  0  0  0  0  0  0
   -1.5373    1.0141   -0.7110 N   0  0  0  0  0  0  0  0  0  0  0  0
   -2.7777    1.4147   -0.2852 C   0  0  0  0  0  0  0  0  0  0  0  0
   -3.2198    0.4507    0.7440 C   0  0  0  0  0  0  0  0  0  0  0  0
   -3.6217    2.5023   -0.6404 C   0  0  0  0  0  0  0  0  0  0  0  0
   -4.8279    2.6148   -0.0060 C   0  0  0  0  0  0  0  0  0  0  0  0
   -5.2557    1.6825    0.9883 C   0  0  0  0  0  0  0  0  0  0  0  0
   -4.4857    0.6185    1.3691 C   0  0  0  0  0  0  0  0  0  0  0  0
   -1.2318   -2.8569   -0.5699 O   0  0  0  0  0  0  0  0  0  0  0  0
    1.1808    0.9532    0.1469 H   0  0  0  0  0  0  0  0  0  0  0  0
    3.3346   -2.7453   -0.5246 H   0  0  0  0  0  0  0  0  0  0  0  0
    1.2022   -3.9618   -0.7349 H   0  0  0  0  0  0  0  0  0  0  0  0
    4.9457   -1.6811    0.5763 H   0  0  0  0  0  0  0  0  0  0  0  0
    5.8371   -0.2666   -0.1175 H   0  0  0  0  0  0  0  0  0  0  0  0
    4.9337   -1.3829   -1.2191 H   0  0  0  0  0  0  0  0  0  0  0  0
    2.8550    1.7530   -1.0431 H   0  0  0  0  0  0  0  0  0  0  0  0
    3.6734    0.5808   -2.1585 H   0  0  0  0  0  0  0  0  0  0  0  0
    4.6638    1.6417   -1.0696 H   0  0  0  0  0  0  0  0  0  0  0  0
    3.6986   -0.1158    2.1177 H   0  0  0  0  0  0  0  0  0  0  0  0
    2.8888    1.3596    1.4419 H   0  0  0  0  0  0  0  0  0  0  0  0
    4.6950    1.2251    1.4097 H   0  0  0  0  0  0  0  0  0  0  0  0
   -3.2927    3.2180   -1.4067 H   0  0  0  0  0  0  0  0  0  0  0  0
   -5.5066    3.4447   -0.2568 H   0  0  0  0  0  0  0  0  0  0  0  0
   -6.2419    1.8424    1.4509 H   0  0  0  0  0  0  0  0  0  0  0  0
   -4.8144   -0.1008    2.1322 H   0  0  0  0  0  0  0  0  0  0  0  0
   -1.0498   -3.8046   -0.6641 H   0  0  0  0  0  0  0  0  0  0  0  0
  1  2  2  0  0  0  0
  1  6  1  0  0  0  0
  1 20  1  0  0  0  0
  2  3  1  0  0  0  0
  2 12  1  0  0  0  0
  3  4  2  0  0  0  0
  3 21  1  0  0  0  0
  4  5  1  0  0  0  0
  4  7  1  0  0  0  0
  5  6  2  0  0  0  0
  5 22  1  0  0  0  0
  6 23  1  0  0  0  0
  7  8  1  0  0  0  0
  7  9  1  0  0  0  0
  7 10  1  0  0  0  0
  8 24  1  0  0  0  0
  8 25  1  0  0  0  0
  8 26  1  0  0  0  0
  9 27  1  0  0  0  0
  9 28  1  0  0  0  0
  9 29  1  0  0  0  0
 10 30  1  0  0  0  0
 10 31  1  0  0  0  0
 10 32  1  0  0  0  0
 11 12  1  0  0  0  0
 11 15  2  0  0  0  0
 12 13  1  0  0  0  0
 13 14  2  0  0  0  0
 14 15  1  0  0  0  0
 14 16  1  0  0  0  0
 15 19  1  0  0  0  0
 16 17  2  0  0  0  0
 16 33  1  0  0  0  0
 17 18  1  0  0  0  0
 17 34  1  0  0  0  0
 18 19  2  0  0  0  0
 18 35  1  0  0  0  0
 19 36  1  0  0  0  0
 20 37  1  0  0  0  0
M  END
