./003310-68-7.hin
 OpenBabel10051109203D

 22 23  0  0  0  0  0  0  0  0999 V2000
   -1.1710   -2.4955    0.1248 C   0  0  0  0  0  0  0  0  0  0  0  0
   -0.3151   -3.5309    0.4861 C   0  0  0  0  0  0  0  0  0  0  0  0
    1.0633   -3.3964    0.3288 C   0  0  0  0  0  0  0  0  0  0  0  0
    1.5833   -2.2180   -0.2033 C   0  0  0  0  0  0  0  0  0  0  0  0
    0.7430   -1.1739   -0.5809 C   0  0  0  0  0  0  0  0  0  0  0  0
   -0.6523   -1.2976   -0.4169 C   0  0  0  0  0  0  0  0  0  0  0  0
   -1.5374   -0.2890   -0.8795 N   0  0  0  0  0  0  0  0  0  0  0  0
   -1.4328    1.0115   -0.3441 C   0  0  0  0  0  0  0  0  0  0  0  0
   -2.5588    1.9014   -0.3233 N   0  0  0  0  0  0  0  0  0  0  0  0
   -2.0268    3.0637    0.1667 C   0  0  0  0  0  0  0  0  0  0  0  0
   -0.6215    2.8875    0.3612 N   0  0  0  0  0  0  0  0  0  0  0  0
   -0.2748    1.6174    0.1063 N   0  0  0  0  0  0  0  0  0  0  0  0
   -2.7083    4.2502    0.4830 N   0  0  0  0  0  0  0  0  0  0  0  0
   -0.7332   -4.4591    0.9035 H   0  0  0  0  0  0  0  0  0  0  0  0
    1.7354   -4.2153    0.6220 H   0  0  0  0  0  0  0  0  0  0  0  0
    2.6705   -2.1075   -0.3328 H   0  0  0  0  0  0  0  0  0  0  0  0
    1.1782   -0.2589   -1.0115 H   0  0  0  0  0  0  0  0  0  0  0  0
   -2.4915   -0.5992   -0.9225 H   0  0  0  0  0  0  0  0  0  0  0  0
   -2.1890    5.0724    0.2529 H   0  0  0  0  0  0  0  0  0  0  0  0
   -3.6347    4.2679    0.1046 H   0  0  0  0  0  0  0  0  0  0  0  0
   -2.2560   -2.6220    0.2607 H   0  0  0  0  0  0  0  0  0  0  0  0
   -0.0465    3.4301    0.9638 H   0  0  0  0  0  0  0  0  0  0  0  0
  1  2  2  0  0  0  0
  1  6  1  0  0  0  0
  1 21  1  0  0  0  0
  2  3  1  0  0  0  0
  2 14  1  0  0  0  0
  3  4  2  0  0  0  0
  3 15  1  0  0  0  0
  4  5  1  0  0  0  0
  4 16  1  0  0  0  0
  5  6  2  0  0  0  0
  5 17  1  0  0  0  0
  6  7  1  0  0  0  0
  7  8  1  0  0  0  0
  7 18  1  0  0  0  0
  8  9  1  0  0  0  0
  8 12  2  0  0  0  0
  9 10  2  0  0  0  0
 10 11  1  0  0  0  0
 10 13  1  0  0  0  0
 11 12  1  0  0  0  0
 11 22  1  0  0  0  0
 13 19  1  0  0  0  0
 13 20  1  0  0  0  0
M  END
