./003333-62-8.hin
 OpenBabel10051109203D

 45 50  0  0  0  0  0  0  0  0999 V2000
    4.3540   -0.0965   -0.4566 C   0  0  0  0  0  0  0  0  0  0  0  0
    4.3249    1.3322   -0.1262 C   0  0  0  0  0  0  0  0  0  0  0  0
    3.1387    1.9253    0.1668 C   0  0  0  0  0  0  0  0  0  0  0  0
    1.9168    1.1673    0.1396 C   0  0  0  0  0  0  0  0  0  0  0  0
    1.9761   -0.1963   -0.2001 C   0  0  0  0  0  0  0  0  0  0  0  0
    3.1630   -0.8269   -0.4994 O   0  0  0  0  0  0  0  0  0  0  0  0
    0.6623    1.7244    0.4363 C   0  0  0  0  0  0  0  0  0  0  0  0
   -0.4878    0.9555    0.3972 C   0  0  0  0  0  0  0  0  0  0  0  0
   -0.4128   -0.4182    0.0502 C   0  0  0  0  0  0  0  0  0  0  0  0
    0.8262   -1.0023   -0.2537 C   0  0  0  0  0  0  0  0  0  0  0  0
    5.3028   -0.8314   -0.7239 O   0  0  0  0  0  0  0  0  0  0  0  0
    5.5829    2.0716   -0.1227 C   0  0  0  0  0  0  0  0  0  0  0  0
    5.6073    3.4086   -0.5507 C   0  0  0  0  0  0  0  0  0  0  0  0
    6.7964    4.1332   -0.5271 C   0  0  0  0  0  0  0  0  0  0  0  0
    7.9737    3.5344   -0.0784 C   0  0  0  0  0  0  0  0  0  0  0  0
    7.9586    2.2045    0.3407 C   0  0  0  0  0  0  0  0  0  0  0  0
    6.7726    1.4732    0.3173 C   0  0  0  0  0  0  0  0  0  0  0  0
   -1.5829   -2.5553   -0.1926 N   0  0  0  0  0  0  0  0  0  0  0  0
   -1.6112   -1.2154    0.0119 N   0  0  0  0  0  0  0  0  0  0  0  0
   -2.8447   -0.6773    0.1824 N   0  0  0  0  0  0  0  0  0  0  0  0
   -3.7007   -1.7300    0.0858 C   0  0  0  0  0  0  0  0  0  0  0  0
   -2.8866   -2.9409   -0.1567 C   0  0  0  0  0  0  0  0  0  0  0  0
   -3.5240   -4.2141   -0.3029 C   0  0  0  0  0  0  0  0  0  0  0  0
   -4.8762   -4.2743   -0.2121 C   0  0  0  0  0  0  0  0  0  0  0  0
   -5.7025   -3.1128    0.0258 C   0  0  0  0  0  0  0  0  0  0  0  0
   -7.1028   -3.2441    0.1120 C   0  0  0  0  0  0  0  0  0  0  0  0
   -7.9028   -2.1361    0.3407 C   0  0  0  0  0  0  0  0  0  0  0  0
   -7.3275   -0.8660    0.4891 C   0  0  0  0  0  0  0  0  0  0  0  0
   -5.9524   -0.7094    0.4083 C   0  0  0  0  0  0  0  0  0  0  0  0
   -5.1299   -1.8257    0.1773 C   0  0  0  0  0  0  0  0  0  0  0  0
    3.0803    2.9930    0.4346 H   0  0  0  0  0  0  0  0  0  0  0  0
    0.5976    2.7906    0.7055 H   0  0  0  0  0  0  0  0  0  0  0  0
   -1.4532    1.4286    0.6386 H   0  0  0  0  0  0  0  0  0  0  0  0
    0.9404   -2.0632   -0.5298 H   0  0  0  0  0  0  0  0  0  0  0  0
    4.6857    3.8841   -0.9182 H   0  0  0  0  0  0  0  0  0  0  0  0
    6.8058    5.1792   -0.8672 H   0  0  0  0  0  0  0  0  0  0  0  0
    8.9117    4.1085   -0.0599 H   0  0  0  0  0  0  0  0  0  0  0  0
    8.8861    1.7258    0.6888 H   0  0  0  0  0  0  0  0  0  0  0  0
    6.7707    0.4168    0.6315 H   0  0  0  0  0  0  0  0  0  0  0  0
   -2.9044   -5.1044   -0.4840 H   0  0  0  0  0  0  0  0  0  0  0  0
   -5.3960   -5.2403   -0.3205 H   0  0  0  0  0  0  0  0  0  0  0  0
   -7.5563   -4.2402   -0.0047 H   0  0  0  0  0  0  0  0  0  0  0  0
   -8.9953   -2.2491    0.4068 H   0  0  0  0  0  0  0  0  0  0  0  0
   -7.9725    0.0066    0.6703 H   0  0  0  0  0  0  0  0  0  0  0  0
   -5.4963    0.2856    0.5239 H   0  0  0  0  0  0  0  0  0  0  0  0
  1  2  1  0  0  0  0
  1  6  1  0  0  0  0
  1 11  2  0  0  0  0
  2  3  2  0  0  0  0
  2 12  1  0  0  0  0
  3  4  1  0  0  0  0
  3 31  1  0  0  0  0
  4  5  2  0  0  0  0
  4  7  1  0  0  0  0
  5  6  1  0  0  0  0
  5 10  1  0  0  0  0
  7  8  2  0  0  0  0
  7 32  1  0  0  0  0
  8  9  1  0  0  0  0
  8 33  1  0  0  0  0
  9 10  2  0  0  0  0
  9 19  1  0  0  0  0
 10 34  1  0  0  0  0
 12 13  2  0  0  0  0
 12 17  1  0  0  0  0
 13 14  1  0  0  0  0
 13 35  1  0  0  0  0
 14 15  2  0  0  0  0
 14 36  1  0  0  0  0
 15 16  1  0  0  0  0
 15 37  1  0  0  0  0
 16 17  2  0  0  0  0
 16 38  1  0  0  0  0
 17 39  1  0  0  0  0
 18 19  1  0  0  0  0
 18 22  2  0  0  0  0
 19 20  1  0  0  0  0
 20 21  2  0  0  0  0
 21 22  1  0  0  0  0
 21 30  1  0  0  0  0
 22 23  1  0  0  0  0
 23 24  2  0  0  0  0
 23 40  1  0  0  0  0
 24 25  1  0  0  0  0
 24 41  1  0  0  0  0
 25 26  2  0  0  0  0
 25 30  1  0  0  0  0
 26 27  1  0  0  0  0
 26 42  1  0  0  0  0
 27 28  2  0  0  0  0
 27 43  1  0  0  0  0
 28 29  1  0  0  0  0
 28 44  1  0  0  0  0
 29 30  2  0  0  0  0
 29 45  1  0  0  0  0
M  END
