./003641-10-9.hin
 OpenBabel10051109203D

  9  9  0  0  0  0  0  0  0  0999 V2000
   -0.9444   -1.4610   -0.0000 C   0  0  0  0  0  0  0  0  0  0  0  0
    0.3392   -1.9375   -0.0000 N   0  0  0  0  0  0  0  0  0  0  0  0
    1.1827   -0.9337   -0.0000 N   0  0  0  0  0  0  0  0  0  0  0  0
    0.4705    0.2449    0.0000 C   0  0  0  0  0  0  0  0  0  0  0  0
   -0.9044   -0.0692   -0.0000 N   0  0  0  0  0  0  0  0  0  0  0  0
    0.9786    1.5655    0.0000 C   0  0  0  0  0  0  0  0  0  0  0  0
    1.4127    2.6432    0.0000 N   0  0  0  0  0  0  0  0  0  0  0  0
   -1.6585    0.5665   -0.0000 H   0  0  0  0  0  0  0  0  0  0  0  0
   -1.8651   -2.0522   -0.0000 H   0  0  0  0  0  0  0  0  0  0  0  0
  1  2  2  0  0  0  0
  1  5  1  0  0  0  0
  1  9  1  0  0  0  0
  2  3  1  0  0  0  0
  3  4  2  0  0  0  0
  4  5  1  0  0  0  0
  4  6  1  0  0  0  0
  5  8  1  0  0  0  0
  6  7  3  0  0  0  0
M  END
