./003652-23-1.hin
 OpenBabel10051109203D

 27 28  0  0  0  0  0  0  0  0999 V2000
   -3.5674   -4.4223   -0.0000 C   0  0  0  0  0  0  0  0  0  0  0  0
   -3.9382   -2.9605   -0.0000 C   0  0  0  0  0  0  0  0  0  0  0  0
   -2.7057   -2.0897    0.0000 C   0  0  0  0  0  0  0  0  0  0  0  0
   -3.2979   -0.4225   -0.0000 S   0  0  0  0  0  0  0  0  0  0  0  0
   -1.8894    0.5089   -0.0000 C   0  0  0  0  0  0  0  0  0  0  0  0
   -1.8983    1.8876   -0.0000 N   0  0  0  0  0  0  0  0  0  0  0  0
   -0.6156    2.2381   -0.0000 N   0  0  0  0  0  0  0  0  0  0  0  0
    0.2186    1.0993   -0.0000 C   0  0  0  0  0  0  0  0  0  0  0  0
   -0.5777   -0.0066    0.0000 N   0  0  0  0  0  0  0  0  0  0  0  0
    1.6771    1.1379    0.0000 C   0  0  0  0  0  0  0  0  0  0  0  0
    2.4072   -0.0606    0.0000 C   0  0  0  0  0  0  0  0  0  0  0  0
    3.8121    0.0113    0.0000 C   0  0  0  0  0  0  0  0  0  0  0  0
    4.5025    1.1675    0.0000 N   0  0  0  0  0  0  0  0  0  0  0  0
    3.7878    2.3090    0.0000 C   0  0  0  0  0  0  0  0  0  0  0  0
    2.3823    2.3506    0.0000 C   0  0  0  0  0  0  0  0  0  0  0  0
   -4.4899   -5.0518   -0.0000 H   0  0  0  0  0  0  0  0  0  0  0  0
   -2.9650   -4.6764   -0.9054 H   0  0  0  0  0  0  0  0  0  0  0  0
   -2.9650   -4.6764    0.9054 H   0  0  0  0  0  0  0  0  0  0  0  0
   -4.5635   -2.7322   -0.9048 H   0  0  0  0  0  0  0  0  0  0  0  0
   -4.5635   -2.7322    0.9048 H   0  0  0  0  0  0  0  0  0  0  0  0
   -2.0770   -2.2927    0.9005 H   0  0  0  0  0  0  0  0  0  0  0  0
   -2.0770   -2.2927   -0.9005 H   0  0  0  0  0  0  0  0  0  0  0  0
   -0.3486    3.1944   -0.0000 H   0  0  0  0  0  0  0  0  0  0  0  0
    1.9025   -1.0373    0.0000 H   0  0  0  0  0  0  0  0  0  0  0  0
    4.4202   -0.9118    0.0000 H   0  0  0  0  0  0  0  0  0  0  0  0
    4.3764    3.2445    0.0000 H   0  0  0  0  0  0  0  0  0  0  0  0
    1.8761    3.3239    0.0000 H   0  0  0  0  0  0  0  0  0  0  0  0
  1  2  1  0  0  0  0
  1 16  1  0  0  0  0
  1 17  1  0  0  0  0
  1 18  1  0  0  0  0
  2  3  1  0  0  0  0
  2 19  1  0  0  0  0
  2 20  1  0  0  0  0
  3  4  1  0  0  0  0
  3 21  1  0  0  0  0
  3 22  1  0  0  0  0
  4  5  1  0  0  0  0
  5  6  2  0  0  0  0
  5  9  1  0  0  0  0
  6  7  1  0  0  0  0
  7  8  1  0  0  0  0
  7 23  1  0  0  0  0
  8  9  2  0  0  0  0
  8 10  1  0  0  0  0
 10 11  2  0  0  0  0
 10 15  1  0  0  0  0
 11 12  1  0  0  0  0
 11 24  1  0  0  0  0
 12 13  2  0  0  0  0
 12 25  1  0  0  0  0
 13 14  1  0  0  0  0
 14 15  2  0  0  0  0
 14 26  1  0  0  0  0
 15 27  1  0  0  0  0
M  END
