./003652-25-3.hin
 OpenBabel10051109203D

 25 26  0  0  0  0  0  0  0  0999 V2000
   -3.8722   -4.3119   -0.0000 C   0  0  0  0  0  0  0  0  0  0  0  0
   -3.9188   -2.9815    0.0000 C   0  0  0  0  0  0  0  0  0  0  0  0
   -2.7112   -2.1292    0.0000 C   0  0  0  0  0  0  0  0  0  0  0  0
   -3.3088   -0.4622   -0.0000 S   0  0  0  0  0  0  0  0  0  0  0  0
   -1.9019    0.4712   -0.0000 C   0  0  0  0  0  0  0  0  0  0  0  0
   -1.9109    1.8498   -0.0000 N   0  0  0  0  0  0  0  0  0  0  0  0
   -0.6282    2.2003   -0.0000 N   0  0  0  0  0  0  0  0  0  0  0  0
    0.2061    1.0616   -0.0000 C   0  0  0  0  0  0  0  0  0  0  0  0
   -0.5901   -0.0442    0.0000 N   0  0  0  0  0  0  0  0  0  0  0  0
    1.6646    1.0996    0.0000 C   0  0  0  0  0  0  0  0  0  0  0  0
    2.3937   -0.0996    0.0000 C   0  0  0  0  0  0  0  0  0  0  0  0
    3.7986   -0.0290    0.0000 C   0  0  0  0  0  0  0  0  0  0  0  0
    4.4900    1.1267    0.0000 N   0  0  0  0  0  0  0  0  0  0  0  0
    3.7764    2.2688    0.0000 C   0  0  0  0  0  0  0  0  0  0  0  0
    2.3708    2.3116    0.0000 C   0  0  0  0  0  0  0  0  0  0  0  0
   -4.7816   -4.9269   -0.0000 H   0  0  0  0  0  0  0  0  0  0  0  0
   -2.9289   -4.8737   -0.0000 H   0  0  0  0  0  0  0  0  0  0  0  0
   -4.8870   -2.4471    0.0000 H   0  0  0  0  0  0  0  0  0  0  0  0
   -2.0778   -2.3286    0.9004 H   0  0  0  0  0  0  0  0  0  0  0  0
   -2.0778   -2.3286   -0.9004 H   0  0  0  0  0  0  0  0  0  0  0  0
   -0.3612    3.1567   -0.0000 H   0  0  0  0  0  0  0  0  0  0  0  0
    1.8883   -1.0759   -0.0000 H   0  0  0  0  0  0  0  0  0  0  0  0
    4.4060   -0.9526    0.0000 H   0  0  0  0  0  0  0  0  0  0  0  0
    4.3658    3.2037    0.0000 H   0  0  0  0  0  0  0  0  0  0  0  0
    1.8654    3.2853    0.0000 H   0  0  0  0  0  0  0  0  0  0  0  0
  1  2  2  0  0  0  0
  1 16  1  0  0  0  0
  1 17  1  0  0  0  0
  2  3  1  0  0  0  0
  2 18  1  0  0  0  0
  3  4  1  0  0  0  0
  3 19  1  0  0  0  0
  3 20  1  0  0  0  0
  4  5  1  0  0  0  0
  5  6  2  0  0  0  0
  5  9  1  0  0  0  0
  6  7  1  0  0  0  0
  7  8  1  0  0  0  0
  7 21  1  0  0  0  0
  8  9  2  0  0  0  0
  8 10  1  0  0  0  0
 10 11  2  0  0  0  0
 10 15  1  0  0  0  0
 11 12  1  0  0  0  0
 11 22  1  0  0  0  0
 12 13  2  0  0  0  0
 12 23  1  0  0  0  0
 13 14  1  0  0  0  0
 14 15  2  0  0  0  0
 14 24  1  0  0  0  0
 15 25  1  0  0  0  0
M  END
