./003652-27-5.hin
 OpenBabel10051109203D

 27 29  0  0  0  0  0  0  0  0999 V2000
   -2.1924    3.2198   -0.0000 C   0  0  0  0  0  0  0  0  0  0  0  0
   -1.9119    4.5812   -0.0000 C   0  0  0  0  0  0  0  0  0  0  0  0
   -0.5561    4.9715   -0.0000 C   0  0  0  0  0  0  0  0  0  0  0  0
    0.4658    4.1093   -0.0000 N   0  0  0  0  0  0  0  0  0  0  0  0
    0.1852    2.7705   -0.0000 C   0  0  0  0  0  0  0  0  0  0  0  0
   -1.1389    2.2976   -0.0000 C   0  0  0  0  0  0  0  0  0  0  0  0
    1.6490    1.8581   -0.0000 S   0  0  0  0  0  0  0  0  0  0  0  0
    1.3272    0.1984   -0.0000 C   0  0  0  0  0  0  0  0  0  0  0  0
    2.3846   -0.6953    0.0000 N   0  0  0  0  0  0  0  0  0  0  0  0
    1.8216   -1.8970    0.0000 N   0  0  0  0  0  0  0  0  0  0  0  0
    0.4148   -1.7935    0.0000 C   0  0  0  0  0  0  0  0  0  0  0  0
    0.0928   -0.4687   -0.0000 N   0  0  0  0  0  0  0  0  0  0  0  0
   -0.5051   -2.9257    0.0000 C   0  0  0  0  0  0  0  0  0  0  0  0
   -1.8901   -2.6995   -0.0000 C   0  0  0  0  0  0  0  0  0  0  0  0
   -2.7502   -3.8127   -0.0000 C   0  0  0  0  0  0  0  0  0  0  0  0
   -2.3216   -5.0893    0.0000 N   0  0  0  0  0  0  0  0  0  0  0  0
   -0.9900   -5.2901    0.0000 C   0  0  0  0  0  0  0  0  0  0  0  0
   -0.0432   -4.2502    0.0000 C   0  0  0  0  0  0  0  0  0  0  0  0
   -3.2321    2.8604   -0.0000 H   0  0  0  0  0  0  0  0  0  0  0  0
   -2.7085    5.3353   -0.0000 H   0  0  0  0  0  0  0  0  0  0  0  0
   -0.2743    6.0405    0.0000 H   0  0  0  0  0  0  0  0  0  0  0  0
   -1.3774    1.2261   -0.0000 H   0  0  0  0  0  0  0  0  0  0  0  0
    2.3779   -2.7204    0.0000 H   0  0  0  0  0  0  0  0  0  0  0  0
   -2.3030   -1.6807   -0.0000 H   0  0  0  0  0  0  0  0  0  0  0  0
   -3.8469   -3.6736   -0.0000 H   0  0  0  0  0  0  0  0  0  0  0  0
   -0.6632   -6.3460    0.0000 H   0  0  0  0  0  0  0  0  0  0  0  0
    1.0251   -4.4994    0.0000 H   0  0  0  0  0  0  0  0  0  0  0  0
  1  2  2  0  0  0  0
  1  6  1  0  0  0  0
  1 19  1  0  0  0  0
  2  3  1  0  0  0  0
  2 20  1  0  0  0  0
  3  4  2  0  0  0  0
  3 21  1  0  0  0  0
  4  5  1  0  0  0  0
  5  6  2  0  0  0  0
  5  7  1  0  0  0  0
  6 22  1  0  0  0  0
  7  8  1  0  0  0  0
  8  9  2  0  0  0  0
  8 12  1  0  0  0  0
  9 10  1  0  0  0  0
 10 11  1  0  0  0  0
 10 23  1  0  0  0  0
 11 12  2  0  0  0  0
 11 13  1  0  0  0  0
 13 14  2  0  0  0  0
 13 18  1  0  0  0  0
 14 15  1  0  0  0  0
 14 24  1  0  0  0  0
 15 16  2  0  0  0  0
 15 25  1  0  0  0  0
 16 17  1  0  0  0  0
 17 18  2  0  0  0  0
 17 26  1  0  0  0  0
 18 27  1  0  0  0  0
M  END
