./003652-31-1.hin
 OpenBabel10051109203D

 21 22  0  0  0  0  0  0  0  0999 V2000
    0.5608   -2.1285   -0.0000 C   0  0  0  0  0  0  0  0  0  0  0  0
   -0.5156   -1.1938   -0.0000 N   0  0  0  0  0  0  0  0  0  0  0  0
   -0.4891    0.2296   -0.0000 C   0  0  0  0  0  0  0  0  0  0  0  0
   -1.7662    0.6952   -0.0000 N   0  0  0  0  0  0  0  0  0  0  0  0
   -2.5715   -0.3741    0.0000 N   0  0  0  0  0  0  0  0  0  0  0  0
   -1.8742   -1.5989    0.0000 C   0  0  0  0  0  0  0  0  0  0  0  0
   -2.4756   -3.0616    0.0000 S   0  0  0  0  0  0  0  0  0  0  0  0
    0.6844    1.0981   -0.0000 C   0  0  0  0  0  0  0  0  0  0  0  0
    0.4848    2.5062    0.0000 C   0  0  0  0  0  0  0  0  0  0  0  0
    1.4862    3.4004    0.0000 N   0  0  0  0  0  0  0  0  0  0  0  0
    2.7492    2.9298    0.0000 C   0  0  0  0  0  0  0  0  0  0  0  0
    3.0542    1.5587   -0.0000 C   0  0  0  0  0  0  0  0  0  0  0  0
    2.0068    0.6359   -0.0000 C   0  0  0  0  0  0  0  0  0  0  0  0
    1.1904   -1.9953    0.9208 H   0  0  0  0  0  0  0  0  0  0  0  0
    0.1286   -3.1720   -0.0000 H   0  0  0  0  0  0  0  0  0  0  0  0
    1.1904   -1.9953   -0.9208 H   0  0  0  0  0  0  0  0  0  0  0  0
   -3.5619   -0.2697    0.0000 H   0  0  0  0  0  0  0  0  0  0  0  0
   -0.5320    2.9442    0.0000 H   0  0  0  0  0  0  0  0  0  0  0  0
    3.5482    3.6933    0.0000 H   0  0  0  0  0  0  0  0  0  0  0  0
    4.0989    1.2202   -0.0000 H   0  0  0  0  0  0  0  0  0  0  0  0
    2.2519   -0.4348   -0.0000 H   0  0  0  0  0  0  0  0  0  0  0  0
  1  2  1  0  0  0  0
  1 14  1  0  0  0  0
  1 15  1  0  0  0  0
  1 16  1  0  0  0  0
  2  3  1  0  0  0  0
  2  6  1  0  0  0  0
  3  4  2  0  0  0  0
  3  8  1  0  0  0  0
  4  5  1  0  0  0  0
  5  6  1  0  0  0  0
  5 17  1  0  0  0  0
  6  7  2  0  0  0  0
  8  9  2  0  0  0  0
  8 13  1  0  0  0  0
  9 10  1  0  0  0  0
  9 18  1  0  0  0  0
 10 11  2  0  0  0  0
 11 12  1  0  0  0  0
 11 19  1  0  0  0  0
 12 13  2  0  0  0  0
 12 20  1  0  0  0  0
 13 21  1  0  0  0  0
M  END
