./003652-32-2.hin
 OpenBabel10051109203D

 21 22  0  0  0  0  0  0  0  0999 V2000
    0.5638   -2.1167   -0.0000 C   0  0  0  0  0  0  0  0  0  0  0  0
   -0.5196   -1.1894   -0.0000 N   0  0  0  0  0  0  0  0  0  0  0  0
   -0.5035    0.2337   -0.0000 C   0  0  0  0  0  0  0  0  0  0  0  0
   -1.7837    0.6903   -0.0000 N   0  0  0  0  0  0  0  0  0  0  0  0
   -2.5812   -0.3833    0.0000 N   0  0  0  0  0  0  0  0  0  0  0  0
   -1.8748   -1.6045    0.0000 C   0  0  0  0  0  0  0  0  0  0  0  0
   -2.4682   -3.0695    0.0000 S   0  0  0  0  0  0  0  0  0  0  0  0
    0.6662    1.1155   -0.0000 C   0  0  0  0  0  0  0  0  0  0  0  0
    0.4604    2.5082    0.0000 C   0  0  0  0  0  0  0  0  0  0  0  0
    1.5789    3.3591    0.0000 C   0  0  0  0  0  0  0  0  0  0  0  0
    2.8528    2.9211    0.0000 N   0  0  0  0  0  0  0  0  0  0  0  0
    3.0371    1.5887   -0.0000 C   0  0  0  0  0  0  0  0  0  0  0  0
    1.9873    0.6507   -0.0000 C   0  0  0  0  0  0  0  0  0  0  0  0
    1.1922   -1.9785    0.9209 H   0  0  0  0  0  0  0  0  0  0  0  0
    0.1391   -3.1631   -0.0000 H   0  0  0  0  0  0  0  0  0  0  0  0
    1.1922   -1.9785   -0.9209 H   0  0  0  0  0  0  0  0  0  0  0  0
   -3.5725   -0.2865    0.0000 H   0  0  0  0  0  0  0  0  0  0  0  0
   -0.5484    2.9452    0.0000 H   0  0  0  0  0  0  0  0  0  0  0  0
    1.4473    4.4568    0.0000 H   0  0  0  0  0  0  0  0  0  0  0  0
    4.0888    1.2480   -0.0000 H   0  0  0  0  0  0  0  0  0  0  0  0
    2.2437   -0.4149   -0.0000 H   0  0  0  0  0  0  0  0  0  0  0  0
  1  2  1  0  0  0  0
  1 14  1  0  0  0  0
  1 15  1  0  0  0  0
  1 16  1  0  0  0  0
  2  3  1  0  0  0  0
  2  6  1  0  0  0  0
  3  4  2  0  0  0  0
  3  8  1  0  0  0  0
  4  5  1  0  0  0  0
  5  6  1  0  0  0  0
  5 17  1  0  0  0  0
  6  7  2  0  0  0  0
  8  9  2  0  0  0  0
  8 13  1  0  0  0  0
  9 10  1  0  0  0  0
  9 18  1  0  0  0  0
 10 11  2  0  0  0  0
 10 19  1  0  0  0  0
 11 12  1  0  0  0  0
 12 13  2  0  0  0  0
 12 20  1  0  0  0  0
 13 21  1  0  0  0  0
M  END
