./003663-24-9.hin
 OpenBabel10051109203D

 26 27  0  0  0  0  0  0  0  0999 V2000
   -0.6613   -0.6115    0.3885 C   0  0  0  0  0  0  0  0  0  0  0  0
    0.5624   -1.3572    0.3777 C   0  0  0  0  0  0  0  0  0  0  0  0
    1.7917   -0.7582    0.3987 C   0  0  0  0  0  0  0  0  0  0  0  0
    1.8461    0.6599    0.4292 C   0  0  0  0  0  0  0  0  0  0  0  0
    0.5889    1.4364    0.4417 C   0  0  0  0  0  0  0  0  0  0  0  0
   -0.6587    0.7621    0.4252 C   0  0  0  0  0  0  0  0  0  0  0  0
    0.9400    2.7671    0.4672 N   0  0  0  0  0  0  0  0  0  0  0  0
    2.2714    2.7517    0.4699 N   0  0  0  0  0  0  0  0  0  0  0  0
    2.8798    1.5680    0.4486 N   0  0  0  0  0  0  0  0  0  0  0  0
    2.7987    3.6054    0.4853 H   0  0  0  0  0  0  0  0  0  0  0  0
   -1.9507   -1.3595    0.3750 C   0  0  0  0  0  0  0  0  0  0  0  0
   -2.7646   -1.0671   -0.8716 C   0  0  0  0  0  0  0  0  0  0  0  0
   -4.0797   -1.8172   -0.8535 C   0  0  0  0  0  0  0  0  0  0  0  0
   -4.9188   -1.4867   -2.0607 C   0  0  0  0  0  0  0  0  0  0  0  0
    0.4929   -2.4568    0.3527 H   0  0  0  0  0  0  0  0  0  0  0  0
    2.7245   -1.3396    0.3917 H   0  0  0  0  0  0  0  0  0  0  0  0
   -1.5922    1.3434    0.4408 H   0  0  0  0  0  0  0  0  0  0  0  0
   -1.7597   -2.4641    0.4403 H   0  0  0  0  0  0  0  0  0  0  0  0
   -2.5483   -1.0753    1.2840 H   0  0  0  0  0  0  0  0  0  0  0  0
   -2.9608    0.0357   -0.9417 H   0  0  0  0  0  0  0  0  0  0  0  0
   -2.1775   -1.3575   -1.7818 H   0  0  0  0  0  0  0  0  0  0  0  0
   -3.8796   -2.9209   -0.8237 H   0  0  0  0  0  0  0  0  0  0  0  0
   -4.6457   -1.5588    0.0806 H   0  0  0  0  0  0  0  0  0  0  0  0
   -5.8807   -2.0531   -2.0306 H   0  0  0  0  0  0  0  0  0  0  0  0
   -5.1528   -0.3949   -2.0916 H   0  0  0  0  0  0  0  0  0  0  0  0
   -4.3803   -1.7556   -3.0016 H   0  0  0  0  0  0  0  0  0  0  0  0
  1  2  1  0  0  0  0
  1  6  2  0  0  0  0
  1 11  1  0  0  0  0
  2  3  2  0  0  0  0
  2 15  1  0  0  0  0
  3  4  1  0  0  0  0
  3 16  1  0  0  0  0
  4  5  1  0  0  0  0
  4  9  2  0  0  0  0
  5  6  1  0  0  0  0
  5  7  2  0  0  0  0
  6 17  1  0  0  0  0
  7  8  1  0  0  0  0
  8  9  1  0  0  0  0
  8 10  1  0  0  0  0
 11 12  1  0  0  0  0
 11 18  1  0  0  0  0
 11 19  1  0  0  0  0
 12 13  1  0  0  0  0
 12 20  1  0  0  0  0
 12 21  1  0  0  0  0
 13 14  1  0  0  0  0
 13 22  1  0  0  0  0
 13 23  1  0  0  0  0
 14 24  1  0  0  0  0
 14 25  1  0  0  0  0
 14 26  1  0  0  0  0
M  END
