./003846-71-7.hin
 OpenBabel10051109203D

 49 51  0  0  0  0  0  0  0  0999 V2000
   -0.2240   -1.8250    0.0000 C   0  0  0  0  0  0  0  0  0  0  0  0
   -0.2024   -0.4017   -0.0000 C   0  0  0  0  0  0  0  0  0  0  0  0
    1.0347    0.2735    0.0000 C   0  0  0  0  0  0  0  0  0  0  0  0
    2.2385   -0.4293    0.0001 C   0  0  0  0  0  0  0  0  0  0  0  0
    2.1990   -1.8246    0.0001 C   0  0  0  0  0  0  0  0  0  0  0  0
    0.9995   -2.5433    0.0001 C   0  0  0  0  0  0  0  0  0  0  0  0
    1.1262   -4.0512    0.0001 C   0  0  0  0  0  0  0  0  0  0  0  0
    1.9003   -4.4808   -1.2473 C   0  0  0  0  0  0  0  0  0  0  0  0
    1.9003   -4.4807    1.2476 C   0  0  0  0  0  0  0  0  0  0  0  0
   -0.1907   -4.8157    0.0001 C   0  0  0  0  0  0  0  0  0  0  0  0
    3.5323    0.3440    0.0001 C   0  0  0  0  0  0  0  0  0  0  0  0
    3.5971    1.2251   -1.2451 C   0  0  0  0  0  0  0  0  0  0  0  0
    3.5970    1.2251    1.2454 C   0  0  0  0  0  0  0  0  0  0  0  0
    4.7547   -0.5662    0.0002 C   0  0  0  0  0  0  0  0  0  0  0  0
   -2.6469   -0.1193   -0.0003 N   0  0  0  0  0  0  0  0  0  0  0  0
   -1.4090    0.4078   -0.0001 N   0  0  0  0  0  0  0  0  0  0  0  0
   -1.3540    1.7534   -0.0002 N   0  0  0  0  0  0  0  0  0  0  0  0
   -2.6631    2.1659   -0.0003 C   0  0  0  0  0  0  0  0  0  0  0  0
   -3.5005    0.9533   -0.0004 C   0  0  0  0  0  0  0  0  0  0  0  0
   -3.2766    3.4475   -0.0005 C   0  0  0  0  0  0  0  0  0  0  0  0
   -4.6440    3.5039   -0.0006 C   0  0  0  0  0  0  0  0  0  0  0  0
   -5.4546    2.3285   -0.0007 C   0  0  0  0  0  0  0  0  0  0  0  0
   -4.9164    1.0702   -0.0006 C   0  0  0  0  0  0  0  0  0  0  0  0
   -1.3557   -2.5914    0.0000 O   0  0  0  0  0  0  0  0  0  0  0  0
    1.0773    1.3765   -0.0000 H   0  0  0  0  0  0  0  0  0  0  0  0
    3.1447   -2.3920    0.0002 H   0  0  0  0  0  0  0  0  0  0  0  0
    2.9291   -4.0498   -1.2546 H   0  0  0  0  0  0  0  0  0  0  0  0
    1.9872   -5.5939   -1.2722 H   0  0  0  0  0  0  0  0  0  0  0  0
    1.3643   -4.1433   -2.1660 H   0  0  0  0  0  0  0  0  0  0  0  0
    2.9291   -4.0498    1.2549 H   0  0  0  0  0  0  0  0  0  0  0  0
    1.3642   -4.1432    2.1663 H   0  0  0  0  0  0  0  0  0  0  0  0
    1.9872   -5.5939    1.2726 H   0  0  0  0  0  0  0  0  0  0  0  0
   -0.7901   -4.5699   -0.9090 H   0  0  0  0  0  0  0  0  0  0  0  0
    0.0153   -5.9143    0.0002 H   0  0  0  0  0  0  0  0  0  0  0  0
   -0.7901   -4.5699    0.9092 H   0  0  0  0  0  0  0  0  0  0  0  0
    2.7536    1.9557   -1.2577 H   0  0  0  0  0  0  0  0  0  0  0  0
    4.5580    1.7935   -1.2580 H   0  0  0  0  0  0  0  0  0  0  0  0
    3.5399    0.5973   -2.1660 H   0  0  0  0  0  0  0  0  0  0  0  0
    2.7535    1.9557    1.2579 H   0  0  0  0  0  0  0  0  0  0  0  0
    3.5398    0.5973    2.1662 H   0  0  0  0  0  0  0  0  0  0  0  0
    4.5579    1.7936    1.2583 H   0  0  0  0  0  0  0  0  0  0  0  0
    4.7661   -1.2123   -0.9100 H   0  0  0  0  0  0  0  0  0  0  0  0
    5.6835    0.0550    0.0002 H   0  0  0  0  0  0  0  0  0  0  0  0
    4.7660   -1.2123    0.9103 H   0  0  0  0  0  0  0  0  0  0  0  0
   -2.6516    4.3514   -0.0004 H   0  0  0  0  0  0  0  0  0  0  0  0
   -5.1542    4.4798   -0.0007 H   0  0  0  0  0  0  0  0  0  0  0  0
   -2.1591   -2.0496    0.0003 H   0  0  0  0  0  0  0  0  0  0  0  0
   -6.5481    2.4587   -0.0008 H   0  0  0  0  0  0  0  0  0  0  0  0
   -5.5397    0.1652   -0.0006 H   0  0  0  0  0  0  0  0  0  0  0  0
  1  2  2  0  0  0  0
  1  6  1  0  0  0  0
  1 24  1  0  0  0  0
  2  3  1  0  0  0  0
  2 16  1  0  0  0  0
  3  4  2  0  0  0  0
  3 25  1  0  0  0  0
  4  5  1  0  0  0  0
  4 11  1  0  0  0  0
  5  6  2  0  0  0  0
  5 26  1  0  0  0  0
  6  7  1  0  0  0  0
  7  8  1  0  0  0  0
  7  9  1  0  0  0  0
  7 10  1  0  0  0  0
  8 27  1  0  0  0  0
  8 28  1  0  0  0  0
  8 29  1  0  0  0  0
  9 30  1  0  0  0  0
  9 31  1  0  0  0  0
  9 32  1  0  0  0  0
 10 33  1  0  0  0  0
 10 34  1  0  0  0  0
 10 35  1  0  0  0  0
 11 12  1  0  0  0  0
 11 13  1  0  0  0  0
 11 14  1  0  0  0  0
 12 36  1  0  0  0  0
 12 37  1  0  0  0  0
 12 38  1  0  0  0  0
 13 39  1  0  0  0  0
 13 40  1  0  0  0  0
 13 41  1  0  0  0  0
 14 42  1  0  0  0  0
 14 43  1  0  0  0  0
 14 44  1  0  0  0  0
 15 16  1  0  0  0  0
 15 19  2  0  0  0  0
 16 17  1  0  0  0  0
 17 18  2  0  0  0  0
 18 19  1  0  0  0  0
 18 20  1  0  0  0  0
 19 23  1  0  0  0  0
 20 21  2  0  0  0  0
 20 45  1  0  0  0  0
 21 22  1  0  0  0  0
 21 46  1  0  0  0  0
 22 23  2  0  0  0  0
 22 48  1  0  0  0  0
 23 49  1  0  0  0  0
 24 47  1  0  0  0  0
M  END
