./003864-99-1.hin
 OpenBabel10051109203D

 49 51  0  0  0  0  0  0  0  0999 V2000
    1.0253   -1.0524    0.0000 C   0  0  0  0  0  0  0  0  0  0  0  0
    1.4994   -2.3976    0.0000 C   0  0  0  0  0  0  0  0  0  0  0  0
    0.5689   -3.4288    0.0000 C   0  0  0  0  0  0  0  0  0  0  0  0
   -0.8161   -3.1929   -0.0000 C   0  0  0  0  0  0  0  0  0  0  0  0
   -1.2753   -1.8839   -0.0000 C   0  0  0  0  0  0  0  0  0  0  0  0
   -0.3685   -0.7971   -0.0000 C   0  0  0  0  0  0  0  0  0  0  0  0
   -2.2544    0.7580   -0.0000 N   0  0  0  0  0  0  0  0  0  0  0  0
   -0.9256    0.5448   -0.0000 N   0  0  0  0  0  0  0  0  0  0  0  0
   -0.1624    1.6524   -0.0000 N   0  0  0  0  0  0  0  0  0  0  0  0
   -1.0448    2.7028   -0.0000 C   0  0  0  0  0  0  0  0  0  0  0  0
   -2.3985    2.1235   -0.0000 C   0  0  0  0  0  0  0  0  0  0  0  0
   -0.8696    4.1112   -0.0000 C   0  0  0  0  0  0  0  0  0  0  0  0
   -2.0031    4.8864   -0.0000 C   0  0  0  0  0  0  0  0  0  0  0  0
   -3.3226    4.3310   -0.0000 C   0  0  0  0  0  0  0  0  0  0  0  0
   -3.5321    2.9793   -0.0000 C   0  0  0  0  0  0  0  0  0  0  0  0
   -1.8622    6.5821   -0.0000 Cl  0  0  0  0  0  0  0  0  0  0  0  0
   -1.7535   -4.3736    0.0000 C   0  0  0  0  0  0  0  0  0  0  0  0
   -3.2200   -3.9583   -0.0000 C   0  0  0  0  0  0  0  0  0  0  0  0
   -1.5016   -5.2199   -1.2456 C   0  0  0  0  0  0  0  0  0  0  0  0
   -1.5016   -5.2199    1.2456 C   0  0  0  0  0  0  0  0  0  0  0  0
    2.9804   -2.6954    0.0000 C   0  0  0  0  0  0  0  0  0  0  0  0
    3.2669   -4.1964   -0.0000 C   0  0  0  0  0  0  0  0  0  0  0  0
    3.6334   -2.1097   -1.2496 C   0  0  0  0  0  0  0  0  0  0  0  0
    3.6334   -2.1097    1.2496 C   0  0  0  0  0  0  0  0  0  0  0  0
    2.0109   -0.1042    0.0000 O   0  0  0  0  0  0  0  0  0  0  0  0
    0.9057   -4.4786    0.0000 H   0  0  0  0  0  0  0  0  0  0  0  0
   -2.3619   -1.6943   -0.0000 H   0  0  0  0  0  0  0  0  0  0  0  0
    0.1425    4.5410   -0.0000 H   0  0  0  0  0  0  0  0  0  0  0  0
   -4.1795    5.0238   -0.0000 H   0  0  0  0  0  0  0  0  0  0  0  0
   -4.5433    2.5473    0.0000 H   0  0  0  0  0  0  0  0  0  0  0  0
   -3.4610   -3.3586   -0.9102 H   0  0  0  0  0  0  0  0  0  0  0  0
   -3.8667   -4.8695   -0.0000 H   0  0  0  0  0  0  0  0  0  0  0  0
   -3.4611   -3.3586    0.9101 H   0  0  0  0  0  0  0  0  0  0  0  0
   -0.4542   -5.6045   -1.2589 H   0  0  0  0  0  0  0  0  0  0  0  0
   -2.1987   -6.0921   -1.2585 H   0  0  0  0  0  0  0  0  0  0  0  0
   -1.6711   -4.6123   -2.1661 H   0  0  0  0  0  0  0  0  0  0  0  0
   -0.4542   -5.6045    1.2590 H   0  0  0  0  0  0  0  0  0  0  0  0
   -1.6711   -4.6123    2.1661 H   0  0  0  0  0  0  0  0  0  0  0  0
   -2.1987   -6.0921    1.2585 H   0  0  0  0  0  0  0  0  0  0  0  0
    2.8440   -4.6823   -0.9114 H   0  0  0  0  0  0  0  0  0  0  0  0
    4.3722   -4.3622   -0.0000 H   0  0  0  0  0  0  0  0  0  0  0  0
    2.8440   -4.6823    0.9114 H   0  0  0  0  0  0  0  0  0  0  0  0
    3.5587   -0.9964   -1.2565 H   0  0  0  0  0  0  0  0  0  0  0  0
    4.7144   -2.3894   -1.2749 H   0  0  0  0  0  0  0  0  0  0  0  0
    3.1384   -2.5096   -2.1662 H   0  0  0  0  0  0  0  0  0  0  0  0
    3.5587   -0.9964    1.2565 H   0  0  0  0  0  0  0  0  0  0  0  0
    3.1384   -2.5096    2.1662 H   0  0  0  0  0  0  0  0  0  0  0  0
    4.7144   -2.3895    1.2749 H   0  0  0  0  0  0  0  0  0  0  0  0
    1.6477    0.7941   -0.0000 H   0  0  0  0  0  0  0  0  0  0  0  0
  1  2  2  0  0  0  0
  1  6  1  0  0  0  0
  1 25  1  0  0  0  0
  2  3  1  0  0  0  0
  2 21  1  0  0  0  0
  3  4  2  0  0  0  0
  3 26  1  0  0  0  0
  4  5  1  0  0  0  0
  4 17  1  0  0  0  0
  5  6  2  0  0  0  0
  5 27  1  0  0  0  0
  6  8  1  0  0  0  0
  7  8  1  0  0  0  0
  7 11  2  0  0  0  0
  8  9  1  0  0  0  0
  9 10  2  0  0  0  0
 10 11  1  0  0  0  0
 10 12  1  0  0  0  0
 11 15  1  0  0  0  0
 12 13  2  0  0  0  0
 12 28  1  0  0  0  0
 13 14  1  0  0  0  0
 13 16  1  0  0  0  0
 14 15  2  0  0  0  0
 14 29  1  0  0  0  0
 15 30  1  0  0  0  0
 17 18  1  0  0  0  0
 17 19  1  0  0  0  0
 17 20  1  0  0  0  0
 18 31  1  0  0  0  0
 18 32  1  0  0  0  0
 18 33  1  0  0  0  0
 19 34  1  0  0  0  0
 19 35  1  0  0  0  0
 19 36  1  0  0  0  0
 20 37  1  0  0  0  0
 20 38  1  0  0  0  0
 20 39  1  0  0  0  0
 21 22  1  0  0  0  0
 21 23  1  0  0  0  0
 21 24  1  0  0  0  0
 22 40  1  0  0  0  0
 22 41  1  0  0  0  0
 22 42  1  0  0  0  0
 23 43  1  0  0  0  0
 23 44  1  0  0  0  0
 23 45  1  0  0  0  0
 24 46  1  0  0  0  0
 24 47  1  0  0  0  0
 24 48  1  0  0  0  0
 25 49  1  0  0  0  0
M  END
