./004184-79-6.hin
 OpenBabel10051109203D

 20 21  0  0  0  0  0  0  0  0999 V2000
   -0.1276   -2.5069   -0.0000 N   0  0  0  0  0  0  0  0  0  0  0  0
    1.1875   -2.7144   -0.0000 N   0  0  0  0  0  0  0  0  0  0  0  0
    1.9856   -1.6488   -0.0000 N   0  0  0  0  0  0  0  0  0  0  0  0
    1.1175   -0.5805   -0.0000 C   0  0  0  0  0  0  0  0  0  0  0  0
   -0.2502   -1.1358   -0.0000 C   0  0  0  0  0  0  0  0  0  0  0  0
    1.2999    0.8238   -0.0000 C   0  0  0  0  0  0  0  0  0  0  0  0
    0.1945    1.6425    0.0000 C   0  0  0  0  0  0  0  0  0  0  0  0
   -1.1392    1.1003    0.0000 C   0  0  0  0  0  0  0  0  0  0  0  0
   -1.3610   -0.2566    0.0000 C   0  0  0  0  0  0  0  0  0  0  0  0
   -2.3063    2.0177    0.0000 C   0  0  0  0  0  0  0  0  0  0  0  0
    0.4197    3.1108    0.0000 C   0  0  0  0  0  0  0  0  0  0  0  0
    2.3186    1.2386   -0.0000 H   0  0  0  0  0  0  0  0  0  0  0  0
   -2.3787   -0.6743   -0.0000 H   0  0  0  0  0  0  0  0  0  0  0  0
   -2.2887    2.6708   -0.9084 H   0  0  0  0  0  0  0  0  0  0  0  0
   -3.2685    1.4482   -0.0000 H   0  0  0  0  0  0  0  0  0  0  0  0
   -2.2887    2.6708    0.9084 H   0  0  0  0  0  0  0  0  0  0  0  0
    1.0069    3.4064   -0.9061 H   0  0  0  0  0  0  0  0  0  0  0  0
   -0.5319    3.6932   -0.0000 H   0  0  0  0  0  0  0  0  0  0  0  0
    1.0069    3.4064    0.9061 H   0  0  0  0  0  0  0  0  0  0  0  0
    1.5651   -3.6442   -0.0000 H   0  0  0  0  0  0  0  0  0  0  0  0
  1  2  1  0  0  0  0
  1  5  2  0  0  0  0
  2  3  1  0  0  0  0
  2 20  1  0  0  0  0
  3  4  2  0  0  0  0
  4  5  1  0  0  0  0
  4  6  1  0  0  0  0
  5  9  1  0  0  0  0
  6  7  2  0  0  0  0
  6 12  1  0  0  0  0
  7  8  1  0  0  0  0
  7 11  1  0  0  0  0
  8  9  2  0  0  0  0
  8 10  1  0  0  0  0
  9 13  1  0  0  0  0
 10 14  1  0  0  0  0
 10 15  1  0  0  0  0
 10 16  1  0  0  0  0
 11 17  1  0  0  0  0
 11 18  1  0  0  0  0
 11 19  1  0  0  0  0
M  END
