./004928-87-4.hin
 OpenBabel10051109203D

 11 11  0  0  0  0  0  0  0  0999 V2000
    0.1305   -1.4052   -0.0000 N   0  0  0  0  0  0  0  0  0  0  0  0
    1.3703   -1.8665   -0.0000 N   0  0  0  0  0  0  0  0  0  0  0  0
    2.1645   -0.7456   -0.0000 C   0  0  0  0  0  0  0  0  0  0  0  0
    1.4275    0.4425    0.0000 N   0  0  0  0  0  0  0  0  0  0  0  0
    0.1363    0.0105    0.0000 C   0  0  0  0  0  0  0  0  0  0  0  0
   -1.1128    0.7814    0.0000 C   0  0  0  0  0  0  0  0  0  0  0  0
   -2.2563    0.3129    0.0000 O   0  0  0  0  0  0  0  0  0  0  0  0
   -0.9682    2.1287    0.0000 O   0  0  0  0  0  0  0  0  0  0  0  0
   -0.6655   -2.0048   -0.0000 H   0  0  0  0  0  0  0  0  0  0  0  0
    3.2596   -0.7702   -0.0000 H   0  0  0  0  0  0  0  0  0  0  0  0
   -1.8519    2.5391    0.0000 H   0  0  0  0  0  0  0  0  0  0  0  0
  1  2  1  0  0  0  0
  1  5  1  0  0  0  0
  1  9  1  0  0  0  0
  2  3  2  0  0  0  0
  3  4  1  0  0  0  0
  3 10  1  0  0  0  0
  4  5  2  0  0  0  0
  5  6  1  0  0  0  0
  6  7  2  0  0  0  0
  6  8  1  0  0  0  0
  8 11  1  0  0  0  0
M  END
