./004928-88-5.hin
 OpenBabel10051109203D

 14 14  0  0  0  0  0  0  0  0999 V2000
   -1.1742   -2.3998   -0.0000 N   0  0  0  0  0  0  0  0  0  0  0  0
   -1.1881   -1.0735   -0.0000 N   0  0  0  0  0  0  0  0  0  0  0  0
    0.1401   -0.7125   -0.0000 C   0  0  0  0  0  0  0  0  0  0  0  0
    1.0006   -1.8388   -0.0000 N   0  0  0  0  0  0  0  0  0  0  0  0
    0.1517   -2.8837   -0.0000 C   0  0  0  0  0  0  0  0  0  0  0  0
    0.6661    0.6633    0.0000 C   0  0  0  0  0  0  0  0  0  0  0  0
    1.8449    1.0149    0.0000 O   0  0  0  0  0  0  0  0  0  0  0  0
   -0.3061    1.6268   -0.0000 O   0  0  0  0  0  0  0  0  0  0  0  0
    0.1522    2.9811    0.0000 C   0  0  0  0  0  0  0  0  0  0  0  0
    0.4119   -3.9470   -0.0000 H   0  0  0  0  0  0  0  0  0  0  0  0
   -2.0227   -2.9174   -0.0000 H   0  0  0  0  0  0  0  0  0  0  0  0
   -0.7952    3.5744   -0.0000 H   0  0  0  0  0  0  0  0  0  0  0  0
    0.7607    3.1776    0.9152 H   0  0  0  0  0  0  0  0  0  0  0  0
    0.7607    3.1776   -0.9152 H   0  0  0  0  0  0  0  0  0  0  0  0
  1  2  1  0  0  0  0
  1  5  1  0  0  0  0
  1 11  1  0  0  0  0
  2  3  2  0  0  0  0
  3  4  1  0  0  0  0
  3  6  1  0  0  0  0
  4  5  2  0  0  0  0
  5 10  1  0  0  0  0
  6  7  2  0  0  0  0
  6  8  1  0  0  0  0
  8  9  1  0  0  0  0
  9 12  1  0  0  0  0
  9 13  1  0  0  0  0
  9 14  1  0  0  0  0
M  END
