./005369-84-6.hin
 OpenBabel10051109203D

 33 34  0  0  0  0  0  0  0  0999 V2000
   -2.6594   -1.2423    0.8394 C   0  0  0  0  0  0  0  0  0  0  0  0
   -2.2657   -0.8901   -0.5439 C   0  0  0  0  0  0  0  0  0  0  0  0
   -1.5846    0.3053   -0.8394 C   0  0  0  0  0  0  0  0  0  0  0  0
   -1.2676    0.6566   -2.1650 C   0  0  0  0  0  0  0  0  0  0  0  0
   -1.6177   -0.2256   -3.1928 C   0  0  0  0  0  0  0  0  0  0  0  0
   -2.2759   -1.4204   -2.9110 C   0  0  0  0  0  0  0  0  0  0  0  0
   -2.6036   -1.7467   -1.5978 C   0  0  0  0  0  0  0  0  0  0  0  0
   -0.5906    1.9324   -2.4931 C   0  0  0  0  0  0  0  0  0  0  0  0
   -1.3383    1.1965    0.2037 O   0  0  0  0  0  0  0  0  0  0  0  0
    0.0394    1.3375    0.5531 C   0  0  0  0  0  0  0  0  0  0  0  0
    0.4128    0.2338    1.5590 C   0  0  0  0  0  0  0  0  0  0  0  0
    1.7817    0.2482    1.9653 N   0  0  0  0  0  0  0  0  0  0  0  0
    2.3178    0.7467    3.1638 C   0  0  0  0  0  0  0  0  0  0  0  0
    3.6702    0.6300    3.1283 N   0  0  0  0  0  0  0  0  0  0  0  0
    4.0446    0.0921    1.9869 N   0  0  0  0  0  0  0  0  0  0  0  0
    2.9201   -0.1564    1.2134 C   0  0  0  0  0  0  0  0  0  0  0  0
    2.8530   -0.6239   -0.1126 N   0  0  0  0  0  0  0  0  0  0  0  0
   -2.3883   -2.3028    1.0675 H   0  0  0  0  0  0  0  0  0  0  0  0
   -2.1599   -0.5740    1.5842 H   0  0  0  0  0  0  0  0  0  0  0  0
   -3.7666   -1.1296    0.9589 H   0  0  0  0  0  0  0  0  0  0  0  0
   -1.3747    0.0363   -4.2338 H   0  0  0  0  0  0  0  0  0  0  0  0
   -2.5444   -2.1045   -3.7296 H   0  0  0  0  0  0  0  0  0  0  0  0
   -3.1367   -2.6842   -1.3790 H   0  0  0  0  0  0  0  0  0  0  0  0
   -0.9967    2.3577   -3.4443 H   0  0  0  0  0  0  0  0  0  0  0  0
   -0.7389    2.6838   -1.6778 H   0  0  0  0  0  0  0  0  0  0  0  0
    0.5081    1.7644   -2.6274 H   0  0  0  0  0  0  0  0  0  0  0  0
    0.6988    1.3011   -0.3518 H   0  0  0  0  0  0  0  0  0  0  0  0
    0.0905    2.3530    1.0293 H   0  0  0  0  0  0  0  0  0  0  0  0
    0.1770   -0.7660    1.0896 H   0  0  0  0  0  0  0  0  0  0  0  0
   -0.2324    0.3485    2.4770 H   0  0  0  0  0  0  0  0  0  0  0  0
    1.7072    1.1418    3.9787 H   0  0  0  0  0  0  0  0  0  0  0  0
    2.2152   -1.3909   -0.2044 H   0  0  0  0  0  0  0  0  0  0  0  0
    3.7636   -0.8617   -0.4571 H   0  0  0  0  0  0  0  0  0  0  0  0
  1  2  1  0  0  0  0
  1 18  1  0  0  0  0
  1 19  1  0  0  0  0
  1 20  1  0  0  0  0
  2  3  2  0  0  0  0
  2  7  1  0  0  0  0
  3  4  1  0  0  0  0
  3  9  1  0  0  0  0
  4  5  2  0  0  0  0
  4  8  1  0  0  0  0
  5  6  1  0  0  0  0
  5 21  1  0  0  0  0
  6  7  2  0  0  0  0
  6 22  1  0  0  0  0
  7 23  1  0  0  0  0
  8 24  1  0  0  0  0
  8 25  1  0  0  0  0
  8 26  1  0  0  0  0
  9 10  1  0  0  0  0
 10 11  1  0  0  0  0
 10 27  1  0  0  0  0
 10 28  1  0  0  0  0
 11 12  1  0  0  0  0
 11 29  1  0  0  0  0
 11 30  1  0  0  0  0
 12 13  1  0  0  0  0
 12 16  1  0  0  0  0
 13 14  2  0  0  0  0
 13 31  1  0  0  0  0
 14 15  1  0  0  0  0
 15 16  2  0  0  0  0
 16 17  1  0  0  0  0
 17 32  1  0  0  0  0
 17 33  1  0  0  0  0
M  END
