./005516-20-1.hin
 OpenBabel10051109203D

 45 49  0  0  0  0  0  0  0  0999 V2000
    2.3985   -0.8846   -0.0000 C   0  0  0  0  0  0  0  0  0  0  0  0
    0.9869   -0.6981   -0.0000 C   0  0  0  0  0  0  0  0  0  0  0  0
    0.1082   -1.8037   -0.0000 C   0  0  0  0  0  0  0  0  0  0  0  0
   -1.2695   -1.5404   -0.0000 C   0  0  0  0  0  0  0  0  0  0  0  0
   -1.7706   -0.2447   -0.0000 C   0  0  0  0  0  0  0  0  0  0  0  0
   -0.8839    0.8519   -0.0000 C   0  0  0  0  0  0  0  0  0  0  0  0
    0.5039    0.6155   -0.0000 C   0  0  0  0  0  0  0  0  0  0  0  0
    3.5546   -1.0166   -0.0000 N   0  0  0  0  0  0  0  0  0  0  0  0
    0.6384   -3.1550   -0.0000 C   0  0  0  0  0  0  0  0  0  0  0  0
   -0.1021   -4.2778    0.0000 C   0  0  0  0  0  0  0  0  0  0  0  0
    0.4286   -5.6297    0.0000 C   0  0  0  0  0  0  0  0  0  0  0  0
   -0.4767   -6.7063    0.0000 C   0  0  0  0  0  0  0  0  0  0  0  0
   -0.0238   -8.0211    0.0000 C   0  0  0  0  0  0  0  0  0  0  0  0
    1.3517   -8.2777    0.0000 C   0  0  0  0  0  0  0  0  0  0  0  0
    2.2662   -7.2207    0.0000 C   0  0  0  0  0  0  0  0  0  0  0  0
    1.8035   -5.9070    0.0000 C   0  0  0  0  0  0  0  0  0  0  0  0
    1.9114   -9.8815    0.0000 Cl  0  0  0  0  0  0  0  0  0  0  0  0
   -2.7175    2.4731   -0.0000 N   0  0  0  0  0  0  0  0  0  0  0  0
   -1.3908    2.2001   -0.0000 N   0  0  0  0  0  0  0  0  0  0  0  0
   -0.5724    3.2800   -0.0000 N   0  0  0  0  0  0  0  0  0  0  0  0
   -1.4102    4.3530   -0.0000 C   0  0  0  0  0  0  0  0  0  0  0  0
   -2.7933    3.8323   -0.0000 C   0  0  0  0  0  0  0  0  0  0  0  0
   -1.1687    5.7673   -0.0000 C   0  0  0  0  0  0  0  0  0  0  0  0
   -2.3030    6.6163   -0.0000 C   0  0  0  0  0  0  0  0  0  0  0  0
   -3.6417    6.0727   -0.0000 C   0  0  0  0  0  0  0  0  0  0  0  0
   -3.8991    4.7405   -0.0000 C   0  0  0  0  0  0  0  0  0  0  0  0
   -2.1032    8.0114   -0.0000 C   0  0  0  0  0  0  0  0  0  0  0  0
   -0.8230    8.5408   -0.0000 C   0  0  0  0  0  0  0  0  0  0  0  0
    0.2941    7.6929   -0.0000 C   0  0  0  0  0  0  0  0  0  0  0  0
    0.1253    6.3170   -0.0000 C   0  0  0  0  0  0  0  0  0  0  0  0
   -1.9874   -2.3759    0.0000 H   0  0  0  0  0  0  0  0  0  0  0  0
   -2.8635   -0.0986   -0.0000 H   0  0  0  0  0  0  0  0  0  0  0  0
    1.2301    1.4461   -0.0000 H   0  0  0  0  0  0  0  0  0  0  0  0
    1.7417   -3.2224   -0.0000 H   0  0  0  0  0  0  0  0  0  0  0  0
   -1.2064   -4.2255    0.0000 H   0  0  0  0  0  0  0  0  0  0  0  0
   -1.5598   -6.5087    0.0000 H   0  0  0  0  0  0  0  0  0  0  0  0
   -0.7442   -8.8533    0.0000 H   0  0  0  0  0  0  0  0  0  0  0  0
    3.3486   -7.4217    0.0000 H   0  0  0  0  0  0  0  0  0  0  0  0
    2.5376   -5.0867    0.0000 H   0  0  0  0  0  0  0  0  0  0  0  0
   -4.4725    6.7972   -0.0000 H   0  0  0  0  0  0  0  0  0  0  0  0
   -4.9223    4.3379   -0.0000 H   0  0  0  0  0  0  0  0  0  0  0  0
   -2.9786    8.6785   -0.0000 H   0  0  0  0  0  0  0  0  0  0  0  0
   -0.6772    9.6315   -0.0000 H   0  0  0  0  0  0  0  0  0  0  0  0
    1.3060    8.1246   -0.0000 H   0  0  0  0  0  0  0  0  0  0  0  0
    0.9990    5.6474   -0.0000 H   0  0  0  0  0  0  0  0  0  0  0  0
  1  2  1  0  0  0  0
  1  8  3  0  0  0  0
  2  3  2  0  0  0  0
  2  7  1  0  0  0  0
  3  4  1  0  0  0  0
  3  9  1  0  0  0  0
  4  5  2  0  0  0  0
  4 31  1  0  0  0  0
  5  6  1  0  0  0  0
  5 32  1  0  0  0  0
  6  7  2  0  0  0  0
  6 19  1  0  0  0  0
  7 33  1  0  0  0  0
  9 10  2  0  0  0  0
  9 34  1  0  0  0  0
 10 11  1  0  0  0  0
 10 35  1  0  0  0  0
 11 12  2  0  0  0  0
 11 16  1  0  0  0  0
 12 13  1  0  0  0  0
 12 36  1  0  0  0  0
 13 14  2  0  0  0  0
 13 37  1  0  0  0  0
 14 15  1  0  0  0  0
 14 17  1  0  0  0  0
 15 16  2  0  0  0  0
 15 38  1  0  0  0  0
 16 39  1  0  0  0  0
 18 19  1  0  0  0  0
 18 22  2  0  0  0  0
 19 20  1  0  0  0  0
 20 21  2  0  0  0  0
 21 22  1  0  0  0  0
 21 23  1  0  0  0  0
 22 26  1  0  0  0  0
 23 24  2  0  0  0  0
 23 30  1  0  0  0  0
 24 25  1  0  0  0  0
 24 27  1  0  0  0  0
 25 26  2  0  0  0  0
 25 40  1  0  0  0  0
 26 41  1  0  0  0  0
 27 28  2  0  0  0  0
 27 42  1  0  0  0  0
 28 29  1  0  0  0  0
 28 43  1  0  0  0  0
 29 30  2  0  0  0  0
 29 44  1  0  0  0  0
 30 45  1  0  0  0  0
M  END
