./005873-30-3.hin
 OpenBabel10051109203D

 31 33  0  0  0  0  0  0  0  0999 V2000
    0.0233   -2.0948   -0.4388 N   0  0  0  0  0  0  0  0  0  0  0  0
   -1.2532   -2.4899   -0.4577 N   0  0  0  0  0  0  0  0  0  0  0  0
   -1.9539   -1.3174   -0.2420 C   0  0  0  0  0  0  0  0  0  0  0  0
   -1.1196   -0.1833   -0.0888 N   0  0  0  0  0  0  0  0  0  0  0  0
    0.1329   -0.7070   -0.2189 C   0  0  0  0  0  0  0  0  0  0  0  0
   -3.3252   -1.3356   -0.1936 O   0  0  0  0  0  0  0  0  0  0  0  0
   -3.9384   -0.0520    0.0490 C   0  0  0  0  0  0  0  0  0  0  0  0
   -5.4328   -0.3249    0.0656 C   0  0  0  0  0  0  0  0  0  0  0  0
   -6.1945    0.9536    0.2961 C   0  0  0  0  0  0  0  0  0  0  0  0
    5.0585    1.9168    0.0688 O   0  0  0  0  0  0  0  0  0  0  0  0
    5.8589    0.8218    0.5755 C   0  0  0  0  0  0  0  0  0  0  0  0
    4.9913   -0.3261    0.7293 O   0  0  0  0  0  0  0  0  0  0  0  0
    3.7202    0.0756    0.3316 C   0  0  0  0  0  0  0  0  0  0  0  0
    3.7623    1.4385   -0.0688 C   0  0  0  0  0  0  0  0  0  0  0  0
    2.5578   -0.6628    0.3035 C   0  0  0  0  0  0  0  0  0  0  0  0
    1.4018    0.0129   -0.1555 C   0  0  0  0  0  0  0  0  0  0  0  0
    1.4435    1.3558   -0.5446 C   0  0  0  0  0  0  0  0  0  0  0  0
    2.6353    2.1017   -0.5084 C   0  0  0  0  0  0  0  0  0  0  0  0
    0.7553   -2.7478   -0.5899 H   0  0  0  0  0  0  0  0  0  0  0  0
   -3.6615    0.6552   -0.7745 H   0  0  0  0  0  0  0  0  0  0  0  0
   -3.5854    0.3511    1.0327 H   0  0  0  0  0  0  0  0  0  0  0  0
   -5.7359   -0.7892   -0.9091 H   0  0  0  0  0  0  0  0  0  0  0  0
   -5.6650   -1.0682    0.8726 H   0  0  0  0  0  0  0  0  0  0  0  0
   -7.2919    0.7469    0.3101 H   0  0  0  0  0  0  0  0  0  0  0  0
   -5.9095    1.4146    1.2728 H   0  0  0  0  0  0  0  0  0  0  0  0
   -5.9847    1.6920   -0.5153 H   0  0  0  0  0  0  0  0  0  0  0  0
    6.2563    1.1064    1.5806 H   0  0  0  0  0  0  0  0  0  0  0  0
    6.6450    0.5763   -0.1801 H   0  0  0  0  0  0  0  0  0  0  0  0
    2.5362   -1.7078    0.6370 H   0  0  0  0  0  0  0  0  0  0  0  0
    0.5219    1.8538   -0.8879 H   0  0  0  0  0  0  0  0  0  0  0  0
    2.6603    3.1555   -0.8140 H   0  0  0  0  0  0  0  0  0  0  0  0
  1  2  1  0  0  0  0
  1  5  1  0  0  0  0
  1 19  1  0  0  0  0
  2  3  2  0  0  0  0
  3  4  1  0  0  0  0
  3  6  1  0  0  0  0
  4  5  2  0  0  0  0
  5 16  1  0  0  0  0
  6  7  1  0  0  0  0
  7  8  1  0  0  0  0
  7 20  1  0  0  0  0
  7 21  1  0  0  0  0
  8  9  1  0  0  0  0
  8 22  1  0  0  0  0
  8 23  1  0  0  0  0
  9 24  1  0  0  0  0
  9 25  1  0  0  0  0
  9 26  1  0  0  0  0
 10 11  1  0  0  0  0
 10 14  1  0  0  0  0
 11 12  1  0  0  0  0
 11 27  1  0  0  0  0
 11 28  1  0  0  0  0
 12 13  1  0  0  0  0
 13 14  2  0  0  0  0
 13 15  1  0  0  0  0
 14 18  1  0  0  0  0
 15 16  2  0  0  0  0
 15 29  1  0  0  0  0
 16 17  1  0  0  0  0
 17 18  2  0  0  0  0
 17 30  1  0  0  0  0
 18 31  1  0  0  0  0
M  END
