./006054-53-1.hin
 OpenBabel10051109203D

 29 30  0  0  0  0  0  0  0  0999 V2000
   -0.6506   -0.9630   -0.0000 C   0  0  0  0  0  0  0  0  0  0  0  0
    0.6938   -1.6767    0.0000 C   0  0  0  0  0  0  0  0  0  0  0  0
   -1.6764   -1.6674   -0.0000 O   0  0  0  0  0  0  0  0  0  0  0  0
   -0.6599    0.4168    0.0000 N   0  0  0  0  0  0  0  0  0  0  0  0
    2.0887   -0.5989   -0.0000 S   0  0  0  0  0  0  0  0  0  0  0  0
    3.3496   -3.0876   -0.0000 N   0  0  0  0  0  0  0  0  0  0  0  0
    4.5838   -3.5927    0.0000 N   0  0  0  0  0  0  0  0  0  0  0  0
    5.4044   -2.5028    0.0000 C   0  0  0  0  0  0  0  0  0  0  0  0
    4.6993   -1.2906   -0.0000 N   0  0  0  0  0  0  0  0  0  0  0  0
    3.3914   -1.6752   -0.0000 C   0  0  0  0  0  0  0  0  0  0  0  0
   -1.7890    1.2607    0.0000 C   0  0  0  0  0  0  0  0  0  0  0  0
   -1.5671    2.6586    0.0000 C   0  0  0  0  0  0  0  0  0  0  0  0
   -2.6406    3.5498    0.0000 C   0  0  0  0  0  0  0  0  0  0  0  0
   -3.9510    3.0596    0.0000 C   0  0  0  0  0  0  0  0  0  0  0  0
   -4.1749    1.6863   -0.0000 C   0  0  0  0  0  0  0  0  0  0  0  0
   -3.1151    0.7828   -0.0000 C   0  0  0  0  0  0  0  0  0  0  0  0
   -2.3768    5.0083    0.0000 C   0  0  0  0  0  0  0  0  0  0  0  0
    2.5532   -3.6805   -0.0000 H   0  0  0  0  0  0  0  0  0  0  0  0
    0.6968   -2.3382    0.9054 H   0  0  0  0  0  0  0  0  0  0  0  0
    0.6968   -2.3382   -0.9053 H   0  0  0  0  0  0  0  0  0  0  0  0
    0.2170    0.8945    0.0000 H   0  0  0  0  0  0  0  0  0  0  0  0
    6.4986   -2.5511    0.0000 H   0  0  0  0  0  0  0  0  0  0  0  0
   -0.5434    3.0648    0.0000 H   0  0  0  0  0  0  0  0  0  0  0  0
   -4.7998    3.7587    0.0000 H   0  0  0  0  0  0  0  0  0  0  0  0
   -5.2060    1.3000   -0.0000 H   0  0  0  0  0  0  0  0  0  0  0  0
   -3.3300   -0.2980   -0.0000 H   0  0  0  0  0  0  0  0  0  0  0  0
   -3.3294    5.5925   -0.0000 H   0  0  0  0  0  0  0  0  0  0  0  0
   -1.7869    5.2956    0.9061 H   0  0  0  0  0  0  0  0  0  0  0  0
   -1.7869    5.2956   -0.9061 H   0  0  0  0  0  0  0  0  0  0  0  0
  1  2  1  0  0  0  0
  1  3  2  0  0  0  0
  1  4  1  0  0  0  0
  2  5  1  0  0  0  0
  2 19  1  0  0  0  0
  2 20  1  0  0  0  0
  4 11  1  0  0  0  0
  4 21  1  0  0  0  0
  5 10  1  0  0  0  0
  6  7  1  0  0  0  0
  6 10  1  0  0  0  0
  6 18  1  0  0  0  0
  7  8  2  0  0  0  0
  8  9  1  0  0  0  0
  8 22  1  0  0  0  0
  9 10  2  0  0  0  0
 11 12  2  0  0  0  0
 11 16  1  0  0  0  0
 12 13  1  0  0  0  0
 12 23  1  0  0  0  0
 13 14  2  0  0  0  0
 13 17  1  0  0  0  0
 14 15  1  0  0  0  0
 14 24  1  0  0  0  0
 15 16  2  0  0  0  0
 15 25  1  0  0  0  0
 16 26  1  0  0  0  0
 17 27  1  0  0  0  0
 17 28  1  0  0  0  0
 17 29  1  0  0  0  0
M  END
