./006299-39-4.hin
 OpenBabel10051109203D

 16 17  0  0  0  0  0  0  0  0999 V2000
   -0.3379    0.1321   -0.0000 C   0  0  0  0  0  0  0  0  0  0  0  0
    0.8704   -0.5834    0.0000 C   0  0  0  0  0  0  0  0  0  0  0  0
    0.8978   -2.0700    0.0000 N   0  3  0  0  0  0  0  0  0  0  0  0
   -0.1256   -2.6905    0.0000 O   0  0  0  0  0  0  0  0  0  0  0  0
    1.9752   -2.6101    0.0000 O   0  5  0  0  0  0  0  0  0  0  0  0
    2.0692    0.1353   -0.0000 C   0  0  0  0  0  0  0  0  0  0  0  0
    2.0764    1.5415   -0.0000 C   0  0  0  0  0  0  0  0  0  0  0  0
    0.9088    2.2902   -0.0000 C   0  0  0  0  0  0  0  0  0  0  0  0
   -0.2979    1.5839   -0.0000 C   0  0  0  0  0  0  0  0  0  0  0  0
   -1.6554    1.9401   -0.0000 N   0  0  0  0  0  0  0  0  0  0  0  0
   -2.4152    0.8252   -0.0000 N   0  0  0  0  0  0  0  0  0  0  0  0
   -1.7173   -0.2293   -0.0000 N   0  0  0  0  0  0  0  0  0  0  0  0
    3.0315   -0.4083   -0.0000 H   0  0  0  0  0  0  0  0  0  0  0  0
    3.0499    2.0586   -0.0000 H   0  0  0  0  0  0  0  0  0  0  0  0
    0.9307    3.3890   -0.0000 H   0  0  0  0  0  0  0  0  0  0  0  0
   -2.0474    2.8511   -0.0000 H   0  0  0  0  0  0  0  0  0  0  0  0
  1  2  2  0  0  0  0
  1  9  1  0  0  0  0
  1 12  1  0  0  0  0
  2  3  1  0  0  0  0
  2  6  1  0  0  0  0
  3  4  2  0  0  0  0
  3  5  1  0  0  0  0
  6  7  2  0  0  0  0
  6 13  1  0  0  0  0
  7  8  1  0  0  0  0
  7 14  1  0  0  0  0
  8  9  2  0  0  0  0
  8 15  1  0  0  0  0
  9 10  1  0  0  0  0
 10 11  1  0  0  0  0
 10 16  1  0  0  0  0
 11 12  2  0  0  0  0
M  CHG   2   3   1   5  -1
M  END
