./006818-99-1.hin
 OpenBabel10051109203D

  8  8  0  0  0  0  0  0  0  0999 V2000
   -0.2081   -1.3344   -0.0000 N   0  0  0  0  0  0  0  0  0  0  0  0
    1.0544   -1.7070   -0.0000 N   0  0  0  0  0  0  0  0  0  0  0  0
    1.8587   -0.6047   -0.0000 C   0  0  0  0  0  0  0  0  0  0  0  0
    1.0553    0.5382   -0.0000 N   0  0  0  0  0  0  0  0  0  0  0  0
   -0.2612    0.0375   -0.0000 C   0  0  0  0  0  0  0  0  0  0  0  0
   -1.6222    1.0120    0.0000 Cl  0  0  0  0  0  0  0  0  0  0  0  0
    2.9518   -0.5855   -0.0000 H   0  0  0  0  0  0  0  0  0  0  0  0
    1.3359    1.4827   -0.0000 H   0  0  0  0  0  0  0  0  0  0  0  0
  1  2  1  0  0  0  0
  1  5  2  0  0  0  0
  2  3  2  0  0  0  0
  3  4  1  0  0  0  0
  3  7  1  0  0  0  0
  4  5  1  0  0  0  0
  4  8  1  0  0  0  0
  5  6  1  0  0  0  0
M  END
