./006994-51-0.hin
 OpenBabel10051109203D

 58 63  0  0  0  0  0  0  0  0999 V2000
   -0.7741   -0.4154   -0.6424 C   0  0  0  0  0  0  0  0  0  0  0  0
   -1.8240   -1.2975   -0.9641 C   0  0  0  0  0  0  0  0  0  0  0  0
   -3.1269   -0.7956   -1.1122 C   0  0  0  0  0  0  0  0  0  0  0  0
   -3.4085    0.5526   -0.9523 C   0  0  0  0  0  0  0  0  0  0  0  0
   -2.3639    1.4437   -0.6219 C   0  0  0  0  0  0  0  0  0  0  0  0
   -1.0614    0.9481   -0.4640 C   0  0  0  0  0  0  0  0  0  0  0  0
    0.8114   -0.8807   -0.4263 S   0  0  0  0  0  0  0  0  0  0  0  0
    1.6506    0.2097   -0.2917 O   0  0  0  0  0  0  0  0  0  0  0  0
    1.1969   -1.9351   -1.2278 O   0  0  0  0  0  0  0  0  0  0  0  0
    0.6865   -1.5193    1.1412 O   0  0  0  0  0  0  0  0  0  0  0  0
   -1.5881   -2.7207   -1.1677 C   0  0  0  0  0  0  0  0  0  0  0  0
   -2.4215   -3.6716   -0.7118 C   0  0  0  0  0  0  0  0  0  0  0  0
   -2.2222   -5.0998   -0.8881 C   0  0  0  0  0  0  0  0  0  0  0  0
   -0.9863   -5.6389   -1.2748 C   0  0  0  0  0  0  0  0  0  0  0  0
   -0.8376   -7.0162   -1.4302 C   0  0  0  0  0  0  0  0  0  0  0  0
   -1.9157   -7.8702   -1.2015 C   0  0  0  0  0  0  0  0  0  0  0  0
   -3.1477   -7.3432   -0.8114 C   0  0  0  0  0  0  0  0  0  0  0  0
   -3.3011   -5.9690   -0.6520 C   0  0  0  0  0  0  0  0  0  0  0  0
   -3.8849    3.3086   -0.1891 N   0  0  0  0  0  0  0  0  0  0  0  0
   -2.6385    2.8468   -0.4474 N   0  0  0  0  0  0  0  0  0  0  0  0
   -1.6672    3.7870   -0.5247 N   0  0  0  0  0  0  0  0  0  0  0  0
   -2.3091    4.9672   -0.3010 C   0  0  0  0  0  0  0  0  0  0  0  0
   -3.7385    4.6586   -0.0868 C   0  0  0  0  0  0  0  0  0  0  0  0
   -4.6673    5.7162    0.1705 C   0  0  0  0  0  0  0  0  0  0  0  0
   -4.2014    6.9899    0.2132 C   0  0  0  0  0  0  0  0  0  0  0  0
   -2.8110    7.3272    0.0127 C   0  0  0  0  0  0  0  0  0  0  0  0
   -2.3903    8.6708    0.0746 C   0  0  0  0  0  0  0  0  0  0  0  0
   -1.0584    9.0023   -0.1133 C   0  0  0  0  0  0  0  0  0  0  0  0
   -0.1088    8.0023   -0.3687 C   0  0  0  0  0  0  0  0  0  0  0  0
   -0.4962    6.6731   -0.4360 C   0  0  0  0  0  0  0  0  0  0  0  0
   -1.8450    6.3238   -0.2470 C   0  0  0  0  0  0  0  0  0  0  0  0
    1.7664   -2.0538    1.7939 C   0  0  0  0  0  0  0  0  0  0  0  0
    1.6897   -3.3926    2.2087 C   0  0  0  0  0  0  0  0  0  0  0  0
    2.7377   -3.9267    2.9549 C   0  0  0  0  0  0  0  0  0  0  0  0
    3.8471   -3.1442    3.2773 C   0  0  0  0  0  0  0  0  0  0  0  0
    3.9141   -1.8155    2.8570 C   0  0  0  0  0  0  0  0  0  0  0  0
    2.8763   -1.2560    2.1151 C   0  0  0  0  0  0  0  0  0  0  0  0
   -3.9431   -1.4893   -1.3726 H   0  0  0  0  0  0  0  0  0  0  0  0
   -4.4445    0.9082   -1.0843 H   0  0  0  0  0  0  0  0  0  0  0  0
   -0.2260    1.6287   -0.1985 H   0  0  0  0  0  0  0  0  0  0  0  0
   -0.6744   -2.9812   -1.7356 H   0  0  0  0  0  0  0  0  0  0  0  0
   -3.3329   -3.3928   -0.1502 H   0  0  0  0  0  0  0  0  0  0  0  0
   -0.1235   -4.9765   -1.4495 H   0  0  0  0  0  0  0  0  0  0  0  0
    0.1364   -7.4280   -1.7338 H   0  0  0  0  0  0  0  0  0  0  0  0
   -1.7957   -8.9564   -1.3259 H   0  0  0  0  0  0  0  0  0  0  0  0
   -3.9995   -8.0146   -0.6278 H   0  0  0  0  0  0  0  0  0  0  0  0
   -4.2739   -5.5592   -0.3412 H   0  0  0  0  0  0  0  0  0  0  0  0
   -5.7278    5.4710    0.3261 H   0  0  0  0  0  0  0  0  0  0  0  0
   -4.8927    7.8260    0.4089 H   0  0  0  0  0  0  0  0  0  0  0  0
   -3.1339    9.4569    0.2755 H   0  0  0  0  0  0  0  0  0  0  0  0
   -0.7394   10.0541   -0.0623 H   0  0  0  0  0  0  0  0  0  0  0  0
    0.9465    8.2772   -0.5148 H   0  0  0  0  0  0  0  0  0  0  0  0
    0.2455    5.8844   -0.6360 H   0  0  0  0  0  0  0  0  0  0  0  0
    0.8072   -3.9947    1.9520 H   0  0  0  0  0  0  0  0  0  0  0  0
    2.6874   -4.9736    3.2893 H   0  0  0  0  0  0  0  0  0  0  0  0
    4.6709   -3.5762    3.8636 H   0  0  0  0  0  0  0  0  0  0  0  0
    4.7903   -1.2009    3.1124 H   0  0  0  0  0  0  0  0  0  0  0  0
    2.9204   -0.2094    1.7744 H   0  0  0  0  0  0  0  0  0  0  0  0
  1  2  2  0  0  0  0
  1  6  1  0  0  0  0
  1  7  1  0  0  0  0
  2  3  1  0  0  0  0
  2 11  1  0  0  0  0
  3  4  2  0  0  0  0
  3 38  1  0  0  0  0
  4  5  1  0  0  0  0
  4 39  1  0  0  0  0
  5  6  2  0  0  0  0
  5 20  1  0  0  0  0
  6 40  1  0  0  0  0
  7  8  2  0  0  0  0
  7  9  2  0  0  0  0
  7 10  1  0  0  0  0
 10 32  1  0  0  0  0
 11 12  2  0  0  0  0
 11 41  1  0  0  0  0
 12 13  1  0  0  0  0
 12 42  1  0  0  0  0
 13 14  2  0  0  0  0
 13 18  1  0  0  0  0
 14 15  1  0  0  0  0
 14 43  1  0  0  0  0
 15 16  2  0  0  0  0
 15 44  1  0  0  0  0
 16 17  1  0  0  0  0
 16 45  1  0  0  0  0
 17 18  2  0  0  0  0
 17 46  1  0  0  0  0
 18 47  1  0  0  0  0
 19 20  1  0  0  0  0
 19 23  2  0  0  0  0
 20 21  1  0  0  0  0
 21 22  2  0  0  0  0
 22 23  1  0  0  0  0
 22 31  1  0  0  0  0
 23 24  1  0  0  0  0
 24 25  2  0  0  0  0
 24 48  1  0  0  0  0
 25 26  1  0  0  0  0
 25 49  1  0  0  0  0
 26 27  2  0  0  0  0
 26 31  1  0  0  0  0
 27 28  1  0  0  0  0
 27 50  1  0  0  0  0
 28 29  2  0  0  0  0
 28 51  1  0  0  0  0
 29 30  1  0  0  0  0
 29 52  1  0  0  0  0
 30 31  2  0  0  0  0
 30 53  1  0  0  0  0
 32 33  2  0  0  0  0
 32 37  1  0  0  0  0
 33 34  1  0  0  0  0
 33 54  1  0  0  0  0
 34 35  2  0  0  0  0
 34 55  1  0  0  0  0
 35 36  1  0  0  0  0
 35 56  1  0  0  0  0
 36 37  2  0  0  0  0
 36 57  1  0  0  0  0
 37 58  1  0  0  0  0
M  END
