./007170-01-6.hin
 OpenBabel10051109203D

 11 11  0  0  0  0  0  0  0  0999 V2000
   -0.2584   -0.9191   -0.0000 N   0  0  0  0  0  0  0  0  0  0  0  0
    0.9975   -1.3659   -0.0000 N   0  0  0  0  0  0  0  0  0  0  0  0
    1.7643   -0.2362   -0.0000 C   0  0  0  0  0  0  0  0  0  0  0  0
    1.0010    0.9410    0.0000 N   0  0  0  0  0  0  0  0  0  0  0  0
   -0.2837    0.4950    0.0000 C   0  0  0  0  0  0  0  0  0  0  0  0
   -1.5224    1.3068    0.0000 C   0  0  0  0  0  0  0  0  0  0  0  0
   -1.0268   -1.5460   -0.0000 H   0  0  0  0  0  0  0  0  0  0  0  0
    2.8586   -0.2338   -0.0000 H   0  0  0  0  0  0  0  0  0  0  0  0
   -1.5418    1.9605   -0.9084 H   0  0  0  0  0  0  0  0  0  0  0  0
   -2.4345    0.6616   -0.0000 H   0  0  0  0  0  0  0  0  0  0  0  0
   -1.5418    1.9604    0.9084 H   0  0  0  0  0  0  0  0  0  0  0  0
  1  2  1  0  0  0  0
  1  5  1  0  0  0  0
  1  7  1  0  0  0  0
  2  3  2  0  0  0  0
  3  4  1  0  0  0  0
  3  8  1  0  0  0  0
  4  5  2  0  0  0  0
  5  6  1  0  0  0  0
  6  9  1  0  0  0  0
  6 10  1  0  0  0  0
  6 11  1  0  0  0  0
M  END
