./007411-23-6.hin
 OpenBabel10051109203D

  8  8  0  0  0  0  0  0  0  0999 V2000
   -0.3500   -1.2583   -0.0000 C   0  0  0  0  0  0  0  0  0  0  0  0
   -0.4306    0.1476    0.0000 N   0  0  0  0  0  0  0  0  0  0  0  0
    0.8679    0.5396    0.0000 C   0  0  0  0  0  0  0  0  0  0  0  0
    1.6897   -0.6094    0.0000 N   0  0  0  0  0  0  0  0  0  0  0  0
    0.9491   -1.7094   -0.0000 N   0  0  0  0  0  0  0  0  0  0  0  0
    1.5131    2.2677    0.0000 Br  0  0  0  0  0  0  0  0  0  0  0  0
   -1.8352   -2.3553   -0.0000 Br  0  0  0  0  0  0  0  0  0  0  0  0
    2.6841   -0.6558    0.0000 H   0  0  0  0  0  0  0  0  0  0  0  0
  1  2  1  0  0  0  0
  1  5  2  0  0  0  0
  1  7  1  0  0  0  0
  2  3  2  0  0  0  0
  3  4  1  0  0  0  0
  3  6  1  0  0  0  0
  4  5  1  0  0  0  0
  4  8  1  0  0  0  0
M  END
