./007532-52-7.hin
 OpenBabel10051109203D

 19 20  0  0  0  0  0  0  0  0999 V2000
   -2.0644   -0.7934    0.5788 N   0  0  0  0  0  0  0  0  0  0  0  0
   -0.8566   -1.1935    0.0985 C   0  0  0  0  0  0  0  0  0  0  0  0
    0.3651   -0.4318    0.0191 C   0  0  0  0  0  0  0  0  0  0  0  0
    0.2526    0.9568    0.0907 O   0  0  0  0  0  0  0  0  0  0  0  0
    1.5712    1.4343   -0.0083 C   0  0  0  0  0  0  0  0  0  0  0  0
    1.7699    2.8820    0.0343 N   0  3  0  0  0  0  0  0  0  0  0  0
    0.8227    3.6065    0.1401 O   0  0  0  0  0  0  0  0  0  0  0  0
    2.9010    3.2835   -0.0425 O   0  5  0  0  0  0  0  0  0  0  0  0
    2.4769    0.3874   -0.1350 C   0  0  0  0  0  0  0  0  0  0  0  0
    1.6940   -0.8176   -0.1179 C   0  0  0  0  0  0  0  0  0  0  0  0
   -0.9377   -2.5402   -0.3117 N   0  0  0  0  0  0  0  0  0  0  0  0
   -2.1652   -3.0196   -0.1314 N   0  0  0  0  0  0  0  0  0  0  0  0
   -2.8820   -1.9543    0.4170 C   0  0  0  0  0  0  0  0  0  0  0  0
   -4.2564   -1.9701    0.6782 N   0  0  0  0  0  0  0  0  0  0  0  0
    3.5599    0.4670   -0.2267 H   0  0  0  0  0  0  0  0  0  0  0  0
    2.0851   -1.8297   -0.1879 H   0  0  0  0  0  0  0  0  0  0  0  0
   -4.6074   -2.8756    0.9082 H   0  0  0  0  0  0  0  0  0  0  0  0
   -4.5463   -1.2570    1.3143 H   0  0  0  0  0  0  0  0  0  0  0  0
   -0.2384   -3.0880   -0.7560 H   0  0  0  0  0  0  0  0  0  0  0  0
  1  2  2  0  0  0  0
  1 13  1  0  0  0  0
  2  3  1  0  0  0  0
  2 11  1  0  0  0  0
  3  4  1  0  0  0  0
  3 10  2  0  0  0  0
  4  5  1  0  0  0  0
  5  6  1  0  0  0  0
  5  9  2  0  0  0  0
  6  7  2  0  0  0  0
  6  8  1  0  0  0  0
  9 10  1  0  0  0  0
  9 15  1  0  0  0  0
 10 16  1  0  0  0  0
 11 12  1  0  0  0  0
 11 19  1  0  0  0  0
 12 13  2  0  0  0  0
 13 14  1  0  0  0  0
 14 17  1  0  0  0  0
 14 18  1  0  0  0  0
M  CHG   2   6   1   8  -1
M  END
