./010109-05-4.hin
 OpenBabel10051109203D

 19 19  0  0  0  0  0  0  0  0999 V2000
   -2.2548    0.7990    0.1583 C   0  0  0  0  0  0  0  0  0  0  0  0
   -1.0042   -0.0266    0.4404 C   0  0  0  0  0  0  0  0  0  0  0  0
    0.1193    0.5925   -0.4200 C   0  0  0  0  0  0  0  0  0  0  0  0
   -3.2562    0.4562   -0.4716 O   0  0  0  0  0  0  0  0  0  0  0  0
   -2.2191    2.0718    0.6364 O   0  0  0  0  0  0  0  0  0  0  0  0
    2.1161   -0.5236    0.7292 N   0  0  0  0  0  0  0  0  0  0  0  0
    3.1392   -1.2685    0.3669 N   0  0  0  0  0  0  0  0  0  0  0  0
    3.0833   -1.4872   -0.9777 C   0  0  0  0  0  0  0  0  0  0  0  0
    1.9529   -0.8422   -1.4865 N   0  0  0  0  0  0  0  0  0  0  0  0
    1.3508   -0.2314   -0.3718 C   0  0  0  0  0  0  0  0  0  0  0  0
   -0.7665   -0.1214    1.8575 N   0  0  0  0  0  0  0  0  0  0  0  0
   -1.2198   -1.0698    0.0550 H   0  0  0  0  0  0  0  0  0  0  0  0
    0.3541    1.6256   -0.0415 H   0  0  0  0  0  0  0  0  0  0  0  0
   -0.2489    0.6911   -1.4755 H   0  0  0  0  0  0  0  0  0  0  0  0
   -3.0622    2.5167    0.4468 H   0  0  0  0  0  0  0  0  0  0  0  0
    3.7867   -2.0645   -1.5833 H   0  0  0  0  0  0  0  0  0  0  0  0
   -0.0939   -0.8319    2.0659 H   0  0  0  0  0  0  0  0  0  0  0  0
   -0.4730    0.7564    2.2379 H   0  0  0  0  0  0  0  0  0  0  0  0
    1.6424   -0.8123   -2.4208 H   0  0  0  0  0  0  0  0  0  0  0  0
  1  2  1  0  0  0  0
  1  4  2  0  0  0  0
  1  5  1  0  0  0  0
  2  3  1  0  0  0  0
  2 11  1  0  0  0  0
  2 12  1  0  0  0  0
  3 10  1  0  0  0  0
  3 13  1  0  0  0  0
  3 14  1  0  0  0  0
  5 15  1  0  0  0  0
  6  7  1  0  0  0  0
  6 10  2  0  0  0  0
  7  8  2  0  0  0  0
  8  9  1  0  0  0  0
  8 16  1  0  0  0  0
  9 10  1  0  0  0  0
  9 19  1  0  0  0  0
 11 17  1  0  0  0  0
 11 18  1  0  0  0  0
M  END
