./010187-84-5.hin
 OpenBabel10051109203D

 22 23  0  0  0  0  0  0  0  0999 V2000
   -0.3975   -2.2949   -0.1008 N   0  0  0  0  0  0  0  0  0  0  0  0
   -0.3332   -0.9333   -0.0806 C   0  0  0  0  0  0  0  0  0  0  0  0
    0.8724   -0.1497    0.0000 C   0  0  0  0  0  0  0  0  0  0  0  0
    0.7267    1.2408   -0.0836 O   0  0  0  0  0  0  0  0  0  0  0  0
    2.0352    1.7492    0.0165 C   0  0  0  0  0  0  0  0  0  0  0  0
    2.1892    3.1998   -0.0444 N   0  3  0  0  0  0  0  0  0  0  0  0
    1.2176    3.8888   -0.1790 O   0  0  0  0  0  0  0  0  0  0  0  0
    3.3026    3.6438    0.0436 O   0  5  0  0  0  0  0  0  0  0  0  0
    2.9613    0.7234    0.1582 C   0  0  0  0  0  0  0  0  0  0  0  0
    2.2065   -0.5022    0.1465 C   0  0  0  0  0  0  0  0  0  0  0  0
   -1.6346   -0.4023   -0.1383 N   0  0  0  0  0  0  0  0  0  0  0  0
   -2.5414   -1.3705   -0.2071 N   0  0  0  0  0  0  0  0  0  0  0  0
   -1.7979   -2.5526   -0.1927 C   0  0  0  0  0  0  0  0  0  0  0  0
   -2.3283   -3.8439   -0.3657 N   0  0  0  0  0  0  0  0  0  0  0  0
   -3.6666   -4.0705    0.1115 C   0  0  0  0  0  0  0  0  0  0  0  0
    4.0416    0.8273    0.2577 H   0  0  0  0  0  0  0  0  0  0  0  0
    2.6087   -1.5106    0.2352 H   0  0  0  0  0  0  0  0  0  0  0  0
   -1.8979    0.5574   -0.1614 H   0  0  0  0  0  0  0  0  0  0  0  0
   -1.6796   -4.5545   -0.0838 H   0  0  0  0  0  0  0  0  0  0  0  0
   -3.9383   -5.1327   -0.1295 H   0  0  0  0  0  0  0  0  0  0  0  0
   -3.7772   -3.9100    1.2184 H   0  0  0  0  0  0  0  0  0  0  0  0
   -4.3780   -3.3853   -0.4209 H   0  0  0  0  0  0  0  0  0  0  0  0
  1  2  2  0  0  0  0
  1 13  1  0  0  0  0
  2  3  1  0  0  0  0
  2 11  1  0  0  0  0
  3  4  1  0  0  0  0
  3 10  2  0  0  0  0
  4  5  1  0  0  0  0
  5  6  1  0  0  0  0
  5  9  2  0  0  0  0
  6  7  2  0  0  0  0
  6  8  1  0  0  0  0
  9 10  1  0  0  0  0
  9 16  1  0  0  0  0
 10 17  1  0  0  0  0
 11 12  1  0  0  0  0
 11 18  1  0  0  0  0
 12 13  2  0  0  0  0
 13 14  1  0  0  0  0
 14 15  1  0  0  0  0
 14 19  1  0  0  0  0
 15 20  1  0  0  0  0
 15 21  1  0  0  0  0
 15 22  1  0  0  0  0
M  CHG   2   6   1   8  -1
M  END
