./010187-89-0.hin
 OpenBabel10051109203D

 25 26  0  0  0  0  0  0  0  0999 V2000
   -0.8480   -0.0803   -0.6382 N   0  0  0  0  0  0  0  0  0  0  0  0
    0.3535   -0.4356   -0.1113 C   0  0  0  0  0  0  0  0  0  0  0  0
    1.5527    0.3606   -0.0220 C   0  0  0  0  0  0  0  0  0  0  0  0
    1.3939    1.7464   -0.0501 O   0  0  0  0  0  0  0  0  0  0  0  0
    3.6376    1.2441    0.1376 C   0  0  0  0  0  0  0  0  0  0  0  0
    2.8946    0.0148    0.0911 C   0  0  0  0  0  0  0  0  0  0  0  0
    0.2927   -1.7701    0.3404 N   0  0  0  0  0  0  0  0  0  0  0  0
   -0.9184   -2.2847    0.1418 N   0  0  0  0  0  0  0  0  0  0  0  0
   -1.6435   -1.2562   -0.4611 C   0  0  0  0  0  0  0  0  0  0  0  0
   -3.0123   -1.3007   -0.7628 N   0  0  0  0  0  0  0  0  0  0  0  0
   -3.5813   -2.6119   -1.0121 C   0  0  0  0  0  0  0  0  0  0  0  0
   -4.9819   -2.5430   -1.5982 C   0  0  0  0  0  0  0  0  0  0  0  0
    2.6970    2.2638    0.0516 C   0  0  0  0  0  0  0  0  0  0  0  0
    2.8471    3.7176    0.0517 N   0  3  0  0  0  0  0  0  0  0  0  0
    3.9653    4.1546    0.1254 O   0  0  0  0  0  0  0  0  0  0  0  0
    1.8753    4.4136   -0.0164 O   0  5  0  0  0  0  0  0  0  0  0  0
    4.7183    1.3561    0.2206 H   0  0  0  0  0  0  0  0  0  0  0  0
    3.3188   -0.9858    0.1254 H   0  0  0  0  0  0  0  0  0  0  0  0
    0.9916   -2.2859    0.8213 H   0  0  0  0  0  0  0  0  0  0  0  0
   -3.2840   -0.6055   -1.4314 H   0  0  0  0  0  0  0  0  0  0  0  0
   -2.9293   -3.2215   -1.7043 H   0  0  0  0  0  0  0  0  0  0  0  0
   -3.6176   -3.1516   -0.0221 H   0  0  0  0  0  0  0  0  0  0  0  0
   -5.3743   -3.5832   -1.7027 H   0  0  0  0  0  0  0  0  0  0  0  0
   -5.6712   -1.9677   -0.9346 H   0  0  0  0  0  0  0  0  0  0  0  0
   -4.9760   -2.0628   -2.6063 H   0  0  0  0  0  0  0  0  0  0  0  0
  1  2  2  0  0  0  0
  1  9  1  0  0  0  0
  2  3  1  0  0  0  0
  2  7  1  0  0  0  0
  3  4  1  0  0  0  0
  3  6  2  0  0  0  0
  4 13  1  0  0  0  0
  5  6  1  0  0  0  0
  5 13  2  0  0  0  0
  5 17  1  0  0  0  0
  6 18  1  0  0  0  0
  7  8  1  0  0  0  0
  7 19  1  0  0  0  0
  8  9  2  0  0  0  0
  9 10  1  0  0  0  0
 10 11  1  0  0  0  0
 10 20  1  0  0  0  0
 11 12  1  0  0  0  0
 11 21  1  0  0  0  0
 11 22  1  0  0  0  0
 12 23  1  0  0  0  0
 12 24  1  0  0  0  0
 12 25  1  0  0  0  0
 13 14  1  0  0  0  0
 14 15  2  0  0  0  0
 14 16  1  0  0  0  0
M  CHG   2  14   1  16  -1
M  END
