./013351-73-0.hin
 OpenBabel10051109203D

 17 18  0  0  0  0  0  0  0  0999 V2000
   -1.4708   -2.5322    0.0000 C   0  0  0  0  0  0  0  0  0  0  0  0
   -0.3642   -1.6166   -0.0000 N   0  0  0  0  0  0  0  0  0  0  0  0
   -0.4680   -0.2117   -0.0000 C   0  0  0  0  0  0  0  0  0  0  0  0
   -1.5260    0.7031   -0.0000 C   0  0  0  0  0  0  0  0  0  0  0  0
   -1.1915    2.0501   -0.0000 C   0  0  0  0  0  0  0  0  0  0  0  0
    0.1461    2.4894   -0.0000 C   0  0  0  0  0  0  0  0  0  0  0  0
    1.2110    1.5990   -0.0000 C   0  0  0  0  0  0  0  0  0  0  0  0
    0.9115    0.2340   -0.0000 C   0  0  0  0  0  0  0  0  0  0  0  0
    1.7093   -0.9492   -0.0000 N   0  0  0  0  0  0  0  0  0  0  0  0
    0.9554   -1.9598   -0.0000 N   0  0  0  0  0  0  0  0  0  0  0  0
   -2.0976   -2.3566   -0.9153 H   0  0  0  0  0  0  0  0  0  0  0  0
   -1.1028   -3.5921   -0.0000 H   0  0  0  0  0  0  0  0  0  0  0  0
   -2.0976   -2.3566    0.9153 H   0  0  0  0  0  0  0  0  0  0  0  0
   -2.5712    0.3681   -0.0000 H   0  0  0  0  0  0  0  0  0  0  0  0
   -1.9959    2.8023   -0.0000 H   0  0  0  0  0  0  0  0  0  0  0  0
    0.3473    3.5715   -0.0000 H   0  0  0  0  0  0  0  0  0  0  0  0
    2.2540    1.9461   -0.0000 H   0  0  0  0  0  0  0  0  0  0  0  0
  1  2  1  0  0  0  0
  1 11  1  0  0  0  0
  1 12  1  0  0  0  0
  1 13  1  0  0  0  0
  2  3  1  0  0  0  0
  2 10  1  0  0  0  0
  3  4  2  0  0  0  0
  3  8  1  0  0  0  0
  4  5  1  0  0  0  0
  4 14  1  0  0  0  0
  5  6  2  0  0  0  0
  5 15  1  0  0  0  0
  6  7  1  0  0  0  0
  6 16  1  0  0  0  0
  7  8  2  0  0  0  0
  7 17  1  0  0  0  0
  8  9  1  0  0  0  0
  9 10  2  0  0  0  0
M  END
