./014803-99-7.hin
 OpenBabel10051109203D

 17 18  0  0  0  0  0  0  0  0999 V2000
   -0.3436   -1.6677   -0.0000 C   0  0  0  0  0  0  0  0  0  0  0  0
   -1.5888   -2.3222   -0.0000 C   0  0  0  0  0  0  0  0  0  0  0  0
   -2.7723   -1.6795    0.0000 N   0  0  0  0  0  0  0  0  0  0  0  0
   -2.7396   -0.3333    0.0000 C   0  0  0  0  0  0  0  0  0  0  0  0
   -1.5518    0.4193    0.0000 C   0  0  0  0  0  0  0  0  0  0  0  0
   -0.3268   -0.2643   -0.0000 C   0  0  0  0  0  0  0  0  0  0  0  0
    0.9479    0.4437   -0.0000 C   0  0  0  0  0  0  0  0  0  0  0  0
    2.1991   -0.1009   -0.0000 N   0  0  0  0  0  0  0  0  0  0  0  0
    3.0490    1.0107   -0.0000 C   0  0  0  0  0  0  0  0  0  0  0  0
    2.3701    2.1981    0.0000 N   0  0  0  0  0  0  0  0  0  0  0  0
    1.0860    1.8528    0.0000 N   0  0  0  0  0  0  0  0  0  0  0  0
    0.5891   -2.2502   -0.0000 H   0  0  0  0  0  0  0  0  0  0  0  0
   -1.6412   -3.4264   -0.0000 H   0  0  0  0  0  0  0  0  0  0  0  0
   -3.7229    0.1712    0.0000 H   0  0  0  0  0  0  0  0  0  0  0  0
   -1.6125    1.5146    0.0000 H   0  0  0  0  0  0  0  0  0  0  0  0
    4.1405    0.9255   -0.0000 H   0  0  0  0  0  0  0  0  0  0  0  0
    0.3689    2.5392    0.0000 H   0  0  0  0  0  0  0  0  0  0  0  0
  1  2  2  0  0  0  0
  1  6  1  0  0  0  0
  1 12  1  0  0  0  0
  2  3  1  0  0  0  0
  2 13  1  0  0  0  0
  3  4  2  0  0  0  0
  4  5  1  0  0  0  0
  4 14  1  0  0  0  0
  5  6  2  0  0  0  0
  5 15  1  0  0  0  0
  6  7  1  0  0  0  0
  7  8  2  0  0  0  0
  7 11  1  0  0  0  0
  8  9  1  0  0  0  0
  9 10  2  0  0  0  0
  9 16  1  0  0  0  0
 10 11  1  0  0  0  0
 11 17  1  0  0  0  0
M  END
