./015421-84-8.hin
 OpenBabel01231310003D

 30 31  0  0  0  0  0  0  0  0999 V2000
   -2.0781   -2.4150   -0.3336 C   0  0  0  0  0  0  0  0  0  0  0  0
   -3.2529   -3.2076   -0.8168 C   0  0  0  0  0  0  0  0  0  0  0  0
   -2.1196   -1.0017   -0.5948 C   0  0  0  0  0  0  0  0  0  0  0  0
   -1.0860   -0.1601   -0.1847 C   0  0  0  0  0  0  0  0  0  0  0  0
   -0.0170   -0.7714    0.4938 N   0  0  0  0  0  0  0  0  0  0  0  0
   -0.0270   -2.2292    0.7056 C   0  0  0  0  0  0  0  0  0  0  0  0
   -1.0774   -3.0285    0.2921 N   0  0  0  0  0  0  0  0  0  0  0  0
    1.1396   -2.5542    1.3586 N   0  0  0  0  0  0  0  0  0  0  0  0
    1.7845   -1.3275    1.5066 C   0  0  0  0  0  0  0  0  0  0  0  0
    1.1112   -0.2499    0.9946 N   0  0  0  0  0  0  0  0  0  0  0  0
   -1.1436    1.2310   -0.4729 N   0  0  0  0  0  0  0  0  0  0  0  0
   -1.9500    2.0006    0.4620 C   0  0  0  0  0  0  0  0  0  0  0  0
   -1.3765    2.2445    1.8475 C   0  0  0  0  0  0  0  0  0  0  0  0
    0.0961    1.8594   -0.9108 C   0  0  0  0  0  0  0  0  0  0  0  0
   -0.1374    3.0410   -1.8422 C   0  0  0  0  0  0  0  0  0  0  0  0
   -3.3661   -3.0566   -1.9189 H   0  0  0  0  0  0  0  0  0  0  0  0
   -3.1422   -4.3010   -0.6137 H   0  0  0  0  0  0  0  0  0  0  0  0
   -4.1759   -2.8392   -0.3044 H   0  0  0  0  0  0  0  0  0  0  0  0
   -2.9814   -0.5866   -1.1359 H   0  0  0  0  0  0  0  0  0  0  0  0
    2.7598   -1.2391    2.0009 H   0  0  0  0  0  0  0  0  0  0  0  0
   -2.1430    2.9941   -0.0356 H   0  0  0  0  0  0  0  0  0  0  0  0
   -2.9388    1.4676    0.5652 H   0  0  0  0  0  0  0  0  0  0  0  0
   -2.1183    2.8233    2.4489 H   0  0  0  0  0  0  0  0  0  0  0  0
   -1.1653    1.2825    2.3729 H   0  0  0  0  0  0  0  0  0  0  0  0
   -0.4279    2.8312    1.7959 H   0  0  0  0  0  0  0  0  0  0  0  0
    0.7088    2.2131   -0.0311 H   0  0  0  0  0  0  0  0  0  0  0  0
    0.7047    1.0921   -1.4691 H   0  0  0  0  0  0  0  0  0  0  0  0
    0.8542    3.3827   -2.2267 H   0  0  0  0  0  0  0  0  0  0  0  0
   -0.7787    2.7561   -2.7100 H   0  0  0  0  0  0  0  0  0  0  0  0
   -0.6213    3.8928   -1.3077 H   0  0  0  0  0  0  0  0  0  0  0  0
  1  2  1  0  0  0  0
  1  3  1  0  0  0  0
  1  7  2  0  0  0  0
  2 16  1  0  0  0  0
  2 17  1  0  0  0  0
  2 18  1  0  0  0  0
  3  4  2  0  0  0  0
  3 19  1  0  0  0  0
  4  5  1  0  0  0  0
  4 11  1  0  0  0  0
  5  6  1  0  0  0  0
  5 10  1  0  0  0  0
  6  7  1  0  0  0  0
  6  8  2  0  0  0  0
  8  9  1  0  0  0  0
  9 10  2  0  0  0  0
  9 20  1  0  0  0  0
 11 12  1  0  0  0  0
 11 14  1  0  0  0  0
 12 13  1  0  0  0  0
 12 21  1  0  0  0  0
 12 22  1  0  0  0  0
 13 23  1  0  0  0  0
 13 24  1  0  0  0  0
 13 25  1  0  0  0  0
 14 15  1  0  0  0  0
 14 26  1  0  0  0  0
 14 27  1  0  0  0  0
 15 28  1  0  0  0  0
 15 29  1  0  0  0  0
 15 30  1  0  0  0  0
M  END
