./015805-10-4.hin
 OpenBabel10051109203D

 27 30  0  0  0  0  0  0  0  0999 V2000
   -0.3043   -4.3715    1.7295 N   0  0  0  0  0  0  0  0  0  0  0  0
    0.7948   -4.2503    2.5650 N   0  0  0  0  0  0  0  0  0  0  0  0
    1.1818   -3.0832    2.7883 N   0  0  0  0  0  0  0  0  0  0  0  0
    0.3097   -2.1861    2.0471 C   0  0  0  0  0  0  0  0  0  0  0  0
   -0.6576   -3.1378    1.3721 C   0  0  0  0  0  0  0  0  0  0  0  0
    0.2445   -0.8550    1.9008 C   0  0  0  0  0  0  0  0  0  0  0  0
   -0.7845   -0.2757    1.0138 C   0  0  0  0  0  0  0  0  0  0  0  0
   -1.7630   -1.2182    0.4381 C   0  0  0  0  0  0  0  0  0  0  0  0
   -1.7082   -2.5576    0.5790 C   0  0  0  0  0  0  0  0  0  0  0  0
   -1.2473    1.1301    1.3104 C   0  0  0  0  0  0  0  0  0  0  0  0
    2.0748    2.1108   -3.0868 N   0  0  0  0  0  0  0  0  0  0  0  0
    3.2159    2.3460   -2.3360 N   0  0  0  0  0  0  0  0  0  0  0  0
    3.1053    2.1575   -1.1056 N   0  0  0  0  0  0  0  0  0  0  0  0
    1.7424    1.7175   -0.8532 C   0  0  0  0  0  0  0  0  0  0  0  0
    1.1255    1.7206   -2.2376 C   0  0  0  0  0  0  0  0  0  0  0  0
    1.0611    1.3698    0.2478 C   0  0  0  0  0  0  0  0  0  0  0  0
   -0.3425    0.9285    0.1190 C   0  0  0  0  0  0  0  0  0  0  0  0
   -0.9407    1.0222   -1.2265 C   0  0  0  0  0  0  0  0  0  0  0  0
   -0.2662    1.3713   -2.3401 C   0  0  0  0  0  0  0  0  0  0  0  0
    0.9285   -0.1701    2.4277 H   0  0  0  0  0  0  0  0  0  0  0  0
   -2.5907   -0.7647   -0.1323 H   0  0  0  0  0  0  0  0  0  0  0  0
   -2.4545   -3.2280    0.1234 H   0  0  0  0  0  0  0  0  0  0  0  0
   -2.3086    1.3838    1.1275 H   0  0  0  0  0  0  0  0  0  0  0  0
   -0.8402    1.6433    2.2021 H   0  0  0  0  0  0  0  0  0  0  0  0
    1.5080    1.4091    1.2544 H   0  0  0  0  0  0  0  0  0  0  0  0
   -2.0180    0.7957   -1.2917 H   0  0  0  0  0  0  0  0  0  0  0  0
   -0.7489    1.4193   -3.3294 H   0  0  0  0  0  0  0  0  0  0  0  0
  1  2  1  0  0  0  0
  1  5  1  0  0  0  0
  2  3  2  0  0  0  0
  3  4  1  0  0  0  0
  4  5  2  0  0  0  0
  4  6  1  0  0  0  0
  5  9  1  0  0  0  0
  6  7  2  0  0  0  0
  6 20  1  0  0  0  0
  7  8  1  0  0  0  0
  7 10  1  0  0  0  0
  8  9  2  0  0  0  0
  8 21  1  0  0  0  0
  9 22  1  0  0  0  0
 10 17  1  0  0  0  0
 10 23  1  0  0  0  0
 10 24  1  0  0  0  0
 11 12  1  0  0  0  0
 11 15  1  0  0  0  0
 12 13  2  0  0  0  0
 13 14  1  0  0  0  0
 14 15  2  0  0  0  0
 14 16  1  0  0  0  0
 15 19  1  0  0  0  0
 16 17  2  0  0  0  0
 16 25  1  0  0  0  0
 17 18  1  0  0  0  0
 18 19  2  0  0  0  0
 18 26  1  0  0  0  0
 19 27  1  0  0  0  0
M  END
