./016515-58-5.hin
 OpenBabel10051109203D

 55 59  0  0  0  0  0  0  0  0999 V2000
   -4.6574   -1.4000   -1.1572 C   0  0  0  0  0  0  0  0  0  0  0  0
   -5.1079   -0.3164   -0.2776 C   0  0  0  0  0  0  0  0  0  0  0  0
   -4.2063    0.3157    0.5175 C   0  0  0  0  0  0  0  0  0  0  0  0
   -2.8173   -0.0557    0.4864 C   0  0  0  0  0  0  0  0  0  0  0  0
   -1.8420    0.5619    1.2868 C   0  0  0  0  0  0  0  0  0  0  0  0
   -0.5162    0.1737    1.2172 C   0  0  0  0  0  0  0  0  0  0  0  0
   -0.1177   -0.8540    0.3228 C   0  0  0  0  0  0  0  0  0  0  0  0
   -1.0732   -1.4957   -0.4801 C   0  0  0  0  0  0  0  0  0  0  0  0
   -2.4138   -1.0859   -0.3831 C   0  0  0  0  0  0  0  0  0  0  0  0
   -3.3045   -1.7514   -1.1940 O   0  0  0  0  0  0  0  0  0  0  0  0
   -5.2938   -2.1145   -1.9292 O   0  0  0  0  0  0  0  0  0  0  0  0
   -6.5210    0.0472   -0.2888 C   0  0  0  0  0  0  0  0  0  0  0  0
   -7.5178   -0.9265   -0.4488 C   0  0  0  0  0  0  0  0  0  0  0  0
   -8.8629   -0.5627   -0.4302 C   0  0  0  0  0  0  0  0  0  0  0  0
   -9.2288    0.7718   -0.2580 C   0  0  0  0  0  0  0  0  0  0  0  0
   -8.2427    1.7471   -0.1081 C   0  0  0  0  0  0  0  0  0  0  0  0
   -6.8967    1.3899   -0.1237 C   0  0  0  0  0  0  0  0  0  0  0  0
    1.2431   -1.2359    0.2474 N   0  0  0  0  0  0  0  0  0  0  0  0
    1.6766   -2.5238    0.0470 N   0  0  0  0  0  0  0  0  0  0  0  0
    2.9296   -2.6052    0.0557 N   0  0  0  0  0  0  0  0  0  0  0  0
    3.4906   -1.3077    0.2729 C   0  0  0  0  0  0  0  0  0  0  0  0
    2.3729   -0.3960    0.4010 C   0  0  0  0  0  0  0  0  0  0  0  0
    4.8012   -0.8426    0.3613 C   0  0  0  0  0  0  0  0  0  0  0  0
    4.9751    0.5280    0.5586 C   0  0  0  0  0  0  0  0  0  0  0  0
    3.8856    1.4341    0.6695 C   0  0  0  0  0  0  0  0  0  0  0  0
    2.5732    0.9719    0.5915 C   0  0  0  0  0  0  0  0  0  0  0  0
    4.1546    2.8741    0.8883 C   0  0  0  0  0  0  0  0  0  0  0  0
    6.2461    1.0522    0.7537 O   0  0  0  0  0  0  0  0  0  0  0  0
    7.1159    0.8920   -0.3806 C   0  0  0  0  0  0  0  0  0  0  0  0
    8.4653    1.4394    0.0469 C   0  0  0  0  0  0  0  0  0  0  0  0
    9.4530    1.3545   -1.0964 C   0  0  0  0  0  0  0  0  0  0  0  0
   10.8038    1.8864   -0.6923 C   0  0  0  0  0  0  0  0  0  0  0  0
   -4.5118    1.1220    1.2044 H   0  0  0  0  0  0  0  0  0  0  0  0
   -2.1444    1.3604    1.9826 H   0  0  0  0  0  0  0  0  0  0  0  0
    0.2273    0.6561    1.8710 H   0  0  0  0  0  0  0  0  0  0  0  0
   -0.8110   -2.3094   -1.1749 H   0  0  0  0  0  0  0  0  0  0  0  0
   -7.2345   -1.9802   -0.6041 H   0  0  0  0  0  0  0  0  0  0  0  0
   -9.6369   -1.3345   -0.5560 H   0  0  0  0  0  0  0  0  0  0  0  0
  -10.2913    1.0558   -0.2452 H   0  0  0  0  0  0  0  0  0  0  0  0
   -8.5268    2.8021    0.0191 H   0  0  0  0  0  0  0  0  0  0  0  0
   -6.1249    2.1668   -0.0180 H   0  0  0  0  0  0  0  0  0  0  0  0
    5.6582   -1.5262    0.2812 H   0  0  0  0  0  0  0  0  0  0  0  0
    1.7282    1.6711    0.6634 H   0  0  0  0  0  0  0  0  0  0  0  0
    5.0263    3.2027    0.2682 H   0  0  0  0  0  0  0  0  0  0  0  0
    3.2663    3.4991    0.6277 H   0  0  0  0  0  0  0  0  0  0  0  0
    4.4146    3.0488    1.9633 H   0  0  0  0  0  0  0  0  0  0  0  0
    6.6967    1.4695   -1.2457 H   0  0  0  0  0  0  0  0  0  0  0  0
    7.1864   -0.1923   -0.6554 H   0  0  0  0  0  0  0  0  0  0  0  0
    8.3474    2.5038    0.3788 H   0  0  0  0  0  0  0  0  0  0  0  0
    8.8411    0.8574    0.9284 H   0  0  0  0  0  0  0  0  0  0  0  0
    9.5522    0.2870   -1.4283 H   0  0  0  0  0  0  0  0  0  0  0  0
    9.0645    1.9386   -1.9724 H   0  0  0  0  0  0  0  0  0  0  0  0
   11.5179    1.8184   -1.5482 H   0  0  0  0  0  0  0  0  0  0  0  0
   10.7290    2.9558   -0.3786 H   0  0  0  0  0  0  0  0  0  0  0  0
   11.2195    1.2993    0.1621 H   0  0  0  0  0  0  0  0  0  0  0  0
  1  2  1  0  0  0  0
  1 10  1  0  0  0  0
  1 11  2  0  0  0  0
  2  3  2  0  0  0  0
  2 12  1  0  0  0  0
  3  4  1  0  0  0  0
  3 33  1  0  0  0  0
  4  5  2  0  0  0  0
  4  9  1  0  0  0  0
  5  6  1  0  0  0  0
  5 34  1  0  0  0  0
  6  7  2  0  0  0  0
  6 35  1  0  0  0  0
  7  8  1  0  0  0  0
  7 18  1  0  0  0  0
  8  9  2  0  0  0  0
  8 36  1  0  0  0  0
  9 10  1  0  0  0  0
 12 13  2  0  0  0  0
 12 17  1  0  0  0  0
 13 14  1  0  0  0  0
 13 37  1  0  0  0  0
 14 15  2  0  0  0  0
 14 38  1  0  0  0  0
 15 16  1  0  0  0  0
 15 39  1  0  0  0  0
 16 17  2  0  0  0  0
 16 40  1  0  0  0  0
 17 41  1  0  0  0  0
 18 19  1  0  0  0  0
 18 22  1  0  0  0  0
 19 20  2  0  0  0  0
 20 21  1  0  0  0  0
 21 22  2  0  0  0  0
 21 23  1  0  0  0  0
 22 26  1  0  0  0  0
 23 24  2  0  0  0  0
 23 42  1  0  0  0  0
 24 25  1  0  0  0  0
 24 28  1  0  0  0  0
 25 26  2  0  0  0  0
 25 27  1  0  0  0  0
 26 43  1  0  0  0  0
 27 44  1  0  0  0  0
 27 45  1  0  0  0  0
 27 46  1  0  0  0  0
 28 29  1  0  0  0  0
 29 30  1  0  0  0  0
 29 47  1  0  0  0  0
 29 48  1  0  0  0  0
 30 31  1  0  0  0  0
 30 49  1  0  0  0  0
 30 50  1  0  0  0  0
 31 32  1  0  0  0  0
 31 51  1  0  0  0  0
 31 52  1  0  0  0  0
 32 53  1  0  0  0  0
 32 54  1  0  0  0  0
 32 55  1  0  0  0  0
M  END
