./016584-05-7.hin
 OpenBabel10051109203D

 20 21  0  0  0  0  0  0  0  0999 V2000
    0.4628   -0.3324    0.1906 C   0  0  0  0  0  0  0  0  0  0  0  0
    0.4489    1.1173    0.2162 C   0  0  0  0  0  0  0  0  0  0  0  0
   -0.9218    1.4978    0.3396 N   0  0  0  0  0  0  0  0  0  0  0  0
   -1.6386    0.4619    0.3777 N   0  0  0  0  0  0  0  0  0  0  0  0
   -0.8965   -0.6821    0.3288 N   0  0  0  0  0  0  0  0  0  0  0  0
   -1.4431   -2.0147    0.1787 C   0  0  0  0  0  0  0  0  0  0  0  0
   -2.0072   -2.3245   -1.1980 C   0  0  0  0  0  0  0  0  0  0  0  0
    1.6441    1.8362    0.1373 C   0  0  0  0  0  0  0  0  0  0  0  0
    2.8233    1.1111    0.0297 C   0  0  0  0  0  0  0  0  0  0  0  0
    2.8309   -0.2960    0.0058 C   0  0  0  0  0  0  0  0  0  0  0  0
    1.6631   -1.0423    0.0874 C   0  0  0  0  0  0  0  0  0  0  0  0
   -0.6089   -2.7348    0.4167 H   0  0  0  0  0  0  0  0  0  0  0  0
   -2.2575   -2.1439    0.9491 H   0  0  0  0  0  0  0  0  0  0  0  0
   -2.3938   -3.3724   -1.1942 H   0  0  0  0  0  0  0  0  0  0  0  0
   -2.8473   -1.6345   -1.4528 H   0  0  0  0  0  0  0  0  0  0  0  0
   -1.2238   -2.2358   -1.9882 H   0  0  0  0  0  0  0  0  0  0  0  0
    1.6425    2.9352    0.1612 H   0  0  0  0  0  0  0  0  0  0  0  0
    3.7823    1.6470   -0.0380 H   0  0  0  0  0  0  0  0  0  0  0  0
    3.7961   -0.8193   -0.0803 H   0  0  0  0  0  0  0  0  0  0  0  0
    1.6806   -2.1398    0.0721 H   0  0  0  0  0  0  0  0  0  0  0  0
  1  2  2  0  0  0  0
  1  5  1  0  0  0  0
  1 11  1  0  0  0  0
  2  3  1  0  0  0  0
  2  8  1  0  0  0  0
  3  4  2  0  0  0  0
  4  5  1  0  0  0  0
  5  6  1  0  0  0  0
  6  7  1  0  0  0  0
  6 12  1  0  0  0  0
  6 13  1  0  0  0  0
  7 14  1  0  0  0  0
  7 15  1  0  0  0  0
  7 16  1  0  0  0  0
  8  9  2  0  0  0  0
  8 17  1  0  0  0  0
  9 10  1  0  0  0  0
  9 18  1  0  0  0  0
 10 11  2  0  0  0  0
 10 19  1  0  0  0  0
 11 20  1  0  0  0  0
M  END
