./019683-09-1.hin
 OpenBabel10051109203D

 46 50  0  0  0  0  0  0  0  0999 V2000
   -8.8078    0.7124    0.8727 C   0  0  0  0  0  0  0  0  0  0  0  0
   -8.9122    1.9283    0.1970 C   0  0  0  0  0  0  0  0  0  0  0  0
   -7.8276    2.4125   -0.5339 C   0  0  0  0  0  0  0  0  0  0  0  0
   -6.6402    1.6850   -0.5945 C   0  0  0  0  0  0  0  0  0  0  0  0
   -6.5342    0.4586    0.0777 C   0  0  0  0  0  0  0  0  0  0  0  0
   -7.6249   -0.0215    0.8165 C   0  0  0  0  0  0  0  0  0  0  0  0
   -5.3029   -0.3069    0.0145 C   0  0  0  0  0  0  0  0  0  0  0  0
   -5.1637   -1.7750   -0.0769 C   0  0  0  0  0  0  0  0  0  0  0  0
   -3.8369   -2.0496   -0.1212 N   0  0  0  0  0  0  0  0  0  0  0  0
   -3.2106   -0.8465   -0.0627 N   0  0  0  0  0  0  0  0  0  0  0  0
   -4.0480    0.2156    0.0184 N   0  0  0  0  0  0  0  0  0  0  0  0
   -6.2548   -2.7618   -0.1236 C   0  0  0  0  0  0  0  0  0  0  0  0
   -1.7810   -0.7117   -0.0766 C   0  0  0  0  0  0  0  0  0  0  0  0
   -1.1940    0.5499    0.1057 C   0  0  0  0  0  0  0  0  0  0  0  0
    0.2075    0.6455    0.0789 C   0  0  0  0  0  0  0  0  0  0  0  0
    1.0291   -0.4793   -0.1168 C   0  0  0  0  0  0  0  0  0  0  0  0
    0.4134   -1.7291   -0.2943 C   0  0  0  0  0  0  0  0  0  0  0  0
   -0.9645   -1.8552   -0.2777 C   0  0  0  0  0  0  0  0  0  0  0  0
    0.7245    1.9096    0.2545 O   0  0  0  0  0  0  0  0  0  0  0  0
    2.1102    2.0900    0.2311 C   0  0  0  0  0  0  0  0  0  0  0  0
    2.9958    0.9353    0.0504 C   0  0  0  0  0  0  0  0  0  0  0  0
    2.4555   -0.2987   -0.1247 C   0  0  0  0  0  0  0  0  0  0  0  0
    4.4384    1.1548    0.0641 C   0  0  0  0  0  0  0  0  0  0  0  0
    5.2863    0.1850    0.6225 C   0  0  0  0  0  0  0  0  0  0  0  0
    6.6666    0.3704    0.6178 C   0  0  0  0  0  0  0  0  0  0  0  0
    7.2174    1.5235    0.0587 C   0  0  0  0  0  0  0  0  0  0  0  0
    6.3809    2.4949   -0.4904 C   0  0  0  0  0  0  0  0  0  0  0  0
    4.9989    2.3164   -0.4870 C   0  0  0  0  0  0  0  0  0  0  0  0
    2.3772    3.2816    0.3767 O   0  0  0  0  0  0  0  0  0  0  0  0
   -9.6595    0.3316    1.4554 H   0  0  0  0  0  0  0  0  0  0  0  0
   -9.8474    2.5054    0.2433 H   0  0  0  0  0  0  0  0  0  0  0  0
   -7.9059    3.3735   -1.0638 H   0  0  0  0  0  0  0  0  0  0  0  0
   -5.7862    2.0743   -1.1694 H   0  0  0  0  0  0  0  0  0  0  0  0
   -7.5412   -0.9748    1.3603 H   0  0  0  0  0  0  0  0  0  0  0  0
   -7.1659   -2.2912   -0.5716 H   0  0  0  0  0  0  0  0  0  0  0  0
   -5.9725   -3.6556   -0.7340 H   0  0  0  0  0  0  0  0  0  0  0  0
   -6.5008   -3.1062    0.9134 H   0  0  0  0  0  0  0  0  0  0  0  0
   -1.7810    1.4683    0.2676 H   0  0  0  0  0  0  0  0  0  0  0  0
    1.0415   -2.6204   -0.4501 H   0  0  0  0  0  0  0  0  0  0  0  0
   -1.4108   -2.8520   -0.4222 H   0  0  0  0  0  0  0  0  0  0  0  0
    3.0895   -1.1871   -0.2796 H   0  0  0  0  0  0  0  0  0  0  0  0
    4.8590   -0.7212    1.0773 H   0  0  0  0  0  0  0  0  0  0  0  0
    7.3221   -0.3941    1.0601 H   0  0  0  0  0  0  0  0  0  0  0  0
    8.3076    1.6679    0.0554 H   0  0  0  0  0  0  0  0  0  0  0  0
    6.8102    3.4095   -0.9259 H   0  0  0  0  0  0  0  0  0  0  0  0
    4.3419    3.0962   -0.9052 H   0  0  0  0  0  0  0  0  0  0  0  0
  1  2  2  0  0  0  0
  1  6  1  0  0  0  0
  1 30  1  0  0  0  0
  2  3  1  0  0  0  0
  2 31  1  0  0  0  0
  3  4  2  0  0  0  0
  3 32  1  0  0  0  0
  4  5  1  0  0  0  0
  4 33  1  0  0  0  0
  5  6  2  0  0  0  0
  5  7  1  0  0  0  0
  6 34  1  0  0  0  0
  7  8  1  0  0  0  0
  7 11  2  0  0  0  0
  8  9  2  0  0  0  0
  8 12  1  0  0  0  0
  9 10  1  0  0  0  0
 10 11  1  0  0  0  0
 10 13  1  0  0  0  0
 12 35  1  0  0  0  0
 12 36  1  0  0  0  0
 12 37  1  0  0  0  0
 13 14  2  0  0  0  0
 13 18  1  0  0  0  0
 14 15  1  0  0  0  0
 14 38  1  0  0  0  0
 15 16  2  0  0  0  0
 15 19  1  0  0  0  0
 16 17  1  0  0  0  0
 16 22  1  0  0  0  0
 17 18  2  0  0  0  0
 17 39  1  0  0  0  0
 18 40  1  0  0  0  0
 19 20  1  0  0  0  0
 20 21  1  0  0  0  0
 20 29  2  0  0  0  0
 21 22  2  0  0  0  0
 21 23  1  0  0  0  0
 22 41  1  0  0  0  0
 23 24  2  0  0  0  0
 23 28  1  0  0  0  0
 24 25  1  0  0  0  0
 24 42  1  0  0  0  0
 25 26  2  0  0  0  0
 25 43  1  0  0  0  0
 26 27  1  0  0  0  0
 26 44  1  0  0  0  0
 27 28  2  0  0  0  0
 27 45  1  0  0  0  0
 28 46  1  0  0  0  0
M  END
