./019794-93-5.hin
 OpenBabel01231310243D

 48 51  0  0  0  0  0  0  0  0999 V2000
   -5.5998   -3.6310   -3.3520 C   0  0  0  0  0  0  0  0  0  0  0  0
   -5.0101   -2.6409   -4.0734 C   0  0  0  0  0  0  0  0  0  0  0  0
   -3.6987   -2.1714   -3.6746 C   0  0  0  0  0  0  0  0  0  0  0  0
   -4.9467   -4.2164   -2.2140 C   0  0  0  0  0  0  0  0  0  0  0  0
   -3.6992   -3.7962   -1.8368 C   0  0  0  0  0  0  0  0  0  0  0  0
   -3.0570   -2.8161   -2.5609 N   0  0  0  0  0  0  0  0  0  0  0  0
   -2.9323   -1.1737   -4.1566 N   0  0  0  0  0  0  0  0  0  0  0  0
   -1.7638   -1.1708   -3.4421 N   0  0  0  0  0  0  0  0  0  0  0  0
   -1.8250   -2.1126   -2.3489 C   0  0  0  0  0  0  0  0  0  0  0  0
   -0.9720    0.0465   -3.3029 C   0  0  0  0  0  0  0  0  0  0  0  0
   -1.6080    1.1956   -2.5281 C   0  0  0  0  0  0  0  0  0  0  0  0
   -1.5302    0.9952   -1.0138 C   0  0  0  0  0  0  0  0  0  0  0  0
   -0.1819    1.1971   -0.4945 N   0  0  0  0  0  0  0  0  0  0  0  0
    0.2633    0.1652    0.4290 C   0  0  0  0  0  0  0  0  0  0  0  0
   -0.2390    0.3415    1.8781 C   0  0  0  0  0  0  0  0  0  0  0  0
   -0.0617    1.6718    2.4359 N   0  0  0  0  0  0  0  0  0  0  0  0
   -0.4614    2.7208    1.5074 C   0  0  0  0  0  0  0  0  0  0  0  0
    0.0338    2.5257    0.0563 C   0  0  0  0  0  0  0  0  0  0  0  0
    1.1323    1.9279    3.1626 C   0  0  0  0  0  0  0  0  0  0  0  0
    1.1706    3.0514    4.0246 C   0  0  0  0  0  0  0  0  0  0  0  0
    2.2826    3.2954    4.8207 C   0  0  0  0  0  0  0  0  0  0  0  0
    3.3855    2.4430    4.7951 C   0  0  0  0  0  0  0  0  0  0  0  0
    3.3579    1.3368    3.9449 C   0  0  0  0  0  0  0  0  0  0  0  0
    2.2567    1.0763    3.1274 C   0  0  0  0  0  0  0  0  0  0  0  0
    4.6964    0.2853    3.8911 Cl  0  0  0  0  0  0  0  0  0  0  0  0
   -0.9737   -2.3753   -1.4862 O   0  0  0  0  0  0  0  0  0  0  0  0
   -6.5979   -4.0080   -3.6239 H   0  0  0  0  0  0  0  0  0  0  0  0
   -5.4776   -2.1657   -4.9463 H   0  0  0  0  0  0  0  0  0  0  0  0
   -5.4557   -5.0109   -1.6529 H   0  0  0  0  0  0  0  0  0  0  0  0
   -3.1361   -4.2032   -0.9776 H   0  0  0  0  0  0  0  0  0  0  0  0
   -0.0120   -0.2693   -2.8018 H   0  0  0  0  0  0  0  0  0  0  0  0
   -0.7415    0.3964   -4.3501 H   0  0  0  0  0  0  0  0  0  0  0  0
   -1.0720    2.1372   -2.8207 H   0  0  0  0  0  0  0  0  0  0  0  0
   -2.6849    1.3220   -2.8123 H   0  0  0  0  0  0  0  0  0  0  0  0
   -2.2672    1.7024   -0.5318 H   0  0  0  0  0  0  0  0  0  0  0  0
   -1.8811   -0.0512   -0.7786 H   0  0  0  0  0  0  0  0  0  0  0  0
    1.3900    0.1935    0.4206 H   0  0  0  0  0  0  0  0  0  0  0  0
   -0.0588   -0.8466    0.0524 H   0  0  0  0  0  0  0  0  0  0  0  0
    0.2535   -0.4245    2.5356 H   0  0  0  0  0  0  0  0  0  0  0  0
   -1.3506    0.1470    1.9002 H   0  0  0  0  0  0  0  0  0  0  0  0
   -0.0973    3.7192    1.8732 H   0  0  0  0  0  0  0  0  0  0  0  0
   -1.5886    2.7342    1.5130 H   0  0  0  0  0  0  0  0  0  0  0  0
    1.1434    2.7168    0.0184 H   0  0  0  0  0  0  0  0  0  0  0  0
   -0.4744    3.2871   -0.5963 H   0  0  0  0  0  0  0  0  0  0  0  0
    0.3083    3.7338    4.0797 H   0  0  0  0  0  0  0  0  0  0  0  0
    2.2911    4.1720    5.4867 H   0  0  0  0  0  0  0  0  0  0  0  0
    4.2587    2.6404    5.4331 H   0  0  0  0  0  0  0  0  0  0  0  0
    2.2825    0.2033    2.4566 H   0  0  0  0  0  0  0  0  0  0  0  0
  1  2  2  0  0  0  0
  1  4  1  0  0  0  0
  1 27  1  0  0  0  0
  2  3  1  0  0  0  0
  2 28  1  0  0  0  0
  3  6  1  0  0  0  0
  3  7  2  0  0  0  0
  4  5  2  0  0  0  0
  4 29  1  0  0  0  0
  5  6  1  0  0  0  0
  5 30  1  0  0  0  0
  6  9  1  0  0  0  0
  7  8  1  0  0  0  0
  8  9  1  0  0  0  0
  8 10  1  0  0  0  0
  9 26  2  0  0  0  0
 10 11  1  0  0  0  0
 10 31  1  0  0  0  0
 10 32  1  0  0  0  0
 11 12  1  0  0  0  0
 11 33  1  0  0  0  0
 11 34  1  0  0  0  0
 12 13  1  0  0  0  0
 12 35  1  0  0  0  0
 12 36  1  0  0  0  0
 13 14  1  0  0  0  0
 13 18  1  0  0  0  0
 14 15  1  0  0  0  0
 14 37  1  0  0  0  0
 14 38  1  0  0  0  0
 15 16  1  0  0  0  0
 15 39  1  0  0  0  0
 15 40  1  0  0  0  0
 16 17  1  0  0  0  0
 16 19  1  0  0  0  0
 17 18  1  0  0  0  0
 17 41  1  0  0  0  0
 17 42  1  0  0  0  0
 18 43  1  0  0  0  0
 18 44  1  0  0  0  0
 19 20  2  0  0  0  0
 19 24  1  0  0  0  0
 20 21  1  0  0  0  0
 20 45  1  0  0  0  0
 21 22  2  0  0  0  0
 21 46  1  0  0  0  0
 22 23  1  0  0  0  0
 22 47  1  0  0  0  0
 23 24  2  0  0  0  0
 23 25  1  0  0  0  0
 24 48  1  0  0  0  0
M  END
