./021050-95-3.hin
 OpenBabel10051109203D

 14 15  0  0  0  0  0  0  0  0999 V2000
    0.1495   -1.3252    0.0000 N   0  0  0  0  0  0  0  0  0  0  0  0
    1.4726   -1.6774    0.0000 N   0  0  0  0  0  0  0  0  0  0  0  0
    2.2103   -0.6605    0.0000 N   0  0  0  0  0  0  0  0  0  0  0  0
    1.4075    0.5227    0.0000 C   0  0  0  0  0  0  0  0  0  0  0  0
    0.0291    0.0816    0.0000 C   0  0  0  0  0  0  0  0  0  0  0  0
    1.7072    1.8873   -0.0000 C   0  0  0  0  0  0  0  0  0  0  0  0
    0.6406    2.7769   -0.0000 C   0  0  0  0  0  0  0  0  0  0  0  0
   -0.6965    2.3378   -0.0000 C   0  0  0  0  0  0  0  0  0  0  0  0
   -1.0321    0.9897   -0.0000 C   0  0  0  0  0  0  0  0  0  0  0  0
   -1.1110   -2.3986   -0.0000 Cl  0  0  0  0  0  0  0  0  0  0  0  0
    2.7504    2.2346   -0.0000 H   0  0  0  0  0  0  0  0  0  0  0  0
    0.8420    3.8592   -0.0000 H   0  0  0  0  0  0  0  0  0  0  0  0
   -1.5020    3.0891   -0.0000 H   0  0  0  0  0  0  0  0  0  0  0  0
   -2.0770    0.6529   -0.0000 H   0  0  0  0  0  0  0  0  0  0  0  0
  1  2  1  0  0  0  0
  1  5  1  0  0  0  0
  1 10  1  0  0  0  0
  2  3  2  0  0  0  0
  3  4  1  0  0  0  0
  4  5  2  0  0  0  0
  4  6  1  0  0  0  0
  5  9  1  0  0  0  0
  6  7  2  0  0  0  0
  6 11  1  0  0  0  0
  7  8  1  0  0  0  0
  7 12  1  0  0  0  0
  8  9  2  0  0  0  0
  8 13  1  0  0  0  0
  9 14  1  0  0  0  0
M  END
