./021532-04-7.hin
 OpenBabel10051109203D

 18 18  0  0  0  0  0  0  0  0999 V2000
   -0.9923   -1.5513    0.1175 N   0  0  0  0  0  0  0  0  0  0  0  0
    0.2805   -1.8627    0.1015 N   0  0  0  0  0  0  0  0  0  0  0  0
    1.0506   -0.7453    0.2936 C   0  0  0  0  0  0  0  0  0  0  0  0
    0.1597    0.3598    0.4309 N   0  0  0  0  0  0  0  0  0  0  0  0
   -1.1399   -0.2023    0.2974 C   0  0  0  0  0  0  0  0  0  0  0  0
   -2.5536    0.7117    0.3533 S   0  0  0  0  0  0  0  0  0  0  0  0
   -3.7867   -0.3962   -0.2206 C   0  0  0  0  0  0  0  0  0  0  0  0
    0.5147    1.6583    0.5624 N   0  0  0  0  0  0  0  0  0  0  0  0
    2.7225   -0.7459    0.4727 S   0  0  0  0  0  0  0  0  0  0  0  0
    3.2910    0.6715   -0.3768 C   0  0  0  0  0  0  0  0  0  0  0  0
   -4.7315    0.1968   -0.2091 H   0  0  0  0  0  0  0  0  0  0  0  0
   -3.5838   -0.7550   -1.2541 H   0  0  0  0  0  0  0  0  0  0  0  0
   -3.8961   -1.2826    0.4441 H   0  0  0  0  0  0  0  0  0  0  0  0
    0.2876    1.9688    1.5031 H   0  0  0  0  0  0  0  0  0  0  0  0
   -0.0260    2.2190   -0.0896 H   0  0  0  0  0  0  0  0  0  0  0  0
    4.3748    0.4769   -0.5642 H   0  0  0  0  0  0  0  0  0  0  0  0
    2.7796    0.8318   -1.3512 H   0  0  0  0  0  0  0  0  0  0  0  0
    3.1942    1.6004    0.2287 H   0  0  0  0  0  0  0  0  0  0  0  0
  1  2  1  0  0  0  0
  1  5  2  0  0  0  0
  2  3  2  0  0  0  0
  3  4  1  0  0  0  0
  3  9  1  0  0  0  0
  4  5  1  0  0  0  0
  4  8  1  0  0  0  0
  5  6  1  0  0  0  0
  6  7  1  0  0  0  0
  7 11  1  0  0  0  0
  7 12  1  0  0  0  0
  7 13  1  0  0  0  0
  8 14  1  0  0  0  0
  8 15  1  0  0  0  0
  9 10  1  0  0  0  0
 10 16  1  0  0  0  0
 10 17  1  0  0  0  0
 10 18  1  0  0  0  0
M  END
