./023633-05-8.hin
 OpenBabel10051109203D

 26 27  0  0  0  0  0  0  0  0999 V2000
    0.2324   -0.6127    0.0330 C   0  0  0  0  0  0  0  0  0  0  0  0
    1.4218   -1.2964    0.3738 N   0  0  0  0  0  0  0  0  0  0  0  0
    1.0493   -2.6593    0.3835 C   0  0  0  0  0  0  0  0  0  0  0  0
    1.9126   -3.7149    0.7500 N   0  0  0  0  0  0  0  0  0  0  0  0
    3.0433   -3.9758   -0.1230 C   0  0  0  0  0  0  0  0  0  0  0  0
    2.7285   -4.3152   -1.4621 O   0  0  0  0  0  0  0  0  0  0  0  0
   -0.3081   -2.7350    0.0658 N   0  0  0  0  0  0  0  0  0  0  0  0
   -0.7769   -1.5369   -0.1273 N   0  0  0  0  0  0  0  0  0  0  0  0
    2.6969   -0.7347    0.6697 C   0  0  0  0  0  0  0  0  0  0  0  0
    0.1389    0.8125   -0.1289 C   0  0  0  0  0  0  0  0  0  0  0  0
   -1.1132    1.3808    0.1136 O   0  0  0  0  0  0  0  0  0  0  0  0
   -0.9438    2.7561   -0.1282 C   0  0  0  0  0  0  0  0  0  0  0  0
   -2.1085    3.6200    0.0415 N   0  3  0  0  0  0  0  0  0  0  0  0
   -3.1532    3.1472    0.3865 O   0  0  0  0  0  0  0  0  0  0  0  0
   -1.9587    4.7943   -0.1743 O   0  5  0  0  0  0  0  0  0  0  0  0
    0.3631    3.0416   -0.5060 C   0  0  0  0  0  0  0  0  0  0  0  0
    1.0596    1.7856   -0.5053 C   0  0  0  0  0  0  0  0  0  0  0  0
    1.3770   -4.5415    0.9501 H   0  0  0  0  0  0  0  0  0  0  0  0
    3.6663   -3.0396   -0.2223 H   0  0  0  0  0  0  0  0  0  0  0  0
    3.6422   -4.7988    0.3636 H   0  0  0  0  0  0  0  0  0  0  0  0
    2.2940   -5.1769   -1.4750 H   0  0  0  0  0  0  0  0  0  0  0  0
    2.5635    0.3047    1.0767 H   0  0  0  0  0  0  0  0  0  0  0  0
    3.2223   -1.3652    1.4371 H   0  0  0  0  0  0  0  0  0  0  0  0
    3.3244   -0.6854   -0.2626 H   0  0  0  0  0  0  0  0  0  0  0  0
    0.7718    4.0202   -0.7555 H   0  0  0  0  0  0  0  0  0  0  0  0
    2.1024    1.6366   -0.7742 H   0  0  0  0  0  0  0  0  0  0  0  0
  1  2  1  0  0  0  0
  1  8  2  0  0  0  0
  1 10  1  0  0  0  0
  2  3  1  0  0  0  0
  2  9  1  0  0  0  0
  3  4  1  0  0  0  0
  3  7  2  0  0  0  0
  4  5  1  0  0  0  0
  4 18  1  0  0  0  0
  5  6  1  0  0  0  0
  5 19  1  0  0  0  0
  5 20  1  0  0  0  0
  6 21  1  0  0  0  0
  7  8  1  0  0  0  0
  9 22  1  0  0  0  0
  9 23  1  0  0  0  0
  9 24  1  0  0  0  0
 10 11  1  0  0  0  0
 10 17  2  0  0  0  0
 11 12  1  0  0  0  0
 12 13  1  0  0  0  0
 12 16  2  0  0  0  0
 13 14  2  0  0  0  0
 13 15  1  0  0  0  0
 16 17  1  0  0  0  0
 16 25  1  0  0  0  0
 17 26  1  0  0  0  0
M  CHG   2  13   1  15  -1
M  END
