./023711-34-4.hin
 OpenBabel10051109203D

 29 31  0  0  0  0  0  0  0  0999 V2000
   -4.2187   -1.5028    0.7484 C   0  0  0  0  0  0  0  0  0  0  0  0
   -4.2884   -0.4196   -0.1255 C   0  0  0  0  0  0  0  0  0  0  0  0
   -3.1527    0.3295   -0.4227 C   0  0  0  0  0  0  0  0  0  0  0  0
   -1.9160   -0.0113    0.1663 C   0  0  0  0  0  0  0  0  0  0  0  0
   -1.8540   -1.0984    1.0644 C   0  0  0  0  0  0  0  0  0  0  0  0
   -3.0010   -1.8363    1.3402 C   0  0  0  0  0  0  0  0  0  0  0  0
   -0.7573    0.7377   -0.1365 N   0  0  0  0  0  0  0  0  0  0  0  0
    0.5786    0.2376   -0.2290 C   0  0  0  0  0  0  0  0  0  0  0  0
    1.4495    1.2654   -0.3116 N   0  0  0  0  0  0  0  0  0  0  0  0
    0.7148    2.3875   -0.2812 N   0  0  0  0  0  0  0  0  0  0  0  0
   -0.6756    2.1550   -0.1511 C   0  0  0  0  0  0  0  0  0  0  0  0
   -1.8115    3.2505   -0.1091 S   0  0  0  0  0  0  0  0  0  0  0  0
    0.9352   -1.1811   -0.3004 C   0  0  0  0  0  0  0  0  0  0  0  0
    0.5709   -1.9224   -1.4311 C   0  0  0  0  0  0  0  0  0  0  0  0
    0.9390   -3.2620   -1.5374 C   0  0  0  0  0  0  0  0  0  0  0  0
    1.6759   -3.8674   -0.5194 C   0  0  0  0  0  0  0  0  0  0  0  0
    2.0448   -3.1392    0.6099 C   0  0  0  0  0  0  0  0  0  0  0  0
    1.6744   -1.7943    0.7239 C   0  0  0  0  0  0  0  0  0  0  0  0
    2.1231   -0.9297    2.1134 Cl  0  0  0  0  0  0  0  0  0  0  0  0
   -5.1212   -2.0887    0.9758 H   0  0  0  0  0  0  0  0  0  0  0  0
   -5.2493   -0.1436   -0.5863 H   0  0  0  0  0  0  0  0  0  0  0  0
   -3.2289    1.2040   -1.0916 H   0  0  0  0  0  0  0  0  0  0  0  0
   -0.9014   -1.3698    1.5470 H   0  0  0  0  0  0  0  0  0  0  0  0
   -2.9416   -2.6849    2.0383 H   0  0  0  0  0  0  0  0  0  0  0  0
    1.1510    3.2819   -0.2357 H   0  0  0  0  0  0  0  0  0  0  0  0
   -0.0058   -1.4405   -2.2360 H   0  0  0  0  0  0  0  0  0  0  0  0
    0.6495   -3.8396   -2.4281 H   0  0  0  0  0  0  0  0  0  0  0  0
    1.9703   -4.9246   -0.6060 H   0  0  0  0  0  0  0  0  0  0  0  0
    2.6283   -3.6187    1.4111 H   0  0  0  0  0  0  0  0  0  0  0  0
  1  2  2  0  0  0  0
  1  6  1  0  0  0  0
  1 20  1  0  0  0  0
  2  3  1  0  0  0  0
  2 21  1  0  0  0  0
  3  4  2  0  0  0  0
  3 22  1  0  0  0  0
  4  5  1  0  0  0  0
  4  7  1  0  0  0  0
  5  6  2  0  0  0  0
  5 23  1  0  0  0  0
  6 24  1  0  0  0  0
  7  8  1  0  0  0  0
  7 11  1  0  0  0  0
  8  9  2  0  0  0  0
  8 13  1  0  0  0  0
  9 10  1  0  0  0  0
 10 11  1  0  0  0  0
 10 25  1  0  0  0  0
 11 12  2  0  0  0  0
 13 14  2  0  0  0  0
 13 18  1  0  0  0  0
 14 15  1  0  0  0  0
 14 26  1  0  0  0  0
 15 16  2  0  0  0  0
 15 27  1  0  0  0  0
 16 17  1  0  0  0  0
 16 28  1  0  0  0  0
 17 18  2  0  0  0  0
 17 29  1  0  0  0  0
 18 19  1  0  0  0  0
M  END
