./024017-47-8.hin
 OpenBabel10051109203D

 36 37  0  0  0  0  0  0  0  0999 V2000
   -3.5372   -3.5806   -1.8147 C   0  0  0  0  0  0  0  0  0  0  0  0
   -3.3261   -2.3068   -1.0274 C   0  0  0  0  0  0  0  0  0  0  0  0
   -2.5198   -2.5712    0.1125 O   0  0  0  0  0  0  0  0  0  0  0  0
   -1.0685   -1.9327    0.2307 P   0  0  0  0  0  0  0  0  0  0  0  0
   -0.0817   -2.4614    1.7243 S   0  0  0  0  0  0  0  0  0  0  0  0
   -0.5278   -2.2307   -1.2381 O   0  0  0  0  0  0  0  0  0  0  0  0
    0.7794   -2.7609   -1.4138 C   0  0  0  0  0  0  0  0  0  0  0  0
    0.6872   -4.1235   -2.0629 C   0  0  0  0  0  0  0  0  0  0  0  0
   -1.5911   -0.3834    0.0600 O   0  0  0  0  0  0  0  0  0  0  0  0
   -0.5827    0.5257    0.0868 C   0  0  0  0  0  0  0  0  0  0  0  0
   -0.7071    1.8800    0.2484 N   0  0  0  0  0  0  0  0  0  0  0  0
    0.5811    2.3023    0.2078 N   0  0  0  0  0  0  0  0  0  0  0  0
    1.4645    1.2128    0.0355 C   0  0  0  0  0  0  0  0  0  0  0  0
    0.7568    0.0704   -0.0547 N   0  0  0  0  0  0  0  0  0  0  0  0
    0.9784    3.6623    0.3590 C   0  0  0  0  0  0  0  0  0  0  0  0
    0.2021    4.5593    1.1196 C   0  0  0  0  0  0  0  0  0  0  0  0
    0.6213    5.8806    1.2589 C   0  0  0  0  0  0  0  0  0  0  0  0
    1.7992    6.3212    0.6580 C   0  0  0  0  0  0  0  0  0  0  0  0
    2.5652    5.4343   -0.0977 C   0  0  0  0  0  0  0  0  0  0  0  0
    2.1644    4.1112   -0.2588 C   0  0  0  0  0  0  0  0  0  0  0  0
   -4.2994   -3.3967   -2.6090 H   0  0  0  0  0  0  0  0  0  0  0  0
   -2.5854   -3.9130   -2.2956 H   0  0  0  0  0  0  0  0  0  0  0  0
   -3.8982   -4.3952   -1.1421 H   0  0  0  0  0  0  0  0  0  0  0  0
   -2.8372   -1.5134   -1.6539 H   0  0  0  0  0  0  0  0  0  0  0  0
   -4.3083   -1.9257   -0.6282 H   0  0  0  0  0  0  0  0  0  0  0  0
    1.3228   -2.0429   -2.0901 H   0  0  0  0  0  0  0  0  0  0  0  0
    1.2948   -2.8116   -0.4108 H   0  0  0  0  0  0  0  0  0  0  0  0
    1.7081   -4.4421   -2.3830 H   0  0  0  0  0  0  0  0  0  0  0  0
    0.2816   -4.8825   -1.3522 H   0  0  0  0  0  0  0  0  0  0  0  0
    0.0186   -4.0836   -2.9563 H   0  0  0  0  0  0  0  0  0  0  0  0
    2.5559    1.3113    0.0022 H   0  0  0  0  0  0  0  0  0  0  0  0
   -0.7322    4.2307    1.6027 H   0  0  0  0  0  0  0  0  0  0  0  0
    0.0117    6.5785    1.8535 H   0  0  0  0  0  0  0  0  0  0  0  0
    2.1233    7.3657    0.7776 H   0  0  0  0  0  0  0  0  0  0  0  0
    3.4938    5.7793   -0.5778 H   0  0  0  0  0  0  0  0  0  0  0  0
    2.7752    3.4320   -0.8726 H   0  0  0  0  0  0  0  0  0  0  0  0
  1  2  1  0  0  0  0
  1 21  1  0  0  0  0
  1 22  1  0  0  0  0
  1 23  1  0  0  0  0
  2  3  1  0  0  0  0
  2 24  1  0  0  0  0
  2 25  1  0  0  0  0
  3  4  1  0  0  0  0
  4  5  2  0  0  0  0
  4  6  1  0  0  0  0
  4  9  1  0  0  0  0
  6  7  1  0  0  0  0
  7  8  1  0  0  0  0
  7 26  1  0  0  0  0
  7 27  1  0  0  0  0
  8 28  1  0  0  0  0
  8 29  1  0  0  0  0
  8 30  1  0  0  0  0
  9 10  1  0  0  0  0
 10 11  2  0  0  0  0
 10 14  1  0  0  0  0
 11 12  1  0  0  0  0
 12 13  1  0  0  0  0
 12 15  1  0  0  0  0
 13 14  2  0  0  0  0
 13 31  1  0  0  0  0
 15 16  2  0  0  0  0
 15 20  1  0  0  0  0
 16 17  1  0  0  0  0
 16 32  1  0  0  0  0
 17 18  2  0  0  0  0
 17 33  1  0  0  0  0
 18 19  1  0  0  0  0
 18 34  1  0  0  0  0
 19 20  2  0  0  0  0
 19 35  1  0  0  0  0
 20 36  1  0  0  0  0
M  END
