./025973-55-1.hin
 OpenBabel10051109203D

 55 57  0  0  0  0  0  0  0  0999 V2000
   -0.3929   -2.2618    0.1493 N   0  0  0  0  0  0  0  0  0  0  0  0
   -0.3850   -0.8137    0.1612 C   0  0  0  0  0  0  0  0  0  0  0  0
    0.8248   -0.0881    0.2435 C   0  0  0  0  0  0  0  0  0  0  0  0
    0.7965    1.3324    0.2291 C   0  0  0  0  0  0  0  0  0  0  0  0
   -0.4430    1.9607    0.1425 C   0  0  0  0  0  0  0  0  0  0  0  0
   -1.6537    1.2503    0.0883 C   0  0  0  0  0  0  0  0  0  0  0  0
   -1.6196   -0.1395    0.0916 C   0  0  0  0  0  0  0  0  0  0  0  0
   -2.9516    2.0199    0.0087 C   0  0  0  0  0  0  0  0  0  0  0  0
   -3.0044    2.7074   -1.3630 C   0  0  0  0  0  0  0  0  0  0  0  0
   -4.2267    3.5602   -1.5797 C   0  0  0  0  0  0  0  0  0  0  0  0
   -4.1600    1.1061    0.1708 C   0  0  0  0  0  0  0  0  0  0  0  0
   -2.9886    3.0565    1.1293 C   0  0  0  0  0  0  0  0  0  0  0  0
    2.0772    2.1359    0.2940 C   0  0  0  0  0  0  0  0  0  0  0  0
    2.8877    1.8478   -0.9779 C   0  0  0  0  0  0  0  0  0  0  0  0
    4.1637    2.6406   -1.0906 C   0  0  0  0  0  0  0  0  0  0  0  0
    1.7990    3.6341    0.3796 C   0  0  0  0  0  0  0  0  0  0  0  0
    2.8649    1.7453    1.5427 C   0  0  0  0  0  0  0  0  0  0  0  0
    2.0625   -0.6764    0.3082 O   0  0  0  0  0  0  0  0  0  0  0  0
   -1.1706   -2.9681    0.9907 N   0  0  0  0  0  0  0  0  0  0  0  0
   -0.9756   -4.2753    0.6249 C   0  0  0  0  0  0  0  0  0  0  0  0
   -1.4888   -5.5075    1.1152 C   0  0  0  0  0  0  0  0  0  0  0  0
   -1.0752   -6.6623    0.5110 C   0  0  0  0  0  0  0  0  0  0  0  0
    0.3722   -5.5095   -1.0929 C   0  0  0  0  0  0  0  0  0  0  0  0
   -0.0235   -4.2765   -0.5055 C   0  0  0  0  0  0  0  0  0  0  0  0
    0.3012   -2.9696   -0.7632 N   0  0  0  0  0  0  0  0  0  0  0  0
   -0.1544   -6.6633   -0.5815 C   0  0  0  0  0  0  0  0  0  0  0  0
   -0.4996    3.0615    0.1138 H   0  0  0  0  0  0  0  0  0  0  0  0
   -2.5509   -0.7268    0.0379 H   0  0  0  0  0  0  0  0  0  0  0  0
   -2.0878    3.3455   -1.4783 H   0  0  0  0  0  0  0  0  0  0  0  0
   -2.9607    1.9149   -2.1568 H   0  0  0  0  0  0  0  0  0  0  0  0
   -4.1686    4.0551   -2.5801 H   0  0  0  0  0  0  0  0  0  0  0  0
   -5.1578    2.9443   -1.5499 H   0  0  0  0  0  0  0  0  0  0  0  0
   -4.3043    4.3557   -0.7997 H   0  0  0  0  0  0  0  0  0  0  0  0
   -5.0948    1.7157    0.2248 H   0  0  0  0  0  0  0  0  0  0  0  0
   -4.2491    0.4085   -0.6961 H   0  0  0  0  0  0  0  0  0  0  0  0
   -4.0770    0.5133    1.1135 H   0  0  0  0  0  0  0  0  0  0  0  0
   -4.0123    3.4944    1.2164 H   0  0  0  0  0  0  0  0  0  0  0  0
   -2.7241    2.5788    2.1028 H   0  0  0  0  0  0  0  0  0  0  0  0
   -2.2702    3.8865    0.9289 H   0  0  0  0  0  0  0  0  0  0  0  0
    3.1356    0.7527   -1.0042 H   0  0  0  0  0  0  0  0  0  0  0  0
    2.2387    2.0665   -1.8671 H   0  0  0  0  0  0  0  0  0  0  0  0
    4.7515    2.2833   -1.9715 H   0  0  0  0  0  0  0  0  0  0  0  0
    3.9531    3.7281   -1.2331 H   0  0  0  0  0  0  0  0  0  0  0  0
    4.7935    2.5188   -0.1765 H   0  0  0  0  0  0  0  0  0  0  0  0
    2.7597    4.1886    0.5161 H   0  0  0  0  0  0  0  0  0  0  0  0
    1.3150    4.0035   -0.5557 H   0  0  0  0  0  0  0  0  0  0  0  0
    1.1440    3.8635    1.2543 H   0  0  0  0  0  0  0  0  0  0  0  0
    3.6898    2.4766    1.7221 H   0  0  0  0  0  0  0  0  0  0  0  0
    2.1936    1.7440    2.4341 H   0  0  0  0  0  0  0  0  0  0  0  0
    3.3157    0.7307    1.4289 H   0  0  0  0  0  0  0  0  0  0  0  0
    1.9792   -1.6130    0.5326 H   0  0  0  0  0  0  0  0  0  0  0  0
   -2.1972   -5.5053    1.9556 H   0  0  0  0  0  0  0  0  0  0  0  0
   -1.4534   -7.6345    0.8638 H   0  0  0  0  0  0  0  0  0  0  0  0
    1.0796   -5.5088   -1.9342 H   0  0  0  0  0  0  0  0  0  0  0  0
    0.1286   -7.6362   -1.0130 H   0  0  0  0  0  0  0  0  0  0  0  0
  1  2  1  0  0  0  0
  1 19  1  0  0  0  0
  1 25  1  0  0  0  0
  2  3  2  0  0  0  0
  2  7  1  0  0  0  0
  3  4  1  0  0  0  0
  3 18  1  0  0  0  0
  4  5  2  0  0  0  0
  4 13  1  0  0  0  0
  5  6  1  0  0  0  0
  5 27  1  0  0  0  0
  6  7  2  0  0  0  0
  6  8  1  0  0  0  0
  7 28  1  0  0  0  0
  8  9  1  0  0  0  0
  8 11  1  0  0  0  0
  8 12  1  0  0  0  0
  9 10  1  0  0  0  0
  9 29  1  0  0  0  0
  9 30  1  0  0  0  0
 10 31  1  0  0  0  0
 10 32  1  0  0  0  0
 10 33  1  0  0  0  0
 11 34  1  0  0  0  0
 11 35  1  0  0  0  0
 11 36  1  0  0  0  0
 12 37  1  0  0  0  0
 12 38  1  0  0  0  0
 12 39  1  0  0  0  0
 13 14  1  0  0  0  0
 13 16  1  0  0  0  0
 13 17  1  0  0  0  0
 14 15  1  0  0  0  0
 14 40  1  0  0  0  0
 14 41  1  0  0  0  0
 15 42  1  0  0  0  0
 15 43  1  0  0  0  0
 15 44  1  0  0  0  0
 16 45  1  0  0  0  0
 16 46  1  0  0  0  0
 16 47  1  0  0  0  0
 17 48  1  0  0  0  0
 17 49  1  0  0  0  0
 17 50  1  0  0  0  0
 18 51  1  0  0  0  0
 19 20  2  0  0  0  0
 20 21  1  0  0  0  0
 20 24  1  0  0  0  0
 21 22  2  0  0  0  0
 21 52  1  0  0  0  0
 22 26  1  0  0  0  0
 22 53  1  0  0  0  0
 23 24  1  0  0  0  0
 23 26  2  0  0  0  0
 23 54  1  0  0  0  0
 24 25  2  0  0  0  0
 26 55  1  0  0  0  0
M  END
