./027799-91-3.hin
 OpenBabel10051109203D

 18 19  0  0  0  0  0  0  0  0999 V2000
   -0.6177   -2.8742   -0.0000 N   0  0  0  0  0  0  0  0  0  0  0  0
    0.6922   -3.0944   -0.0000 N   0  0  0  0  0  0  0  0  0  0  0  0
    1.5033   -2.0359   -0.0000 N   0  0  0  0  0  0  0  0  0  0  0  0
    0.6472   -0.9573   -0.0000 C   0  0  0  0  0  0  0  0  0  0  0  0
   -0.7276   -1.5012   -0.0000 C   0  0  0  0  0  0  0  0  0  0  0  0
    0.8590    0.4416    0.0000 C   0  0  0  0  0  0  0  0  0  0  0  0
   -0.2600    1.2528    0.0000 C   0  0  0  0  0  0  0  0  0  0  0  0
   -1.5949    0.7318   -0.0000 C   0  0  0  0  0  0  0  0  0  0  0  0
   -1.8350   -0.6154   -0.0000 C   0  0  0  0  0  0  0  0  0  0  0  0
    0.0127    2.6100    0.0000 O   0  0  0  0  0  0  0  0  0  0  0  0
   -1.1051    3.4885   -0.0000 C   0  0  0  0  0  0  0  0  0  0  0  0
    1.8736    0.8614    0.0000 H   0  0  0  0  0  0  0  0  0  0  0  0
   -2.4438    1.4316   -0.0000 H   0  0  0  0  0  0  0  0  0  0  0  0
   -2.8576   -1.0201   -0.0000 H   0  0  0  0  0  0  0  0  0  0  0  0
   -0.6331    4.5044   -0.0000 H   0  0  0  0  0  0  0  0  0  0  0  0
   -1.7236    3.3444   -0.9189 H   0  0  0  0  0  0  0  0  0  0  0  0
   -1.7236    3.3444    0.9189 H   0  0  0  0  0  0  0  0  0  0  0  0
    1.0617   -4.0277   -0.0000 H   0  0  0  0  0  0  0  0  0  0  0  0
  1  2  1  0  0  0  0
  1  5  2  0  0  0  0
  2  3  1  0  0  0  0
  2 18  1  0  0  0  0
  3  4  2  0  0  0  0
  4  5  1  0  0  0  0
  4  6  1  0  0  0  0
  5  9  1  0  0  0  0
  6  7  2  0  0  0  0
  6 12  1  0  0  0  0
  7  8  1  0  0  0  0
  7 10  1  0  0  0  0
  8  9  2  0  0  0  0
  8 13  1  0  0  0  0
  9 14  1  0  0  0  0
 10 11  1  0  0  0  0
 11 15  1  0  0  0  0
 11 16  1  0  0  0  0
 11 17  1  0  0  0  0
M  END
