./028401-89-0.hin
 OpenBabel10051109203D

 31 33  0  0  0  0  0  0  0  0999 V2000
   -3.2268   -4.4400   -0.0000 C   0  0  0  0  0  0  0  0  0  0  0  0
   -2.0114   -3.5975   -0.0000 C   0  0  0  0  0  0  0  0  0  0  0  0
   -0.7065   -4.0285    0.0000 N   0  0  0  0  0  0  0  0  0  0  0  0
    0.1198   -3.0107    0.0000 N   0  0  0  0  0  0  0  0  0  0  0  0
   -0.6060   -1.8441    0.0000 C   0  0  0  0  0  0  0  0  0  0  0  0
   -1.9901   -2.1895   -0.0000 N   0  0  0  0  0  0  0  0  0  0  0  0
   -2.9726   -1.2134   -0.0000 C   0  0  0  0  0  0  0  0  0  0  0  0
   -2.6264    0.1067   -0.0000 C   0  0  0  0  0  0  0  0  0  0  0  0
   -1.2452    0.5210    0.0000 C   0  0  0  0  0  0  0  0  0  0  0  0
   -0.8953    1.8801   -0.0000 C   0  0  0  0  0  0  0  0  0  0  0  0
    0.4462    2.2723   -0.0000 C   0  0  0  0  0  0  0  0  0  0  0  0
    1.4679    1.2819    0.0000 C   0  0  0  0  0  0  0  0  0  0  0  0
    1.1293   -0.0682    0.0000 C   0  0  0  0  0  0  0  0  0  0  0  0
   -0.2195   -0.4535    0.0000 C   0  0  0  0  0  0  0  0  0  0  0  0
    2.7746    1.7342    0.0000 O   0  0  0  0  0  0  0  0  0  0  0  0
    3.7896    0.7342    0.0000 C   0  0  0  0  0  0  0  0  0  0  0  0
    0.6178    3.6396   -0.0000 O   0  0  0  0  0  0  0  0  0  0  0  0
    1.9435    4.1575    0.0000 C   0  0  0  0  0  0  0  0  0  0  0  0
   -3.2287   -5.0940    0.9087 H   0  0  0  0  0  0  0  0  0  0  0  0
   -4.1567   -3.8209    0.0000 H   0  0  0  0  0  0  0  0  0  0  0  0
   -3.2287   -5.0940   -0.9087 H   0  0  0  0  0  0  0  0  0  0  0  0
   -4.0158   -1.5717   -0.0000 H   0  0  0  0  0  0  0  0  0  0  0  0
   -3.4070    0.8813   -0.0000 H   0  0  0  0  0  0  0  0  0  0  0  0
   -1.6772    2.6546   -0.0000 H   0  0  0  0  0  0  0  0  0  0  0  0
    1.9040   -0.8508    0.0000 H   0  0  0  0  0  0  0  0  0  0  0  0
    4.7366    1.3315    0.0000 H   0  0  0  0  0  0  0  0  0  0  0  0
    3.7212    0.1030    0.9191 H   0  0  0  0  0  0  0  0  0  0  0  0
    3.7212    0.1030   -0.9191 H   0  0  0  0  0  0  0  0  0  0  0  0
    1.7813    5.2659    0.0000 H   0  0  0  0  0  0  0  0  0  0  0  0
    2.4913    3.8359    0.9183 H   0  0  0  0  0  0  0  0  0  0  0  0
    2.4913    3.8359   -0.9183 H   0  0  0  0  0  0  0  0  0  0  0  0
  1  2  1  0  0  0  0
  1 19  1  0  0  0  0
  1 20  1  0  0  0  0
  1 21  1  0  0  0  0
  2  3  2  0  0  0  0
  2  6  1  0  0  0  0
  3  4  1  0  0  0  0
  4  5  2  0  0  0  0
  5  6  1  0  0  0  0
  5 14  1  0  0  0  0
  6  7  1  0  0  0  0
  7  8  2  0  0  0  0
  7 22  1  0  0  0  0
  8  9  1  0  0  0  0
  8 23  1  0  0  0  0
  9 10  2  0  0  0  0
  9 14  1  0  0  0  0
 10 11  1  0  0  0  0
 10 24  1  0  0  0  0
 11 12  2  0  0  0  0
 11 17  1  0  0  0  0
 12 13  1  0  0  0  0
 12 15  1  0  0  0  0
 13 14  2  0  0  0  0
 13 25  1  0  0  0  0
 15 16  1  0  0  0  0
 16 26  1  0  0  0  0
 16 27  1  0  0  0  0
 16 28  1  0  0  0  0
 17 18  1  0  0  0  0
 18 29  1  0  0  0  0
 18 30  1  0  0  0  0
 18 31  1  0  0  0  0
M  END
