./028911-01-5.hin
 OpenBabel10051109203D

 35 38  0  0  0  0  0  0  0  0999 V2000
   -3.3372   -1.8623    1.0327 C   0  0  0  0  0  0  0  0  0  0  0  0
   -3.1581   -0.4759    0.9914 C   0  0  0  0  0  0  0  0  0  0  0  0
   -1.9014    0.0597    0.7141 C   0  0  0  0  0  0  0  0  0  0  0  0
   -0.8021   -0.7737    0.4689 C   0  0  0  0  0  0  0  0  0  0  0  0
   -0.9763   -2.1791    0.5115 C   0  0  0  0  0  0  0  0  0  0  0  0
   -2.2579   -2.7031    0.8006 C   0  0  0  0  0  0  0  0  0  0  0  0
   -4.4721    0.5561    1.2839 Cl  0  0  0  0  0  0  0  0  0  0  0  0
    0.0979   -3.0587    0.2912 N   0  0  0  0  0  0  0  0  0  0  0  0
    1.4218   -2.8990    0.7688 C   0  0  0  0  0  0  0  0  0  0  0  0
    1.9134   -1.6359    1.4050 C   0  0  0  0  0  0  0  0  0  0  0  0
    1.6734   -0.4629    0.6122 N   0  0  0  0  0  0  0  0  0  0  0  0
    0.5028   -0.1209    0.1929 C   0  0  0  0  0  0  0  0  0  0  0  0
    0.3945    1.0917   -0.6659 C   0  0  0  0  0  0  0  0  0  0  0  0
    0.1970    0.9295   -2.0418 C   0  0  0  0  0  0  0  0  0  0  0  0
    0.1093    2.0433   -2.8742 C   0  0  0  0  0  0  0  0  0  0  0  0
    0.2241    3.3266   -2.3393 C   0  0  0  0  0  0  0  0  0  0  0  0
    0.4276    3.5010   -0.9722 C   0  0  0  0  0  0  0  0  0  0  0  0
    0.5160    2.3833   -0.1339 C   0  0  0  0  0  0  0  0  0  0  0  0
    0.7635    2.6215    1.5304 Cl  0  0  0  0  0  0  0  0  0  0  0  0
    0.0854   -4.3517   -0.2902 C   0  0  0  0  0  0  0  0  0  0  0  0
    1.3377   -4.8842   -0.1471 N   0  0  0  0  0  0  0  0  0  0  0  0
    2.1242   -4.0293    0.4749 N   0  0  0  0  0  0  0  0  0  0  0  0
   -1.0681   -4.9854   -0.9673 C   0  0  0  0  0  0  0  0  0  0  0  0
   -4.3272   -2.2907    1.2563 H   0  0  0  0  0  0  0  0  0  0  0  0
   -1.7605    1.1547    0.6891 H   0  0  0  0  0  0  0  0  0  0  0  0
   -2.4094   -3.7938    0.8587 H   0  0  0  0  0  0  0  0  0  0  0  0
    3.0348   -1.7045    1.5300 H   0  0  0  0  0  0  0  0  0  0  0  0
    1.4513   -1.5401    2.4320 H   0  0  0  0  0  0  0  0  0  0  0  0
    0.1173   -0.0838   -2.4643 H   0  0  0  0  0  0  0  0  0  0  0  0
   -0.0450    1.9081   -3.9551 H   0  0  0  0  0  0  0  0  0  0  0  0
    0.1585    4.2063   -2.9973 H   0  0  0  0  0  0  0  0  0  0  0  0
    0.5246    4.5138   -0.5518 H   0  0  0  0  0  0  0  0  0  0  0  0
   -1.7663   -4.2163   -1.3807 H   0  0  0  0  0  0  0  0  0  0  0  0
   -0.7036   -5.6300   -1.8071 H   0  0  0  0  0  0  0  0  0  0  0  0
   -1.6235   -5.6321   -0.2414 H   0  0  0  0  0  0  0  0  0  0  0  0
  1  2  2  0  0  0  0
  1  6  1  0  0  0  0
  1 24  1  0  0  0  0
  2  3  1  0  0  0  0
  2  7  1  0  0  0  0
  3  4  2  0  0  0  0
  3 25  1  0  0  0  0
  4  5  1  0  0  0  0
  4 12  1  0  0  0  0
  5  6  2  0  0  0  0
  5  8  1  0  0  0  0
  6 26  1  0  0  0  0
  8  9  1  0  0  0  0
  8 20  1  0  0  0  0
  9 10  1  0  0  0  0
  9 22  2  0  0  0  0
 10 11  1  0  0  0  0
 10 27  1  0  0  0  0
 10 28  1  0  0  0  0
 11 12  2  0  0  0  0
 12 13  1  0  0  0  0
 13 14  2  0  0  0  0
 13 18  1  0  0  0  0
 14 15  1  0  0  0  0
 14 29  1  0  0  0  0
 15 16  2  0  0  0  0
 15 30  1  0  0  0  0
 16 17  1  0  0  0  0
 16 31  1  0  0  0  0
 17 18  2  0  0  0  0
 17 32  1  0  0  0  0
 18 19  1  0  0  0  0
 20 21  2  0  0  0  0
 20 23  1  0  0  0  0
 21 22  1  0  0  0  0
 23 33  1  0  0  0  0
 23 34  1  0  0  0  0
 23 35  1  0  0  0  0
M  END
