./029975-16-4.hin
 OpenBabel10051109203D

 32 35  0  0  0  0  0  0  0  0999 V2000
    0.4539   -1.8893    0.2772 C   0  0  0  0  0  0  0  0  0  0  0  0
   -0.8121   -2.1241   -1.8627 C   0  0  0  0  0  0  0  0  0  0  0  0
   -1.7775   -2.7534   -2.6461 C   0  0  0  0  0  0  0  0  0  0  0  0
   -2.5264   -3.8083   -2.1229 C   0  0  0  0  0  0  0  0  0  0  0  0
   -2.3048   -4.2386   -0.8152 C   0  0  0  0  0  0  0  0  0  0  0  0
   -1.3359   -3.6176   -0.0269 C   0  0  0  0  0  0  0  0  0  0  0  0
   -0.5939   -2.5516   -0.5472 C   0  0  0  0  0  0  0  0  0  0  0  0
    0.2966   -0.4145    0.3654 C   0  0  0  0  0  0  0  0  0  0  0  0
    1.3835    0.4920    0.3600 C   0  0  0  0  0  0  0  0  0  0  0  0
    2.7148    0.0490    0.3139 N   0  0  0  0  0  0  0  0  0  0  0  0
    3.2671   -1.0946    0.9414 C   0  0  0  0  0  0  0  0  0  0  0  0
    2.4354   -2.1365    1.6221 C   0  0  0  0  0  0  0  0  0  0  0  0
    1.3491   -2.6357    0.8316 N   0  0  0  0  0  0  0  0  0  0  0  0
    1.1255    1.8827    0.4106 C   0  0  0  0  0  0  0  0  0  0  0  0
   -0.1739    2.3617    0.4896 C   0  0  0  0  0  0  0  0  0  0  0  0
   -1.2441    1.4610    0.5253 C   0  0  0  0  0  0  0  0  0  0  0  0
   -1.0085    0.0889    0.4599 C   0  0  0  0  0  0  0  0  0  0  0  0
   -2.8334    2.0417    0.6447 Cl  0  0  0  0  0  0  0  0  0  0  0  0
    3.8315    0.7334   -0.2071 C   0  0  0  0  0  0  0  0  0  0  0  0
    4.9489    0.0207    0.0856 N   0  0  0  0  0  0  0  0  0  0  0  0
    4.6191   -1.0645    0.7659 N   0  0  0  0  0  0  0  0  0  0  0  0
   -0.2186   -1.2957   -2.2773 H   0  0  0  0  0  0  0  0  0  0  0  0
   -1.9452   -2.4186   -3.6804 H   0  0  0  0  0  0  0  0  0  0  0  0
   -3.2881   -4.3027   -2.7439 H   0  0  0  0  0  0  0  0  0  0  0  0
   -2.8893   -5.0748   -0.4037 H   0  0  0  0  0  0  0  0  0  0  0  0
   -1.1501   -3.9710    0.9987 H   0  0  0  0  0  0  0  0  0  0  0  0
    2.0675   -1.7165    2.6053 H   0  0  0  0  0  0  0  0  0  0  0  0
    3.0912   -3.0300    1.8474 H   0  0  0  0  0  0  0  0  0  0  0  0
    1.9613    2.6012    0.3986 H   0  0  0  0  0  0  0  0  0  0  0  0
   -0.3569    3.4473    0.5315 H   0  0  0  0  0  0  0  0  0  0  0  0
   -1.8558   -0.6188    0.4750 H   0  0  0  0  0  0  0  0  0  0  0  0
    3.7666    1.6660   -0.7731 H   0  0  0  0  0  0  0  0  0  0  0  0
  1  7  1  0  0  0  0
  1  8  1  0  0  0  0
  1 13  2  0  0  0  0
  2  3  2  0  0  0  0
  2  7  1  0  0  0  0
  2 22  1  0  0  0  0
  3  4  1  0  0  0  0
  3 23  1  0  0  0  0
  4  5  2  0  0  0  0
  4 24  1  0  0  0  0
  5  6  1  0  0  0  0
  5 25  1  0  0  0  0
  6  7  2  0  0  0  0
  6 26  1  0  0  0  0
  8  9  2  0  0  0  0
  8 17  1  0  0  0  0
  9 10  1  0  0  0  0
  9 14  1  0  0  0  0
 10 11  1  0  0  0  0
 10 19  1  0  0  0  0
 11 12  1  0  0  0  0
 11 21  2  0  0  0  0
 12 13  1  0  0  0  0
 12 27  1  0  0  0  0
 12 28  1  0  0  0  0
 14 15  2  0  0  0  0
 14 29  1  0  0  0  0
 15 16  1  0  0  0  0
 15 30  1  0  0  0  0
 16 17  2  0  0  0  0
 16 18  1  0  0  0  0
 17 31  1  0  0  0  0
 19 20  2  0  0  0  0
 19 32  1  0  0  0  0
 20 21  1  0  0  0  0
M  END
