./031251-03-3.hin
 OpenBabel10051109203D

 44 47  0  0  0  0  0  0  0  0999 V2000
   13.3961   -8.4068    0.5661 N   0  0  0  0  0  0  0  0  0  0  0  0
   12.4945   -9.5833    0.4917 C   0  0  0  0  0  0  0  0  0  0  0  0
   11.6908   -9.6021   -0.8098 C   0  0  0  0  0  0  0  0  0  0  0  0
   10.3677  -10.0583   -0.8099 C   0  0  0  0  0  0  0  0  0  0  0  0
    9.6524  -10.1283   -2.0069 C   0  0  0  0  0  0  0  0  0  0  0  0
    8.2189  -10.6430   -1.9881 C   0  0  0  0  0  0  0  0  0  0  0  0
    7.4438  -10.2240   -3.0422 F   0  0  0  0  0  0  0  0  0  0  0  0
    8.1133  -12.0136   -2.0211 F   0  0  0  0  0  0  0  0  0  0  0  0
    7.4962  -10.2820   -0.8764 F   0  0  0  0  0  0  0  0  0  0  0  0
   10.2409   -9.7508   -3.2149 C   0  0  0  0  0  0  0  0  0  0  0  0
   11.5647   -9.3168   -3.2174 C   0  0  0  0  0  0  0  0  0  0  0  0
   12.2900   -9.2533   -2.0275 C   0  0  0  0  0  0  0  0  0  0  0  0
   13.2749  -10.8988    0.4699 C   0  0  0  0  0  0  0  0  0  0  0  0
   12.5738  -12.0814    0.7528 C   0  0  0  0  0  0  0  0  0  0  0  0
   13.2131  -13.3167    0.6925 C   0  0  0  0  0  0  0  0  0  0  0  0
   14.5609  -13.3913    0.3392 C   0  0  0  0  0  0  0  0  0  0  0  0
   15.2574  -12.2241    0.0351 C   0  0  0  0  0  0  0  0  0  0  0  0
   14.6182  -10.9840    0.0907 C   0  0  0  0  0  0  0  0  0  0  0  0
   11.5840   -9.4824    1.7143 C   0  0  0  0  0  0  0  0  0  0  0  0
   11.8455  -10.2053    2.8825 C   0  0  0  0  0  0  0  0  0  0  0  0
   11.0314  -10.0475    4.0044 C   0  0  0  0  0  0  0  0  0  0  0  0
    9.9644   -9.1510    3.9775 C   0  0  0  0  0  0  0  0  0  0  0  0
    9.7185   -8.4026    2.8262 C   0  0  0  0  0  0  0  0  0  0  0  0
   10.5286   -8.5597    1.7034 C   0  0  0  0  0  0  0  0  0  0  0  0
   13.1265   -7.2081    0.0166 N   0  0  0  0  0  0  0  0  0  0  0  0
   14.0736   -6.3720    0.5256 C   0  0  0  0  0  0  0  0  0  0  0  0
   14.9432   -7.0115    1.4299 N   0  0  0  0  0  0  0  0  0  0  0  0
   14.4896   -8.2802    1.4571 C   0  0  0  0  0  0  0  0  0  0  0  0
    9.8758  -10.3708    0.1268 H   0  0  0  0  0  0  0  0  0  0  0  0
    9.6625   -9.7983   -4.1510 H   0  0  0  0  0  0  0  0  0  0  0  0
   12.0429   -9.0246   -4.1645 H   0  0  0  0  0  0  0  0  0  0  0  0
   13.3426   -8.9312   -2.0660 H   0  0  0  0  0  0  0  0  0  0  0  0
   11.5051  -12.0308    1.0172 H   0  0  0  0  0  0  0  0  0  0  0  0
   12.6502  -14.2345    0.9194 H   0  0  0  0  0  0  0  0  0  0  0  0
   15.0672  -14.3667    0.2937 H   0  0  0  0  0  0  0  0  0  0  0  0
   16.3169  -12.2747   -0.2578 H   0  0  0  0  0  0  0  0  0  0  0  0
   15.1954  -10.0883   -0.1867 H   0  0  0  0  0  0  0  0  0  0  0  0
   12.6984  -10.9004    2.9310 H   0  0  0  0  0  0  0  0  0  0  0  0
   11.2403  -10.6290    4.9145 H   0  0  0  0  0  0  0  0  0  0  0  0
    9.3238   -9.0277    4.8633 H   0  0  0  0  0  0  0  0  0  0  0  0
    8.8876   -7.6817    2.8031 H   0  0  0  0  0  0  0  0  0  0  0  0
   10.3436   -7.9511    0.8031 H   0  0  0  0  0  0  0  0  0  0  0  0
   14.1613   -5.3127    0.2649 H   0  0  0  0  0  0  0  0  0  0  0  0
   14.8837   -9.1145    2.0464 H   0  0  0  0  0  0  0  0  0  0  0  0
  1  2  1  0  0  0  0
  1 25  1  0  0  0  0
  1 28  1  0  0  0  0
  2  3  1  0  0  0  0
  2 13  1  0  0  0  0
  2 19  1  0  0  0  0
  3  4  2  0  0  0  0
  3 12  1  0  0  0  0
  4  5  1  0  0  0  0
  4 29  1  0  0  0  0
  5  6  1  0  0  0  0
  5 10  2  0  0  0  0
  6  7  1  0  0  0  0
  6  8  1  0  0  0  0
  6  9  1  0  0  0  0
 10 11  1  0  0  0  0
 10 30  1  0  0  0  0
 11 12  2  0  0  0  0
 11 31  1  0  0  0  0
 12 32  1  0  0  0  0
 13 14  2  0  0  0  0
 13 18  1  0  0  0  0
 14 15  1  0  0  0  0
 14 33  1  0  0  0  0
 15 16  2  0  0  0  0
 15 34  1  0  0  0  0
 16 17  1  0  0  0  0
 16 35  1  0  0  0  0
 17 18  2  0  0  0  0
 17 36  1  0  0  0  0
 18 37  1  0  0  0  0
 19 20  2  0  0  0  0
 19 24  1  0  0  0  0
 20 21  1  0  0  0  0
 20 38  1  0  0  0  0
 21 22  2  0  0  0  0
 21 39  1  0  0  0  0
 22 23  1  0  0  0  0
 22 40  1  0  0  0  0
 23 24  2  0  0  0  0
 23 41  1  0  0  0  0
 24 42  1  0  0  0  0
 25 26  2  0  0  0  0
 26 27  1  0  0  0  0
 26 43  1  0  0  0  0
 27 28  2  0  0  0  0
 28 44  1  0  0  0  0
M  END
