./031409-18-4.hin
 OpenBabel10051109203D

 28 29  0  0  0  0  0  0  0  0999 V2000
   -2.6184   -1.6052    0.3382 N   0  0  0  0  0  0  0  0  0  0  0  0
   -1.3663   -1.9584    0.4837 N   0  0  0  0  0  0  0  0  0  0  0  0
   -0.5541   -0.8742    0.2575 C   0  0  0  0  0  0  0  0  0  0  0  0
   -1.3772    0.2364   -0.0348 N   0  0  0  0  0  0  0  0  0  0  0  0
   -2.6883   -0.2696    0.0095 C   0  0  0  0  0  0  0  0  0  0  0  0
   -4.0667    0.6586   -0.2777 S   0  0  0  0  0  0  0  0  0  0  0  0
   -5.3804   -0.4002    0.1960 C   0  0  0  0  0  0  0  0  0  0  0  0
   -0.9865    1.5526   -0.4555 C   0  0  0  0  0  0  0  0  0  0  0  0
   -1.1782    1.8367   -1.9380 C   0  0  0  0  0  0  0  0  0  0  0  0
    0.9026   -0.8518    0.3255 C   0  0  0  0  0  0  0  0  0  0  0  0
    1.5711    0.0911    1.1161 C   0  0  0  0  0  0  0  0  0  0  0  0
    2.9624    0.0877    1.1833 C   0  0  0  0  0  0  0  0  0  0  0  0
    3.6869   -0.8667    0.4616 C   0  0  0  0  0  0  0  0  0  0  0  0
    3.0258   -1.8215   -0.3177 C   0  0  0  0  0  0  0  0  0  0  0  0
    1.6341   -1.8143   -0.3832 C   0  0  0  0  0  0  0  0  0  0  0  0
    5.3843   -0.8687    0.5378 Cl  0  0  0  0  0  0  0  0  0  0  0  0
   -6.3057    0.2026    0.0376 H   0  0  0  0  0  0  0  0  0  0  0  0
   -5.4269   -1.3210   -0.4278 H   0  0  0  0  0  0  0  0  0  0  0  0
   -5.3150   -0.7055    1.2642 H   0  0  0  0  0  0  0  0  0  0  0  0
   -1.5948    2.2947    0.1419 H   0  0  0  0  0  0  0  0  0  0  0  0
    0.1020    1.6883   -0.1906 H   0  0  0  0  0  0  0  0  0  0  0  0
   -0.8710    2.8917   -2.1371 H   0  0  0  0  0  0  0  0  0  0  0  0
   -0.5531    1.1568   -2.5646 H   0  0  0  0  0  0  0  0  0  0  0  0
   -2.2486    1.7114   -2.2347 H   0  0  0  0  0  0  0  0  0  0  0  0
    1.0003    0.8261    1.7040 H   0  0  0  0  0  0  0  0  0  0  0  0
    3.4853    0.8284    1.8071 H   0  0  0  0  0  0  0  0  0  0  0  0
    3.5983   -2.5786   -0.8752 H   0  0  0  0  0  0  0  0  0  0  0  0
    1.1070   -2.5708   -0.9857 H   0  0  0  0  0  0  0  0  0  0  0  0
  1  2  1  0  0  0  0
  1  5  2  0  0  0  0
  2  3  2  0  0  0  0
  3  4  1  0  0  0  0
  3 10  1  0  0  0  0
  4  5  1  0  0  0  0
  4  8  1  0  0  0  0
  5  6  1  0  0  0  0
  6  7  1  0  0  0  0
  7 17  1  0  0  0  0
  7 18  1  0  0  0  0
  7 19  1  0  0  0  0
  8  9  1  0  0  0  0
  8 20  1  0  0  0  0
  8 21  1  0  0  0  0
  9 22  1  0  0  0  0
  9 23  1  0  0  0  0
  9 24  1  0  0  0  0
 10 11  2  0  0  0  0
 10 15  1  0  0  0  0
 11 12  1  0  0  0  0
 11 25  1  0  0  0  0
 12 13  2  0  0  0  0
 12 26  1  0  0  0  0
 13 14  1  0  0  0  0
 13 16  1  0  0  0  0
 14 15  2  0  0  0  0
 14 27  1  0  0  0  0
 15 28  1  0  0  0  0
M  END
