./031701-42-5.hin
 OpenBabel10051109203D

 24 26  0  0  0  0  0  0  0  0999 V2000
   -0.8931   -2.1517    0.0000 C   0  0  0  0  0  0  0  0  0  0  0  0
   -0.8986   -0.6473    0.0000 C   0  0  0  0  0  0  0  0  0  0  0  0
   -2.0740    0.0329    0.0000 C   0  0  0  0  0  0  0  0  0  0  0  0
   -3.3892   -0.6332    0.0000 C   0  0  0  0  0  0  0  0  0  0  0  0
   -3.3777   -2.1078   -0.0000 C   0  0  0  0  0  0  0  0  0  0  0  0
   -2.2301   -2.7900    0.0000 C   0  0  0  0  0  0  0  0  0  0  0  0
    0.1161   -2.8564    0.0000 O   0  0  0  0  0  0  0  0  0  0  0  0
   -4.4402    0.0169    0.0000 O   0  0  0  0  0  0  0  0  0  0  0  0
    0.3815    1.4252    0.0000 N   0  0  0  0  0  0  0  0  0  0  0  0
    0.3525    0.0654    0.0000 N   0  0  0  0  0  0  0  0  0  0  0  0
    1.5610   -0.5422   -0.0000 N   0  0  0  0  0  0  0  0  0  0  0  0
    2.4674    0.4765   -0.0000 C   0  0  0  0  0  0  0  0  0  0  0  0
    1.7045    1.7476    0.0000 C   0  0  0  0  0  0  0  0  0  0  0  0
    3.8925    0.5089   -0.0000 C   0  0  0  0  0  0  0  0  0  0  0  0
    4.5067    1.7278   -0.0000 C   0  0  0  0  0  0  0  0  0  0  0  0
    3.7699    2.9559   -0.0000 C   0  0  0  0  0  0  0  0  0  0  0  0
    2.4053    2.9890    0.0000 C   0  0  0  0  0  0  0  0  0  0  0  0
   -2.1347    1.1378   -0.0000 H   0  0  0  0  0  0  0  0  0  0  0  0
   -4.3633   -2.6025   -0.0000 H   0  0  0  0  0  0  0  0  0  0  0  0
   -2.2040   -3.8942    0.0000 H   0  0  0  0  0  0  0  0  0  0  0  0
    4.4547   -0.4360   -0.0000 H   0  0  0  0  0  0  0  0  0  0  0  0
    5.6062    1.7920   -0.0000 H   0  0  0  0  0  0  0  0  0  0  0  0
    4.3445    3.8957   -0.0000 H   0  0  0  0  0  0  0  0  0  0  0  0
    1.8385    3.9308    0.0000 H   0  0  0  0  0  0  0  0  0  0  0  0
  1  2  1  0  0  0  0
  1  6  1  0  0  0  0
  1  7  2  0  0  0  0
  2  3  2  0  0  0  0
  2 10  1  0  0  0  0
  3  4  1  0  0  0  0
  3 18  1  0  0  0  0
  4  5  1  0  0  0  0
  4  8  2  0  0  0  0
  5  6  2  0  0  0  0
  5 19  1  0  0  0  0
  6 20  1  0  0  0  0
  9 10  1  0  0  0  0
  9 13  2  0  0  0  0
 10 11  1  0  0  0  0
 11 12  2  0  0  0  0
 12 13  1  0  0  0  0
 12 14  1  0  0  0  0
 13 17  1  0  0  0  0
 14 15  2  0  0  0  0
 14 21  1  0  0  0  0
 15 16  1  0  0  0  0
 15 22  1  0  0  0  0
 16 17  2  0  0  0  0
 16 23  1  0  0  0  0
 17 24  1  0  0  0  0
M  END
