./032362-89-3.hin
 OpenBabel10051109203D

 18 19  0  0  0  0  0  0  0  0999 V2000
   -0.7892   -0.7748    1.1631 N   0  0  0  0  0  0  0  0  0  0  0  0
   -1.9547   -1.4081    0.7301 N   0  0  0  0  0  0  0  0  0  0  0  0
   -1.8164   -1.6301   -0.7114 C   0  0  0  0  0  0  0  0  0  0  0  0
   -0.6382   -0.9289   -1.1470 N   0  0  0  0  0  0  0  0  0  0  0  0
   -0.0921   -0.3984   -0.0502 C   0  0  0  0  0  0  0  0  0  0  0  0
    1.1299    0.4314   -0.0073 C   0  0  0  0  0  0  0  0  0  0  0  0
    2.0804    0.3002   -1.0392 C   0  0  0  0  0  0  0  0  0  0  0  0
    3.2321    1.0939   -0.9867 C   0  0  0  0  0  0  0  0  0  0  0  0
    3.3978    1.9803    0.0733 C   0  0  0  0  0  0  0  0  0  0  0  0
    2.3887    2.0442    1.0583 C   0  0  0  0  0  0  0  0  0  0  0  0
    1.2770    1.2962    1.0344 N   0  0  0  0  0  0  0  0  0  0  0  0
   -2.8234   -2.4268   -1.5849 S   0  0  0  0  0  0  0  0  0  0  0  0
   -0.9988   -0.0062    1.7835 H   0  0  0  0  0  0  0  0  0  0  0  0
   -2.1186   -2.2490    1.2637 H   0  0  0  0  0  0  0  0  0  0  0  0
    1.9194   -0.4060   -1.8675 H   0  0  0  0  0  0  0  0  0  0  0  0
    3.9923    1.0140   -1.7783 H   0  0  0  0  0  0  0  0  0  0  0  0
    4.2867    2.6206    0.1510 H   0  0  0  0  0  0  0  0  0  0  0  0
    2.4778    2.7372    1.9152 H   0  0  0  0  0  0  0  0  0  0  0  0
  1  2  1  0  0  0  0
  1  5  1  0  0  0  0
  1 13  1  0  0  0  0
  2  3  1  0  0  0  0
  2 14  1  0  0  0  0
  3  4  1  0  0  0  0
  3 12  2  0  0  0  0
  4  5  2  0  0  0  0
  5  6  1  0  0  0  0
  6  7  2  0  0  0  0
  6 11  1  0  0  0  0
  7  8  1  0  0  0  0
  7 15  1  0  0  0  0
  8  9  2  0  0  0  0
  8 16  1  0  0  0  0
  9 10  1  0  0  0  0
  9 17  1  0  0  0  0
 10 11  2  0  0  0  0
 10 18  1  0  0  0  0
M  END
