./032723-50-5.hin
 OpenBabel10051109203D

 29 31  0  0  0  0  0  0  0  0999 V2000
   -1.9955   -1.7020    0.0000 C   0  0  0  0  0  0  0  0  0  0  0  0
   -0.7685   -2.4520    0.0003 C   0  0  0  0  0  0  0  0  0  0  0  0
    0.4021   -1.7408    0.0004 C   0  0  0  0  0  0  0  0  0  0  0  0
    0.3885   -0.2872    0.0002 C   0  0  0  0  0  0  0  0  0  0  0  0
   -0.7573    0.4170   -0.0001 N   0  0  0  0  0  0  0  0  0  0  0  0
   -1.8926   -0.2613   -0.0001 N   0  0  0  0  0  0  0  0  0  0  0  0
   -3.2400    0.1840   -0.0004 C   0  0  0  0  0  0  0  0  0  0  0  0
   -4.0383   -0.9338   -0.0003 N   0  0  0  0  0  0  0  0  0  0  0  0
   -3.3265   -2.0320   -0.0001 N   0  0  0  0  0  0  0  0  0  0  0  0
   -3.6464    1.6041   -0.0006 C   0  0  0  0  0  0  0  0  0  0  0  0
    1.6613    0.4621    0.0003 C   0  0  0  0  0  0  0  0  0  0  0  0
    1.6627    1.8682    0.0003 C   0  0  0  0  0  0  0  0  0  0  0  0
    2.8617    2.5781    0.0004 C   0  0  0  0  0  0  0  0  0  0  0  0
    4.0807    1.9024    0.0005 C   0  0  0  0  0  0  0  0  0  0  0  0
    4.0913    0.5087    0.0006 C   0  0  0  0  0  0  0  0  0  0  0  0
    2.8951   -0.2064    0.0005 C   0  0  0  0  0  0  0  0  0  0  0  0
   -0.8366   -3.9262    0.0005 C   0  0  0  0  0  0  0  0  0  0  0  0
    1.3604   -2.2757    0.0006 H   0  0  0  0  0  0  0  0  0  0  0  0
   -3.2451    2.1182   -0.9099 H   0  0  0  0  0  0  0  0  0  0  0  0
   -4.7621    1.6824   -0.0003 H   0  0  0  0  0  0  0  0  0  0  0  0
   -3.2445    2.1188    0.9081 H   0  0  0  0  0  0  0  0  0  0  0  0
   -1.3904   -4.2840   -0.9047 H   0  0  0  0  0  0  0  0  0  0  0  0
    0.1854   -4.3779    0.0006 H   0  0  0  0  0  0  0  0  0  0  0  0
   -1.3904   -4.2838    0.9058 H   0  0  0  0  0  0  0  0  0  0  0  0
    0.7179    2.4345    0.0002 H   0  0  0  0  0  0  0  0  0  0  0  0
    2.8420    3.6784    0.0003 H   0  0  0  0  0  0  0  0  0  0  0  0
    5.0266    2.4638    0.0006 H   0  0  0  0  0  0  0  0  0  0  0  0
    5.0483   -0.0343    0.0007 H   0  0  0  0  0  0  0  0  0  0  0  0
    2.9534   -1.3041    0.0005 H   0  0  0  0  0  0  0  0  0  0  0  0
  1  2  1  0  0  0  0
  1  6  1  0  0  0  0
  1  9  2  0  0  0  0
  2  3  2  0  0  0  0
  2 17  1  0  0  0  0
  3  4  1  0  0  0  0
  3 18  1  0  0  0  0
  4  5  2  0  0  0  0
  4 11  1  0  0  0  0
  5  6  1  0  0  0  0
  6  7  1  0  0  0  0
  7  8  2  0  0  0  0
  7 10  1  0  0  0  0
  8  9  1  0  0  0  0
 10 19  1  0  0  0  0
 10 20  1  0  0  0  0
 10 21  1  0  0  0  0
 11 12  2  0  0  0  0
 11 16  1  0  0  0  0
 12 13  1  0  0  0  0
 12 25  1  0  0  0  0
 13 14  2  0  0  0  0
 13 26  1  0  0  0  0
 14 15  1  0  0  0  0
 14 27  1  0  0  0  0
 15 16  2  0  0  0  0
 15 28  1  0  0  0  0
 16 29  1  0  0  0  0
 17 22  1  0  0  0  0
 17 23  1  0  0  0  0
 17 24  1  0  0  0  0
M  END
