./035515-45-8.hin
 OpenBabel10051109203D

 25 27  0  0  0  0  0  0  0  0999 V2000
    0.7260    2.0687    0.5566 C   0  0  0  0  0  0  0  0  0  0  0  0
    1.1949    0.6914    0.0723 C   0  0  0  0  0  0  0  0  0  0  0  0
    0.1328   -0.2755    0.0285 N   0  0  0  0  0  0  0  0  0  0  0  0
   -1.2216    0.0819   -0.1156 C   0  0  0  0  0  0  0  0  0  0  0  0
   -1.9715   -1.0746   -0.1666 N   0  0  0  0  0  0  0  0  0  0  0  0
   -1.1738   -2.1052   -0.0683 N   0  0  0  0  0  0  0  0  0  0  0  0
    0.1267   -1.6729    0.0513 C   0  0  0  0  0  0  0  0  0  0  0  0
    1.3271   -2.5918    0.1873 C   0  0  0  0  0  0  0  0  0  0  0  0
    1.4795   -3.4484   -0.8703 F   0  0  0  0  0  0  0  0  0  0  0  0
    2.5345   -1.9438    0.2844 F   0  0  0  0  0  0  0  0  0  0  0  0
    1.2761   -3.3934    1.2967 F   0  0  0  0  0  0  0  0  0  0  0  0
   -1.6133    1.4795   -0.1872 C   0  0  0  0  0  0  0  0  0  0  0  0
   -2.9101    1.8535   -0.5512 C   0  0  0  0  0  0  0  0  0  0  0  0
   -3.2388    3.2067   -0.6304 C   0  0  0  0  0  0  0  0  0  0  0  0
   -2.2790    4.1788   -0.3516 C   0  0  0  0  0  0  0  0  0  0  0  0
   -0.9856    3.8065    0.0152 C   0  0  0  0  0  0  0  0  0  0  0  0
   -0.6386    2.4561    0.1045 C   0  0  0  0  0  0  0  0  0  0  0  0
    1.4803    2.8206    0.2007 H   0  0  0  0  0  0  0  0  0  0  0  0
    0.7375    2.0866    1.6818 H   0  0  0  0  0  0  0  0  0  0  0  0
    2.0083    0.3129    0.7559 H   0  0  0  0  0  0  0  0  0  0  0  0
    1.6266    0.7831   -0.9676 H   0  0  0  0  0  0  0  0  0  0  0  0
   -3.6646    1.0820   -0.7729 H   0  0  0  0  0  0  0  0  0  0  0  0
   -4.2591    3.5044   -0.9151 H   0  0  0  0  0  0  0  0  0  0  0  0
   -2.5407    5.2457   -0.4193 H   0  0  0  0  0  0  0  0  0  0  0  0
   -0.2342    4.5789    0.2379 H   0  0  0  0  0  0  0  0  0  0  0  0
  1  2  1  0  0  0  0
  1 17  1  0  0  0  0
  1 18  1  0  0  0  0
  1 19  1  0  0  0  0
  2  3  1  0  0  0  0
  2 20  1  0  0  0  0
  2 21  1  0  0  0  0
  3  4  1  0  0  0  0
  3  7  1  0  0  0  0
  4  5  2  0  0  0  0
  4 12  1  0  0  0  0
  5  6  1  0  0  0  0
  6  7  2  0  0  0  0
  7  8  1  0  0  0  0
  8  9  1  0  0  0  0
  8 10  1  0  0  0  0
  8 11  1  0  0  0  0
 12 13  2  0  0  0  0
 12 17  1  0  0  0  0
 13 14  1  0  0  0  0
 13 22  1  0  0  0  0
 14 15  2  0  0  0  0
 14 23  1  0  0  0  0
 15 16  1  0  0  0  0
 15 24  1  0  0  0  0
 16 17  2  0  0  0  0
 16 25  1  0  0  0  0
M  END
