./036437-37-3.hin
 OpenBabel10051109203D

 49 51  0  0  0  0  0  0  0  0999 V2000
   -0.8315   -1.4692    0.1181 C   0  0  0  0  0  0  0  0  0  0  0  0
   -0.0079   -0.3266   -0.0199 C   0  0  0  0  0  0  0  0  0  0  0  0
    1.3698   -0.4734   -0.2567 C   0  0  0  0  0  0  0  0  0  0  0  0
    1.9398   -1.7430   -0.3716 C   0  0  0  0  0  0  0  0  0  0  0  0
    1.1133   -2.8655   -0.2530 C   0  0  0  0  0  0  0  0  0  0  0  0
   -0.2567   -2.7554   -0.0099 C   0  0  0  0  0  0  0  0  0  0  0  0
    3.4215   -1.8545   -0.6222 C   0  0  0  0  0  0  0  0  0  0  0  0
    3.8859   -3.3021   -0.7270 C   0  0  0  0  0  0  0  0  0  0  0  0
    3.7697   -1.1477   -1.9300 C   0  0  0  0  0  0  0  0  0  0  0  0
    4.1803   -1.1933    0.5260 C   0  0  0  0  0  0  0  0  0  0  0  0
   -2.1490   -4.0562   -0.9697 C   0  0  0  0  0  0  0  0  0  0  0  0
   -1.0725   -4.0090    0.0987 C   0  0  0  0  0  0  0  0  0  0  0  0
   -1.6894   -4.1752    1.4834 C   0  0  0  0  0  0  0  0  0  0  0  0
   -0.6596   -4.5051    2.5324 C   0  0  0  0  0  0  0  0  0  0  0  0
   -1.5834    1.4184   -0.6858 N   0  0  0  0  0  0  0  0  0  0  0  0
   -0.5534    1.0104    0.0813 N   0  0  0  0  0  0  0  0  0  0  0  0
    0.0049    1.9399    0.8786 N   0  0  0  0  0  0  0  0  0  0  0  0
   -0.7215    3.0787    0.6415 C   0  0  0  0  0  0  0  0  0  0  0  0
   -1.7482    2.7415   -0.3665 C   0  0  0  0  0  0  0  0  0  0  0  0
   -0.6538    4.3996    1.1637 C   0  0  0  0  0  0  0  0  0  0  0  0
   -1.5544    5.3199    0.7036 C   0  0  0  0  0  0  0  0  0  0  0  0
   -2.5466    4.9939   -0.2715 C   0  0  0  0  0  0  0  0  0  0  0  0
   -2.6597    3.7404   -0.8063 C   0  0  0  0  0  0  0  0  0  0  0  0
   -2.1824   -1.4301    0.3527 O   0  0  0  0  0  0  0  0  0  0  0  0
    2.0090    0.4205   -0.3517 H   0  0  0  0  0  0  0  0  0  0  0  0
    1.5410   -3.8772   -0.3486 H   0  0  0  0  0  0  0  0  0  0  0  0
    3.3771   -3.8196   -1.5750 H   0  0  0  0  0  0  0  0  0  0  0  0
    4.9877   -3.3291   -0.9106 H   0  0  0  0  0  0  0  0  0  0  0  0
    3.6755   -3.8538    0.2202 H   0  0  0  0  0  0  0  0  0  0  0  0
    3.5064   -0.0646   -1.8764 H   0  0  0  0  0  0  0  0  0  0  0  0
    4.8648   -1.2364   -2.1292 H   0  0  0  0  0  0  0  0  0  0  0  0
    3.2125   -1.6096   -2.7794 H   0  0  0  0  0  0  0  0  0  0  0  0
    3.9133   -0.1127    0.6059 H   0  0  0  0  0  0  0  0  0  0  0  0
    3.9333   -1.6947    1.4918 H   0  0  0  0  0  0  0  0  0  0  0  0
    5.2800   -1.2750    0.3506 H   0  0  0  0  0  0  0  0  0  0  0  0
   -1.6995   -3.9110   -1.9809 H   0  0  0  0  0  0  0  0  0  0  0  0
   -2.6639   -5.0469   -0.9467 H   0  0  0  0  0  0  0  0  0  0  0  0
   -2.9087   -3.2552   -0.7989 H   0  0  0  0  0  0  0  0  0  0  0  0
   -0.3840   -4.8890   -0.0726 H   0  0  0  0  0  0  0  0  0  0  0  0
   -2.2340   -3.2347    1.7627 H   0  0  0  0  0  0  0  0  0  0  0  0
   -2.4505   -4.9991    1.4376 H   0  0  0  0  0  0  0  0  0  0  0  0
   -1.1414   -4.5736    3.5376 H   0  0  0  0  0  0  0  0  0  0  0  0
   -0.1669   -5.4829    2.3114 H   0  0  0  0  0  0  0  0  0  0  0  0
    0.1302   -3.7162    2.5713 H   0  0  0  0  0  0  0  0  0  0  0  0
    0.1100    4.6491    1.9137 H   0  0  0  0  0  0  0  0  0  0  0  0
   -1.5301    6.3526    1.0851 H   0  0  0  0  0  0  0  0  0  0  0  0
   -3.2343    5.7926   -0.5904 H   0  0  0  0  0  0  0  0  0  0  0  0
   -3.4216    3.4887   -1.5574 H   0  0  0  0  0  0  0  0  0  0  0  0
   -2.4542   -0.5376    0.6057 H   0  0  0  0  0  0  0  0  0  0  0  0
  1  2  2  0  0  0  0
  1  6  1  0  0  0  0
  1 24  1  0  0  0  0
  2  3  1  0  0  0  0
  2 16  1  0  0  0  0
  3  4  2  0  0  0  0
  3 25  1  0  0  0  0
  4  5  1  0  0  0  0
  4  7  1  0  0  0  0
  5  6  2  0  0  0  0
  5 26  1  0  0  0  0
  6 12  1  0  0  0  0
  7  8  1  0  0  0  0
  7  9  1  0  0  0  0
  7 10  1  0  0  0  0
  8 27  1  0  0  0  0
  8 28  1  0  0  0  0
  8 29  1  0  0  0  0
  9 30  1  0  0  0  0
  9 31  1  0  0  0  0
  9 32  1  0  0  0  0
 10 33  1  0  0  0  0
 10 34  1  0  0  0  0
 10 35  1  0  0  0  0
 11 12  1  0  0  0  0
 11 36  1  0  0  0  0
 11 37  1  0  0  0  0
 11 38  1  0  0  0  0
 12 13  1  0  0  0  0
 12 39  1  0  0  0  0
 13 14  1  0  0  0  0
 13 40  1  0  0  0  0
 13 41  1  0  0  0  0
 14 42  1  0  0  0  0
 14 43  1  0  0  0  0
 14 44  1  0  0  0  0
 15 16  1  0  0  0  0
 15 19  2  0  0  0  0
 16 17  1  0  0  0  0
 17 18  2  0  0  0  0
 18 19  1  0  0  0  0
 18 20  1  0  0  0  0
 19 23  1  0  0  0  0
 20 21  2  0  0  0  0
 20 45  1  0  0  0  0
 21 22  1  0  0  0  0
 21 46  1  0  0  0  0
 22 23  2  0  0  0  0
 22 47  1  0  0  0  0
 23 48  1  0  0  0  0
 24 49  1  0  0  0  0
M  END
