./036791-04-5.hin
 OpenBabel10051109203D

 29 30  0  0  0  0  0  0  0  0999 V2000
   -1.1582   -1.0393    0.5578 N   0  0  0  0  0  0  0  0  0  0  0  0
   -1.0551    0.3842    0.9031 C   0  0  0  0  0  0  0  0  0  0  0  0
   -1.9083    1.1317    0.0420 O   0  0  0  0  0  0  0  0  0  0  0  0
   -1.1465    1.9486   -0.8625 C   0  0  0  0  0  0  0  0  0  0  0  0
   -1.1143    1.3139   -2.2524 C   0  0  0  0  0  0  0  0  0  0  0  0
   -2.3703    1.5792   -2.8522 O   0  0  0  0  0  0  0  0  0  0  0  0
    0.2705    2.0968   -0.2712 C   0  0  0  0  0  0  0  0  0  0  0  0
    0.3900    0.9630    0.7743 C   0  0  0  0  0  0  0  0  0  0  0  0
    0.7892    1.5240    2.0048 O   0  0  0  0  0  0  0  0  0  0  0  0
    0.3598    3.3977    0.2682 O   0  0  0  0  0  0  0  0  0  0  0  0
   -0.3122   -1.9769    1.0042 N   0  0  0  0  0  0  0  0  0  0  0  0
   -0.7984   -3.1513    0.4896 C   0  0  0  0  0  0  0  0  0  0  0  0
   -1.9649   -2.9598   -0.2877 N   0  0  0  0  0  0  0  0  0  0  0  0
   -2.1697   -1.6299   -0.2319 C   0  0  0  0  0  0  0  0  0  0  0  0
   -0.1460   -4.4798    0.7011 C   0  0  0  0  0  0  0  0  0  0  0  0
   -0.9557   -5.5842    0.6687 N   0  0  0  0  0  0  0  0  0  0  0  0
    1.0771   -4.5760    0.9154 O   0  0  0  0  0  0  0  0  0  0  0  0
   -1.4622    0.5234    1.9496 H   0  0  0  0  0  0  0  0  0  0  0  0
   -1.6941    2.9323   -0.8879 H   0  0  0  0  0  0  0  0  0  0  0  0
   -0.2927    1.7764   -2.8628 H   0  0  0  0  0  0  0  0  0  0  0  0
   -0.9497    0.2059   -2.1752 H   0  0  0  0  0  0  0  0  0  0  0  0
   -2.3423    1.1887   -3.7339 H   0  0  0  0  0  0  0  0  0  0  0  0
    1.0659    1.9755   -1.0561 H   0  0  0  0  0  0  0  0  0  0  0  0
    1.1352    0.1973    0.4297 H   0  0  0  0  0  0  0  0  0  0  0  0
    1.0904    0.7952    2.5637 H   0  0  0  0  0  0  0  0  0  0  0  0
    1.0171    3.3858    0.9776 H   0  0  0  0  0  0  0  0  0  0  0  0
   -2.9730   -1.0482   -0.7016 H   0  0  0  0  0  0  0  0  0  0  0  0
   -0.5412   -6.4798    0.7478 H   0  0  0  0  0  0  0  0  0  0  0  0
   -1.9072   -5.5188    0.4107 H   0  0  0  0  0  0  0  0  0  0  0  0
  1  2  1  0  0  0  0
  1 11  1  0  0  0  0
  1 14  1  0  0  0  0
  2  3  1  0  0  0  0
  2  8  1  0  0  0  0
  2 18  1  0  0  0  0
  3  4  1  0  0  0  0
  4  5  1  0  0  0  0
  4  7  1  0  0  0  0
  4 19  1  0  0  0  0
  5  6  1  0  0  0  0
  5 20  1  0  0  0  0
  5 21  1  0  0  0  0
  6 22  1  0  0  0  0
  7  8  1  0  0  0  0
  7 10  1  0  0  0  0
  7 23  1  0  0  0  0
  8  9  1  0  0  0  0
  8 24  1  0  0  0  0
  9 25  1  0  0  0  0
 10 26  1  0  0  0  0
 11 12  2  0  0  0  0
 12 13  1  0  0  0  0
 12 15  1  0  0  0  0
 13 14  2  0  0  0  0
 14 27  1  0  0  0  0
 15 16  1  0  0  0  0
 15 17  2  0  0  0  0
 16 28  1  0  0  0  0
 16 29  1  0  0  0  0
M  END
