./037160-06-8.hin
 OpenBabel10051109203D

 32 35  0  0  0  0  0  0  0  0999 V2000
    2.1659   -3.4880   -1.7552 C   0  0  0  0  0  0  0  0  0  0  0  0
    2.8395    2.6794   -0.3370 N   0  0  0  0  0  0  0  0  0  0  0  0
    4.1218    1.9697   -0.4669 C   0  0  0  0  0  0  0  0  0  0  0  0
    4.1512    0.5823   -0.5550 N   0  0  0  0  0  0  0  0  0  0  0  0
    2.9740   -0.0276   -0.5024 C   0  0  0  0  0  0  0  0  0  0  0  0
    1.7054    0.7226   -0.3420 C   0  0  0  0  0  0  0  0  0  0  0  0
    1.6738    2.0593   -0.2681 N   0  0  0  0  0  0  0  0  0  0  0  0
    0.4222    0.0075   -0.2362 C   0  0  0  0  0  0  0  0  0  0  0  0
   -0.5800    0.2242   -1.1899 C   0  0  0  0  0  0  0  0  0  0  0  0
   -1.8016   -0.4379   -1.0738 C   0  0  0  0  0  0  0  0  0  0  0  0
   -2.0302   -1.3050   -0.0054 C   0  0  0  0  0  0  0  0  0  0  0  0
   -1.0355   -1.5119    0.9507 C   0  0  0  0  0  0  0  0  0  0  0  0
    0.1899   -0.8567    0.8410 C   0  0  0  0  0  0  0  0  0  0  0  0
    2.9365   -1.4963   -0.6214 C   0  0  0  0  0  0  0  0  0  0  0  0
    2.1717   -2.1004   -1.6272 C   0  0  0  0  0  0  0  0  0  0  0  0
    2.9203   -4.2758   -0.8851 C   0  0  0  0  0  0  0  0  0  0  0  0
    3.6874   -3.6746    0.1124 C   0  0  0  0  0  0  0  0  0  0  0  0
    3.7047   -2.2864    0.2432 C   0  0  0  0  0  0  0  0  0  0  0  0
    5.1156    2.9289   -0.4855 N   0  0  0  0  0  0  0  0  0  0  0  0
    4.5611    4.1117   -0.3819 N   0  0  0  0  0  0  0  0  0  0  0  0
    3.2033    4.0356   -0.2885 C   0  0  0  0  0  0  0  0  0  0  0  0
    1.5662   -3.9605   -2.5472 H   0  0  0  0  0  0  0  0  0  0  0  0
   -0.4056    0.9179   -2.0261 H   0  0  0  0  0  0  0  0  0  0  0  0
   -2.5874   -0.2695   -1.8251 H   0  0  0  0  0  0  0  0  0  0  0  0
   -2.9964   -1.8235    0.0853 H   0  0  0  0  0  0  0  0  0  0  0  0
   -1.2165   -2.1920    1.7964 H   0  0  0  0  0  0  0  0  0  0  0  0
    0.9741   -1.0204    1.5954 H   0  0  0  0  0  0  0  0  0  0  0  0
    1.5741   -1.4789   -2.3114 H   0  0  0  0  0  0  0  0  0  0  0  0
    2.9130   -5.3711   -0.9889 H   0  0  0  0  0  0  0  0  0  0  0  0
    4.2882   -4.2941    0.7948 H   0  0  0  0  0  0  0  0  0  0  0  0
    4.3263   -1.8131    1.0185 H   0  0  0  0  0  0  0  0  0  0  0  0
    2.4904    4.8595   -0.1916 H   0  0  0  0  0  0  0  0  0  0  0  0
  1 15  2  0  0  0  0
  1 16  1  0  0  0  0
  1 22  1  0  0  0  0
  2  3  1  0  0  0  0
  2  7  1  0  0  0  0
  2 21  1  0  0  0  0
  3  4  1  0  0  0  0
  3 19  2  0  0  0  0
  4  5  2  0  0  0  0
  5  6  1  0  0  0  0
  5 14  1  0  0  0  0
  6  7  2  0  0  0  0
  6  8  1  0  0  0  0
  8  9  2  0  0  0  0
  8 13  1  0  0  0  0
  9 10  1  0  0  0  0
  9 23  1  0  0  0  0
 10 11  2  0  0  0  0
 10 24  1  0  0  0  0
 11 12  1  0  0  0  0
 11 25  1  0  0  0  0
 12 13  2  0  0  0  0
 12 26  1  0  0  0  0
 13 27  1  0  0  0  0
 14 15  1  0  0  0  0
 14 18  2  0  0  0  0
 15 28  1  0  0  0  0
 16 17  2  0  0  0  0
 16 29  1  0  0  0  0
 17 18  1  0  0  0  0
 17 30  1  0  0  0  0
 18 31  1  0  0  0  0
 19 20  1  0  0  0  0
 20 21  2  0  0  0  0
 21 32  1  0  0  0  0
M  END
