./039968-33-7.hin
 OpenBabel10051109203D

 14 15  0  0  0  0  0  0  0  0999 V2000
    0.0320   -0.5346   -0.0000 C   0  0  0  0  0  0  0  0  0  0  0  0
   -0.0025    0.9228   -0.0000 C   0  0  0  0  0  0  0  0  0  0  0  0
    1.2184    1.6110   -0.0000 C   0  0  0  0  0  0  0  0  0  0  0  0
    2.3695    0.8377   -0.0000 C   0  0  0  0  0  0  0  0  0  0  0  0
    2.2906   -0.5838   -0.0000 C   0  0  0  0  0  0  0  0  0  0  0  0
    1.1599   -1.3000    0.0000 N   0  0  0  0  0  0  0  0  0  0  0  0
   -1.3706    1.2972   -0.0000 N   0  0  0  0  0  0  0  0  0  0  0  0
   -2.1022    0.2673    0.0000 N   0  0  0  0  0  0  0  0  0  0  0  0
   -1.3441   -0.8711    0.0000 N   0  0  0  0  0  0  0  0  0  0  0  0
   -1.8944   -2.0725   -0.0000 O   0  0  0  0  0  0  0  0  0  0  0  0
    1.2502    2.7103   -0.0000 H   0  0  0  0  0  0  0  0  0  0  0  0
    3.3605    1.3124   -0.0000 H   0  0  0  0  0  0  0  0  0  0  0  0
    3.2205   -1.1841   -0.0000 H   0  0  0  0  0  0  0  0  0  0  0  0
   -1.1549   -2.7188    0.0000 H   0  0  0  0  0  0  0  0  0  0  0  0
  1  2  2  0  0  0  0
  1  6  1  0  0  0  0
  1  9  1  0  0  0  0
  2  3  1  0  0  0  0
  2  7  1  0  0  0  0
  3  4  2  0  0  0  0
  3 11  1  0  0  0  0
  4  5  1  0  0  0  0
  4 12  1  0  0  0  0
  5  6  2  0  0  0  0
  5 13  1  0  0  0  0
  7  8  2  0  0  0  0
  8  9  1  0  0  0  0
  9 10  1  0  0  0  0
 10 14  1  0  0  0  0
M  END
