./040054-69-1.hin
 OpenBabel10051109203D

 38 41  0  0  0  0  0  0  0  0999 V2000
   -3.2689   -2.9569    2.1870 C   0  0  0  0  0  0  0  0  0  0  0  0
   -2.6511   -3.0780    0.8133 C   0  0  0  0  0  0  0  0  0  0  0  0
   -1.5343   -2.1366    0.6162 C   0  0  0  0  0  0  0  0  0  0  0  0
   -1.6349   -0.7658    0.5309 C   0  0  0  0  0  0  0  0  0  0  0  0
   -0.3694   -0.1351    0.3133 C   0  0  0  0  0  0  0  0  0  0  0  0
    0.6626   -1.0776    0.2476 C   0  0  0  0  0  0  0  0  0  0  0  0
    0.0507   -2.6539    0.4390 S   0  0  0  0  0  0  0  0  0  0  0  0
    2.0062   -0.7990    0.0699 N   0  0  0  0  0  0  0  0  0  0  0  0
    3.0128   -1.6081   -0.5192 C   0  0  0  0  0  0  0  0  0  0  0  0
    4.1757   -0.8903   -0.5130 N   0  0  0  0  0  0  0  0  0  0  0  0
    3.9716    0.2961    0.0233 N   0  0  0  0  0  0  0  0  0  0  0  0
    2.6651    0.4101    0.3988 C   0  0  0  0  0  0  0  0  0  0  0  0
    2.0030    1.5770    1.0637 C   0  0  0  0  0  0  0  0  0  0  0  0
    0.7890    2.0567    0.4759 N   0  0  0  0  0  0  0  0  0  0  0  0
   -0.2220    1.3169    0.1670 C   0  0  0  0  0  0  0  0  0  0  0  0
   -1.4267    1.9865   -0.4015 C   0  0  0  0  0  0  0  0  0  0  0  0
   -2.3498    2.5856    0.4627 C   0  0  0  0  0  0  0  0  0  0  0  0
   -3.4838    3.2140   -0.0474 C   0  0  0  0  0  0  0  0  0  0  0  0
   -3.6992    3.2552   -1.4252 C   0  0  0  0  0  0  0  0  0  0  0  0
   -2.7813    2.6728   -2.2961 C   0  0  0  0  0  0  0  0  0  0  0  0
   -1.6408    2.0409   -1.7859 C   0  0  0  0  0  0  0  0  0  0  0  0
   -0.5284    1.3521   -2.8690 Cl  0  0  0  0  0  0  0  0  0  0  0  0
    2.8161   -2.9859   -1.0196 C   0  0  0  0  0  0  0  0  0  0  0  0
   -4.1337   -3.6578    2.2770 H   0  0  0  0  0  0  0  0  0  0  0  0
   -2.5250   -3.2067    2.9810 H   0  0  0  0  0  0  0  0  0  0  0  0
   -3.6332   -1.9157    2.3614 H   0  0  0  0  0  0  0  0  0  0  0  0
   -3.4379   -2.8799    0.0334 H   0  0  0  0  0  0  0  0  0  0  0  0
   -2.2930   -4.1326    0.6582 H   0  0  0  0  0  0  0  0  0  0  0  0
   -2.5661   -0.1967    0.6112 H   0  0  0  0  0  0  0  0  0  0  0  0
    2.7206    2.4519    1.0304 H   0  0  0  0  0  0  0  0  0  0  0  0
    1.8315    1.3094    2.1499 H   0  0  0  0  0  0  0  0  0  0  0  0
   -2.1694    2.5644    1.5482 H   0  0  0  0  0  0  0  0  0  0  0  0
   -4.2049    3.6837    0.6377 H   0  0  0  0  0  0  0  0  0  0  0  0
   -4.5931    3.7540   -1.8287 H   0  0  0  0  0  0  0  0  0  0  0  0
   -2.9474    2.7140   -3.3835 H   0  0  0  0  0  0  0  0  0  0  0  0
    1.7565   -3.1541   -1.3423 H   0  0  0  0  0  0  0  0  0  0  0  0
    3.4912   -3.1700   -1.8933 H   0  0  0  0  0  0  0  0  0  0  0  0
    3.0706   -3.7189   -0.2123 H   0  0  0  0  0  0  0  0  0  0  0  0
  1  2  1  0  0  0  0
  1 24  1  0  0  0  0
  1 25  1  0  0  0  0
  1 26  1  0  0  0  0
  2  3  1  0  0  0  0
  2 27  1  0  0  0  0
  2 28  1  0  0  0  0
  3  4  2  0  0  0  0
  3  7  1  0  0  0  0
  4  5  1  0  0  0  0
  4 29  1  0  0  0  0
  5  6  2  0  0  0  0
  5 15  1  0  0  0  0
  6  7  1  0  0  0  0
  6  8  1  0  0  0  0
  8  9  1  0  0  0  0
  8 12  1  0  0  0  0
  9 10  2  0  0  0  0
  9 23  1  0  0  0  0
 10 11  1  0  0  0  0
 11 12  2  0  0  0  0
 12 13  1  0  0  0  0
 13 14  1  0  0  0  0
 13 30  1  0  0  0  0
 13 31  1  0  0  0  0
 14 15  2  0  0  0  0
 15 16  1  0  0  0  0
 16 17  2  0  0  0  0
 16 21  1  0  0  0  0
 17 18  1  0  0  0  0
 17 32  1  0  0  0  0
 18 19  2  0  0  0  0
 18 33  1  0  0  0  0
 19 20  1  0  0  0  0
 19 34  1  0  0  0  0
 20 21  2  0  0  0  0
 20 35  1  0  0  0  0
 21 22  1  0  0  0  0
 23 36  1  0  0  0  0
 23 37  1  0  0  0  0
 23 38  1  0  0  0  0
M  END
