./041083-11-8.hin
 OpenBabel10051109203D

 59 62  0  0  0  0  0  0  0  0999 V2000
    1.8633    1.1484    0.0459 N   0  0  0  0  0  0  0  0  0  0  0  0
    1.8729    2.2761   -0.6502 N   0  0  0  0  0  0  0  0  0  0  0  0
    3.1038    2.8440   -0.4456 C   0  0  0  0  0  0  0  0  0  0  0  0
    3.9036    2.0659    0.3983 N   0  0  0  0  0  0  0  0  0  0  0  0
    3.1009    1.0091    0.6905 C   0  0  0  0  0  0  0  0  0  0  0  0
    0.0878   -0.0459   -0.0220 Sn  0  0  0  0  0  0  0  0  0  0  0  0
   -1.0492    0.9038   -1.5953 C   0  0  0  0  0  0  0  0  0  0  0  0
   -2.1204    0.0370   -2.2068 C   0  0  0  0  0  0  0  0  0  0  0  0
   -3.4218    0.0153   -1.4313 C   0  0  0  0  0  0  0  0  0  0  0  0
   -3.9252    1.4152   -1.1522 C   0  0  0  0  0  0  0  0  0  0  0  0
   -2.8747    2.2432   -0.4441 C   0  0  0  0  0  0  0  0  0  0  0  0
   -1.5679    2.2674   -1.2104 C   0  0  0  0  0  0  0  0  0  0  0  0
    1.1085   -1.9058   -0.4351 C   0  0  0  0  0  0  0  0  0  0  0  0
    0.3060   -3.1615   -0.2074 C   0  0  0  0  0  0  0  0  0  0  0  0
   -0.5899   -3.5483   -1.3661 C   0  0  0  0  0  0  0  0  0  0  0  0
    0.1753   -3.5935   -2.6713 C   0  0  0  0  0  0  0  0  0  0  0  0
    0.8917   -2.2862   -2.9337 C   0  0  0  0  0  0  0  0  0  0  0  0
    1.7950   -1.9032   -1.7792 C   0  0  0  0  0  0  0  0  0  0  0  0
   -0.5744    0.2754    2.0092 C   0  0  0  0  0  0  0  0  0  0  0  0
   -1.9571   -0.2364    2.3274 C   0  0  0  0  0  0  0  0  0  0  0  0
   -2.0187   -1.6990    2.7177 C   0  0  0  0  0  0  0  0  0  0  0  0
   -1.0107   -2.0385    3.7942 C   0  0  0  0  0  0  0  0  0  0  0  0
    0.3858   -1.6274    3.3803 C   0  0  0  0  0  0  0  0  0  0  0  0
    0.4452   -0.1533    3.0352 C   0  0  0  0  0  0  0  0  0  0  0  0
    3.4322    3.7894   -0.8830 H   0  0  0  0  0  0  0  0  0  0  0  0
    3.3679    0.1629    1.3290 H   0  0  0  0  0  0  0  0  0  0  0  0
   -0.2216    1.0363   -2.3437 H   0  0  0  0  0  0  0  0  0  0  0  0
   -2.3341    0.4333   -3.2398 H   0  0  0  0  0  0  0  0  0  0  0  0
   -1.7521   -1.0152   -2.3404 H   0  0  0  0  0  0  0  0  0  0  0  0
   -4.1912   -0.5472   -2.0235 H   0  0  0  0  0  0  0  0  0  0  0  0
   -3.2847   -0.5371   -0.4646 H   0  0  0  0  0  0  0  0  0  0  0  0
   -4.2011    1.9112   -2.1200 H   0  0  0  0  0  0  0  0  0  0  0  0
   -4.8524    1.3637   -0.5241 H   0  0  0  0  0  0  0  0  0  0  0  0
   -3.2471    3.2951   -0.3259 H   0  0  0  0  0  0  0  0  0  0  0  0
   -2.7061    1.8373    0.5888 H   0  0  0  0  0  0  0  0  0  0  0  0
   -1.7265    2.8532   -2.1597 H   0  0  0  0  0  0  0  0  0  0  0  0
   -0.8001    2.8294   -0.6149 H   0  0  0  0  0  0  0  0  0  0  0  0
    1.8966   -1.8431    0.3642 H   0  0  0  0  0  0  0  0  0  0  0  0
    1.0300   -4.0060   -0.0281 H   0  0  0  0  0  0  0  0  0  0  0  0
   -0.3121   -3.0702    0.7254 H   0  0  0  0  0  0  0  0  0  0  0  0
   -1.0367   -4.5571   -1.1611 H   0  0  0  0  0  0  0  0  0  0  0  0
   -1.4428   -2.8249   -1.4516 H   0  0  0  0  0  0  0  0  0  0  0  0
    0.9245   -4.4279   -2.6345 H   0  0  0  0  0  0  0  0  0  0  0  0
   -0.5309   -3.8122   -3.5140 H   0  0  0  0  0  0  0  0  0  0  0  0
    1.5100   -2.3803   -3.8653 H   0  0  0  0  0  0  0  0  0  0  0  0
    0.1404   -1.4732   -3.1191 H   0  0  0  0  0  0  0  0  0  0  0  0
    2.6447   -2.6415   -1.7371 H   0  0  0  0  0  0  0  0  0  0  0  0
    2.2543   -0.8994   -1.9855 H   0  0  0  0  0  0  0  0  0  0  0  0
   -0.6118    1.3989    1.9939 H   0  0  0  0  0  0  0  0  0  0  0  0
   -2.3589    0.3716    3.1867 H   0  0  0  0  0  0  0  0  0  0  0  0
   -2.6511   -0.0611    1.4617 H   0  0  0  0  0  0  0  0  0  0  0  0
   -3.0520   -1.9329    3.0884 H   0  0  0  0  0  0  0  0  0  0  0  0
   -1.8420   -2.3448    1.8180 H   0  0  0  0  0  0  0  0  0  0  0  0
   -1.2883   -1.5121    4.7453 H   0  0  0  0  0  0  0  0  0  0  0  0
   -1.0354   -3.1403    3.9996 H   0  0  0  0  0  0  0  0  0  0  0  0
    1.1022   -1.8381    4.2174 H   0  0  0  0  0  0  0  0  0  0  0  0
    0.7139   -2.2426    2.5002 H   0  0  0  0  0  0  0  0  0  0  0  0
    0.2632    0.4374    3.9768 H   0  0  0  0  0  0  0  0  0  0  0  0
    1.4829    0.1076    2.6923 H   0  0  0  0  0  0  0  0  0  0  0  0
  1  2  1  0  0  0  0
  1  5  1  0  0  0  0
  1  6  1  0  0  0  0
  2  3  2  0  0  0  0
  3  4  1  0  0  0  0
  3 25  1  0  0  0  0
  4  5  2  0  0  0  0
  5 26  1  0  0  0  0
  6  7  1  0  0  0  0
  6 13  1  0  0  0  0
  6 19  1  0  0  0  0
  7  8  1  0  0  0  0
  7 12  1  0  0  0  0
  7 27  1  0  0  0  0
  8  9  1  0  0  0  0
  8 28  1  0  0  0  0
  8 29  1  0  0  0  0
  9 10  1  0  0  0  0
  9 30  1  0  0  0  0
  9 31  1  0  0  0  0
 10 11  1  0  0  0  0
 10 32  1  0  0  0  0
 10 33  1  0  0  0  0
 11 12  1  0  0  0  0
 11 34  1  0  0  0  0
 11 35  1  0  0  0  0
 12 36  1  0  0  0  0
 12 37  1  0  0  0  0
 13 14  1  0  0  0  0
 13 18  1  0  0  0  0
 13 38  1  0  0  0  0
 14 15  1  0  0  0  0
 14 39  1  0  0  0  0
 14 40  1  0  0  0  0
 15 16  1  0  0  0  0
 15 41  1  0  0  0  0
 15 42  1  0  0  0  0
 16 17  1  0  0  0  0
 16 43  1  0  0  0  0
 16 44  1  0  0  0  0
 17 18  1  0  0  0  0
 17 45  1  0  0  0  0
 17 46  1  0  0  0  0
 18 47  1  0  0  0  0
 18 48  1  0  0  0  0
 19 20  1  0  0  0  0
 19 24  1  0  0  0  0
 19 49  1  0  0  0  0
 20 21  1  0  0  0  0
 20 50  1  0  0  0  0
 20 51  1  0  0  0  0
 21 22  1  0  0  0  0
 21 52  1  0  0  0  0
 21 53  1  0  0  0  0
 22 23  1  0  0  0  0
 22 54  1  0  0  0  0
 22 55  1  0  0  0  0
 23 24  1  0  0  0  0
 23 56  1  0  0  0  0
 23 57  1  0  0  0  0
 24 58  1  0  0  0  0
 24 59  1  0  0  0  0
M  END
