./041735-28-8.hin
 OpenBabel10051109203D

 23 24  0  0  0  0  0  0  0  0999 V2000
   -4.6625    1.2741   -0.1087 O   0  5  0  0  0  0  0  0  0  0  0  0
   -5.8570   -4.4492   -0.1087 C   0  0  0  0  0  0  0  0  0  0  0  0
   -6.0145   -3.0162   -0.1087 C   0  0  0  0  0  0  0  0  0  0  0  0
   -4.8494   -2.2485   -0.1087 O   0  0  0  0  0  0  0  0  0  0  0  0
   -5.2927   -0.9147   -0.1087 C   0  0  0  0  0  0  0  0  0  0  0  0
   -6.6810   -0.8458   -0.1087 C   0  0  0  0  0  0  0  0  0  0  0  0
   -7.1448   -2.2060   -0.1087 C   0  0  0  0  0  0  0  0  0  0  0  0
   -4.2747    0.1358   -0.1087 N   0  3  0  0  0  0  0  0  0  0  0  0
   -3.1161   -0.1638   -0.1087 O   0  0  0  0  0  0  0  0  0  0  0  0
   -7.2913    0.0572   -0.1087 H   0  0  0  0  0  0  0  0  0  0  0  0
   -8.1858   -2.5198   -0.1087 H   0  0  0  0  0  0  0  0  0  0  0  0
   -6.9593   -5.3319   -0.1087 N   0  0  0  0  0  0  0  0  0  0  0  0
   -4.7022   -5.1693   -0.1087 N   0  0  0  0  0  0  0  0  0  0  0  0
   -5.1622   -6.5185   -0.1087 C   0  0  0  0  0  0  0  0  0  0  0  0
   -6.5552   -6.5965   -0.1087 N   0  0  0  0  0  0  0  0  0  0  0  0
   -4.3044   -7.6506   -0.1087 N   0  0  0  0  0  0  0  0  0  0  0  0
   -2.9680   -7.4437   -0.1087 N   0  0  0  0  0  0  0  0  0  0  0  0
   -4.9664   -8.9481   -0.1087 C   0  0  0  0  0  0  0  0  0  0  0  0
   -2.2855   -8.3833   -0.1087 O   0  0  0  0  0  0  0  0  0  0  0  0
   -7.9272   -5.1072   -0.1087 H   0  0  0  0  0  0  0  0  0  0  0  0
   -4.1997   -9.7680   -0.1087 H   0  0  0  0  0  0  0  0  0  0  0  0
   -5.6074   -9.0483    0.8065 H   0  0  0  0  0  0  0  0  0  0  0  0
   -5.6074   -9.0483   -1.0240 H   0  0  0  0  0  0  0  0  0  0  0  0
  1  8  1  0  0  0  0
  2  3  1  0  0  0  0
  2 12  1  0  0  0  0
  2 13  2  0  0  0  0
  3  4  1  0  0  0  0
  3  7  2  0  0  0  0
  4  5  1  0  0  0  0
  5  6  2  0  0  0  0
  5  8  1  0  0  0  0
  6  7  1  0  0  0  0
  6 10  1  0  0  0  0
  7 11  1  0  0  0  0
  8  9  2  0  0  0  0
 12 15  1  0  0  0  0
 12 20  1  0  0  0  0
 13 14  1  0  0  0  0
 14 15  2  0  0  0  0
 14 16  1  0  0  0  0
 16 17  1  0  0  0  0
 16 18  1  0  0  0  0
 17 19  2  0  0  0  0
 18 21  1  0  0  0  0
 18 22  1  0  0  0  0
 18 23  1  0  0  0  0
M  CHG   2   1  -1   8   1
M  END
