./041735-29-9.hin
 OpenBabel10051109203D

 26 27  0  0  0  0  0  0  0  0999 V2000
    0.8081   -0.7708    0.0000 N   0  0  0  0  0  0  0  0  0  0  0  0
   -0.5642    1.0245    0.0000 N   0  0  0  0  0  0  0  0  0  0  0  0
    0.7782    0.5894    0.0000 C   0  0  0  0  0  0  0  0  0  0  0  0
    1.8916    1.5047    0.0000 C   0  0  0  0  0  0  0  0  0  0  0  0
    3.1712    0.9479    0.0000 O   0  0  0  0  0  0  0  0  0  0  0  0
    4.0466    2.0479    0.0000 C   0  0  0  0  0  0  0  0  0  0  0  0
    3.3460    3.2484   -0.0000 C   0  0  0  0  0  0  0  0  0  0  0  0
    1.9531    2.8940   -0.0000 C   0  0  0  0  0  0  0  0  0  0  0  0
    5.4818    1.7668    0.0000 N   0  3  0  0  0  0  0  0  0  0  0  0
    5.8612    0.6314    0.0000 O   0  0  0  0  0  0  0  0  0  0  0  0
    6.2259    2.7112   -0.0000 O   0  5  0  0  0  0  0  0  0  0  0  0
   -0.5719   -1.1295    0.0000 C   0  0  0  0  0  0  0  0  0  0  0  0
   -1.3997   -0.0066    0.0000 N   0  0  0  0  0  0  0  0  0  0  0  0
   -1.0266   -2.4801    0.0000 N   0  0  0  0  0  0  0  0  0  0  0  0
   -0.3858   -4.9368    0.0000 C   0  0  0  0  0  0  0  0  0  0  0  0
    0.0486   -3.4846    0.0000 C   0  0  0  0  0  0  0  0  0  0  0  0
   -2.3598   -2.6736    0.0000 N   0  0  0  0  0  0  0  0  0  0  0  0
   -2.7719   -3.7593    0.0000 O   0  0  0  0  0  0  0  0  0  0  0  0
   -0.9074    1.9575   -0.0000 H   0  0  0  0  0  0  0  0  0  0  0  0
    3.7689    4.2529   -0.0000 H   0  0  0  0  0  0  0  0  0  0  0  0
    1.1216    3.5946   -0.0000 H   0  0  0  0  0  0  0  0  0  0  0  0
    0.5364   -5.5689    0.0000 H   0  0  0  0  0  0  0  0  0  0  0  0
   -0.9889   -5.1868    0.9056 H   0  0  0  0  0  0  0  0  0  0  0  0
   -0.9889   -5.1868   -0.9056 H   0  0  0  0  0  0  0  0  0  0  0  0
    0.6851   -3.3018    0.9142 H   0  0  0  0  0  0  0  0  0  0  0  0
    0.6851   -3.3018   -0.9142 H   0  0  0  0  0  0  0  0  0  0  0  0
  1  3  2  0  0  0  0
  1 12  1  0  0  0  0
  2  3  1  0  0  0  0
  2 13  1  0  0  0  0
  2 19  1  0  0  0  0
  3  4  1  0  0  0  0
  4  5  1  0  0  0  0
  4  8  2  0  0  0  0
  5  6  1  0  0  0  0
  6  7  2  0  0  0  0
  6  9  1  0  0  0  0
  7  8  1  0  0  0  0
  7 20  1  0  0  0  0
  8 21  1  0  0  0  0
  9 10  2  0  0  0  0
  9 11  1  0  0  0  0
 12 13  2  0  0  0  0
 12 14  1  0  0  0  0
 14 16  1  0  0  0  0
 14 17  1  0  0  0  0
 15 16  1  0  0  0  0
 15 22  1  0  0  0  0
 15 23  1  0  0  0  0
 15 24  1  0  0  0  0
 16 25  1  0  0  0  0
 16 26  1  0  0  0  0
 17 18  2  0  0  0  0
M  CHG   2   9   1  11  -1
M  END
