./041735-30-2.hin
  ACCLDraw05131619553D

 27 28  0  0  0  0  0  0  0  0999 V2000
   11.6573  -13.6013    0.3222 N   0  0  0  0  0  0  0  0  0  0  0  0
   10.4921  -12.0391   -0.8215 N   0  0  3  0  0  0  0  0  0  0  0  0
   11.7084  -12.3305   -0.1497 C   0  0  0  0  0  0  0  0  0  0  0  0
   12.7736  -11.3679   -0.0244 C   0  0  0  0  0  0  0  0  0  0  0  0
   14.0457  -11.8715    0.2539 O   0  0  0  0  0  0  0  0  0  0  0  0
   14.8762  -10.7401    0.3254 C   0  0  0  0  0  0  0  0  0  0  0  0
   14.1564   -9.5724    0.1023 C   0  0  0  0  0  0  0  0  0  0  0  0
   12.7967   -9.9823   -0.1247 C   0  0  0  0  0  0  0  0  0  0  0  0
   16.2945  -10.9631    0.6092 N   0  3  0  0  0  0  0  0  0  0  0  0
   16.6979  -12.0808    0.7526 O   0  5  0  0  0  0  0  0  0  0  0  0
   16.9985   -9.9916    0.6816 O   0  0  0  0  0  0  0  0  0  0  0  0
    9.6743  -13.0758   -0.7928 N   0  0  0  0  0  0  0  0  0  0  0  0
   10.3768  -14.0532   -0.0997 C   0  0  0  0  0  0  0  0  0  0  0  0
    9.8455  -15.3617    0.1608 N   0  0  3  0  0  0  0  0  0  0  0  0
    9.0455  -15.4288    1.3373 N   0  3  0  0  0  0  0  0  0  0  0  0
    8.8870  -16.5034    1.8481 O   0  5  0  0  0  0  0  0  0  0  0  0
    8.5015  -14.4272    1.7117 O   0  0  0  0  0  0  0  0  0  0  0  0
   10.8177  -16.4491   -0.0701 C   0  0  3  0  0  0  0  0  0  0  0  0
   10.1601  -17.7507   -0.4928 C   0  0  3  0  0  0  0  0  0  0  0  0
   10.2268  -11.1868   -1.2625 H   0  0  0  0  0  0  0  0  0  0  0  0
   14.5443   -8.5537    0.1023 H   0  0  0  0  0  0  0  0  0  0  0  0
   11.9588   -9.3173   -0.3216 H   0  0  0  0  0  0  0  0  0  0  0  0
   11.4930  -16.0946   -0.9006 H   0  0  0  0  0  0  0  0  0  0  0  0
   11.4478  -16.6263    0.8483 H   0  0  0  0  0  0  0  0  0  0  0  0
   10.9701  -18.4775   -0.7473 H   0  0  0  0  0  0  0  0  0  0  0  0
    9.5393  -18.1787    0.3315 H   0  0  0  0  0  0  0  0  0  0  0  0
    9.5119  -17.6072   -1.3901 H   0  0  0  0  0  0  0  0  0  0  0  0
  1  3  2  0  0  0  0
  1 13  1  0  0  0  0
  2  3  1  0  0  0  0
  2 12  1  0  0  0  0
  2 20  1  0  0  0  0
  3  4  1  0  0  0  0
  4  5  1  0  0  0  0
  4  8  2  0  0  0  0
  5  6  1  0  0  0  0
  6  7  2  0  0  0  0
  6  9  1  0  0  0  0
  7  8  1  0  0  0  0
  7 21  1  0  0  0  0
  8 22  1  0  0  0  0
  9 10  1  0  0  0  0
  9 11  2  0  0  0  0
 12 13  2  0  0  0  0
 13 14  1  0  0  0  0
 14 15  1  0  0  0  0
 14 18  1  0  0  0  0
 15 16  1  0  0  0  0
 15 17  2  0  0  0  0
 18 19  1  0  0  0  0
 18 23  1  0  0  0  0
 18 24  1  0  0  0  0
 19 25  1  0  0  0  0
 19 26  1  0  0  0  0
 19 27  1  0  0  0  0
M  CHG  4   9   1  10  -1  15   1  16  -1
M  END

