./041735-38-0.hin
 OpenBabel10051109203D

 32 33  0  0  0  0  0  0  0  0999 V2000
   -1.5129   -3.3898   -1.8105 C   0  0  0  0  0  0  0  0  0  0  0  0
   -2.7755   -4.1510   -1.5195 C   0  0  0  0  0  0  0  0  0  0  0  0
   -1.3676   -2.7359   -2.8489 O   0  0  0  0  0  0  0  0  0  0  0  0
   -0.4549   -3.3813   -0.8493 N   0  0  0  0  0  0  0  0  0  0  0  0
    0.2304   -2.1455   -0.7139 C   0  0  0  0  0  0  0  0  0  0  0  0
   -0.3276   -0.9456   -0.3637 N   0  0  0  0  0  0  0  0  0  0  0  0
    0.7686   -0.0591   -0.4104 C   0  0  0  0  0  0  0  0  0  0  0  0
    1.9488   -0.6809   -0.7645 N   0  0  0  0  0  0  0  0  0  0  0  0
    1.6271   -1.9553   -0.9698 N   0  0  0  0  0  0  0  0  0  0  0  0
    2.5734   -2.9975   -1.2945 C   0  0  0  0  0  0  0  0  0  0  0  0
    0.6177    1.3425   -0.1079 C   0  0  0  0  0  0  0  0  0  0  0  0
    1.7557    2.1480   -0.1926 O   0  0  0  0  0  0  0  0  0  0  0  0
    1.3134    3.4388    0.1500 C   0  0  0  0  0  0  0  0  0  0  0  0
   -0.0472    3.4429    0.4381 C   0  0  0  0  0  0  0  0  0  0  0  0
   -0.4935    2.0883    0.2706 C   0  0  0  0  0  0  0  0  0  0  0  0
    2.3024    4.5099    0.1476 N   0  3  0  0  0  0  0  0  0  0  0  0
    3.4403    4.2682   -0.1414 O   0  0  0  0  0  0  0  0  0  0  0  0
    1.9243    5.6141    0.4421 O   0  5  0  0  0  0  0  0  0  0  0  0
   -0.1009   -4.4371    0.0160 C   0  0  0  0  0  0  0  0  0  0  0  0
    0.7706   -4.2427    0.8783 O   0  0  0  0  0  0  0  0  0  0  0  0
   -0.7388   -5.7885   -0.1554 C   0  0  0  0  0  0  0  0  0  0  0  0
   -3.6108   -3.6550   -2.0770 H   0  0  0  0  0  0  0  0  0  0  0  0
   -2.6809   -5.2019   -1.8868 H   0  0  0  0  0  0  0  0  0  0  0  0
   -3.0217   -4.1530   -0.4310 H   0  0  0  0  0  0  0  0  0  0  0  0
    3.5881   -2.5598   -1.4913 H   0  0  0  0  0  0  0  0  0  0  0  0
    2.6349   -3.7160   -0.4314 H   0  0  0  0  0  0  0  0  0  0  0  0
    2.2132   -3.5322   -2.2131 H   0  0  0  0  0  0  0  0  0  0  0  0
   -0.6489    4.3025    0.7311 H   0  0  0  0  0  0  0  0  0  0  0  0
   -1.5072    1.7190    0.4126 H   0  0  0  0  0  0  0  0  0  0  0  0
   -1.7617   -5.7860    0.2943 H   0  0  0  0  0  0  0  0  0  0  0  0
   -0.8011   -6.0837   -1.2299 H   0  0  0  0  0  0  0  0  0  0  0  0
   -0.1130   -6.5392    0.3909 H   0  0  0  0  0  0  0  0  0  0  0  0
  1  2  1  0  0  0  0
  1  3  2  0  0  0  0
  1  4  1  0  0  0  0
  2 22  1  0  0  0  0
  2 23  1  0  0  0  0
  2 24  1  0  0  0  0
  4  5  1  0  0  0  0
  4 19  1  0  0  0  0
  5  6  2  0  0  0  0
  5  9  1  0  0  0  0
  6  7  1  0  0  0  0
  7  8  2  0  0  0  0
  7 11  1  0  0  0  0
  8  9  1  0  0  0  0
  9 10  1  0  0  0  0
 10 25  1  0  0  0  0
 10 26  1  0  0  0  0
 10 27  1  0  0  0  0
 11 12  1  0  0  0  0
 11 15  2  0  0  0  0
 12 13  1  0  0  0  0
 13 14  2  0  0  0  0
 13 16  1  0  0  0  0
 14 15  1  0  0  0  0
 14 28  1  0  0  0  0
 15 29  1  0  0  0  0
 16 17  2  0  0  0  0
 16 18  1  0  0  0  0
 19 20  2  0  0  0  0
 19 21  1  0  0  0  0
 21 30  1  0  0  0  0
 21 31  1  0  0  0  0
 21 32  1  0  0  0  0
M  CHG  2  16   1  18  -1
M  END
