./041735-41-5.hin
 OpenBabel10051109203D

 25 26  0  0  0  0  0  0  0  0999 V2000
   -2.2961    0.3339    0.3963 N   0  0  0  0  0  0  0  0  0  0  0  0
   -0.9564   -0.0890    0.2638 C   0  0  0  0  0  0  0  0  0  0  0  0
   -0.8247   -1.4600    0.2640 N   0  0  0  0  0  0  0  0  0  0  0  0
    0.1236    0.8582    0.1389 C   0  0  0  0  0  0  0  0  0  0  0  0
    1.4163    0.3495   -0.0063 O   0  0  0  0  0  0  0  0  0  0  0  0
    2.2442    1.4829   -0.1028 C   0  0  0  0  0  0  0  0  0  0  0  0
    1.5008    2.6555   -0.0213 C   0  0  0  0  0  0  0  0  0  0  0  0
    0.1324    2.2489    0.1346 C   0  0  0  0  0  0  0  0  0  0  0  0
    3.6753    1.2569   -0.2646 N   0  3  0  0  0  0  0  0  0  0  0  0
    4.0989    0.1364   -0.3110 O   0  0  0  0  0  0  0  0  0  0  0  0
    4.3839    2.2264   -0.3465 O   0  5  0  0  0  0  0  0  0  0  0  0
   -2.0629   -1.9302    0.4173 N   0  0  0  0  0  0  0  0  0  0  0  0
   -2.9930   -0.8411    0.4938 C   0  0  0  0  0  0  0  0  0  0  0  0
   -4.3777   -1.0330    0.7305 N   0  0  0  0  0  0  0  0  0  0  0  0
   -5.1322   -1.4788   -0.4169 C   0  0  0  0  0  0  0  0  0  0  0  0
   -2.4073   -3.3316    0.4496 C   0  0  0  0  0  0  0  0  0  0  0  0
    1.8835    3.6744   -0.0668 H   0  0  0  0  0  0  0  0  0  0  0  0
   -0.7304    2.9051    0.2310 H   0  0  0  0  0  0  0  0  0  0  0  0
   -4.7737   -0.2026    1.1378 H   0  0  0  0  0  0  0  0  0  0  0  0
   -6.1881   -1.6527   -0.0780 H   0  0  0  0  0  0  0  0  0  0  0  0
   -5.1401   -0.7421   -1.2651 H   0  0  0  0  0  0  0  0  0  0  0  0
   -4.7068   -2.4476   -0.7904 H   0  0  0  0  0  0  0  0  0  0  0  0
   -3.2255   -3.4837    1.2024 H   0  0  0  0  0  0  0  0  0  0  0  0
   -2.7639   -3.6525   -0.5662 H   0  0  0  0  0  0  0  0  0  0  0  0
   -1.5131   -3.9469    0.7368 H   0  0  0  0  0  0  0  0  0  0  0  0
  1  2  1  0  0  0  0
  1 13  2  0  0  0  0
  2  3  2  0  0  0  0
  2  4  1  0  0  0  0
  3 12  1  0  0  0  0
  4  5  1  0  0  0  0
  4  8  2  0  0  0  0
  5  6  1  0  0  0  0
  6  7  2  0  0  0  0
  6  9  1  0  0  0  0
  7  8  1  0  0  0  0
  7 17  1  0  0  0  0
  8 18  1  0  0  0  0
  9 10  2  0  0  0  0
  9 11  1  0  0  0  0
 12 13  1  0  0  0  0
 12 16  1  0  0  0  0
 13 14  1  0  0  0  0
 14 15  1  0  0  0  0
 14 19  1  0  0  0  0
 15 20  1  0  0  0  0
 15 21  1  0  0  0  0
 15 22  1  0  0  0  0
 16 23  1  0  0  0  0
 16 24  1  0  0  0  0
 16 25  1  0  0  0  0
M  CHG  2   9   1  11  -1
M  END
