./041735-51-7.hin
 OpenBabel10051109203D

 24 25  0  0  0  0  0  0  0  0999 V2000
   -0.0154   -1.3873   -1.2942 N   0  0  0  0  0  0  0  0  0  0  0  0
   -1.1964   -1.9197   -1.3490 N   0  0  0  0  0  0  0  0  0  0  0  0
   -2.1079   -1.0759   -0.7150 C   0  0  0  0  0  0  0  0  0  0  0  0
   -1.4088    0.0519   -0.2283 N   0  0  0  0  0  0  0  0  0  0  0  0
   -0.0805   -0.1807   -0.6149 C   0  0  0  0  0  0  0  0  0  0  0  0
    1.0216    0.7098   -0.3528 C   0  0  0  0  0  0  0  0  0  0  0  0
    2.2273    0.0970   -0.0011 O   0  0  0  0  0  0  0  0  0  0  0  0
    3.1373    1.1534    0.1683 C   0  0  0  0  0  0  0  0  0  0  0  0
    2.5311    2.3817   -0.0663 C   0  0  0  0  0  0  0  0  0  0  0  0
    1.1634    2.0907   -0.4031 C   0  0  0  0  0  0  0  0  0  0  0  0
    4.5098    0.8095    0.5413 N   0  3  0  0  0  0  0  0  0  0  0  0
    4.8075   -0.3383    0.7034 O   0  0  0  0  0  0  0  0  0  0  0  0
    5.2860    1.7182    0.6729 O   0  5  0  0  0  0  0  0  0  0  0  0
   -1.9426    1.1400    0.5277 C   0  0  0  0  0  0  0  0  0  0  0  0
   -3.5172   -1.2380   -0.6180 N   0  0  0  0  0  0  0  0  0  0  0  0
   -4.0538   -1.6099    0.6341 N   0  3  0  0  0  0  0  0  0  0  0  0
   -5.0933   -2.2076    0.6099 O   0  0  0  0  0  0  0  0  0  0  0  0
   -3.5135   -1.2294    1.6356 O   0  5  0  0  0  0  0  0  0  0  0  0
    2.9992    3.3643   -0.0102 H   0  0  0  0  0  0  0  0  0  0  0  0
    0.4064    2.8260   -0.6673 H   0  0  0  0  0  0  0  0  0  0  0  0
   -2.4053    0.7509    1.4781 H   0  0  0  0  0  0  0  0  0  0  0  0
   -1.1183    1.8587    0.7823 H   0  0  0  0  0  0  0  0  0  0  0  0
   -2.7297    1.6666   -0.0776 H   0  0  0  0  0  0  0  0  0  0  0  0
   -3.8797   -1.8358   -1.3556 H   0  0  0  0  0  0  0  0  0  0  0  0
  1  2  1  0  0  0  0
  1  5  2  0  0  0  0
  2  3  2  0  0  0  0
  3  4  1  0  0  0  0
  3 15  1  0  0  0  0
  4  5  1  0  0  0  0
  4 14  1  0  0  0  0
  5  6  1  0  0  0  0
  6  7  1  0  0  0  0
  6 10  2  0  0  0  0
  7  8  1  0  0  0  0
  8  9  2  0  0  0  0
  8 11  1  0  0  0  0
  9 10  1  0  0  0  0
  9 19  1  0  0  0  0
 10 20  1  0  0  0  0
 11 12  2  0  0  0  0
 11 13  1  0  0  0  0
 14 21  1  0  0  0  0
 14 22  1  0  0  0  0
 14 23  1  0  0  0  0
 15 16  1  0  0  0  0
 15 24  1  0  0  0  0
 16 17  1  0  0  0  0
 16 18  2  0  0  0  0
M  CHG  4  11   1  13  -1  16   1  18  -1
M  END
