./041735-57-3.hin
 OpenBabel10051109203D

 24 25  0  0  0  0  0  0  0  0999 V2000
   -0.5329   -1.8406    0.0000 N   0  0  0  0  0  0  0  0  0  0  0  0
   -1.7418   -2.3252    0.0000 N   0  0  0  0  0  0  0  0  0  0  0  0
   -2.6380   -1.2636   -0.0000 C   0  0  0  0  0  0  0  0  0  0  0  0
   -1.9264   -0.0474   -0.0000 N   0  0  0  0  0  0  0  0  0  0  0  0
   -0.5645   -0.4622    0.0000 C   0  0  0  0  0  0  0  0  0  0  0  0
    0.6002    0.3866    0.0000 C   0  0  0  0  0  0  0  0  0  0  0  0
    1.8156   -0.3135    0.0000 O   0  0  0  0  0  0  0  0  0  0  0  0
    2.8176    0.6699    0.0000 C   0  0  0  0  0  0  0  0  0  0  0  0
    2.2651    1.9432   -0.0000 C   0  0  0  0  0  0  0  0  0  0  0  0
    0.8406    1.7581   -0.0000 C   0  0  0  0  0  0  0  0  0  0  0  0
    4.2073    0.2209    0.0000 N   0  3  0  0  0  0  0  0  0  0  0  0
    4.4535   -0.9507    0.0000 O   0  0  0  0  0  0  0  0  0  0  0  0
    5.0591    1.0711    0.0000 O   0  5  0  0  0  0  0  0  0  0  0  0
   -2.4537    1.2750   -0.0000 C   0  0  0  0  0  0  0  0  0  0  0  0
   -3.9839   -1.5051   -0.0000 O   0  0  0  0  0  0  0  0  0  0  0  0
   -4.8787   -0.3971    0.0000 C   0  0  0  0  0  0  0  0  0  0  0  0
    2.8027    2.8909   -0.0000 H   0  0  0  0  0  0  0  0  0  0  0  0
    0.1317    2.5804   -0.0000 H   0  0  0  0  0  0  0  0  0  0  0  0
   -3.0800    1.4419    0.9184 H   0  0  0  0  0  0  0  0  0  0  0  0
   -1.6249    2.0266    0.0000 H   0  0  0  0  0  0  0  0  0  0  0  0
   -3.0800    1.4419   -0.9185 H   0  0  0  0  0  0  0  0  0  0  0  0
   -5.8814   -0.9024   -0.0000 H   0  0  0  0  0  0  0  0  0  0  0  0
   -4.7560    0.2175    0.9229 H   0  0  0  0  0  0  0  0  0  0  0  0
   -4.7560    0.2175   -0.9228 H   0  0  0  0  0  0  0  0  0  0  0  0
  1  2  1  0  0  0  0
  1  5  2  0  0  0  0
  2  3  2  0  0  0  0
  3  4  1  0  0  0  0
  3 15  1  0  0  0  0
  4  5  1  0  0  0  0
  4 14  1  0  0  0  0
  5  6  1  0  0  0  0
  6  7  1  0  0  0  0
  6 10  2  0  0  0  0
  7  8  1  0  0  0  0
  8  9  2  0  0  0  0
  8 11  1  0  0  0  0
  9 10  1  0  0  0  0
  9 17  1  0  0  0  0
 10 18  1  0  0  0  0
 11 12  2  0  0  0  0
 11 13  1  0  0  0  0
 14 19  1  0  0  0  0
 14 20  1  0  0  0  0
 14 21  1  0  0  0  0
 15 16  1  0  0  0  0
 16 22  1  0  0  0  0
 16 23  1  0  0  0  0
 16 24  1  0  0  0  0
M  CHG  2  11   1  13  -1
M  END
