./041834-21-3.hin
 OpenBabel10051109203D

 25 26  0  0  0  0  0  0  0  0999 V2000
   -0.6175   -1.4871   -0.0237 N   0  0  0  0  0  0  0  0  0  0  0  0
   -1.8898   -1.7130   -0.1268 N   0  0  0  0  0  0  0  0  0  0  0  0
   -2.5705   -0.5332   -0.3677 C   0  0  0  0  0  0  0  0  0  0  0  0
   -1.6299    0.4992   -0.4100 N   0  0  0  0  0  0  0  0  0  0  0  0
   -0.3902   -0.1301   -0.1971 C   0  0  0  0  0  0  0  0  0  0  0  0
    0.8806    0.5443   -0.1750 C   0  0  0  0  0  0  0  0  0  0  0  0
    1.9116   -0.1055    0.5081 O   0  0  0  0  0  0  0  0  0  0  0  0
    3.0289    0.7358    0.3698 C   0  0  0  0  0  0  0  0  0  0  0  0
    2.7155    1.8700   -0.3698 C   0  0  0  0  0  0  0  0  0  0  0  0
    1.3275    1.7435   -0.7197 C   0  0  0  0  0  0  0  0  0  0  0  0
    4.2796    0.3050    0.9917 N   0  3  0  0  0  0  0  0  0  0  0  0
    4.3140   -0.7250    1.6008 O   0  0  0  0  0  0  0  0  0  0  0  0
    5.2345    1.0246    0.8606 O   0  5  0  0  0  0  0  0  0  0  0  0
   -1.8490    1.8922   -0.6481 C   0  0  0  0  0  0  0  0  0  0  0  0
   -4.2783   -0.5010   -0.6248 S   0  0  0  0  0  0  0  0  0  0  0  0
   -4.6205    0.9195   -0.8608 O   0  0  0  0  0  0  0  0  0  0  0  0
   -4.8403   -0.8538    0.9723 C   0  0  0  0  0  0  0  0  0  0  0  0
    3.3878    2.6865   -0.6318 H   0  0  0  0  0  0  0  0  0  0  0  0
    0.7560    2.4529   -1.3141 H   0  0  0  0  0  0  0  0  0  0  0  0
   -2.9207    2.1613   -0.4309 H   0  0  0  0  0  0  0  0  0  0  0  0
   -1.1679    2.4929    0.0138 H   0  0  0  0  0  0  0  0  0  0  0  0
   -1.6258    2.1316   -1.7240 H   0  0  0  0  0  0  0  0  0  0  0  0
   -5.9393   -1.0496    0.9197 H   0  0  0  0  0  0  0  0  0  0  0  0
   -4.3491   -1.7677    1.3818 H   0  0  0  0  0  0  0  0  0  0  0  0
   -4.6928   -0.0315    1.7098 H   0  0  0  0  0  0  0  0  0  0  0  0
  1  2  1  0  0  0  0
  1  5  2  0  0  0  0
  2  3  2  0  0  0  0
  3  4  1  0  0  0  0
  3 15  1  0  0  0  0
  4  5  1  0  0  0  0
  4 14  1  0  0  0  0
  5  6  1  0  0  0  0
  6  7  1  0  0  0  0
  6 10  2  0  0  0  0
  7  8  1  0  0  0  0
  8  9  2  0  0  0  0
  8 11  1  0  0  0  0
  9 10  1  0  0  0  0
  9 18  1  0  0  0  0
 10 19  1  0  0  0  0
 11 12  2  0  0  0  0
 11 13  1  0  0  0  0
 14 20  1  0  0  0  0
 14 21  1  0  0  0  0
 14 22  1  0  0  0  0
 15 16  2  0  0  0  0
 15 17  1  0  0  0  0
 17 23  1  0  0  0  0
 17 24  1  0  0  0  0
 17 25  1  0  0  0  0
M  CHG  2  11   1  13  -1
M  END
