./042509-80-8.hin
 OpenBabel10051109203D

 35 35  0  0  0  0  0  0  0  0999 V2000
   -5.7655   -2.4751   -0.9371 C   0  0  0  0  0  0  0  0  0  0  0  0
   -6.1618   -2.0599    1.5001 C   0  0  0  0  0  0  0  0  0  0  0  0
   -5.7755   -1.4219    0.1681 C   0  0  0  0  0  0  0  0  0  0  0  0
   -4.5088   -0.6768    0.2478 N   0  0  0  0  0  0  0  0  0  0  0  0
   -4.4435    0.6479   -0.0058 N   0  0  0  0  0  0  0  0  0  0  0  0
   -3.1098    0.9326    0.1349 C   0  0  0  0  0  0  0  0  0  0  0  0
   -2.3039   -0.1787    0.4712 N   0  0  0  0  0  0  0  0  0  0  0  0
   -3.2181   -1.1868    0.5284 C   0  0  0  0  0  0  0  0  0  0  0  0
   -2.8688   -2.7878    0.8824 Cl  0  0  0  0  0  0  0  0  0  0  0  0
   -2.5232    2.1503   -0.0226 O   0  0  0  0  0  0  0  0  0  0  0  0
   -0.9004    2.0428   -0.2148 P   0  0  0  0  0  0  0  0  0  0  0  0
   -0.7281    3.6229   -0.3599 O   0  0  0  0  0  0  0  0  0  0  0  0
   -0.3358    1.8791    1.2645 O   0  0  0  0  0  0  0  0  0  0  0  0
   -0.1475    0.9984   -1.5817 S   0  0  0  0  0  0  0  0  0  0  0  0
    0.6005    4.0473   -0.6410 C   0  0  0  0  0  0  0  0  0  0  0  0
    0.5746    5.5323   -0.9007 C   0  0  0  0  0  0  0  0  0  0  0  0
    0.5632    0.8193    1.5654 C   0  0  0  0  0  0  0  0  0  0  0  0
    0.1590    0.1895    2.8768 C   0  0  0  0  0  0  0  0  0  0  0  0
   -6.7933   -2.9064   -1.0153 H   0  0  0  0  0  0  0  0  0  0  0  0
   -5.4928   -2.0243   -1.9216 H   0  0  0  0  0  0  0  0  0  0  0  0
   -5.0507   -3.3012   -0.7098 H   0  0  0  0  0  0  0  0  0  0  0  0
   -6.1844   -1.3020    2.3195 H   0  0  0  0  0  0  0  0  0  0  0  0
   -7.1846   -2.4967    1.3915 H   0  0  0  0  0  0  0  0  0  0  0  0
   -5.4567   -2.8768    1.7837 H   0  0  0  0  0  0  0  0  0  0  0  0
   -6.5764   -0.6593   -0.0916 H   0  0  0  0  0  0  0  0  0  0  0  0
    1.2277    3.7958    0.2576 H   0  0  0  0  0  0  0  0  0  0  0  0
    0.9657    3.4727   -1.5396 H   0  0  0  0  0  0  0  0  0  0  0  0
    1.6126    5.8840   -1.1124 H   0  0  0  0  0  0  0  0  0  0  0  0
   -0.0783    5.7613   -1.7768 H   0  0  0  0  0  0  0  0  0  0  0  0
    0.1734    6.0761   -0.0123 H   0  0  0  0  0  0  0  0  0  0  0  0
    0.5565    0.0758    0.7171 H   0  0  0  0  0  0  0  0  0  0  0  0
    1.5887    1.2785    1.6644 H   0  0  0  0  0  0  0  0  0  0  0  0
    0.9317   -0.5614    3.1699 H   0  0  0  0  0  0  0  0  0  0  0  0
    0.0828    0.9685    3.6729 H   0  0  0  0  0  0  0  0  0  0  0  0
   -0.8285   -0.3212    2.7899 H   0  0  0  0  0  0  0  0  0  0  0  0
  1  3  1  0  0  0  0
  1 19  1  0  0  0  0
  1 20  1  0  0  0  0
  1 21  1  0  0  0  0
  2  3  1  0  0  0  0
  2 22  1  0  0  0  0
  2 23  1  0  0  0  0
  2 24  1  0  0  0  0
  3  4  1  0  0  0  0
  3 25  1  0  0  0  0
  4  5  1  0  0  0  0
  4  8  1  0  0  0  0
  5  6  2  0  0  0  0
  6  7  1  0  0  0  0
  6 10  1  0  0  0  0
  7  8  2  0  0  0  0
  8  9  1  0  0  0  0
 10 11  1  0  0  0  0
 11 12  1  0  0  0  0
 11 13  1  0  0  0  0
 11 14  2  0  0  0  0
 12 15  1  0  0  0  0
 13 17  1  0  0  0  0
 15 16  1  0  0  0  0
 15 26  1  0  0  0  0
 15 27  1  0  0  0  0
 16 28  1  0  0  0  0
 16 29  1  0  0  0  0
 16 30  1  0  0  0  0
 17 18  1  0  0  0  0
 17 31  1  0  0  0  0
 17 32  1  0  0  0  0
 18 33  1  0  0  0  0
 18 34  1  0  0  0  0
 18 35  1  0  0  0  0
M  END
