./043029-44-3.hin
 OpenBabel10051109203D

 30 33  0  0  0  0  0  0  0  0999 V2000
   -0.6308   -2.7708   -0.0852 S   0  0  0  0  0  0  0  0  0  0  0  0
    0.9344   -2.1512   -0.0684 C   0  0  0  0  0  0  0  0  0  0  0  0
    0.8797   -0.6929   -0.0752 N   0  0  0  0  0  0  0  0  0  0  0  0
   -0.3376   -0.1489   -0.0925 N   0  0  0  0  0  0  0  0  0  0  0  0
   -1.2605   -1.1216   -0.0997 C   0  0  0  0  0  0  0  0  0  0  0  0
   -2.6981   -0.9048   -0.1181 C   0  0  0  0  0  0  0  0  0  0  0  0
   -3.5540   -2.0194   -0.1229 C   0  0  0  0  0  0  0  0  0  0  0  0
   -4.9337   -1.8418   -0.1402 C   0  0  0  0  0  0  0  0  0  0  0  0
   -5.4747   -0.5545   -0.1528 C   0  0  0  0  0  0  0  0  0  0  0  0
   -4.6301    0.5541   -0.1482 C   0  0  0  0  0  0  0  0  0  0  0  0
   -3.2454    0.3857   -0.1309 C   0  0  0  0  0  0  0  0  0  0  0  0
    2.2362   -0.2888   -0.0600 C   0  0  0  0  0  0  0  0  0  0  0  0
    2.9865   -1.4448   -0.0458 N   0  0  0  0  0  0  0  0  0  0  0  0
    2.2396   -2.5255   -0.0506 N   0  0  0  0  0  0  0  0  0  0  0  0
    2.7418    1.0768   -0.0595 C   0  0  0  0  0  0  0  0  0  0  0  0
   -3.1350   -3.0393   -0.1129 H   0  0  0  0  0  0  0  0  0  0  0  0
   -5.5983   -2.7187   -0.1439 H   0  0  0  0  0  0  0  0  0  0  0  0
   -6.5663   -0.4172   -0.1665 H   0  0  0  0  0  0  0  0  0  0  0  0
   -5.0538    1.5697   -0.1581 H   0  0  0  0  0  0  0  0  0  0  0  0
   -2.5908    1.2709   -0.1274 H   0  0  0  0  0  0  0  0  0  0  0  0
    4.1347    1.2738   -0.0481 C   0  0  0  0  0  0  0  0  0  0  0  0
    4.6585    2.5642   -0.0471 C   0  0  0  0  0  0  0  0  0  0  0  0
    3.8083    3.6699   -0.0574 C   0  0  0  0  0  0  0  0  0  0  0  0
    2.4279    3.4786   -0.0687 C   0  0  0  0  0  0  0  0  0  0  0  0
    1.8918    2.1911   -0.0697 C   0  0  0  0  0  0  0  0  0  0  0  0
    4.8207    0.4118   -0.0399 H   0  0  0  0  0  0  0  0  0  0  0  0
    5.7492    2.7082   -0.0381 H   0  0  0  0  0  0  0  0  0  0  0  0
    4.2254    4.6876   -0.0567 H   0  0  0  0  0  0  0  0  0  0  0  0
    1.7522    4.3468   -0.0769 H   0  0  0  0  0  0  0  0  0  0  0  0
    0.7982    2.0814   -0.0785 H   0  0  0  0  0  0  0  0  0  0  0  0
  1  2  1  0  0  0  0
  1  5  1  0  0  0  0
  2  3  1  0  0  0  0
  2 14  2  0  0  0  0
  3  4  1  0  0  0  0
  3 12  1  0  0  0  0
  4  5  2  0  0  0  0
  5  6  1  0  0  0  0
  6  7  2  0  0  0  0
  6 11  1  0  0  0  0
  7  8  1  0  0  0  0
  7 16  1  0  0  0  0
  8  9  2  0  0  0  0
  8 17  1  0  0  0  0
  9 10  1  0  0  0  0
  9 18  1  0  0  0  0
 10 11  2  0  0  0  0
 10 19  1  0  0  0  0
 11 20  1  0  0  0  0
 12 13  2  0  0  0  0
 12 15  1  0  0  0  0
 13 14  1  0  0  0  0
 15 21  2  0  0  0  0
 15 25  1  0  0  0  0
 21 22  1  0  0  0  0
 21 26  1  0  0  0  0
 22 23  2  0  0  0  0
 22 27  1  0  0  0  0
 23 24  1  0  0  0  0
 23 28  1  0  0  0  0
 24 25  2  0  0  0  0
 24 29  1  0  0  0  0
 25 30  1  0  0  0  0
M  END
