./043121-43-3.hin
 OpenBabel10051109203D

 36 37  0  0  0  0  0  0  0  0999 V2000
   -2.1449   -0.2475   -2.1514 C   0  0  0  0  0  0  0  0  0  0  0  0
   -1.1130    0.8233   -2.4745 C   0  0  0  0  0  0  0  0  0  0  0  0
   -0.9254    0.8942   -3.9864 C   0  0  0  0  0  0  0  0  0  0  0  0
   -1.5806    2.1804   -1.9675 C   0  0  0  0  0  0  0  0  0  0  0  0
    0.2125    0.4693   -1.8276 C   0  0  0  0  0  0  0  0  0  0  0  0
    1.2674    0.3639   -2.4480 O   0  0  0  0  0  0  0  0  0  0  0  0
    0.1733    0.2289   -0.2928 C   0  0  0  0  0  0  0  0  0  0  0  0
    1.2610    0.9037    0.3995 N   0  0  0  0  0  0  0  0  0  0  0  0
    2.6401    0.8232    0.0792 C   0  0  0  0  0  0  0  0  0  0  0  0
    3.3472    1.5067    0.9957 N   0  0  0  0  0  0  0  0  0  0  0  0
    2.3609    1.9895    1.8845 C   0  0  0  0  0  0  0  0  0  0  0  0
    1.1018    1.6210    1.5346 N   0  0  0  0  0  0  0  0  0  0  0  0
    0.2730   -1.1973   -0.1866 O   0  0  0  0  0  0  0  0  0  0  0  0
    0.0317   -1.7773    1.0503 C   0  0  0  0  0  0  0  0  0  0  0  0
    0.4936   -3.1028    1.1562 C   0  0  0  0  0  0  0  0  0  0  0  0
    0.2518   -3.8173    2.3229 C   0  0  0  0  0  0  0  0  0  0  0  0
   -0.4389   -3.2123    3.3804 C   0  0  0  0  0  0  0  0  0  0  0  0
   -0.8873   -1.8940    3.2741 C   0  0  0  0  0  0  0  0  0  0  0  0
   -0.6557   -1.1694    2.1048 C   0  0  0  0  0  0  0  0  0  0  0  0
   -0.7298   -4.0907    4.8061 Cl  0  0  0  0  0  0  0  0  0  0  0  0
   -2.3750   -0.2687   -1.0594 H   0  0  0  0  0  0  0  0  0  0  0  0
   -3.0896   -0.0352   -2.7078 H   0  0  0  0  0  0  0  0  0  0  0  0
   -1.7674   -1.2538   -2.4547 H   0  0  0  0  0  0  0  0  0  0  0  0
   -0.1587    1.6641   -4.2433 H   0  0  0  0  0  0  0  0  0  0  0  0
   -0.5795   -0.0925   -4.3773 H   0  0  0  0  0  0  0  0  0  0  0  0
   -1.8908    1.1628   -4.4768 H   0  0  0  0  0  0  0  0  0  0  0  0
   -0.8041    2.9584   -2.1638 H   0  0  0  0  0  0  0  0  0  0  0  0
   -2.5182    2.4716   -2.5005 H   0  0  0  0  0  0  0  0  0  0  0  0
   -1.7943    2.1527   -0.8725 H   0  0  0  0  0  0  0  0  0  0  0  0
   -0.8115    0.5856    0.1322 H   0  0  0  0  0  0  0  0  0  0  0  0
    3.0086    0.2933   -0.8095 H   0  0  0  0  0  0  0  0  0  0  0  0
    2.6039    2.6000    2.7603 H   0  0  0  0  0  0  0  0  0  0  0  0
    1.0354   -3.5581    0.3145 H   0  0  0  0  0  0  0  0  0  0  0  0
    0.6078   -4.8553    2.4131 H   0  0  0  0  0  0  0  0  0  0  0  0
   -1.4236   -1.4187    4.1100 H   0  0  0  0  0  0  0  0  0  0  0  0
   -1.0044   -0.1288    2.0445 H   0  0  0  0  0  0  0  0  0  0  0  0
  1  2  1  0  0  0  0
  1 21  1  0  0  0  0
  1 22  1  0  0  0  0
  1 23  1  0  0  0  0
  2  3  1  0  0  0  0
  2  4  1  0  0  0  0
  2  5  1  0  0  0  0
  3 24  1  0  0  0  0
  3 25  1  0  0  0  0
  3 26  1  0  0  0  0
  4 27  1  0  0  0  0
  4 28  1  0  0  0  0
  4 29  1  0  0  0  0
  5  6  2  0  0  0  0
  5  7  1  0  0  0  0
  7  8  1  0  0  0  0
  7 13  1  0  0  0  0
  7 30  1  0  0  0  0
  8  9  1  0  0  0  0
  8 12  1  0  0  0  0
  9 10  2  0  0  0  0
  9 31  1  0  0  0  0
 10 11  1  0  0  0  0
 11 12  2  0  0  0  0
 11 32  1  0  0  0  0
 13 14  1  0  0  0  0
 14 15  2  0  0  0  0
 14 19  1  0  0  0  0
 15 16  1  0  0  0  0
 15 33  1  0  0  0  0
 16 17  2  0  0  0  0
 16 34  1  0  0  0  0
 17 18  1  0  0  0  0
 17 20  1  0  0  0  0
 18 19  2  0  0  0  0
 18 35  1  0  0  0  0
 19 36  1  0  0  0  0
M  END
