./051627-14-6.hin
 OpenBabel10051109203D

 49 52  0  0  0  0  0  0  0  0999 V2000
    5.2279   -2.3942    5.0295 N   0  0  0  0  0  0  0  0  0  0  0  0
    5.4514   -3.2541    4.0328 N   0  0  0  0  0  0  0  0  0  0  0  0
    4.6154   -3.1704    2.9931 N   0  0  0  0  0  0  0  0  0  0  0  0
    3.7491   -2.1580    3.3106 C   0  0  0  0  0  0  0  0  0  0  0  0
    4.1568   -1.6650    4.6314 C   0  0  0  0  0  0  0  0  0  0  0  0
    2.5048   -1.6346    2.3150 S   0  0  0  0  0  0  0  0  0  0  0  0
    1.6266   -0.5264    3.3927 C   0  0  0  0  0  0  0  0  0  0  0  0
    0.3987   -0.1114    2.6793 C   0  0  0  0  0  0  0  0  0  0  0  0
   -0.6710   -1.1379    2.6376 C   0  0  0  0  0  0  0  0  0  0  0  0
   -1.8249   -0.9774    1.3038 S   0  0  0  0  0  0  0  0  0  0  0  0
   -2.1267    0.7640    1.4272 C   0  0  0  0  0  0  0  0  0  0  0  0
   -0.9365    1.6103    1.5926 N   0  0  0  0  0  0  0  0  0  0  0  0
    0.2502    1.1354    2.1461 C   0  0  0  0  0  0  0  0  0  0  0  0
    1.3855    2.1079    2.1809 C   0  0  0  0  0  0  0  0  0  0  0  0
    1.8890    2.6556    3.1626 O   0  0  0  0  0  0  0  0  0  0  0  0
    1.9074    2.3791    0.9579 O   0  0  0  0  0  0  0  0  0  0  0  0
    2.6075    3.0495    1.0426 H   0  0  0  0  0  0  0  0  0  0  0  0
   -2.8669    0.9680    2.2401 H   0  0  0  0  0  0  0  0  0  0  0  0
   -2.4694    1.5450    0.0959 C   0  0  0  0  0  0  0  0  0  0  0  0
   -1.1348    2.3315    0.3609 C   0  0  0  0  0  0  0  0  0  0  0  0
   -0.5225    3.2426   -0.1609 O   0  0  0  0  0  0  0  0  0  0  0  0
   -2.5274    0.8132   -1.1110 N   0  0  0  0  0  0  0  0  0  0  0  0
   -3.3705    2.2100    0.2071 H   0  0  0  0  0  0  0  0  0  0  0  0
   -1.8597    0.0863   -1.2347 H   0  0  0  0  0  0  0  0  0  0  0  0
   -3.6107    0.9109   -1.9728 C   0  0  0  0  0  0  0  0  0  0  0  0
   -4.5491    1.6944   -1.7482 O   0  0  0  0  0  0  0  0  0  0  0  0
   -3.6113    0.0543   -3.2623 C   0  0  0  0  0  0  0  0  0  0  0  0
   -3.2930   -1.3306   -2.9966 N   0  0  0  0  0  0  0  0  0  0  0  0
   -3.6911   -1.9213   -3.6991 H   0  0  0  0  0  0  0  0  0  0  0  0
   -2.3051   -1.4859   -2.9567 H   0  0  0  0  0  0  0  0  0  0  0  0
   -4.6914    0.0890   -3.6141 H   0  0  0  0  0  0  0  0  0  0  0  0
   -2.7521    0.7503   -4.2880 C   0  0  0  0  0  0  0  0  0  0  0  0
   -1.3543    0.6767   -4.2386 C   0  0  0  0  0  0  0  0  0  0  0  0
   -0.5735    1.3108   -5.1973 C   0  0  0  0  0  0  0  0  0  0  0  0
   -1.2059    2.0362   -6.2221 C   0  0  0  0  0  0  0  0  0  0  0  0
   -2.6039    2.1248   -6.2797 C   0  0  0  0  0  0  0  0  0  0  0  0
   -3.3673    1.4801   -5.3104 C   0  0  0  0  0  0  0  0  0  0  0  0
   -0.3835    2.6365   -7.1449 O   0  0  0  0  0  0  0  0  0  0  0  0
    6.2006   -3.9176    4.0568 H   0  0  0  0  0  0  0  0  0  0  0  0
    3.7153   -0.8621    5.2190 H   0  0  0  0  0  0  0  0  0  0  0  0
    2.2694    0.3484    3.6680 H   0  0  0  0  0  0  0  0  0  0  0  0
    1.3546   -1.0484    4.3462 H   0  0  0  0  0  0  0  0  0  0  0  0
   -1.2228   -1.1325    3.6132 H   0  0  0  0  0  0  0  0  0  0  0  0
   -0.2176   -2.1579    2.5029 H   0  0  0  0  0  0  0  0  0  0  0  0
   -0.8534    0.1235   -3.4288 H   0  0  0  0  0  0  0  0  0  0  0  0
    0.5242    1.2615   -5.1648 H   0  0  0  0  0  0  0  0  0  0  0  0
   -3.0920    2.7003   -7.0788 H   0  0  0  0  0  0  0  0  0  0  0  0
   -4.4657    1.5553   -5.3491 H   0  0  0  0  0  0  0  0  0  0  0  0
   -0.9391    3.1286   -7.7673 H   0  0  0  0  0  0  0  0  0  0  0  0
  1  2  1  0  0  0  0
  1  5  2  0  0  0  0
  2  3  1  0  0  0  0
  2 39  1  0  0  0  0
  3  4  2  0  0  0  0
  4  5  1  0  0  0  0
  4  6  1  0  0  0  0
  5 40  1  0  0  0  0
  6  7  1  0  0  0  0
  7  8  1  0  0  0  0
  7 41  1  0  0  0  0
  7 42  1  0  0  0  0
  8  9  1  0  0  0  0
  8 13  2  0  0  0  0
  9 10  1  0  0  0  0
  9 43  1  0  0  0  0
  9 44  1  0  0  0  0
 10 11  1  0  0  0  0
 11 12  1  0  0  0  0
 11 18  1  0  0  0  0
 11 19  1  0  0  0  0
 12 13  1  0  0  0  0
 12 20  1  0  0  0  0
 13 14  1  0  0  0  0
 14 15  2  0  0  0  0
 14 16  1  0  0  0  0
 16 17  1  0  0  0  0
 19 20  1  0  0  0  0
 19 22  1  0  0  0  0
 19 23  1  0  0  0  0
 20 21  2  0  0  0  0
 22 24  1  0  0  0  0
 22 25  1  0  0  0  0
 25 26  2  0  0  0  0
 25 27  1  0  0  0  0
 27 28  1  0  0  0  0
 27 31  1  0  0  0  0
 27 32  1  0  0  0  0
 28 29  1  0  0  0  0
 28 30  1  0  0  0  0
 32 33  2  0  0  0  0
 32 37  1  0  0  0  0
 33 34  1  0  0  0  0
 33 45  1  0  0  0  0
 34 35  2  0  0  0  0
 34 46  1  0  0  0  0
 35 36  1  0  0  0  0
 35 38  1  0  0  0  0
 36 37  2  0  0  0  0
 36 47  1  0  0  0  0
 37 48  1  0  0  0  0
 38 49  1  0  0  0  0
M  END
