./053817-16-6.hin
 OpenBabel10051109203D

 10 10  0  0  0  0  0  0  0  0999 V2000
   -0.1889   -2.1690    0.0000 N   0  0  0  0  0  0  0  0  0  0  0  0
    1.1196   -2.4229   -0.0000 N   0  0  0  0  0  0  0  0  0  0  0  0
    1.9337   -1.3674   -0.0000 N   0  0  0  0  0  0  0  0  0  0  0  0
    1.0954   -0.2829   -0.0000 C   0  0  0  0  0  0  0  0  0  0  0  0
   -0.2767   -0.8010    0.0000 C   0  0  0  0  0  0  0  0  0  0  0  0
    1.4864    1.0702   -0.0000 C   0  0  0  0  0  0  0  0  0  0  0  0
    1.7975    2.1901   -0.0000 N   0  0  0  0  0  0  0  0  0  0  0  0
   -1.4645   -0.0441    0.0000 C   0  0  0  0  0  0  0  0  0  0  0  0
   -2.4382    0.5905    0.0000 N   0  0  0  0  0  0  0  0  0  0  0  0
    1.4748   -3.3635    0.0000 H   0  0  0  0  0  0  0  0  0  0  0  0
  1  2  1  0  0  0  0
  1  5  2  0  0  0  0
  2  3  1  0  0  0  0
  2 10  1  0  0  0  0
  3  4  2  0  0  0  0
  4  5  1  0  0  0  0
  4  6  1  0  0  0  0
  5  8  1  0  0  0  0
  6  7  3  0  0  0  0
  8  9  3  0  0  0  0
M  END
