./054028-81-8.hin
 OpenBabel10051109203D

 37 40  0  0  0  0  0  0  0  0999 V2000
   -0.2691    1.1835   -0.2991 N   0  0  0  0  0  0  0  0  0  0  0  0
   -0.3534    2.5895   -0.3954 C   0  0  0  0  0  0  0  0  0  0  0  0
    0.8078    3.4640   -0.7129 C   0  0  0  0  0  0  0  0  0  0  0  0
    1.4795    2.9213   -1.9815 C   0  0  0  0  0  0  0  0  0  0  0  0
    2.1872    1.6723   -1.9125 N   0  0  0  0  0  0  0  0  0  0  0  0
    2.0918    0.7132   -0.9089 C   0  0  0  0  0  0  0  0  0  0  0  0
    0.9126    0.4292   -0.1504 C   0  0  0  0  0  0  0  0  0  0  0  0
    0.9281   -0.6169    0.7977 C   0  0  0  0  0  0  0  0  0  0  0  0
    2.0619   -1.3989    0.9812 C   0  0  0  0  0  0  0  0  0  0  0  0
    3.2179   -1.1482    0.2349 C   0  0  0  0  0  0  0  0  0  0  0  0
    3.2303   -0.1112   -0.6789 C   0  0  0  0  0  0  0  0  0  0  0  0
    2.0445   -2.6579    2.1211 Cl  0  0  0  0  0  0  0  0  0  0  0  0
    1.7544    3.6184    0.4546 C   0  0  0  0  0  0  0  0  0  0  0  0
   -1.6679    2.9533   -0.2803 N   0  0  0  0  0  0  0  0  0  0  0  0
   -2.4063    1.8809   -0.1143 N   0  0  0  0  0  0  0  0  0  0  0  0
   -1.6098    0.7618   -0.1183 C   0  0  0  0  0  0  0  0  0  0  0  0
   -2.0796   -0.6162   -0.0231 C   0  0  0  0  0  0  0  0  0  0  0  0
   -1.5793   -1.6070   -0.8784 C   0  0  0  0  0  0  0  0  0  0  0  0
   -2.0762   -2.9065   -0.8000 C   0  0  0  0  0  0  0  0  0  0  0  0
   -3.0728   -3.2226    0.1239 C   0  0  0  0  0  0  0  0  0  0  0  0
   -3.5769   -2.2353    0.9700 C   0  0  0  0  0  0  0  0  0  0  0  0
   -3.0868   -0.9320    0.8994 C   0  0  0  0  0  0  0  0  0  0  0  0
    0.4063    4.4881   -0.9778 H   0  0  0  0  0  0  0  0  0  0  0  0
    2.2013    3.7112   -2.3449 H   0  0  0  0  0  0  0  0  0  0  0  0
    0.6768    2.8043   -2.7702 H   0  0  0  0  0  0  0  0  0  0  0  0
    3.1098    1.7383   -2.2941 H   0  0  0  0  0  0  0  0  0  0  0  0
    0.0212   -0.8243    1.3941 H   0  0  0  0  0  0  0  0  0  0  0  0
    4.1179   -1.7669    0.3780 H   0  0  0  0  0  0  0  0  0  0  0  0
    4.1554    0.0725   -1.2498 H   0  0  0  0  0  0  0  0  0  0  0  0
    2.1445    2.6306    0.7998 H   0  0  0  0  0  0  0  0  0  0  0  0
    2.6194    4.2598    0.1577 H   0  0  0  0  0  0  0  0  0  0  0  0
    1.2269    4.1045    1.3112 H   0  0  0  0  0  0  0  0  0  0  0  0
   -0.7978   -1.3591   -1.6124 H   0  0  0  0  0  0  0  0  0  0  0  0
   -1.6817   -3.6828   -1.4721 H   0  0  0  0  0  0  0  0  0  0  0  0
   -3.4627   -4.2496    0.1822 H   0  0  0  0  0  0  0  0  0  0  0  0
   -4.3673   -2.4815    1.6945 H   0  0  0  0  0  0  0  0  0  0  0  0
   -3.4948   -0.1499    1.5583 H   0  0  0  0  0  0  0  0  0  0  0  0
  1  2  1  0  0  0  0
  1  7  1  0  0  0  0
  1 16  1  0  0  0  0
  2  3  1  0  0  0  0
  2 14  2  0  0  0  0
  3  4  1  0  0  0  0
  3 13  1  0  0  0  0
  3 23  1  0  0  0  0
  4  5  1  0  0  0  0
  4 24  1  0  0  0  0
  4 25  1  0  0  0  0
  5  6  1  0  0  0  0
  5 26  1  0  0  0  0
  6  7  2  0  0  0  0
  6 11  1  0  0  0  0
  7  8  1  0  0  0  0
  8  9  2  0  0  0  0
  8 27  1  0  0  0  0
  9 10  1  0  0  0  0
  9 12  1  0  0  0  0
 10 11  2  0  0  0  0
 10 28  1  0  0  0  0
 11 29  1  0  0  0  0
 13 30  1  0  0  0  0
 13 31  1  0  0  0  0
 13 32  1  0  0  0  0
 14 15  1  0  0  0  0
 15 16  2  0  0  0  0
 16 17  1  0  0  0  0
 17 18  2  0  0  0  0
 17 22  1  0  0  0  0
 18 19  1  0  0  0  0
 18 33  1  0  0  0  0
 19 20  2  0  0  0  0
 19 34  1  0  0  0  0
 20 21  1  0  0  0  0
 20 35  1  0  0  0  0
 21 22  2  0  0  0  0
 21 36  1  0  0  0  0
 22 37  1  0  0  0  0
M  END
