./054028-83-0.hin
 OpenBabel10051109203D

 41 44  0  0  0  0  0  0  0  0999 V2000
   -0.3985    1.1835   -0.2646 N   0  0  0  0  0  0  0  0  0  0  0  0
   -0.5583    2.5356   -0.6394 C   0  0  0  0  0  0  0  0  0  0  0  0
    0.5779    3.4531   -0.9244 C   0  0  0  0  0  0  0  0  0  0  0  0
    1.5184    2.7361   -1.9047 C   0  0  0  0  0  0  0  0  0  0  0  0
    2.3360    1.6672   -1.4066 N   0  0  0  0  0  0  0  0  0  0  0  0
    2.0695    0.8527   -0.3110 C   0  0  0  0  0  0  0  0  0  0  0  0
    0.7746    0.5805    0.2338 C   0  0  0  0  0  0  0  0  0  0  0  0
    0.6540   -0.3105    1.3230 C   0  0  0  0  0  0  0  0  0  0  0  0
    1.7664   -0.9513    1.8542 C   0  0  0  0  0  0  0  0  0  0  0  0
    3.1800    0.1782    0.2745 C   0  0  0  0  0  0  0  0  0  0  0  0
    1.5809   -2.0248    3.1584 Cl  0  0  0  0  0  0  0  0  0  0  0  0
    1.2636    3.9358    0.3321 C   0  0  0  0  0  0  0  0  0  0  0  0
   -1.8921    2.7796   -0.8274 N   0  0  0  0  0  0  0  0  0  0  0  0
   -2.5755    1.6828   -0.5950 N   0  0  0  0  0  0  0  0  0  0  0  0
   -1.7185    0.6684   -0.2495 C   0  0  0  0  0  0  0  0  0  0  0  0
   -2.1063   -0.7104    0.0272 C   0  0  0  0  0  0  0  0  0  0  0  0
   -1.7155   -1.7718   -0.8198 C   0  0  0  0  0  0  0  0  0  0  0  0
   -2.1417   -3.0807   -0.5524 C   0  0  0  0  0  0  0  0  0  0  0  0
   -2.9626   -3.3263    0.5456 C   0  0  0  0  0  0  0  0  0  0  0  0
   -3.3651   -2.2824    1.3773 C   0  0  0  0  0  0  0  0  0  0  0  0
   -2.9415   -0.9807    1.1163 C   0  0  0  0  0  0  0  0  0  0  0  0
   -0.9157   -1.4246   -1.8875 O   0  0  0  0  0  0  0  0  0  0  0  0
   -0.5286   -2.4822   -2.7586 C   0  0  0  0  0  0  0  0  0  0  0  0
    3.0371   -0.7099    1.3235 C   0  0  0  0  0  0  0  0  0  0  0  0
    0.1671    4.3538   -1.4711 H   0  0  0  0  0  0  0  0  0  0  0  0
    2.2053    3.5137   -2.3508 H   0  0  0  0  0  0  0  0  0  0  0  0
    0.8862    2.3171   -2.7439 H   0  0  0  0  0  0  0  0  0  0  0  0
    3.3133    1.8374   -1.5322 H   0  0  0  0  0  0  0  0  0  0  0  0
   -0.3430   -0.5085    1.7570 H   0  0  0  0  0  0  0  0  0  0  0  0
    4.1925    0.3585   -0.1229 H   0  0  0  0  0  0  0  0  0  0  0  0
    1.6250    3.0822    0.9551 H   0  0  0  0  0  0  0  0  0  0  0  0
    2.1375    4.5777    0.0638 H   0  0  0  0  0  0  0  0  0  0  0  0
    0.5521    4.5396    0.9466 H   0  0  0  0  0  0  0  0  0  0  0  0
   -1.8390   -3.9128   -1.2028 H   0  0  0  0  0  0  0  0  0  0  0  0
   -3.2973   -4.3542    0.7525 H   0  0  0  0  0  0  0  0  0  0  0  0
   -4.0205   -2.4824    2.2371 H   0  0  0  0  0  0  0  0  0  0  0  0
   -3.2695   -0.1509    1.7621 H   0  0  0  0  0  0  0  0  0  0  0  0
    0.0922   -1.9621   -3.5320 H   0  0  0  0  0  0  0  0  0  0  0  0
    0.0797   -3.2420   -2.2106 H   0  0  0  0  0  0  0  0  0  0  0  0
   -1.4250   -2.9569   -3.2260 H   0  0  0  0  0  0  0  0  0  0  0  0
    3.9211   -1.2168    1.7409 H   0  0  0  0  0  0  0  0  0  0  0  0
  1  2  1  0  0  0  0
  1  7  1  0  0  0  0
  1 15  1  0  0  0  0
  2  3  1  0  0  0  0
  2 13  2  0  0  0  0
  3  4  1  0  0  0  0
  3 12  1  0  0  0  0
  3 25  1  0  0  0  0
  4  5  1  0  0  0  0
  4 26  1  0  0  0  0
  4 27  1  0  0  0  0
  5  6  1  0  0  0  0
  5 28  1  0  0  0  0
  6  7  2  0  0  0  0
  6 10  1  0  0  0  0
  7  8  1  0  0  0  0
  8  9  2  0  0  0  0
  8 29  1  0  0  0  0
  9 11  1  0  0  0  0
  9 24  1  0  0  0  0
 10 24  2  0  0  0  0
 10 30  1  0  0  0  0
 12 31  1  0  0  0  0
 12 32  1  0  0  0  0
 12 33  1  0  0  0  0
 13 14  1  0  0  0  0
 14 15  2  0  0  0  0
 15 16  1  0  0  0  0
 16 17  2  0  0  0  0
 16 21  1  0  0  0  0
 17 18  1  0  0  0  0
 17 22  1  0  0  0  0
 18 19  2  0  0  0  0
 18 34  1  0  0  0  0
 19 20  1  0  0  0  0
 19 35  1  0  0  0  0
 20 21  2  0  0  0  0
 20 36  1  0  0  0  0
 21 37  1  0  0  0  0
 22 23  1  0  0  0  0
 23 38  1  0  0  0  0
 23 39  1  0  0  0  0
 23 40  1  0  0  0  0
 24 41  1  0  0  0  0
M  END
