./054028-84-1.hin
 OpenBabel10051109203D

 43 47  0  0  0  0  0  0  0  0999 V2000
    0.2573    1.8164   -0.2719 N   0  0  0  0  0  0  0  0  0  0  0  0
    0.0980    3.1997   -0.5019 C   0  0  0  0  0  0  0  0  0  0  0  0
    1.2258    4.1173   -0.8180 C   0  0  0  0  0  0  0  0  0  0  0  0
    2.0087    3.5293   -1.9989 C   0  0  0  0  0  0  0  0  0  0  0  0
    2.7502    2.3116   -1.8093 N   0  0  0  0  0  0  0  0  0  0  0  0
    2.6697    1.4490   -0.7194 C   0  0  0  0  0  0  0  0  0  0  0  0
    1.4719    1.1572    0.0063 C   0  0  0  0  0  0  0  0  0  0  0  0
    1.5013    0.2074    1.0501 C   0  0  0  0  0  0  0  0  0  0  0  0
    2.6711   -0.4756    1.3611 C   0  0  0  0  0  0  0  0  0  0  0  0
    3.8471   -0.2176    0.6494 C   0  0  0  0  0  0  0  0  0  0  0  0
    3.8436    0.7290   -0.3584 C   0  0  0  0  0  0  0  0  0  0  0  0
    2.6724   -1.6216    2.6142 Cl  0  0  0  0  0  0  0  0  0  0  0  0
    2.0860    4.4162    0.3879 C   0  0  0  0  0  0  0  0  0  0  0  0
   -1.2405    3.4868   -0.5015 N   0  0  0  0  0  0  0  0  0  0  0  0
   -1.9241    2.3878   -0.2835 N   0  0  0  0  0  0  0  0  0  0  0  0
   -1.0650    1.3261   -0.1359 C   0  0  0  0  0  0  0  0  0  0  0  0
   -1.4570   -0.0662    0.0571 C   0  0  0  0  0  0  0  0  0  0  0  0
   -0.8559   -1.0872   -0.6494 C   0  0  0  0  0  0  0  0  0  0  0  0
   -1.2824   -2.4305   -0.4739 C   0  0  0  0  0  0  0  0  0  0  0  0
   -1.1027   -4.7923   -1.0005 C   0  0  0  0  0  0  0  0  0  0  0  0
   -2.1582   -5.0737   -0.0991 C   0  0  0  0  0  0  0  0  0  0  0  0
   -2.7638   -4.0587    0.5998 C   0  0  0  0  0  0  0  0  0  0  0  0
   -2.3400   -2.7124    0.4285 C   0  0  0  0  0  0  0  0  0  0  0  0
   -2.9497   -1.6398    1.1348 C   0  0  0  0  0  0  0  0  0  0  0  0
   -2.5235   -0.3480    0.9561 C   0  0  0  0  0  0  0  0  0  0  0  0
   -0.6735   -3.5014   -1.1853 C   0  0  0  0  0  0  0  0  0  0  0  0
    0.7841    5.0927   -1.1842 H   0  0  0  0  0  0  0  0  0  0  0  0
    2.7266    4.3266   -2.3547 H   0  0  0  0  0  0  0  0  0  0  0  0
    1.2712    3.3366   -2.8351 H   0  0  0  0  0  0  0  0  0  0  0  0
    3.6792    2.3785   -2.1756 H   0  0  0  0  0  0  0  0  0  0  0  0
    0.5781   -0.0053    1.6188 H   0  0  0  0  0  0  0  0  0  0  0  0
    4.7752   -0.7582    0.8936 H   0  0  0  0  0  0  0  0  0  0  0  0
    4.7844    0.9213   -0.8999 H   0  0  0  0  0  0  0  0  0  0  0  0
    2.5180    3.4838    0.8250 H   0  0  0  0  0  0  0  0  0  0  0  0
    2.9239    5.0946    0.0956 H   0  0  0  0  0  0  0  0  0  0  0  0
    1.4758    4.9218    1.1756 H   0  0  0  0  0  0  0  0  0  0  0  0
   -0.0393   -0.8803   -1.3587 H   0  0  0  0  0  0  0  0  0  0  0  0
   -0.6339   -5.6229   -1.5488 H   0  0  0  0  0  0  0  0  0  0  0  0
   -2.4844   -6.1163    0.0313 H   0  0  0  0  0  0  0  0  0  0  0  0
   -3.5853   -4.2672    1.3017 H   0  0  0  0  0  0  0  0  0  0  0  0
   -3.7750   -1.8657    1.8272 H   0  0  0  0  0  0  0  0  0  0  0  0
   -3.0035    0.4844    1.4939 H   0  0  0  0  0  0  0  0  0  0  0  0
    0.1456   -3.2723   -1.8835 H   0  0  0  0  0  0  0  0  0  0  0  0
  1  2  1  0  0  0  0
  1  7  1  0  0  0  0
  1 16  1  0  0  0  0
  2  3  1  0  0  0  0
  2 14  2  0  0  0  0
  3  4  1  0  0  0  0
  3 13  1  0  0  0  0
  3 27  1  0  0  0  0
  4  5  1  0  0  0  0
  4 28  1  0  0  0  0
  4 29  1  0  0  0  0
  5  6  1  0  0  0  0
  5 30  1  0  0  0  0
  6  7  2  0  0  0  0
  6 11  1  0  0  0  0
  7  8  1  0  0  0  0
  8  9  2  0  0  0  0
  8 31  1  0  0  0  0
  9 10  1  0  0  0  0
  9 12  1  0  0  0  0
 10 11  2  0  0  0  0
 10 32  1  0  0  0  0
 11 33  1  0  0  0  0
 13 34  1  0  0  0  0
 13 35  1  0  0  0  0
 13 36  1  0  0  0  0
 14 15  1  0  0  0  0
 15 16  2  0  0  0  0
 16 17  1  0  0  0  0
 17 18  2  0  0  0  0
 17 25  1  0  0  0  0
 18 19  1  0  0  0  0
 18 37  1  0  0  0  0
 19 23  1  0  0  0  0
 19 26  2  0  0  0  0
 20 21  2  0  0  0  0
 20 26  1  0  0  0  0
 20 38  1  0  0  0  0
 21 22  1  0  0  0  0
 21 39  1  0  0  0  0
 22 23  2  0  0  0  0
 22 40  1  0  0  0  0
 23 24  1  0  0  0  0
 24 25  2  0  0  0  0
 24 41  1  0  0  0  0
 25 42  1  0  0  0  0
 26 43  1  0  0  0  0
M  END
