./054028-85-2.hin
 OpenBabel10051109203D

 34 37  0  0  0  0  0  0  0  0999 V2000
   -0.1517    1.1661   -0.1892 N   0  0  0  0  0  0  0  0  0  0  0  0
   -0.2287    2.5754   -0.2274 C   0  0  0  0  0  0  0  0  0  0  0  0
    0.9374    3.4574   -0.5031 C   0  0  0  0  0  0  0  0  0  0  0  0
    1.5942    2.9950   -1.8098 C   0  0  0  0  0  0  0  0  0  0  0  0
    2.2450    1.7129   -1.8498 N   0  0  0  0  0  0  0  0  0  0  0  0
    2.1913    0.7236   -0.8717 C   0  0  0  0  0  0  0  0  0  0  0  0
    1.0333    0.4087   -0.0926 C   0  0  0  0  0  0  0  0  0  0  0  0
    1.0786   -0.6649    0.8225 C   0  0  0  0  0  0  0  0  0  0  0  0
    2.2224   -1.4436    0.9536 C   0  0  0  0  0  0  0  0  0  0  0  0
    3.3394   -0.1000   -0.6981 C   0  0  0  0  0  0  0  0  0  0  0  0
    2.2426   -2.7352    2.0564 Cl  0  0  0  0  0  0  0  0  0  0  0  0
    1.8976    3.5335    0.6613 C   0  0  0  0  0  0  0  0  0  0  0  0
   -1.5414    2.9425   -0.0968 N   0  0  0  0  0  0  0  0  0  0  0  0
   -2.2860    1.8701    0.0187 N   0  0  0  0  0  0  0  0  0  0  0  0
   -1.4940    0.7436   -0.0331 C   0  0  0  0  0  0  0  0  0  0  0  0
   -1.9785   -0.6092   -0.0011 C   0  0  0  0  0  0  0  0  0  0  0  0
   -1.3984   -1.7226   -0.5945 C   0  0  0  0  0  0  0  0  0  0  0  0
   -2.1932   -2.8883   -0.4009 C   0  0  0  0  0  0  0  0  0  0  0  0
   -3.3370   -2.6059    0.3227 C   0  0  0  0  0  0  0  0  0  0  0  0
   -3.4352   -1.0047    0.7374 S   0  0  0  0  0  0  0  0  0  0  0  0
    3.3567   -1.1639    0.1846 C   0  0  0  0  0  0  0  0  0  0  0  0
    0.5419    4.4995   -0.6991 H   0  0  0  0  0  0  0  0  0  0  0  0
    2.3495    3.7839   -2.1018 H   0  0  0  0  0  0  0  0  0  0  0  0
    0.7921    2.9786   -2.6078 H   0  0  0  0  0  0  0  0  0  0  0  0
    3.1396    1.7616   -2.2959 H   0  0  0  0  0  0  0  0  0  0  0  0
    0.1875   -0.8974    1.4327 H   0  0  0  0  0  0  0  0  0  0  0  0
    4.2475    0.1063   -1.2881 H   0  0  0  0  0  0  0  0  0  0  0  0
    2.2932    2.5256    0.9341 H   0  0  0  0  0  0  0  0  0  0  0  0
    2.7584    4.1951    0.3983 H   0  0  0  0  0  0  0  0  0  0  0  0
    1.3800    3.9599    1.5550 H   0  0  0  0  0  0  0  0  0  0  0  0
   -0.4543   -1.7182   -1.1443 H   0  0  0  0  0  0  0  0  0  0  0  0
   -1.9168   -3.8719   -0.7854 H   0  0  0  0  0  0  0  0  0  0  0  0
   -4.0984   -3.3370    0.5936 H   0  0  0  0  0  0  0  0  0  0  0  0
    4.2634   -1.7811    0.2856 H   0  0  0  0  0  0  0  0  0  0  0  0
  1  2  1  0  0  0  0
  1  7  1  0  0  0  0
  1 15  1  0  0  0  0
  2  3  1  0  0  0  0
  2 13  2  0  0  0  0
  3  4  1  0  0  0  0
  3 12  1  0  0  0  0
  3 22  1  0  0  0  0
  4  5  1  0  0  0  0
  4 23  1  0  0  0  0
  4 24  1  0  0  0  0
  5  6  1  0  0  0  0
  5 25  1  0  0  0  0
  6  7  2  0  0  0  0
  6 10  1  0  0  0  0
  7  8  1  0  0  0  0
  8  9  2  0  0  0  0
  8 26  1  0  0  0  0
  9 11  1  0  0  0  0
  9 21  1  0  0  0  0
 10 21  2  0  0  0  0
 10 27  1  0  0  0  0
 12 28  1  0  0  0  0
 12 29  1  0  0  0  0
 12 30  1  0  0  0  0
 13 14  1  0  0  0  0
 14 15  2  0  0  0  0
 15 16  1  0  0  0  0
 16 17  2  0  0  0  0
 16 20  1  0  0  0  0
 17 18  1  0  0  0  0
 17 31  1  0  0  0  0
 18 19  2  0  0  0  0
 18 32  1  0  0  0  0
 19 20  1  0  0  0  0
 19 33  1  0  0  0  0
 21 34  1  0  0  0  0
M  END
