./054028-89-6.hin
 OpenBabel10051109203D

 37 40  0  0  0  0  0  0  0  0999 V2000
   -0.3277    0.8394   -0.1003 N   0  0  0  0  0  0  0  0  0  0  0  0
   -0.4049    2.2468   -0.1723 C   0  0  0  0  0  0  0  0  0  0  0  0
    0.7697    3.1239   -0.4274 C   0  0  0  0  0  0  0  0  0  0  0  0
    1.4864    2.6102   -1.6830 C   0  0  0  0  0  0  0  0  0  0  0  0
    2.1765    1.3505   -1.6251 N   0  0  0  0  0  0  0  0  0  0  0  0
    2.0509    0.3757   -0.6393 C   0  0  0  0  0  0  0  0  0  0  0  0
    0.8462    0.0790    0.0733 C   0  0  0  0  0  0  0  0  0  0  0  0
    0.8338   -0.9874    0.9990 C   0  0  0  0  0  0  0  0  0  0  0  0
    3.1251   -1.5037    0.5106 C   0  0  0  0  0  0  0  0  0  0  0  0
    3.1839   -0.4478   -0.3877 C   0  0  0  0  0  0  0  0  0  0  0  0
    4.5044   -2.4635    0.7647 Cl  0  0  0  0  0  0  0  0  0  0  0  0
    1.6740    3.2476    0.7769 C   0  0  0  0  0  0  0  0  0  0  0  0
   -1.7221    2.6126   -0.0971 N   0  0  0  0  0  0  0  0  0  0  0  0
   -2.4683    1.5397    0.0213 N   0  0  0  0  0  0  0  0  0  0  0  0
   -1.6747    0.4182    0.0239 C   0  0  0  0  0  0  0  0  0  0  0  0
   -2.1510   -0.9599    0.0745 C   0  0  0  0  0  0  0  0  0  0  0  0
   -1.6128   -1.9383   -0.7720 C   0  0  0  0  0  0  0  0  0  0  0  0
   -2.1158   -3.2374   -0.7389 C   0  0  0  0  0  0  0  0  0  0  0  0
   -3.1561   -3.5656    0.1311 C   0  0  0  0  0  0  0  0  0  0  0  0
   -3.6974   -2.5907    0.9686 C   0  0  0  0  0  0  0  0  0  0  0  0
   -3.2017   -1.2879    0.9428 C   0  0  0  0  0  0  0  0  0  0  0  0
    1.9497   -1.7791    1.2158 C   0  0  0  0  0  0  0  0  0  0  0  0
    0.3809    4.1555   -0.6822 H   0  0  0  0  0  0  0  0  0  0  0  0
    2.2305    3.4024   -1.9931 H   0  0  0  0  0  0  0  0  0  0  0  0
    0.7150    2.5261   -2.5065 H   0  0  0  0  0  0  0  0  0  0  0  0
    3.1072    1.4129   -1.9874 H   0  0  0  0  0  0  0  0  0  0  0  0
   -0.0924   -1.2078    1.5590 H   0  0  0  0  0  0  0  0  0  0  0  0
    4.1284   -0.2510   -0.9217 H   0  0  0  0  0  0  0  0  0  0  0  0
    2.0511    2.2509    1.1108 H   0  0  0  0  0  0  0  0  0  0  0  0
    2.5494    3.8949    0.5272 H   0  0  0  0  0  0  0  0  0  0  0  0
    1.1165    3.7131    1.6260 H   0  0  0  0  0  0  0  0  0  0  0  0
   -0.7970   -1.6808   -1.4644 H   0  0  0  0  0  0  0  0  0  0  0  0
   -1.6926   -4.0034   -1.4054 H   0  0  0  0  0  0  0  0  0  0  0  0
   -3.5518   -4.5918    0.1527 H   0  0  0  0  0  0  0  0  0  0  0  0
   -4.5226   -2.8461    1.6499 H   0  0  0  0  0  0  0  0  0  0  0  0
   -3.6395   -0.5154    1.5938 H   0  0  0  0  0  0  0  0  0  0  0  0
    1.9073   -2.6091    1.9364 H   0  0  0  0  0  0  0  0  0  0  0  0
  1  2  1  0  0  0  0
  1  7  1  0  0  0  0
  1 15  1  0  0  0  0
  2  3  1  0  0  0  0
  2 13  2  0  0  0  0
  3  4  1  0  0  0  0
  3 12  1  0  0  0  0
  3 23  1  0  0  0  0
  4  5  1  0  0  0  0
  4 24  1  0  0  0  0
  4 25  1  0  0  0  0
  5  6  1  0  0  0  0
  5 26  1  0  0  0  0
  6  7  2  0  0  0  0
  6 10  1  0  0  0  0
  7  8  1  0  0  0  0
  8 22  2  0  0  0  0
  8 27  1  0  0  0  0
  9 10  2  0  0  0  0
  9 11  1  0  0  0  0
  9 22  1  0  0  0  0
 10 28  1  0  0  0  0
 12 29  1  0  0  0  0
 12 30  1  0  0  0  0
 12 31  1  0  0  0  0
 13 14  1  0  0  0  0
 14 15  2  0  0  0  0
 15 16  1  0  0  0  0
 16 17  2  0  0  0  0
 16 21  1  0  0  0  0
 17 18  1  0  0  0  0
 17 32  1  0  0  0  0
 18 19  2  0  0  0  0
 18 33  1  0  0  0  0
 19 20  1  0  0  0  0
 19 34  1  0  0  0  0
 20 21  2  0  0  0  0
 20 35  1  0  0  0  0
 21 36  1  0  0  0  0
 22 37  1  0  0  0  0
M  END
