./054028-90-9.hin
 OpenBabel10051109203D

 41 44  0  0  0  0  0  0  0  0999 V2000
    0.7836    1.2769   -0.1775 N   0  0  0  0  0  0  0  0  0  0  0  0
    0.7135    2.6837   -0.2697 C   0  0  0  0  0  0  0  0  0  0  0  0
    1.8945    3.5526   -0.5228 C   0  0  0  0  0  0  0  0  0  0  0  0
    2.6157    3.0351   -1.7736 C   0  0  0  0  0  0  0  0  0  0  0  0
    3.2740    1.7573   -1.7235 N   0  0  0  0  0  0  0  0  0  0  0  0
    3.1579    0.8007   -0.7181 C   0  0  0  0  0  0  0  0  0  0  0  0
    1.9555    0.5155    0.0033 C   0  0  0  0  0  0  0  0  0  0  0  0
    1.9449   -0.5376    0.9437 C   0  0  0  0  0  0  0  0  0  0  0  0
    4.2353   -1.0610    0.4564 C   0  0  0  0  0  0  0  0  0  0  0  0
    4.2916   -0.0182   -0.4577 C   0  0  0  0  0  0  0  0  0  0  0  0
    5.6155   -2.0166    0.7211 Cl  0  0  0  0  0  0  0  0  0  0  0  0
    2.7943    3.6749    0.6852 C   0  0  0  0  0  0  0  0  0  0  0  0
   -0.6021    3.0562   -0.2077 N   0  0  0  0  0  0  0  0  0  0  0  0
   -1.3540    1.9879   -0.0807 N   0  0  0  0  0  0  0  0  0  0  0  0
   -0.5657    0.8626   -0.0573 C   0  0  0  0  0  0  0  0  0  0  0  0
   -1.0477   -0.5110    0.0139 C   0  0  0  0  0  0  0  0  0  0  0  0
   -0.4875   -1.5153   -0.7911 C   0  0  0  0  0  0  0  0  0  0  0  0
   -0.9865   -2.8095   -0.7495 C   0  0  0  0  0  0  0  0  0  0  0  0
   -2.6373   -2.1092    0.9061 C   0  0  0  0  0  0  0  0  0  0  0  0
   -2.1267   -0.8134    0.8535 C   0  0  0  0  0  0  0  0  0  0  0  0
    3.0616   -1.3265    1.1682 C   0  0  0  0  0  0  0  0  0  0  0  0
   -2.0664   -3.1057    0.1057 C   0  0  0  0  0  0  0  0  0  0  0  0
   -2.4826   -4.4208    0.0778 O   0  0  0  0  0  0  0  0  0  0  0  0
   -3.6086   -4.7422    0.8872 C   0  0  0  0  0  0  0  0  0  0  0  0
    1.5127    4.5859   -0.7816 H   0  0  0  0  0  0  0  0  0  0  0  0
    3.3811    3.8143   -2.0650 H   0  0  0  0  0  0  0  0  0  0  0  0
    1.8533    2.9772   -2.6077 H   0  0  0  0  0  0  0  0  0  0  0  0
    4.1966    1.7963   -2.1099 H   0  0  0  0  0  0  0  0  0  0  0  0
    1.0197   -0.7503    1.5081 H   0  0  0  0  0  0  0  0  0  0  0  0
    5.2345    0.1708   -0.9972 H   0  0  0  0  0  0  0  0  0  0  0  0
    3.1706    2.6781    1.0191 H   0  0  0  0  0  0  0  0  0  0  0  0
    3.6705    4.3228    0.4395 H   0  0  0  0  0  0  0  0  0  0  0  0
    2.2336    4.1393    1.5327 H   0  0  0  0  0  0  0  0  0  0  0  0
    0.3516   -1.2769   -1.4635 H   0  0  0  0  0  0  0  0  0  0  0  0
   -0.5576   -3.6051   -1.3749 H   0  0  0  0  0  0  0  0  0  0  0  0
   -3.4846   -2.3303    1.5697 H   0  0  0  0  0  0  0  0  0  0  0  0
   -2.5823   -0.0231    1.4713 H   0  0  0  0  0  0  0  0  0  0  0  0
    3.0207   -2.1471    1.8997 H   0  0  0  0  0  0  0  0  0  0  0  0
   -3.7718   -5.8309    0.6834 H   0  0  0  0  0  0  0  0  0  0  0  0
   -3.3773   -4.5737    1.9670 H   0  0  0  0  0  0  0  0  0  0  0  0
   -4.5004   -4.1446    0.5789 H   0  0  0  0  0  0  0  0  0  0  0  0
  1  2  1  0  0  0  0
  1  7  1  0  0  0  0
  1 15  1  0  0  0  0
  2  3  1  0  0  0  0
  2 13  2  0  0  0  0
  3  4  1  0  0  0  0
  3 12  1  0  0  0  0
  3 25  1  0  0  0  0
  4  5  1  0  0  0  0
  4 26  1  0  0  0  0
  4 27  1  0  0  0  0
  5  6  1  0  0  0  0
  5 28  1  0  0  0  0
  6  7  2  0  0  0  0
  6 10  1  0  0  0  0
  7  8  1  0  0  0  0
  8 21  2  0  0  0  0
  8 29  1  0  0  0  0
  9 10  2  0  0  0  0
  9 11  1  0  0  0  0
  9 21  1  0  0  0  0
 10 30  1  0  0  0  0
 12 31  1  0  0  0  0
 12 32  1  0  0  0  0
 12 33  1  0  0  0  0
 13 14  1  0  0  0  0
 14 15  2  0  0  0  0
 15 16  1  0  0  0  0
 16 17  2  0  0  0  0
 16 20  1  0  0  0  0
 17 18  1  0  0  0  0
 17 34  1  0  0  0  0
 18 22  2  0  0  0  0
 18 35  1  0  0  0  0
 19 20  2  0  0  0  0
 19 22  1  0  0  0  0
 19 36  1  0  0  0  0
 20 37  1  0  0  0  0
 21 38  1  0  0  0  0
 22 23  1  0  0  0  0
 23 24  1  0  0  0  0
 24 39  1  0  0  0  0
 24 40  1  0  0  0  0
 24 41  1  0  0  0  0
M  END
