./054028-93-2.hin
 OpenBabel10051109203D

 41 44  0  0  0  0  0  0  0  0999 V2000
    0.4467    0.9234   -0.1610 N   0  0  0  0  0  0  0  0  0  0  0  0
    0.3743    2.3293   -0.2558 C   0  0  0  0  0  0  0  0  0  0  0  0
    1.5538    3.1999   -0.5097 C   0  0  0  0  0  0  0  0  0  0  0  0
    2.2746    2.6838   -1.7615 C   0  0  0  0  0  0  0  0  0  0  0  0
    2.9313    1.4048   -1.7162 N   0  0  0  0  0  0  0  0  0  0  0  0
    2.8208    0.4513   -0.7045 C   0  0  0  0  0  0  0  0  0  0  0  0
    1.6214    0.1646    0.0191 C   0  0  0  0  0  0  0  0  0  0  0  0
    1.6147   -0.8861    0.9633 C   0  0  0  0  0  0  0  0  0  0  0  0
    2.7389   -1.6663    1.1837 C   0  0  0  0  0  0  0  0  0  0  0  0
    3.9110   -1.4046    0.4739 C   0  0  0  0  0  0  0  0  0  0  0  0
    3.9552   -0.3666   -0.4402 C   0  0  0  0  0  0  0  0  0  0  0  0
    2.4550    3.3227    0.6972 C   0  0  0  0  0  0  0  0  0  0  0  0
   -0.9425    2.7001   -0.1962 N   0  0  0  0  0  0  0  0  0  0  0  0
   -1.6923    1.6311   -0.0683 N   0  0  0  0  0  0  0  0  0  0  0  0
   -0.9013    0.5069   -0.0421 C   0  0  0  0  0  0  0  0  0  0  0  0
   -1.3821   -0.8671    0.0308 C   0  0  0  0  0  0  0  0  0  0  0  0
   -0.8070   -1.8764   -0.7572 C   0  0  0  0  0  0  0  0  0  0  0  0
   -1.3035   -3.1715   -0.7132 C   0  0  0  0  0  0  0  0  0  0  0  0
   -2.3956   -3.4639    0.1274 C   0  0  0  0  0  0  0  0  0  0  0  0
   -2.9817   -2.4626    0.9106 C   0  0  0  0  0  0  0  0  0  0  0  0
   -2.4734   -1.1660    0.8558 C   0  0  0  0  0  0  0  0  0  0  0  0
   -2.8077   -4.7807    0.1040 O   0  0  0  0  0  0  0  0  0  0  0  0
   -3.9435   -5.0988    0.9008 C   0  0  0  0  0  0  0  0  0  0  0  0
    1.1704    4.2328   -0.7674 H   0  0  0  0  0  0  0  0  0  0  0  0
    3.0390    3.4642   -2.0523 H   0  0  0  0  0  0  0  0  0  0  0  0
    1.5112    2.6281   -2.5948 H   0  0  0  0  0  0  0  0  0  0  0  0
    3.8578    1.4505   -2.0926 H   0  0  0  0  0  0  0  0  0  0  0  0
    0.6909   -1.0987    1.5290 H   0  0  0  0  0  0  0  0  0  0  0  0
    2.7038   -2.4845    1.9173 H   0  0  0  0  0  0  0  0  0  0  0  0
    4.8075   -2.0200    0.6452 H   0  0  0  0  0  0  0  0  0  0  0  0
    4.8961   -0.1774   -0.9819 H   0  0  0  0  0  0  0  0  0  0  0  0
    2.8327    2.3259    1.0299 H   0  0  0  0  0  0  0  0  0  0  0  0
    3.3302    3.9716    0.4507 H   0  0  0  0  0  0  0  0  0  0  0  0
    1.8949    3.7861    1.5457 H   0  0  0  0  0  0  0  0  0  0  0  0
    0.0431   -1.6414   -1.4169 H   0  0  0  0  0  0  0  0  0  0  0  0
   -0.8629   -3.9708   -1.3255 H   0  0  0  0  0  0  0  0  0  0  0  0
   -3.8387   -2.6805    1.5625 H   0  0  0  0  0  0  0  0  0  0  0  0
   -2.9403   -0.3723    1.4605 H   0  0  0  0  0  0  0  0  0  0  0  0
   -4.1001   -6.1900    0.7052 H   0  0  0  0  0  0  0  0  0  0  0  0
   -3.7278   -4.9192    1.9821 H   0  0  0  0  0  0  0  0  0  0  0  0
   -4.8332   -4.5074    0.5747 H   0  0  0  0  0  0  0  0  0  0  0  0
  1  2  1  0  0  0  0
  1  7  1  0  0  0  0
  1 15  1  0  0  0  0
  2  3  1  0  0  0  0
  2 13  2  0  0  0  0
  3  4  1  0  0  0  0
  3 12  1  0  0  0  0
  3 24  1  0  0  0  0
  4  5  1  0  0  0  0
  4 25  1  0  0  0  0
  4 26  1  0  0  0  0
  5  6  1  0  0  0  0
  5 27  1  0  0  0  0
  6  7  2  0  0  0  0
  6 11  1  0  0  0  0
  7  8  1  0  0  0  0
  8  9  2  0  0  0  0
  8 28  1  0  0  0  0
  9 10  1  0  0  0  0
  9 29  1  0  0  0  0
 10 11  2  0  0  0  0
 10 30  1  0  0  0  0
 11 31  1  0  0  0  0
 12 32  1  0  0  0  0
 12 33  1  0  0  0  0
 12 34  1  0  0  0  0
 13 14  1  0  0  0  0
 14 15  2  0  0  0  0
 15 16  1  0  0  0  0
 16 17  2  0  0  0  0
 16 21  1  0  0  0  0
 17 18  1  0  0  0  0
 17 35  1  0  0  0  0
 18 19  2  0  0  0  0
 18 36  1  0  0  0  0
 19 20  1  0  0  0  0
 19 22  1  0  0  0  0
 20 21  2  0  0  0  0
 20 37  1  0  0  0  0
 21 38  1  0  0  0  0
 22 23  1  0  0  0  0
 23 39  1  0  0  0  0
 23 40  1  0  0  0  0
 23 41  1  0  0  0  0
M  END
