./055179-31-2.hin
 OpenBabel10051109203D

 48 50  0  0  0  0  0  0  0  0999 V2000
    0.1466    3.6103   -3.5783 C   0  0  0  0  0  0  0  0  0  0  0  0
   -0.3799    2.6832   -2.4864 C   0  0  0  0  0  0  0  0  0  0  0  0
   -1.2267    3.4984   -1.5206 C   0  0  0  0  0  0  0  0  0  0  0  0
   -1.2309    1.5995   -3.1250 C   0  0  0  0  0  0  0  0  0  0  0  0
    0.8483    2.0896   -1.7588 C   0  0  0  0  0  0  0  0  0  0  0  0
    0.4370    1.1478   -0.5839 C   0  0  0  0  0  0  0  0  0  0  0  0
    1.4382    1.0777    0.4768 N   0  0  0  0  0  0  0  0  0  0  0  0
    1.1642    1.1803    1.8638 C   0  0  0  0  0  0  0  0  0  0  0  0
    2.3065    1.0153    2.5555 N   0  0  0  0  0  0  0  0  0  0  0  0
    3.2713    0.7966    1.5496 C   0  0  0  0  0  0  0  0  0  0  0  0
    2.7469    0.8276    0.2940 N   0  0  0  0  0  0  0  0  0  0  0  0
    0.2257   -0.1367   -1.1903 O   0  0  0  0  0  0  0  0  0  0  0  0
   -0.4388   -1.0639   -0.3942 C   0  0  0  0  0  0  0  0  0  0  0  0
    0.2338   -2.2509   -0.0761 C   0  0  0  0  0  0  0  0  0  0  0  0
   -0.4453   -3.2467    0.6203 C   0  0  0  0  0  0  0  0  0  0  0  0
   -1.7818   -3.0673    1.0070 C   0  0  0  0  0  0  0  0  0  0  0  0
   -2.4379   -1.8715    0.6784 C   0  0  0  0  0  0  0  0  0  0  0  0
   -1.7745   -0.8674   -0.0205 C   0  0  0  0  0  0  0  0  0  0  0  0
   -2.4836   -4.1156    1.7452 C   0  0  0  0  0  0  0  0  0  0  0  0
   -3.8176   -4.4256    1.4439 C   0  0  0  0  0  0  0  0  0  0  0  0
   -4.4829   -5.4268    2.1484 C   0  0  0  0  0  0  0  0  0  0  0  0
   -3.8271   -6.1264    3.1612 C   0  0  0  0  0  0  0  0  0  0  0  0
   -2.5007   -5.8225    3.4673 C   0  0  0  0  0  0  0  0  0  0  0  0
   -1.8300   -4.8242    2.7637 C   0  0  0  0  0  0  0  0  0  0  0  0
    1.7233    1.4361   -2.6466 O   0  0  0  0  0  0  0  0  0  0  0  0
    0.8632    3.0588   -4.2343 H   0  0  0  0  0  0  0  0  0  0  0  0
   -0.6985    3.9887   -4.2010 H   0  0  0  0  0  0  0  0  0  0  0  0
    0.6769    4.4809   -3.1238 H   0  0  0  0  0  0  0  0  0  0  0  0
   -1.8592    2.8374   -0.8804 H   0  0  0  0  0  0  0  0  0  0  0  0
   -0.5801    4.1283   -0.8638 H   0  0  0  0  0  0  0  0  0  0  0  0
   -1.9096    4.1725   -2.0935 H   0  0  0  0  0  0  0  0  0  0  0  0
   -1.5701    0.8612   -2.3577 H   0  0  0  0  0  0  0  0  0  0  0  0
   -2.1291    2.0537   -3.6081 H   0  0  0  0  0  0  0  0  0  0  0  0
   -0.6457    1.0549   -3.9049 H   0  0  0  0  0  0  0  0  0  0  0  0
    1.4614    2.9448   -1.3475 H   0  0  0  0  0  0  0  0  0  0  0  0
   -0.5154    1.5039   -0.0924 H   0  0  0  0  0  0  0  0  0  0  0  0
    0.1679    1.3743    2.2712 H   0  0  0  0  0  0  0  0  0  0  0  0
    4.3291    0.6245    1.7713 H   0  0  0  0  0  0  0  0  0  0  0  0
    1.2808   -2.3860   -0.3857 H   0  0  0  0  0  0  0  0  0  0  0  0
    0.0722   -4.1868    0.8673 H   0  0  0  0  0  0  0  0  0  0  0  0
   -3.4866   -1.7251    0.9795 H   0  0  0  0  0  0  0  0  0  0  0  0
   -2.2941    0.0643   -0.2868 H   0  0  0  0  0  0  0  0  0  0  0  0
   -4.3368   -3.8809    0.6410 H   0  0  0  0  0  0  0  0  0  0  0  0
   -5.5282   -5.6659    1.9027 H   0  0  0  0  0  0  0  0  0  0  0  0
   -4.3542   -6.9156    3.7167 H   0  0  0  0  0  0  0  0  0  0  0  0
   -1.9809   -6.3711    4.2667 H   0  0  0  0  0  0  0  0  0  0  0  0
   -0.7851   -4.5838    3.0124 H   0  0  0  0  0  0  0  0  0  0  0  0
    1.2776    0.6453   -2.9798 H   0  0  0  0  0  0  0  0  0  0  0  0
  1  2  1  0  0  0  0
  1 26  1  0  0  0  0
  1 27  1  0  0  0  0
  1 28  1  0  0  0  0
  2  3  1  0  0  0  0
  2  4  1  0  0  0  0
  2  5  1  0  0  0  0
  3 29  1  0  0  0  0
  3 30  1  0  0  0  0
  3 31  1  0  0  0  0
  4 32  1  0  0  0  0
  4 33  1  0  0  0  0
  4 34  1  0  0  0  0
  5  6  1  0  0  0  0
  5 25  1  0  0  0  0
  5 35  1  0  0  0  0
  6  7  1  0  0  0  0
  6 12  1  0  0  0  0
  6 36  1  0  0  0  0
  7  8  1  0  0  0  0
  7 11  1  0  0  0  0
  8  9  2  0  0  0  0
  8 37  1  0  0  0  0
  9 10  1  0  0  0  0
 10 11  2  0  0  0  0
 10 38  1  0  0  0  0
 12 13  1  0  0  0  0
 13 14  2  0  0  0  0
 13 18  1  0  0  0  0
 14 15  1  0  0  0  0
 14 39  1  0  0  0  0
 15 16  2  0  0  0  0
 15 40  1  0  0  0  0
 16 17  1  0  0  0  0
 16 19  1  0  0  0  0
 17 18  2  0  0  0  0
 17 41  1  0  0  0  0
 18 42  1  0  0  0  0
 19 20  2  0  0  0  0
 19 24  1  0  0  0  0
 20 21  1  0  0  0  0
 20 43  1  0  0  0  0
 21 22  2  0  0  0  0
 21 44  1  0  0  0  0
 22 23  1  0  0  0  0
 22 45  1  0  0  0  0
 23 24  2  0  0  0  0
 23 46  1  0  0  0  0
 24 47  1  0  0  0  0
 25 48  1  0  0  0  0
M  END
