./055219-65-3.hin
 OpenBabel10051109203D

 38 39  0  0  0  0  0  0  0  0999 V2000
    0.6582   -2.1313   -0.5208 O   0  0  0  0  0  0  0  0  0  0  0  0
   -0.5236   -2.6477   -1.0379 C   0  0  0  0  0  0  0  0  0  0  0  0
   -0.4779   -4.0318   -1.2884 C   0  0  0  0  0  0  0  0  0  0  0  0
   -1.6095   -4.6737   -1.7759 C   0  0  0  0  0  0  0  0  0  0  0  0
   -2.7776   -3.9398   -2.0184 C   0  0  0  0  0  0  0  0  0  0  0  0
   -4.1566   -4.7297   -2.6192 Cl  0  0  0  0  0  0  0  0  0  0  0  0
   -2.8176   -2.5661   -1.7695 C   0  0  0  0  0  0  0  0  0  0  0  0
   -1.6888   -1.9123   -1.2751 C   0  0  0  0  0  0  0  0  0  0  0  0
    0.8312   -0.7142   -0.5766 C   0  0  0  0  0  0  0  0  0  0  0  0
    0.2710   -0.1008    0.6272 N   0  0  0  0  0  0  0  0  0  0  0  0
    0.0038   -0.7326    1.8625 C   0  0  0  0  0  0  0  0  0  0  0  0
   -0.5060    0.1714    2.7241 N   0  0  0  0  0  0  0  0  0  0  0  0
   -0.5306    1.3628    1.9748 C   0  0  0  0  0  0  0  0  0  0  0  0
   -0.0623    1.2030    0.7057 N   0  0  0  0  0  0  0  0  0  0  0  0
    2.3557   -0.4680   -0.8275 C   0  0  0  0  0  0  0  0  0  0  0  0
    2.5001    0.8618   -1.2773 O   0  0  0  0  0  0  0  0  0  0  0  0
    3.3784   -0.8425    0.2610 C   0  0  0  0  0  0  0  0  0  0  0  0
    4.7559   -0.7998   -0.4035 C   0  0  0  0  0  0  0  0  0  0  0  0
    3.3959    0.1149    1.4408 C   0  0  0  0  0  0  0  0  0  0  0  0
    3.1190   -2.2560    0.7552 C   0  0  0  0  0  0  0  0  0  0  0  0
    0.4494   -4.5893   -1.0922 H   0  0  0  0  0  0  0  0  0  0  0  0
   -1.5830   -5.7569   -1.9720 H   0  0  0  0  0  0  0  0  0  0  0  0
   -3.7385   -1.9922   -1.9577 H   0  0  0  0  0  0  0  0  0  0  0  0
   -1.7422   -0.8324   -1.0754 H   0  0  0  0  0  0  0  0  0  0  0  0
    0.2914   -0.2739   -1.4736 H   0  0  0  0  0  0  0  0  0  0  0  0
    0.1813   -1.7989    2.0412 H   0  0  0  0  0  0  0  0  0  0  0  0
   -0.8934    2.3129    2.3800 H   0  0  0  0  0  0  0  0  0  0  0  0
    2.5926   -1.0916   -1.7442 H   0  0  0  0  0  0  0  0  0  0  0  0
    2.3532    1.4551   -0.5292 H   0  0  0  0  0  0  0  0  0  0  0  0
    5.5534   -0.9937    0.3525 H   0  0  0  0  0  0  0  0  0  0  0  0
    4.8274   -1.5758   -1.2025 H   0  0  0  0  0  0  0  0  0  0  0  0
    4.9245    0.2046   -0.8615 H   0  0  0  0  0  0  0  0  0  0  0  0
    4.2460   -0.1478    2.1184 H   0  0  0  0  0  0  0  0  0  0  0  0
    3.5426    1.1676    1.0992 H   0  0  0  0  0  0  0  0  0  0  0  0
    2.4565    0.0511    2.0377 H   0  0  0  0  0  0  0  0  0  0  0  0
    3.9591   -2.5917    1.4093 H   0  0  0  0  0  0  0  0  0  0  0  0
    2.1702   -2.2986    1.3429 H   0  0  0  0  0  0  0  0  0  0  0  0
    3.0281   -2.9594   -0.1075 H   0  0  0  0  0  0  0  0  0  0  0  0
  1  2  1  0  0  0  0
  1  9  1  0  0  0  0
  2  3  2  0  0  0  0
  2  8  1  0  0  0  0
  3  4  1  0  0  0  0
  3 21  1  0  0  0  0
  4  5  2  0  0  0  0
  4 22  1  0  0  0  0
  5  6  1  0  0  0  0
  5  7  1  0  0  0  0
  7  8  2  0  0  0  0
  7 23  1  0  0  0  0
  8 24  1  0  0  0  0
  9 10  1  0  0  0  0
  9 15  1  0  0  0  0
  9 25  1  0  0  0  0
 10 11  1  0  0  0  0
 10 14  1  0  0  0  0
 11 12  2  0  0  0  0
 11 26  1  0  0  0  0
 12 13  1  0  0  0  0
 13 14  2  0  0  0  0
 13 27  1  0  0  0  0
 15 16  1  0  0  0  0
 15 17  1  0  0  0  0
 15 28  1  0  0  0  0
 16 29  1  0  0  0  0
 17 18  1  0  0  0  0
 17 19  1  0  0  0  0
 17 20  1  0  0  0  0
 18 30  1  0  0  0  0
 18 31  1  0  0  0  0
 18 32  1  0  0  0  0
 19 33  1  0  0  0  0
 19 34  1  0  0  0  0
 19 35  1  0  0  0  0
 20 36  1  0  0  0  0
 20 37  1  0  0  0  0
 20 38  1  0  0  0  0
M  END
