./055375-40-1.hin
 OpenBabel10051109203D

 29 29  0  0  0  0  0  0  0  0999 V2000
   -2.7488   -4.4321    0.0008 C   0  0  0  0  0  0  0  0  0  0  0  0
   -1.1516   -3.9596    0.1277 S   0  0  0  0  0  0  0  0  0  0  0  0
   -0.7181   -3.9792    1.4304 O   0  0  0  0  0  0  0  0  0  0  0  0
   -0.3957   -4.4559   -0.9047 O   0  0  0  0  0  0  0  0  0  0  0  0
   -1.4467   -2.3092   -0.2484 O   0  0  0  0  0  0  0  0  0  0  0  0
   -0.4704   -1.3768   -0.1477 C   0  0  0  0  0  0  0  0  0  0  0  0
    0.8717   -1.6746   -0.0153 N   0  0  0  0  0  0  0  0  0  0  0  0
    1.4648   -0.4684    0.0073 N   0  0  0  0  0  0  0  0  0  0  0  0
    0.4967    0.5591   -0.0863 C   0  0  0  0  0  0  0  0  0  0  0  0
   -0.7484    0.0066   -0.1941 N   0  0  0  0  0  0  0  0  0  0  0  0
    0.8937    2.2010   -0.0748 S   0  0  0  0  0  0  0  0  0  0  0  0
   -0.6563    3.0047   -0.4250 C   0  0  0  0  0  0  0  0  0  0  0  0
   -0.3242    4.4358   -0.5391 C   0  0  0  0  0  0  0  0  0  0  0  0
   -0.7024    5.3527    0.3594 C   0  0  0  0  0  0  0  0  0  0  0  0
   -0.3917    6.7900    0.2429 C   0  0  0  0  0  0  0  0  0  0  0  0
    2.8743   -0.2602    0.2278 C   0  0  0  0  0  0  0  0  0  0  0  0
   -3.4311   -3.5903   -0.3002 H   0  0  0  0  0  0  0  0  0  0  0  0
   -2.9063   -5.2324   -0.7670 H   0  0  0  0  0  0  0  0  0  0  0  0
   -3.1650   -4.8228    0.9646 H   0  0  0  0  0  0  0  0  0  0  0  0
   -1.0899    2.6169   -1.3807 H   0  0  0  0  0  0  0  0  0  0  0  0
   -1.3926    2.7977    0.3901 H   0  0  0  0  0  0  0  0  0  0  0  0
    0.2535    4.7186   -1.4358 H   0  0  0  0  0  0  0  0  0  0  0  0
   -1.2844    5.0673    1.2529 H   0  0  0  0  0  0  0  0  0  0  0  0
   -1.3399    7.3838    0.2058 H   0  0  0  0  0  0  0  0  0  0  0  0
    0.1942    7.1269    1.1353 H   0  0  0  0  0  0  0  0  0  0  0  0
    0.2028    7.0179   -0.6756 H   0  0  0  0  0  0  0  0  0  0  0  0
    3.4685   -1.0424   -0.3152 H   0  0  0  0  0  0  0  0  0  0  0  0
    3.1424    0.7592   -0.1607 H   0  0  0  0  0  0  0  0  0  0  0  0
    3.1043   -0.3190    1.3258 H   0  0  0  0  0  0  0  0  0  0  0  0
  1  2  1  0  0  0  0
  1 17  1  0  0  0  0
  1 18  1  0  0  0  0
  1 19  1  0  0  0  0
  2  3  2  0  0  0  0
  2  4  2  0  0  0  0
  2  5  1  0  0  0  0
  5  6  1  0  0  0  0
  6  7  2  0  0  0  0
  6 10  1  0  0  0  0
  7  8  1  0  0  0  0
  8  9  1  0  0  0  0
  8 16  1  0  0  0  0
  9 10  2  0  0  0  0
  9 11  1  0  0  0  0
 11 12  1  0  0  0  0
 12 13  1  0  0  0  0
 12 20  1  0  0  0  0
 12 21  1  0  0  0  0
 13 14  2  0  0  0  0
 13 22  1  0  0  0  0
 14 15  1  0  0  0  0
 14 23  1  0  0  0  0
 15 24  1  0  0  0  0
 15 25  1  0  0  0  0
 15 26  1  0  0  0  0
 16 27  1  0  0  0  0
 16 28  1  0  0  0  0
 16 29  1  0  0  0  0
M  END
