./055425-38-2.hin
 OpenBabel10051109203D

 34 37  0  0  0  0  0  0  0  0999 V2000
    2.9450   -2.9011    0.6117 N   0  0  0  0  0  0  0  0  0  0  0  0
    3.9013   -3.8013    0.3922 N   0  0  0  0  0  0  0  0  0  0  0  0
    3.2658   -4.8616   -0.1916 C   0  0  0  0  0  0  0  0  0  0  0  0
    1.8938   -4.6567   -0.3749 N   0  0  0  0  0  0  0  0  0  0  0  0
    1.7000   -3.3971    0.1458 C   0  0  0  0  0  0  0  0  0  0  0  0
    0.4525   -2.7242    0.3158 N   0  0  0  0  0  0  0  0  0  0  0  0
    0.4763   -1.3993    0.1609 N   0  0  0  0  0  0  0  0  0  0  0  0
   -1.7766    1.3531   -0.2193 N   0  0  0  0  0  0  0  0  0  0  0  0
   -0.5742    0.8385   -0.0590 C   0  0  0  0  0  0  0  0  0  0  0  0
   -0.6028   -0.6912   -0.0048 C   0  0  0  0  0  0  0  0  0  0  0  0
   -2.0416   -1.0067   -0.1595 C   0  0  0  0  0  0  0  0  0  0  0  0
   -2.7708   -2.1770   -0.1851 C   0  0  0  0  0  0  0  0  0  0  0  0
   -4.1634   -2.0968   -0.3583 C   0  0  0  0  0  0  0  0  0  0  0  0
   -4.8025   -0.8704   -0.4936 C   0  0  0  0  0  0  0  0  0  0  0  0
   -4.0833    0.3339   -0.4597 C   0  0  0  0  0  0  0  0  0  0  0  0
   -2.7070    0.2672   -0.2908 C   0  0  0  0  0  0  0  0  0  0  0  0
    0.6635    1.6011    0.0725 C   0  0  0  0  0  0  0  0  0  0  0  0
    0.7269    2.6680    0.9799 C   0  0  0  0  0  0  0  0  0  0  0  0
    1.9076    3.3962    1.1155 C   0  0  0  0  0  0  0  0  0  0  0  0
    3.0231    3.0741    0.3426 C   0  0  0  0  0  0  0  0  0  0  0  0
    2.9572    2.0218   -0.5706 C   0  0  0  0  0  0  0  0  0  0  0  0
    1.7821    1.2848   -0.7092 C   0  0  0  0  0  0  0  0  0  0  0  0
    3.7681   -5.7861   -0.4952 H   0  0  0  0  0  0  0  0  0  0  0  0
   -0.3094   -3.2454   -0.1004 H   0  0  0  0  0  0  0  0  0  0  0  0
   -2.3094   -3.1670   -0.0672 H   0  0  0  0  0  0  0  0  0  0  0  0
   -4.7518   -3.0266   -0.3833 H   0  0  0  0  0  0  0  0  0  0  0  0
   -5.8948   -0.8354   -0.6275 H   0  0  0  0  0  0  0  0  0  0  0  0
   -4.5988    1.2998   -0.5628 H   0  0  0  0  0  0  0  0  0  0  0  0
   -0.1564    2.9297    1.5825 H   0  0  0  0  0  0  0  0  0  0  0  0
    1.9557    4.2298    1.8317 H   0  0  0  0  0  0  0  0  0  0  0  0
    3.9529    3.6520    0.4500 H   0  0  0  0  0  0  0  0  0  0  0  0
    3.8330    1.7731   -1.1881 H   0  0  0  0  0  0  0  0  0  0  0  0
    1.7336    0.4632   -1.4392 H   0  0  0  0  0  0  0  0  0  0  0  0
    3.1395   -2.0066    0.9998 H   0  0  0  0  0  0  0  0  0  0  0  0
  1  2  1  0  0  0  0
  1  5  1  0  0  0  0
  1 34  1  0  0  0  0
  2  3  2  0  0  0  0
  3  4  1  0  0  0  0
  3 23  1  0  0  0  0
  4  5  2  0  0  0  0
  5  6  1  0  0  0  0
  6  7  1  0  0  0  0
  6 24  1  0  0  0  0
  7 10  2  0  0  0  0
  8  9  2  0  0  0  0
  8 16  1  0  0  0  0
  9 10  1  0  0  0  0
  9 17  1  0  0  0  0
 10 11  1  0  0  0  0
 11 12  2  0  0  0  0
 11 16  1  0  0  0  0
 12 13  1  0  0  0  0
 12 25  1  0  0  0  0
 13 14  2  0  0  0  0
 13 26  1  0  0  0  0
 14 15  1  0  0  0  0
 14 27  1  0  0  0  0
 15 16  2  0  0  0  0
 15 28  1  0  0  0  0
 17 18  2  0  0  0  0
 17 22  1  0  0  0  0
 18 19  1  0  0  0  0
 18 29  1  0  0  0  0
 19 20  2  0  0  0  0
 19 30  1  0  0  0  0
 20 21  1  0  0  0  0
 20 31  1  0  0  0  0
 21 22  2  0  0  0  0
 21 32  1  0  0  0  0
 22 33  1  0  0  0  0
M  END
