./056383-06-3.hin
 OpenBabel10051109203D

 29 31  0  0  0  0  0  0  0  0999 V2000
   -2.0932   -1.4477   -0.0773 C   0  0  0  0  0  0  0  0  0  0  0  0
   -1.2125   -1.8485    0.9880 C   0  0  0  0  0  0  0  0  0  0  0  0
    0.0782   -1.4017    0.9397 C   0  0  0  0  0  0  0  0  0  0  0  0
    0.5249   -0.5488   -0.1663 C   0  0  0  0  0  0  0  0  0  0  0  0
   -0.3040   -0.1526   -1.1587 N   0  0  0  0  0  0  0  0  0  0  0  0
   -1.5480   -0.6068   -1.1173 N   0  0  0  0  0  0  0  0  0  0  0  0
   -2.6307   -0.4046   -1.9950 C   0  0  0  0  0  0  0  0  0  0  0  0
   -3.7106   -1.0760   -1.4952 N   0  0  0  0  0  0  0  0  0  0  0  0
   -3.4109   -1.6897   -0.3771 N   0  0  0  0  0  0  0  0  0  0  0  0
    1.9120   -0.2059   -0.1773 N   0  0  0  0  0  0  0  0  0  0  0  0
    2.3198    0.6440    0.9393 C   0  0  0  0  0  0  0  0  0  0  0  0
    2.2038    2.1493    0.6653 C   0  0  0  0  0  0  0  0  0  0  0  0
    2.8519    2.5110   -0.5482 O   0  0  0  0  0  0  0  0  0  0  0  0
    2.3686    1.7743   -1.6686 C   0  0  0  0  0  0  0  0  0  0  0  0
    2.4856    0.2645   -1.4323 C   0  0  0  0  0  0  0  0  0  0  0  0
   -1.7420   -2.7167    2.0579 C   0  0  0  0  0  0  0  0  0  0  0  0
    0.8078   -1.6907    1.7102 H   0  0  0  0  0  0  0  0  0  0  0  0
   -2.5760    0.1948   -2.9071 H   0  0  0  0  0  0  0  0  0  0  0  0
    3.4009    0.3920    1.1357 H   0  0  0  0  0  0  0  0  0  0  0  0
    1.7221    0.3927    1.8571 H   0  0  0  0  0  0  0  0  0  0  0  0
    2.7482    2.7302    1.4552 H   0  0  0  0  0  0  0  0  0  0  0  0
    1.1284    2.4669    0.6265 H   0  0  0  0  0  0  0  0  0  0  0  0
    3.0360    2.0888   -2.5132 H   0  0  0  0  0  0  0  0  0  0  0  0
    1.3090    2.0708   -1.8846 H   0  0  0  0  0  0  0  0  0  0  0  0
    3.5800   -0.0061   -1.3748 H   0  0  0  0  0  0  0  0  0  0  0  0
    2.0357   -0.2856   -2.3020 H   0  0  0  0  0  0  0  0  0  0  0  0
   -2.1145   -3.6780    1.6204 H   0  0  0  0  0  0  0  0  0  0  0  0
   -0.9556   -2.9467    2.8177 H   0  0  0  0  0  0  0  0  0  0  0  0
   -2.6035   -2.2146    2.5677 H   0  0  0  0  0  0  0  0  0  0  0  0
  1  2  1  0  0  0  0
  1  6  1  0  0  0  0
  1  9  2  0  0  0  0
  2  3  2  0  0  0  0
  2 16  1  0  0  0  0
  3  4  1  0  0  0  0
  3 17  1  0  0  0  0
  4  5  2  0  0  0  0
  4 10  1  0  0  0  0
  5  6  1  0  0  0  0
  6  7  1  0  0  0  0
  7  8  2  0  0  0  0
  7 18  1  0  0  0  0
  8  9  1  0  0  0  0
 10 11  1  0  0  0  0
 10 15  1  0  0  0  0
 11 12  1  0  0  0  0
 11 19  1  0  0  0  0
 11 20  1  0  0  0  0
 12 13  1  0  0  0  0
 12 21  1  0  0  0  0
 12 22  1  0  0  0  0
 13 14  1  0  0  0  0
 14 15  1  0  0  0  0
 14 23  1  0  0  0  0
 14 24  1  0  0  0  0
 15 25  1  0  0  0  0
 15 26  1  0  0  0  0
 16 27  1  0  0  0  0
 16 28  1  0  0  0  0
 16 29  1  0  0  0  0
M  END
