./056383-11-0.hin
 OpenBabel10051109203D

 29 31  0  0  0  0  0  0  0  0999 V2000
   -1.6973   -1.8102    0.9200 C   0  0  0  0  0  0  0  0  0  0  0  0
   -0.6663   -2.5265    1.6109 C   0  0  0  0  0  0  0  0  0  0  0  0
    0.6220   -2.1101    1.4537 C   0  0  0  0  0  0  0  0  0  0  0  0
    0.9130   -0.9600    0.5956 C   0  0  0  0  0  0  0  0  0  0  0  0
   -0.0476   -0.2776   -0.0593 N   0  0  0  0  0  0  0  0  0  0  0  0
   -1.2938   -0.6885    0.0988 N   0  0  0  0  0  0  0  0  0  0  0  0
   -2.5110   -0.1963   -0.4413 C   0  0  0  0  0  0  0  0  0  0  0  0
   -3.5211   -0.9886    0.0451 N   0  0  0  0  0  0  0  0  0  0  0  0
   -3.0605   -1.9261    0.8342 N   0  0  0  0  0  0  0  0  0  0  0  0
   -2.6084    0.9608   -1.3545 C   0  0  0  0  0  0  0  0  0  0  0  0
    2.3055   -0.5942    0.4882 N   0  0  0  0  0  0  0  0  0  0  0  0
    2.6170    0.7061    1.0749 C   0  0  0  0  0  0  0  0  0  0  0  0
    2.4689    1.9077    0.1359 C   0  0  0  0  0  0  0  0  0  0  0  0
    3.1414    1.6885   -1.0995 O   0  0  0  0  0  0  0  0  0  0  0  0
    2.6994    0.5067   -1.7587 C   0  0  0  0  0  0  0  0  0  0  0  0
    2.8483   -0.7258   -0.8607 C   0  0  0  0  0  0  0  0  0  0  0  0
   -0.9529   -3.3823    2.2397 H   0  0  0  0  0  0  0  0  0  0  0  0
    1.4605   -2.6154    1.9549 H   0  0  0  0  0  0  0  0  0  0  0  0
   -2.0263    0.7624   -2.2893 H   0  0  0  0  0  0  0  0  0  0  0  0
   -3.6781    1.1458   -1.6240 H   0  0  0  0  0  0  0  0  0  0  0  0
   -2.1934    1.8757   -0.8618 H   0  0  0  0  0  0  0  0  0  0  0  0
    3.6945    0.6328    1.3998 H   0  0  0  0  0  0  0  0  0  0  0  0
    1.9810    0.8725    1.9861 H   0  0  0  0  0  0  0  0  0  0  0  0
    2.9792    2.8063    0.5722 H   0  0  0  0  0  0  0  0  0  0  0  0
    1.3887    2.1376   -0.0603 H   0  0  0  0  0  0  0  0  0  0  0  0
    3.3741    0.4199   -2.6508 H   0  0  0  0  0  0  0  0  0  0  0  0
    1.6370    0.6386   -2.0931 H   0  0  0  0  0  0  0  0  0  0  0  0
    3.9469   -0.9364   -0.7168 H   0  0  0  0  0  0  0  0  0  0  0  0
    2.3806   -1.6101   -1.3724 H   0  0  0  0  0  0  0  0  0  0  0  0
  1  2  1  0  0  0  0
  1  6  1  0  0  0  0
  1  9  2  0  0  0  0
  2  3  2  0  0  0  0
  2 17  1  0  0  0  0
  3  4  1  0  0  0  0
  3 18  1  0  0  0  0
  4  5  2  0  0  0  0
  4 11  1  0  0  0  0
  5  6  1  0  0  0  0
  6  7  1  0  0  0  0
  7  8  2  0  0  0  0
  7 10  1  0  0  0  0
  8  9  1  0  0  0  0
 10 19  1  0  0  0  0
 10 20  1  0  0  0  0
 10 21  1  0  0  0  0
 11 12  1  0  0  0  0
 11 16  1  0  0  0  0
 12 13  1  0  0  0  0
 12 22  1  0  0  0  0
 12 23  1  0  0  0  0
 13 14  1  0  0  0  0
 13 24  1  0  0  0  0
 13 25  1  0  0  0  0
 14 15  1  0  0  0  0
 15 16  1  0  0  0  0
 15 26  1  0  0  0  0
 15 27  1  0  0  0  0
 16 28  1  0  0  0  0
 16 29  1  0  0  0  0
M  END
