./056396-43-1.hin
 OpenBabel10051109203D

 33 35  0  0  0  0  0  0  0  0999 V2000
   -0.9187   -3.3063   -0.4540 N   0  0  0  0  0  0  0  0  0  0  0  0
   -1.8494   -2.8825   -1.2763 N   0  0  0  0  0  0  0  0  0  0  0  0
   -2.1141   -1.5502   -1.0322 C   0  0  0  0  0  0  0  0  0  0  0  0
   -1.2481   -1.1184    0.0336 N   0  0  0  0  0  0  0  0  0  0  0  0
   -0.5285   -2.3011    0.3858 C   0  0  0  0  0  0  0  0  0  0  0  0
    0.4619   -2.3863    1.4515 C   0  0  0  0  0  0  0  0  0  0  0  0
    0.4750   -3.5194    2.2776 C   0  0  0  0  0  0  0  0  0  0  0  0
    1.4205   -3.6323    3.2941 C   0  0  0  0  0  0  0  0  0  0  0  0
    2.3569   -2.6111    3.4851 C   0  0  0  0  0  0  0  0  0  0  0  0
    1.4098   -1.3737    1.6427 C   0  0  0  0  0  0  0  0  0  0  0  0
    3.5086   -2.7440    4.7277 Cl  0  0  0  0  0  0  0  0  0  0  0  0
   -1.3164    0.0094    0.7670 N   0  0  0  0  0  0  0  0  0  0  0  0
   -1.1531    1.2028    0.2828 C   0  0  0  0  0  0  0  0  0  0  0  0
   -0.8455    1.7080   -1.0554 C   0  0  0  0  0  0  0  0  0  0  0  0
   -1.5063    2.8574   -1.5125 C   0  0  0  0  0  0  0  0  0  0  0  0
   -1.2182    3.3827   -2.7685 C   0  0  0  0  0  0  0  0  0  0  0  0
   -0.2532    2.7630   -3.5708 C   0  0  0  0  0  0  0  0  0  0  0  0
    0.4191    1.6229   -3.1201 C   0  0  0  0  0  0  0  0  0  0  0  0
    0.1192    1.0968   -1.8647 C   0  0  0  0  0  0  0  0  0  0  0  0
    0.1047    3.4034   -5.1020 Cl  0  0  0  0  0  0  0  0  0  0  0  0
   -2.9826   -0.6679   -1.7015 N   0  0  0  0  0  0  0  0  0  0  0  0
    2.3556   -1.4823    2.6598 C   0  0  0  0  0  0  0  0  0  0  0  0
   -0.2604   -4.3243    2.1204 H   0  0  0  0  0  0  0  0  0  0  0  0
    1.4278   -4.5227    3.9411 H   0  0  0  0  0  0  0  0  0  0  0  0
    1.4235   -0.4905    0.9870 H   0  0  0  0  0  0  0  0  0  0  0  0
   -1.2854    1.9890    1.0631 H   0  0  0  0  0  0  0  0  0  0  0  0
   -2.2627    3.3450   -0.8784 H   0  0  0  0  0  0  0  0  0  0  0  0
   -1.7459    4.2802   -3.1259 H   0  0  0  0  0  0  0  0  0  0  0  0
    1.1787    1.1371   -3.7520 H   0  0  0  0  0  0  0  0  0  0  0  0
    0.6540    0.1999   -1.5153 H   0  0  0  0  0  0  0  0  0  0  0  0
   -3.3029   -1.0662   -2.5639 H   0  0  0  0  0  0  0  0  0  0  0  0
   -3.7529   -0.4064   -1.1156 H   0  0  0  0  0  0  0  0  0  0  0  0
    3.0981   -0.6837    2.8078 H   0  0  0  0  0  0  0  0  0  0  0  0
  1  2  1  0  0  0  0
  1  5  2  0  0  0  0
  2  3  2  0  0  0  0
  3  4  1  0  0  0  0
  3 21  1  0  0  0  0
  4  5  1  0  0  0  0
  4 12  1  0  0  0  0
  5  6  1  0  0  0  0
  6  7  2  0  0  0  0
  6 10  1  0  0  0  0
  7  8  1  0  0  0  0
  7 23  1  0  0  0  0
  8  9  2  0  0  0  0
  8 24  1  0  0  0  0
  9 11  1  0  0  0  0
  9 22  1  0  0  0  0
 10 22  2  0  0  0  0
 10 25  1  0  0  0  0
 12 13  2  0  0  0  0
 13 14  1  0  0  0  0
 13 26  1  0  0  0  0
 14 15  2  0  0  0  0
 14 19  1  0  0  0  0
 15 16  1  0  0  0  0
 15 27  1  0  0  0  0
 16 17  2  0  0  0  0
 16 28  1  0  0  0  0
 17 18  1  0  0  0  0
 17 20  1  0  0  0  0
 18 19  2  0  0  0  0
 18 29  1  0  0  0  0
 19 30  1  0  0  0  0
 21 31  1  0  0  0  0
 21 32  1  0  0  0  0
 22 33  1  0  0  0  0
M  END
