./057801-94-2.hin
 OpenBabel10051109203D

 32 35  0  0  0  0  0  0  0  0999 V2000
   -3.0388    0.8760    0.8626 N   0  0  0  0  0  0  0  0  0  0  0  0
   -3.2954    2.2141    0.4768 C   0  0  0  0  0  0  0  0  0  0  0  0
   -2.2334    3.2271    0.1789 C   0  0  0  0  0  0  0  0  0  0  0  0
   -1.1942    2.8428   -0.7260 N   0  0  0  0  0  0  0  0  0  0  0  0
   -0.5104    1.7517   -0.6509 C   0  0  0  0  0  0  0  0  0  0  0  0
   -0.6295    0.6622    0.3240 C   0  0  0  0  0  0  0  0  0  0  0  0
   -1.8017    0.2712    0.9848 C   0  0  0  0  0  0  0  0  0  0  0  0
   -1.5068   -1.0598    1.9945 S   0  0  0  0  0  0  0  0  0  0  0  0
    0.1187   -1.1357    1.6087 C   0  0  0  0  0  0  0  0  0  0  0  0
    0.4766   -0.1605    0.7005 C   0  0  0  0  0  0  0  0  0  0  0  0
    1.2255   -2.3998    2.3354 Br  0  0  0  0  0  0  0  0  0  0  0  0
    0.5705    1.5366   -1.6570 C   0  0  0  0  0  0  0  0  0  0  0  0
    0.3721    0.7121   -2.7727 C   0  0  0  0  0  0  0  0  0  0  0  0
    1.4133    0.5322   -3.6903 C   0  0  0  0  0  0  0  0  0  0  0  0
    2.6355    1.1743   -3.5014 C   0  0  0  0  0  0  0  0  0  0  0  0
    2.8270    2.0053   -2.3979 C   0  0  0  0  0  0  0  0  0  0  0  0
    1.7956    2.1893   -1.4795 C   0  0  0  0  0  0  0  0  0  0  0  0
   -1.2629   -0.1512   -3.0756 Br  0  0  0  0  0  0  0  0  0  0  0  0
   -4.6464    2.3971    0.4615 N   0  0  0  0  0  0  0  0  0  0  0  0
   -5.2503    1.2774    0.8112 N   0  0  0  0  0  0  0  0  0  0  0  0
   -4.3253    0.3073    1.0669 C   0  0  0  0  0  0  0  0  0  0  0  0
   -4.5681   -1.0935    1.4743 C   0  0  0  0  0  0  0  0  0  0  0  0
   -1.7867    3.5631    1.1632 H   0  0  0  0  0  0  0  0  0  0  0  0
   -2.7324    4.1240   -0.2999 H   0  0  0  0  0  0  0  0  0  0  0  0
    1.4814   -0.0106    0.2907 H   0  0  0  0  0  0  0  0  0  0  0  0
    1.2691   -0.1147   -4.5703 H   0  0  0  0  0  0  0  0  0  0  0  0
    3.4472    1.0279   -4.2297 H   0  0  0  0  0  0  0  0  0  0  0  0
    3.7882    2.5209   -2.2542 H   0  0  0  0  0  0  0  0  0  0  0  0
    1.9361    2.8559   -0.6151 H   0  0  0  0  0  0  0  0  0  0  0  0
   -5.6543   -1.2418    1.7004 H   0  0  0  0  0  0  0  0  0  0  0  0
   -4.2752   -1.7905    0.6487 H   0  0  0  0  0  0  0  0  0  0  0  0
   -3.9754   -1.3449    2.3918 H   0  0  0  0  0  0  0  0  0  0  0  0
  1  2  1  0  0  0  0
  1  7  1  0  0  0  0
  1 21  1  0  0  0  0
  2  3  1  0  0  0  0
  2 19  2  0  0  0  0
  3  4  1  0  0  0  0
  3 23  1  0  0  0  0
  3 24  1  0  0  0  0
  4  5  2  0  0  0  0
  5  6  1  0  0  0  0
  5 12  1  0  0  0  0
  6  7  2  0  0  0  0
  6 10  1  0  0  0  0
  7  8  1  0  0  0  0
  8  9  1  0  0  0  0
  9 10  2  0  0  0  0
  9 11  1  0  0  0  0
 10 25  1  0  0  0  0
 12 13  2  0  0  0  0
 12 17  1  0  0  0  0
 13 14  1  0  0  0  0
 13 18  1  0  0  0  0
 14 15  2  0  0  0  0
 14 26  1  0  0  0  0
 15 16  1  0  0  0  0
 15 27  1  0  0  0  0
 16 17  2  0  0  0  0
 16 28  1  0  0  0  0
 17 29  1  0  0  0  0
 19 20  1  0  0  0  0
 20 21  2  0  0  0  0
 21 22  1  0  0  0  0
 22 30  1  0  0  0  0
 22 31  1  0  0  0  0
 22 32  1  0  0  0  0
M  END
