./059026-08-3.hin
 OpenBabel10051109203D

 39 39  0  0  0  0  0  0  0  0999 V2000
   -3.8223   -3.4936    3.0491 C   0  0  0  0  0  0  0  0  0  0  0  0
   -3.2837   -2.7682    1.8437 C   0  0  0  0  0  0  0  0  0  0  0  0
   -2.4113   -3.6640    0.9936 C   0  0  0  0  0  0  0  0  0  0  0  0
   -1.9557   -2.9912   -0.4983 S   0  0  0  0  0  0  0  0  0  0  0  0
   -1.3346   -3.9672   -1.2744 O   0  0  0  0  0  0  0  0  0  0  0  0
   -0.7796   -1.8519    0.0088 C   0  0  0  0  0  0  0  0  0  0  0  0
    0.3574   -2.2228    0.7734 N   0  0  0  0  0  0  0  0  0  0  0  0
    1.0622   -1.0921    0.8896 C   0  0  0  0  0  0  0  0  0  0  0  0
    0.3623   -0.0407    0.2194 N   0  0  0  0  0  0  0  0  0  0  0  0
   -0.7580   -0.5272   -0.3165 N   0  0  0  0  0  0  0  0  0  0  0  0
    0.9205    1.2969    0.0953 C   0  0  0  0  0  0  0  0  0  0  0  0
    2.1149    1.3899    0.4526 O   0  0  0  0  0  0  0  0  0  0  0  0
    0.1897    2.3659   -0.3842 N   0  0  0  0  0  0  0  0  0  0  0  0
   -1.2384    2.3807   -0.6106 C   0  0  0  0  0  0  0  0  0  0  0  0
   -2.0896    2.4187    0.6605 C   0  0  0  0  0  0  0  0  0  0  0  0
   -3.5517    2.4576    0.2978 C   0  0  0  0  0  0  0  0  0  0  0  0
    0.8795    3.6445   -0.5070 C   0  0  0  0  0  0  0  0  0  0  0  0
    1.1676    4.0538   -1.9430 C   0  0  0  0  0  0  0  0  0  0  0  0
   -3.0324   -2.3129   -1.0714 O   0  0  0  0  0  0  0  0  0  0  0  0
   -4.4530   -2.8044    3.6612 H   0  0  0  0  0  0  0  0  0  0  0  0
   -4.4497   -4.3640    2.7390 H   0  0  0  0  0  0  0  0  0  0  0  0
   -2.9882   -3.8725    3.6876 H   0  0  0  0  0  0  0  0  0  0  0  0
   -4.1385   -2.3853    1.2214 H   0  0  0  0  0  0  0  0  0  0  0  0
   -2.6863   -1.8790    2.1800 H   0  0  0  0  0  0  0  0  0  0  0  0
   -1.5261   -3.9857    1.6069 H   0  0  0  0  0  0  0  0  0  0  0  0
   -2.9768   -4.6195    0.7991 H   0  0  0  0  0  0  0  0  0  0  0  0
    2.0253   -0.9294    1.3917 H   0  0  0  0  0  0  0  0  0  0  0  0
   -1.4660    3.3099   -1.2141 H   0  0  0  0  0  0  0  0  0  0  0  0
   -1.5475    1.5082   -1.2516 H   0  0  0  0  0  0  0  0  0  0  0  0
   -1.8835    1.5181    1.2950 H   0  0  0  0  0  0  0  0  0  0  0  0
   -1.8241    3.3233    1.2690 H   0  0  0  0  0  0  0  0  0  0  0  0
   -4.1737    2.4882    1.2250 H   0  0  0  0  0  0  0  0  0  0  0  0
   -3.7854    3.3631   -0.3130 H   0  0  0  0  0  0  0  0  0  0  0  0
   -3.8381    1.5515   -0.2901 H   0  0  0  0  0  0  0  0  0  0  0  0
    0.2299    4.4284   -0.0199 H   0  0  0  0  0  0  0  0  0  0  0  0
    1.8539    3.6017    0.0614 H   0  0  0  0  0  0  0  0  0  0  0  0
    1.6800    5.0464   -1.9302 H   0  0  0  0  0  0  0  0  0  0  0  0
    1.8355    3.3141   -2.4463 H   0  0  0  0  0  0  0  0  0  0  0  0
    0.2282    4.1452   -2.5392 H   0  0  0  0  0  0  0  0  0  0  0  0
  1  2  1  0  0  0  0
  1 20  1  0  0  0  0
  1 21  1  0  0  0  0
  1 22  1  0  0  0  0
  2  3  1  0  0  0  0
  2 23  1  0  0  0  0
  2 24  1  0  0  0  0
  3  4  1  0  0  0  0
  3 25  1  0  0  0  0
  3 26  1  0  0  0  0
  4  5  2  0  0  0  0
  4  6  1  0  0  0  0
  4 19  2  0  0  0  0
  6  7  1  0  0  0  0
  6 10  2  0  0  0  0
  7  8  2  0  0  0  0
  8  9  1  0  0  0  0
  8 27  1  0  0  0  0
  9 10  1  0  0  0  0
  9 11  1  0  0  0  0
 11 12  2  0  0  0  0
 11 13  1  0  0  0  0
 13 14  1  0  0  0  0
 13 17  1  0  0  0  0
 14 15  1  0  0  0  0
 14 28  1  0  0  0  0
 14 29  1  0  0  0  0
 15 16  1  0  0  0  0
 15 30  1  0  0  0  0
 15 31  1  0  0  0  0
 16 32  1  0  0  0  0
 16 33  1  0  0  0  0
 16 34  1  0  0  0  0
 17 18  1  0  0  0  0
 17 35  1  0  0  0  0
 17 36  1  0  0  0  0
 18 37  1  0  0  0  0
 18 38  1  0  0  0  0
 18 39  1  0  0  0  0
M  END
