./059338-92-0.hin
 OpenBabel10051109203D

 21 22  0  0  0  0  0  0  0  0999 V2000
   -0.2194   -3.3088   -0.0000 N   0  0  0  0  0  0  0  0  0  0  0  0
    1.1070   -3.4734    0.0000 N   0  0  0  0  0  0  0  0  0  0  0  0
    1.8669   -2.3889    0.0000 N   0  0  0  0  0  0  0  0  0  0  0  0
    0.9640   -1.3455    0.0000 C   0  0  0  0  0  0  0  0  0  0  0  0
   -0.3868   -1.9432   -0.0000 C   0  0  0  0  0  0  0  0  0  0  0  0
    1.1150    0.0609    0.0000 C   0  0  0  0  0  0  0  0  0  0  0  0
   -0.0163    0.8477    0.0000 C   0  0  0  0  0  0  0  0  0  0  0  0
   -1.3336    0.2554   -0.0000 C   0  0  0  0  0  0  0  0  0  0  0  0
   -1.5304   -1.1098   -0.0000 C   0  0  0  0  0  0  0  0  0  0  0  0
    0.1772    2.3042    0.0000 C   0  0  0  0  0  0  0  0  0  0  0  0
    1.2561    2.9137    0.0000 O   0  0  0  0  0  0  0  0  0  0  0  0
   -0.9475    3.0697    0.0000 O   0  0  0  0  0  0  0  0  0  0  0  0
   -2.3601    1.1717   -0.0000 O   0  0  0  0  0  0  0  0  0  0  0  0
   -3.6829    0.6414   -0.0000 C   0  0  0  0  0  0  0  0  0  0  0  0
    1.5120   -4.3931    0.0000 H   0  0  0  0  0  0  0  0  0  0  0  0
    2.1199    0.5181    0.0000 H   0  0  0  0  0  0  0  0  0  0  0  0
   -2.5292   -1.5653   -0.0000 H   0  0  0  0  0  0  0  0  0  0  0  0
   -0.6880    4.0072    0.0000 H   0  0  0  0  0  0  0  0  0  0  0  0
   -4.3238    1.5597   -0.0000 H   0  0  0  0  0  0  0  0  0  0  0  0
   -3.8636    0.0325   -0.9188 H   0  0  0  0  0  0  0  0  0  0  0  0
   -3.8636    0.0325    0.9188 H   0  0  0  0  0  0  0  0  0  0  0  0
  1  2  1  0  0  0  0
  1  5  2  0  0  0  0
  2  3  1  0  0  0  0
  2 15  1  0  0  0  0
  3  4  2  0  0  0  0
  4  5  1  0  0  0  0
  4  6  1  0  0  0  0
  5  9  1  0  0  0  0
  6  7  2  0  0  0  0
  6 16  1  0  0  0  0
  7  8  1  0  0  0  0
  7 10  1  0  0  0  0
  8  9  2  0  0  0  0
  8 13  1  0  0  0  0
  9 17  1  0  0  0  0
 10 11  2  0  0  0  0
 10 12  1  0  0  0  0
 12 18  1  0  0  0  0
 13 14  1  0  0  0  0
 14 19  1  0  0  0  0
 14 20  1  0  0  0  0
 14 21  1  0  0  0  0
M  END
