./059338-93-1.hin
 OpenBabel10051109203D

 44 46  0  0  0  0  0  0  0  0999 V2000
   -2.3481   -2.5770   -0.9627 C   0  0  0  0  0  0  0  0  0  0  0  0
   -2.4776   -1.8204   -2.1934 C   0  0  0  0  0  0  0  0  0  0  0  0
   -1.4566   -0.9575   -2.5998 C   0  0  0  0  0  0  0  0  0  0  0  0
   -0.3365   -0.8480   -1.7878 C   0  0  0  0  0  0  0  0  0  0  0  0
    0.8052    0.0093   -2.2250 C   0  0  0  0  0  0  0  0  0  0  0  0
    0.7898    1.3584   -1.9173 N   0  0  0  0  0  0  0  0  0  0  0  0
   -0.0902    1.9663   -0.9636 C   0  0  0  0  0  0  0  0  0  0  0  0
    0.5002    2.0663    0.4699 C   0  0  0  0  0  0  0  0  0  0  0  0
   -0.4780    2.6857    1.3829 N   0  0  0  0  0  0  0  0  0  0  0  0
    0.1794    3.7737    2.1072 C   0  0  0  0  0  0  0  0  0  0  0  0
    1.6482    3.8670    1.6696 C   0  0  0  0  0  0  0  0  0  0  0  0
    1.7863    2.9188    0.4868 C   0  0  0  0  0  0  0  0  0  0  0  0
   -1.2024    1.7461    2.2121 C   0  0  0  0  0  0  0  0  0  0  0  0
   -0.4260    0.9232    3.1944 C   0  0  0  0  0  0  0  0  0  0  0  0
   -0.8319   -0.2726    3.6145 C   0  0  0  0  0  0  0  0  0  0  0  0
    1.7362   -0.4476   -2.9159 O   0  0  0  0  0  0  0  0  0  0  0  0
   -0.2246   -1.5929   -0.5773 C   0  0  0  0  0  0  0  0  0  0  0  0
   -1.2221   -2.4679   -0.1433 C   0  0  0  0  0  0  0  0  0  0  0  0
    0.9366   -1.3602    0.1263 O   0  0  0  0  0  0  0  0  0  0  0  0
    1.1469   -2.1516    1.2925 C   0  0  0  0  0  0  0  0  0  0  0  0
   -3.7417   -2.1794   -2.7507 N   0  0  0  0  0  0  0  0  0  0  0  0
   -4.3003   -3.0195   -1.9926 N   0  0  0  0  0  0  0  0  0  0  0  0
   -3.5432   -3.3049   -0.9048 N   0  0  0  0  0  0  0  0  0  0  0  0
   -1.5370   -0.3879   -3.5389 H   0  0  0  0  0  0  0  0  0  0  0  0
    1.6217    1.8636   -2.1342 H   0  0  0  0  0  0  0  0  0  0  0  0
   -0.3300    3.0046   -1.3335 H   0  0  0  0  0  0  0  0  0  0  0  0
   -1.0513    1.3802   -0.9174 H   0  0  0  0  0  0  0  0  0  0  0  0
    0.7533    1.0166    0.8109 H   0  0  0  0  0  0  0  0  0  0  0  0
    0.1103    3.6449    3.2217 H   0  0  0  0  0  0  0  0  0  0  0  0
   -0.3677    4.7190    1.8372 H   0  0  0  0  0  0  0  0  0  0  0  0
    2.3242    3.5619    2.5060 H   0  0  0  0  0  0  0  0  0  0  0  0
    1.9089    4.9146    1.3848 H   0  0  0  0  0  0  0  0  0  0  0  0
    2.6842    2.2630    0.5888 H   0  0  0  0  0  0  0  0  0  0  0  0
    1.8910    3.4999   -0.4630 H   0  0  0  0  0  0  0  0  0  0  0  0
   -1.9658    2.3443    2.7926 H   0  0  0  0  0  0  0  0  0  0  0  0
   -1.7654    1.0623    1.5124 H   0  0  0  0  0  0  0  0  0  0  0  0
    0.5045    1.3749    3.5773 H   0  0  0  0  0  0  0  0  0  0  0  0
   -0.2741   -0.8518    4.3620 H   0  0  0  0  0  0  0  0  0  0  0  0
   -1.7524   -0.7490    3.2520 H   0  0  0  0  0  0  0  0  0  0  0  0
   -1.1338   -3.0427    0.7858 H   0  0  0  0  0  0  0  0  0  0  0  0
    2.1762   -1.8547    1.6195 H   0  0  0  0  0  0  0  0  0  0  0  0
    0.3921   -1.8903    2.0769 H   0  0  0  0  0  0  0  0  0  0  0  0
    1.1104   -3.2402    1.0474 H   0  0  0  0  0  0  0  0  0  0  0  0
   -3.8218   -3.9733   -0.2291 H   0  0  0  0  0  0  0  0  0  0  0  0
  1  2  2  0  0  0  0
  1 18  1  0  0  0  0
  1 23  1  0  0  0  0
  2  3  1  0  0  0  0
  2 21  1  0  0  0  0
  3  4  2  0  0  0  0
  3 24  1  0  0  0  0
  4  5  1  0  0  0  0
  4 17  1  0  0  0  0
  5  6  1  0  0  0  0
  5 16  2  0  0  0  0
  6  7  1  0  0  0  0
  6 25  1  0  0  0  0
  7  8  1  0  0  0  0
  7 26  1  0  0  0  0
  7 27  1  0  0  0  0
  8  9  1  0  0  0  0
  8 12  1  0  0  0  0
  8 28  1  0  0  0  0
  9 10  1  0  0  0  0
  9 13  1  0  0  0  0
 10 11  1  0  0  0  0
 10 29  1  0  0  0  0
 10 30  1  0  0  0  0
 11 12  1  0  0  0  0
 11 31  1  0  0  0  0
 11 32  1  0  0  0  0
 12 33  1  0  0  0  0
 12 34  1  0  0  0  0
 13 14  1  0  0  0  0
 13 35  1  0  0  0  0
 13 36  1  0  0  0  0
 14 15  2  0  0  0  0
 14 37  1  0  0  0  0
 15 38  1  0  0  0  0
 15 39  1  0  0  0  0
 17 18  2  0  0  0  0
 17 19  1  0  0  0  0
 18 40  1  0  0  0  0
 19 20  1  0  0  0  0
 20 41  1  0  0  0  0
 20 42  1  0  0  0  0
 20 43  1  0  0  0  0
 21 22  2  0  0  0  0
 22 23  1  0  0  0  0
 23 44  1  0  0  0  0
M  END
