./060207-31-0.hin
 OpenBabel10051109203D

 30 32  0  0  0  0  0  0  0  0999 V2000
   -0.9010   -8.5562    1.1088 Cl  0  0  0  0  0  0  0  0  0  0  0  0
    0.5891   -4.0183   -1.2127 Cl  0  0  0  0  0  0  0  0  0  0  0  0
   -1.9028   -6.1764    1.8451 C   0  0  0  0  0  0  0  0  0  0  0  0
   -1.0280   -6.8670    1.0004 C   0  0  0  0  0  0  0  0  0  0  0  0
   -1.9905   -4.7915    1.7517 C   0  0  0  0  0  0  0  0  0  0  0  0
   -1.2217   -4.0713    0.8257 C   0  0  0  0  0  0  0  0  0  0  0  0
   -0.3616   -4.7813   -0.0253 C   0  0  0  0  0  0  0  0  0  0  0  0
   -0.2578   -6.1755    0.0643 C   0  0  0  0  0  0  0  0  0  0  0  0
   -1.3769   -2.5693    0.7848 C   0  0  0  0  0  0  0  0  0  0  0  0
   -2.1136   -2.0597   -0.4880 C   0  0  0  0  0  0  0  0  0  0  0  0
   -0.1138   -1.8977    0.8113 O   0  0  0  0  0  0  0  0  0  0  0  0
   -2.0817   -2.0868    1.9304 O   0  0  0  0  0  0  0  0  0  0  0  0
    0.1499   -1.3815    2.1209 C   0  0  0  0  0  0  0  0  0  0  0  0
   -1.1695   -1.5129    2.8738 C   0  0  0  0  0  0  0  0  0  0  0  0
   -3.4087   -2.6497   -0.7130 N   0  0  0  0  0  0  0  0  0  0  0  0
   -3.6871   -3.7039   -1.6156 C   0  0  0  0  0  0  0  0  0  0  0  0
   -4.9969   -4.0120   -1.5493 N   0  0  0  0  0  0  0  0  0  0  0  0
   -5.4950   -3.1218   -0.5773 C   0  0  0  0  0  0  0  0  0  0  0  0
   -4.5372   -2.2996   -0.0667 N   0  0  0  0  0  0  0  0  0  0  0  0
   -2.2234   -0.9427   -0.3801 H   0  0  0  0  0  0  0  0  0  0  0  0
   -1.4616   -2.2891   -1.3764 H   0  0  0  0  0  0  0  0  0  0  0  0
    0.4777   -0.3214    1.9798 H   0  0  0  0  0  0  0  0  0  0  0  0
    0.9718   -1.9890    2.5753 H   0  0  0  0  0  0  0  0  0  0  0  0
   -1.6101   -0.5306    3.1770 H   0  0  0  0  0  0  0  0  0  0  0  0
   -1.0989   -2.1994    3.7541 H   0  0  0  0  0  0  0  0  0  0  0  0
   -2.9300   -4.1637   -2.2579 H   0  0  0  0  0  0  0  0  0  0  0  0
   -6.5467   -3.1013   -0.2759 H   0  0  0  0  0  0  0  0  0  0  0  0
   -2.5193   -6.7207    2.5768 H   0  0  0  0  0  0  0  0  0  0  0  0
   -2.6814   -4.2430    2.4156 H   0  0  0  0  0  0  0  0  0  0  0  0
    0.4284   -6.7216   -0.6030 H   0  0  0  0  0  0  0  0  0  0  0  0
  1  4  1  0  0  0  0
  2  7  1  0  0  0  0
  3  4  2  0  0  0  0
  3  5  1  0  0  0  0
  3 28  1  0  0  0  0
  4  8  1  0  0  0  0
  5  6  2  0  0  0  0
  5 29  1  0  0  0  0
  6  7  1  0  0  0  0
  6  9  1  0  0  0  0
  7  8  2  0  0  0  0
  8 30  1  0  0  0  0
  9 10  1  0  0  0  0
  9 11  1  0  0  0  0
  9 12  1  0  0  0  0
 10 15  1  0  0  0  0
 10 20  1  0  0  0  0
 10 21  1  0  0  0  0
 11 13  1  0  0  0  0
 12 14  1  0  0  0  0
 13 14  1  0  0  0  0
 13 22  1  0  0  0  0
 13 23  1  0  0  0  0
 14 24  1  0  0  0  0
 14 25  1  0  0  0  0
 15 16  1  0  0  0  0
 15 19  1  0  0  0  0
 16 17  2  0  0  0  0
 16 26  1  0  0  0  0
 17 18  1  0  0  0  0
 18 19  2  0  0  0  0
 18 27  1  0  0  0  0
M  END
