./060207-90-1.hin
 OpenBabel10051109203D

 39 41  0  0  0  0  0  0  0  0999 V2000
   -0.1942   -0.7223    0.2088 C   0  0  0  0  0  0  0  0  0  0  0  0
   -0.4285    0.7068   -0.2222 C   0  0  0  0  0  0  0  0  0  0  0  0
   -1.4496    0.8412   -1.3895 C   0  0  0  0  0  0  0  0  0  0  0  0
   -2.7153    0.1902   -1.1661 N   0  0  0  0  0  0  0  0  0  0  0  0
   -3.1027   -1.0596   -1.7060 C   0  0  0  0  0  0  0  0  0  0  0  0
   -4.3402   -1.3676   -1.2714 N   0  0  0  0  0  0  0  0  0  0  0  0
   -4.6811   -0.2750   -0.4499 C   0  0  0  0  0  0  0  0  0  0  0  0
   -3.6998    0.6667   -0.3807 N   0  0  0  0  0  0  0  0  0  0  0  0
    0.7773    1.3300   -0.6702 O   0  0  0  0  0  0  0  0  0  0  0  0
    1.2751    2.2492    0.3192 C   0  0  0  0  0  0  0  0  0  0  0  0
    1.6324    3.5660   -0.3476 C   0  0  0  0  0  0  0  0  0  0  0  0
    0.4920    4.1846   -1.1262 C   0  0  0  0  0  0  0  0  0  0  0  0
    0.9176    5.4664   -1.7941 C   0  0  0  0  0  0  0  0  0  0  0  0
    0.1619    2.3341    1.3659 C   0  0  0  0  0  0  0  0  0  0  0  0
   -0.8937    1.5076    0.8658 O   0  0  0  0  0  0  0  0  0  0  0  0
   -0.6984   -1.1298    1.4526 C   0  0  0  0  0  0  0  0  0  0  0  0
   -0.5228   -2.4298    1.9150 C   0  0  0  0  0  0  0  0  0  0  0  0
    0.1733   -3.3506    1.1257 C   0  0  0  0  0  0  0  0  0  0  0  0
    0.6776   -2.9737   -0.1198 C   0  0  0  0  0  0  0  0  0  0  0  0
    0.4868   -1.6634   -0.5775 C   0  0  0  0  0  0  0  0  0  0  0  0
    1.1067   -1.2940   -2.1189 Cl  0  0  0  0  0  0  0  0  0  0  0  0
    0.4059   -4.9381    1.6803 Cl  0  0  0  0  0  0  0  0  0  0  0  0
   -1.6168    1.9452   -1.5516 H   0  0  0  0  0  0  0  0  0  0  0  0
   -0.9799    0.3937   -2.3094 H   0  0  0  0  0  0  0  0  0  0  0  0
   -2.4701   -1.6488   -2.3768 H   0  0  0  0  0  0  0  0  0  0  0  0
   -5.6407   -0.2018    0.0709 H   0  0  0  0  0  0  0  0  0  0  0  0
    2.2026    1.7815    0.7514 H   0  0  0  0  0  0  0  0  0  0  0  0
    1.9794    4.2732    0.4510 H   0  0  0  0  0  0  0  0  0  0  0  0
    2.4943    3.3845   -1.0436 H   0  0  0  0  0  0  0  0  0  0  0  0
    0.1371    3.4508   -1.8989 H   0  0  0  0  0  0  0  0  0  0  0  0
   -0.3739    4.3846   -0.4410 H   0  0  0  0  0  0  0  0  0  0  0  0
    0.0617    5.9108   -2.3571 H   0  0  0  0  0  0  0  0  0  0  0  0
    1.2661    6.2102   -1.0373 H   0  0  0  0  0  0  0  0  0  0  0  0
    1.7528    5.2794   -2.5119 H   0  0  0  0  0  0  0  0  0  0  0  0
   -0.2690    3.3596    1.4823 H   0  0  0  0  0  0  0  0  0  0  0  0
    0.4818    1.9284    2.3585 H   0  0  0  0  0  0  0  0  0  0  0  0
   -1.2493   -0.4006    2.0721 H   0  0  0  0  0  0  0  0  0  0  0  0
   -0.9310   -2.7279    2.8928 H   0  0  0  0  0  0  0  0  0  0  0  0
    1.2223   -3.7017   -0.7423 H   0  0  0  0  0  0  0  0  0  0  0  0
  1  2  1  0  0  0  0
  1 16  2  0  0  0  0
  1 20  1  0  0  0  0
  2  3  1  0  0  0  0
  2  9  1  0  0  0  0
  2 15  1  0  0  0  0
  3  4  1  0  0  0  0
  3 23  1  0  0  0  0
  3 24  1  0  0  0  0
  4  5  1  0  0  0  0
  4  8  1  0  0  0  0
  5  6  2  0  0  0  0
  5 25  1  0  0  0  0
  6  7  1  0  0  0  0
  7  8  2  0  0  0  0
  7 26  1  0  0  0  0
  9 10  1  0  0  0  0
 10 11  1  0  0  0  0
 10 14  1  0  0  0  0
 10 27  1  0  0  0  0
 11 12  1  0  0  0  0
 11 28  1  0  0  0  0
 11 29  1  0  0  0  0
 12 13  1  0  0  0  0
 12 30  1  0  0  0  0
 12 31  1  0  0  0  0
 13 32  1  0  0  0  0
 13 33  1  0  0  0  0
 13 34  1  0  0  0  0
 14 15  1  0  0  0  0
 14 35  1  0  0  0  0
 14 36  1  0  0  0  0
 16 17  1  0  0  0  0
 16 37  1  0  0  0  0
 17 18  2  0  0  0  0
 17 38  1  0  0  0  0
 18 19  1  0  0  0  0
 18 22  1  0  0  0  0
 19 20  2  0  0  0  0
 19 39  1  0  0  0  0
 20 21  1  0  0  0  0
M  END
