./060932-58-3.hin
 OpenBabel10051109203D

 17 18  0  0  0  0  0  0  0  0999 V2000
   -0.4725   -3.1021    0.0000 N   0  0  0  0  0  0  0  0  0  0  0  0
    0.8422   -3.3249    0.0000 N   0  0  0  0  0  0  0  0  0  0  0  0
    1.6506   -2.2726    0.0000 N   0  0  0  0  0  0  0  0  0  0  0  0
    0.7953   -1.1913    0.0000 C   0  0  0  0  0  0  0  0  0  0  0  0
   -0.5812   -1.7309   -0.0000 C   0  0  0  0  0  0  0  0  0  0  0  0
    1.0081    0.2094    0.0000 C   0  0  0  0  0  0  0  0  0  0  0  0
   -0.1011    1.0267   -0.0000 C   0  0  0  0  0  0  0  0  0  0  0  0
   -1.4343    0.5048   -0.0000 C   0  0  0  0  0  0  0  0  0  0  0  0
   -1.6866   -0.8395   -0.0000 C   0  0  0  0  0  0  0  0  0  0  0  0
    0.1069    2.4809   -0.0000 C   0  0  0  0  0  0  0  0  0  0  0  0
    1.1755    3.1034    0.0000 O   0  0  0  0  0  0  0  0  0  0  0  0
   -1.0302    3.2373   -0.0000 O   0  0  0  0  0  0  0  0  0  0  0  0
    1.2080   -4.2611    0.0000 H   0  0  0  0  0  0  0  0  0  0  0  0
    2.0297    0.6239    0.0000 H   0  0  0  0  0  0  0  0  0  0  0  0
   -2.2669    1.2288   -0.0000 H   0  0  0  0  0  0  0  0  0  0  0  0
   -2.7105   -1.2401   -0.0000 H   0  0  0  0  0  0  0  0  0  0  0  0
   -0.7858    4.1780   -0.0000 H   0  0  0  0  0  0  0  0  0  0  0  0
  1  2  1  0  0  0  0
  1  5  2  0  0  0  0
  2  3  1  0  0  0  0
  2 13  1  0  0  0  0
  3  4  2  0  0  0  0
  4  5  1  0  0  0  0
  4  6  1  0  0  0  0
  5  9  1  0  0  0  0
  6  7  2  0  0  0  0
  6 14  1  0  0  0  0
  7  8  1  0  0  0  0
  7 10  1  0  0  0  0
  8  9  2  0  0  0  0
  8 15  1  0  0  0  0
  9 16  1  0  0  0  0
 10 11  2  0  0  0  0
 10 12  1  0  0  0  0
 12 17  1  0  0  0  0
M  END
