./063216-86-4.hin
 OpenBabel10051109203D

 58 62  0  0  0  0  0  0  0  0999 V2000
   -2.2364    1.9418    0.4270 N   0  0  0  0  0  0  0  0  0  0  0  0
   -0.9471    1.6459    0.2006 N   0  0  0  0  0  0  0  0  0  0  0  0
   -0.1264    2.7016   -0.0368 N   0  0  0  0  0  0  0  0  0  0  0  0
   -0.9407    3.7927    0.0389 C   0  0  0  0  0  0  0  0  0  0  0  0
   -2.2977    3.3072    0.3351 C   0  0  0  0  0  0  0  0  0  0  0  0
   -0.7044    5.1974   -0.1131 C   0  0  0  0  0  0  0  0  0  0  0  0
   -1.8087    6.0756    0.0357 C   0  0  0  0  0  0  0  0  0  0  0  0
   -3.1392    5.5762    0.3344 C   0  0  0  0  0  0  0  0  0  0  0  0
   -3.3686    4.2311    0.4684 C   0  0  0  0  0  0  0  0  0  0  0  0
   -1.5662    7.4585   -0.1243 C   0  0  0  0  0  0  0  0  0  0  0  0
   -0.2992    7.9382   -0.4088 C   0  0  0  0  0  0  0  0  0  0  0  0
    0.7820    7.0571   -0.5497 C   0  0  0  0  0  0  0  0  0  0  0  0
    0.5797    5.6958   -0.4034 C   0  0  0  0  0  0  0  0  0  0  0  0
   -0.4550    0.2877    0.2052 C   0  0  0  0  0  0  0  0  0  0  0  0
   -1.3136   -0.7764   -0.1065 C   0  0  0  0  0  0  0  0  0  0  0  0
   -0.8536   -2.1032   -0.1002 C   0  0  0  0  0  0  0  0  0  0  0  0
    0.4934   -2.3511    0.2227 C   0  0  0  0  0  0  0  0  0  0  0  0
    1.3526   -1.2812    0.5208 C   0  0  0  0  0  0  0  0  0  0  0  0
    0.8961    0.0293    0.5199 C   0  0  0  0  0  0  0  0  0  0  0  0
   -1.9592   -3.2805   -0.5220 S   0  0  0  0  0  0  0  0  0  0  0  0
   -3.2515   -2.8176   -0.4031 O   0  0  0  0  0  0  0  0  0  0  0  0
   -1.6238   -4.5493   -0.0798 O   0  0  0  0  0  0  0  0  0  0  0  0
   -1.6999   -3.4191   -2.1524 O   0  0  0  0  0  0  0  0  0  0  0  0
    1.0332   -3.7047    0.2919 C   0  0  0  0  0  0  0  0  0  0  0  0
    2.2418   -4.0172   -0.2030 C   0  0  0  0  0  0  0  0  0  0  0  0
    2.8467   -5.3361   -0.0818 C   0  0  0  0  0  0  0  0  0  0  0  0
    4.2373   -5.4713    0.0941 C   0  0  0  0  0  0  0  0  0  0  0  0
    4.7834   -6.7547    0.1992 C   0  0  0  0  0  0  0  0  0  0  0  0
    3.9833   -7.9163    0.1328 C   0  0  0  0  0  0  0  0  0  0  0  0
    2.5863   -7.7508   -0.0309 C   0  0  0  0  0  0  0  0  0  0  0  0
    2.0400   -6.4813   -0.1358 C   0  0  0  0  0  0  0  0  0  0  0  0
    5.2948   -4.1908    0.2003 S   0  0  0  0  0  0  0  0  0  0  0  0
    6.5096   -4.5742    0.7301 O   0  0  0  0  0  0  0  0  0  0  0  0
    4.7069   -3.0001    0.6038 O   0  0  0  0  0  0  0  0  0  0  0  0
    5.5971   -3.8607   -1.3979 O   0  0  0  0  0  0  0  0  0  0  0  0
    4.5589   -9.1840    0.1433 N   0  0  0  0  0  0  0  0  0  0  0  0
   -4.4560    6.5897    0.5236 S   0  0  0  0  0  0  0  0  0  0  0  0
   -4.1907    7.7560    1.2177 O   0  0  0  0  0  0  0  0  0  0  0  0
   -5.5905    5.8568    0.8110 O   0  0  0  0  0  0  0  0  0  0  0  0
   -4.6872    7.1713   -1.0107 O   0  0  0  0  0  0  0  0  0  0  0  0
   -4.3842    3.8390    0.6825 H   0  0  0  0  0  0  0  0  0  0  0  0
   -2.3912    8.1817   -0.0128 H   0  0  0  0  0  0  0  0  0  0  0  0
   -0.1378    9.0213   -0.5236 H   0  0  0  0  0  0  0  0  0  0  0  0
    1.7845    7.4498   -0.7753 H   0  0  0  0  0  0  0  0  0  0  0  0
    1.4197    4.9923   -0.5132 H   0  0  0  0  0  0  0  0  0  0  0  0
   -2.3783   -0.5911   -0.3589 H   0  0  0  0  0  0  0  0  0  0  0  0
    2.4103   -1.4921    0.7696 H   0  0  0  0  0  0  0  0  0  0  0  0
    1.5959    0.8467    0.7645 H   0  0  0  0  0  0  0  0  0  0  0  0
   -1.4839   -4.2859   -2.4912 H   0  0  0  0  0  0  0  0  0  0  0  0
    0.4056   -4.4569    0.8074 H   0  0  0  0  0  0  0  0  0  0  0  0
    2.8497   -3.2524   -0.7237 H   0  0  0  0  0  0  0  0  0  0  0  0
    5.8773   -6.8532    0.3388 H   0  0  0  0  0  0  0  0  0  0  0  0
    1.9261   -8.6313   -0.0827 H   0  0  0  0  0  0  0  0  0  0  0  0
    0.9495   -6.3692   -0.2663 H   0  0  0  0  0  0  0  0  0  0  0  0
    5.5190   -2.9503   -1.6763 H   0  0  0  0  0  0  0  0  0  0  0  0
    3.9530   -9.9259    0.4101 H   0  0  0  0  0  0  0  0  0  0  0  0
    5.4728   -9.2371    0.5324 H   0  0  0  0  0  0  0  0  0  0  0  0
   -4.6964    8.1205   -1.1209 H   0  0  0  0  0  0  0  0  0  0  0  0
  1  2  1  0  0  0  0
  1  5  2  0  0  0  0
  2  3  1  0  0  0  0
  2 14  1  0  0  0  0
  3  4  2  0  0  0  0
  4  5  1  0  0  0  0
  4  6  1  0  0  0  0
  5  9  1  0  0  0  0
  6  7  2  0  0  0  0
  6 13  1  0  0  0  0
  7  8  1  0  0  0  0
  7 10  1  0  0  0  0
  8  9  2  0  0  0  0
  8 37  1  0  0  0  0
  9 41  1  0  0  0  0
 10 11  2  0  0  0  0
 10 42  1  0  0  0  0
 11 12  1  0  0  0  0
 11 43  1  0  0  0  0
 12 13  2  0  0  0  0
 12 44  1  0  0  0  0
 13 45  1  0  0  0  0
 14 15  2  0  0  0  0
 14 19  1  0  0  0  0
 15 16  1  0  0  0  0
 15 46  1  0  0  0  0
 16 17  2  0  0  0  0
 16 20  1  0  0  0  0
 17 18  1  0  0  0  0
 17 24  1  0  0  0  0
 18 19  2  0  0  0  0
 18 47  1  0  0  0  0
 19 48  1  0  0  0  0
 20 21  2  0  0  0  0
 20 22  2  0  0  0  0
 20 23  1  0  0  0  0
 23 49  1  0  0  0  0
 24 25  2  0  0  0  0
 24 50  1  0  0  0  0
 25 26  1  0  0  0  0
 25 51  1  0  0  0  0
 26 27  2  0  0  0  0
 26 31  1  0  0  0  0
 27 28  1  0  0  0  0
 27 32  1  0  0  0  0
 28 29  2  0  0  0  0
 28 52  1  0  0  0  0
 29 30  1  0  0  0  0
 29 36  1  0  0  0  0
 30 31  2  0  0  0  0
 30 53  1  0  0  0  0
 31 54  1  0  0  0  0
 32 33  2  0  0  0  0
 32 34  2  0  0  0  0
 32 35  1  0  0  0  0
 35 55  1  0  0  0  0
 36 56  1  0  0  0  0
 36 57  1  0  0  0  0
 37 38  2  0  0  0  0
 37 39  2  0  0  0  0
 37 40  1  0  0  0  0
 40 58  1  0  0  0  0
M  END
