./063251-40-1.hin
 OpenBabel10051109203D

 40 43  0  0  0  0  0  0  0  0999 V2000
   -0.6359   -2.9632   -0.1885 N   0  0  0  0  0  0  0  0  0  0  0  0
    0.6759   -3.2359   -0.0818 N   0  0  0  0  0  0  0  0  0  0  0  0
    1.4963   -2.1679    0.0104 N   0  0  0  0  0  0  0  0  0  0  0  0
    0.6620   -1.0853   -0.0397 C   0  0  0  0  0  0  0  0  0  0  0  0
   -0.7102   -1.5957   -0.1653 C   0  0  0  0  0  0  0  0  0  0  0  0
    0.9100    0.3250    0.0088 C   0  0  0  0  0  0  0  0  0  0  0  0
   -0.2116    1.1946   -0.0565 C   0  0  0  0  0  0  0  0  0  0  0  0
   -1.5425    0.6541   -0.1881 C   0  0  0  0  0  0  0  0  0  0  0  0
   -1.8014   -0.6811   -0.2408 C   0  0  0  0  0  0  0  0  0  0  0  0
    0.0056    2.5984    0.0008 C   0  0  0  0  0  0  0  0  0  0  0  0
    1.3125    3.0707    0.0870 C   0  0  0  0  0  0  0  0  0  0  0  0
    2.4278    2.2215    0.1466 C   0  0  0  0  0  0  0  0  0  0  0  0
    2.2068    0.8426    0.1129 C   0  0  0  0  0  0  0  0  0  0  0  0
   -1.2298    3.7180   -0.0125 S   0  0  0  0  0  0  0  0  0  0  0  0
   -0.7317    5.0070   -0.0986 O   0  0  0  0  0  0  0  0  0  0  0  0
   -2.2481    3.4058    0.8595 O   0  0  0  0  0  0  0  0  0  0  0  0
   -1.8981    3.5010   -1.5122 O   0  0  0  0  0  0  0  0  0  0  0  0
    3.9677    2.8317    0.2482 S   0  0  0  0  0  0  0  0  0  0  0  0
    4.0239    4.1583   -0.1379 O   0  0  0  0  0  0  0  0  0  0  0  0
    4.9007    1.9092   -0.1710 O   0  0  0  0  0  0  0  0  0  0  0  0
    4.1872    2.9530    1.8854 O   0  0  0  0  0  0  0  0  0  0  0  0
    1.1818   -4.5911   -0.0650 C   0  0  0  0  0  0  0  0  0  0  0  0
    0.3851   -5.6359    0.4403 C   0  0  0  0  0  0  0  0  0  0  0  0
    0.8723   -6.9337    0.4564 C   0  0  0  0  0  0  0  0  0  0  0  0
    2.1681   -7.2333   -0.0317 C   0  0  0  0  0  0  0  0  0  0  0  0
    2.9588   -6.1672   -0.5270 C   0  0  0  0  0  0  0  0  0  0  0  0
    2.4736   -4.8688   -0.5511 C   0  0  0  0  0  0  0  0  0  0  0  0
    2.6214   -8.5441   -0.0919 N   0  0  0  0  0  0  0  0  0  0  0  0
   -2.3865    1.3663   -0.2511 H   0  0  0  0  0  0  0  0  0  0  0  0
   -2.8276   -1.0689   -0.3416 H   0  0  0  0  0  0  0  0  0  0  0  0
    1.4887    4.1702    0.1014 H   0  0  0  0  0  0  0  0  0  0  0  0
    3.0713    0.1502    0.1587 H   0  0  0  0  0  0  0  0  0  0  0  0
   -1.8293    4.2225   -2.1354 H   0  0  0  0  0  0  0  0  0  0  0  0
    4.3757    3.8199    2.2412 H   0  0  0  0  0  0  0  0  0  0  0  0
   -0.6291   -5.4432    0.8273 H   0  0  0  0  0  0  0  0  0  0  0  0
    0.2313   -7.7374    0.8503 H   0  0  0  0  0  0  0  0  0  0  0  0
    3.9718   -6.3632   -0.9110 H   0  0  0  0  0  0  0  0  0  0  0  0
    3.1168   -4.0676   -0.9511 H   0  0  0  0  0  0  0  0  0  0  0  0
    3.6046   -8.6631   -0.1698 H   0  0  0  0  0  0  0  0  0  0  0  0
    2.1647   -9.1922    0.5065 H   0  0  0  0  0  0  0  0  0  0  0  0
  1  2  1  0  0  0  0
  1  5  2  0  0  0  0
  2  3  1  0  0  0  0
  2 22  1  0  0  0  0
  3  4  2  0  0  0  0
  4  5  1  0  0  0  0
  4  6  1  0  0  0  0
  5  9  1  0  0  0  0
  6  7  2  0  0  0  0
  6 13  1  0  0  0  0
  7  8  1  0  0  0  0
  7 10  1  0  0  0  0
  8  9  2  0  0  0  0
  8 29  1  0  0  0  0
  9 30  1  0  0  0  0
 10 11  2  0  0  0  0
 10 14  1  0  0  0  0
 11 12  1  0  0  0  0
 11 31  1  0  0  0  0
 12 13  2  0  0  0  0
 12 18  1  0  0  0  0
 13 32  1  0  0  0  0
 14 15  2  0  0  0  0
 14 16  2  0  0  0  0
 14 17  1  0  0  0  0
 17 33  1  0  0  0  0
 18 19  2  0  0  0  0
 18 20  2  0  0  0  0
 18 21  1  0  0  0  0
 21 34  1  0  0  0  0
 22 23  2  0  0  0  0
 22 27  1  0  0  0  0
 23 24  1  0  0  0  0
 23 35  1  0  0  0  0
 24 25  2  0  0  0  0
 24 36  1  0  0  0  0
 25 26  1  0  0  0  0
 25 28  1  0  0  0  0
 26 27  2  0  0  0  0
 26 37  1  0  0  0  0
 27 38  1  0  0  0  0
 28 39  1  0  0  0  0
 28 40  1  0  0  0  0
M  END
