./063870-37-1.hin
 OpenBabel10051109203D

 24 26  0  0  0  0  0  0  0  0999 V2000
   -0.0937   -4.2989   -0.2410 N   0  0  0  0  0  0  0  0  0  0  0  0
    1.2146   -4.5434   -0.1657 N   0  0  0  0  0  0  0  0  0  0  0  0
    2.0297   -3.4928   -0.0424 N   0  0  0  0  0  0  0  0  0  0  0  0
    1.1865   -2.4130   -0.0327 C   0  0  0  0  0  0  0  0  0  0  0  0
   -0.1859   -2.9343   -0.1613 C   0  0  0  0  0  0  0  0  0  0  0  0
    1.4214   -1.0036    0.0731 C   0  0  0  0  0  0  0  0  0  0  0  0
    0.2923   -0.1447    0.0556 C   0  0  0  0  0  0  0  0  0  0  0  0
   -1.0385   -0.6956   -0.0791 C   0  0  0  0  0  0  0  0  0  0  0  0
   -1.2875   -2.0269   -0.1829 C   0  0  0  0  0  0  0  0  0  0  0  0
    0.4897    1.2553    0.1656 C   0  0  0  0  0  0  0  0  0  0  0  0
    1.7947    1.7449    0.2679 C   0  0  0  0  0  0  0  0  0  0  0  0
    2.9020    0.8954    0.2825 C   0  0  0  0  0  0  0  0  0  0  0  0
    2.7186   -0.4760    0.1884 C   0  0  0  0  0  0  0  0  0  0  0  0
   -0.7484    2.3625    0.1976 S   0  0  0  0  0  0  0  0  0  0  0  0
   -0.2698    3.6610    0.1047 O   0  0  0  0  0  0  0  0  0  0  0  0
   -1.7427    2.0435    1.0962 O   0  0  0  0  0  0  0  0  0  0  0  0
   -1.4651    2.1603   -1.2851 O   0  0  0  0  0  0  0  0  0  0  0  0
    1.5739   -5.4798   -0.1980 H   0  0  0  0  0  0  0  0  0  0  0  0
   -1.8875    0.0131   -0.1002 H   0  0  0  0  0  0  0  0  0  0  0  0
   -2.3102   -2.4218   -0.2834 H   0  0  0  0  0  0  0  0  0  0  0  0
    1.9563    2.8383    0.3385 H   0  0  0  0  0  0  0  0  0  0  0  0
    3.9150    1.3169    0.3684 H   0  0  0  0  0  0  0  0  0  0  0  0
    3.5846   -1.1580    0.2016 H   0  0  0  0  0  0  0  0  0  0  0  0
   -1.4284    2.8967   -1.8926 H   0  0  0  0  0  0  0  0  0  0  0  0
  1  2  1  0  0  0  0
  1  5  2  0  0  0  0
  2  3  1  0  0  0  0
  2 18  1  0  0  0  0
  3  4  2  0  0  0  0
  4  5  1  0  0  0  0
  4  6  1  0  0  0  0
  5  9  1  0  0  0  0
  6  7  2  0  0  0  0
  6 13  1  0  0  0  0
  7  8  1  0  0  0  0
  7 10  1  0  0  0  0
  8  9  2  0  0  0  0
  8 19  1  0  0  0  0
  9 20  1  0  0  0  0
 10 11  2  0  0  0  0
 10 14  1  0  0  0  0
 11 12  1  0  0  0  0
 11 21  1  0  0  0  0
 12 13  2  0  0  0  0
 12 22  1  0  0  0  0
 13 23  1  0  0  0  0
 14 15  2  0  0  0  0
 14 16  2  0  0  0  0
 14 17  1  0  0  0  0
 17 24  1  0  0  0  0
M  END
