./064057-50-7.hin
 OpenBabel10051109203D

 27 28  0  0  0  0  0  0  0  0999 V2000
   -2.7186   -1.5892    0.3577 N   0  0  0  0  0  0  0  0  0  0  0  0
   -1.7191   -0.6323    0.3058 C   0  0  0  0  0  0  0  0  0  0  0  0
   -0.4690   -1.2765    0.3815 N   0  0  0  0  0  0  0  0  0  0  0  0
   -1.9640    0.7777    0.1964 C   0  0  0  0  0  0  0  0  0  0  0  0
   -0.8633    1.6368    0.1240 O   0  0  0  0  0  0  0  0  0  0  0  0
   -2.8032    2.8815    0.0274 C   0  0  0  0  0  0  0  0  0  0  0  0
   -3.1558    1.4926    0.1405 C   0  0  0  0  0  0  0  0  0  0  0  0
   -1.4145    2.9297    0.0222 C   0  0  0  0  0  0  0  0  0  0  0  0
   -0.4766    4.0422   -0.0626 N   0  3  0  0  0  0  0  0  0  0  0  0
    0.7021    3.8222   -0.0237 O   0  0  0  0  0  0  0  0  0  0  0  0
   -0.9328    5.1496   -0.1670 O   0  5  0  0  0  0  0  0  0  0  0  0
   -2.1901   -2.7714    0.4316 N   0  0  0  0  0  0  0  0  0  0  0  0
   -0.7952   -2.6497    0.4408 C   0  0  0  0  0  0  0  0  0  0  0  0
    0.1220   -3.7031    0.5548 N   0  0  0  0  0  0  0  0  0  0  0  0
    0.8303   -0.6859    0.3061 C   0  0  0  0  0  0  0  0  0  0  0  0
    1.1940   -3.8690   -0.3151 C   0  0  0  0  0  0  0  0  0  0  0  0
    1.9591   -5.1771   -0.2434 C   0  0  0  0  0  0  0  0  0  0  0  0
    1.5325   -2.9866   -1.1212 O   0  0  0  0  0  0  0  0  0  0  0  0
    2.1789   -5.7842    1.3757 Cl  0  0  0  0  0  0  0  0  0  0  0  0
   -3.4861    3.7283   -0.0406 H   0  0  0  0  0  0  0  0  0  0  0  0
   -4.1634    1.0810    0.1751 H   0  0  0  0  0  0  0  0  0  0  0  0
   -0.1941   -4.4812    1.0960 H   0  0  0  0  0  0  0  0  0  0  0  0
    0.8096    0.3367    0.7707 H   0  0  0  0  0  0  0  0  0  0  0  0
    1.5659   -1.3310    0.8570 H   0  0  0  0  0  0  0  0  0  0  0  0
    1.1541   -0.6081   -0.7692 H   0  0  0  0  0  0  0  0  0  0  0  0
    1.4076   -5.9552   -0.8282 H   0  0  0  0  0  0  0  0  0  0  0  0
    2.9747   -5.0176   -0.6863 H   0  0  0  0  0  0  0  0  0  0  0  0
  1  2  2  0  0  0  0
  1 12  1  0  0  0  0
  2  3  1  0  0  0  0
  2  4  1  0  0  0  0
  3 13  1  0  0  0  0
  3 15  1  0  0  0  0
  4  5  1  0  0  0  0
  4  7  2  0  0  0  0
  5  8  1  0  0  0  0
  6  7  1  0  0  0  0
  6  8  2  0  0  0  0
  6 20  1  0  0  0  0
  7 21  1  0  0  0  0
  8  9  1  0  0  0  0
  9 10  2  0  0  0  0
  9 11  1  0  0  0  0
 12 13  2  0  0  0  0
 13 14  1  0  0  0  0
 14 16  1  0  0  0  0
 14 22  1  0  0  0  0
 15 23  1  0  0  0  0
 15 24  1  0  0  0  0
 15 25  1  0  0  0  0
 16 17  1  0  0  0  0
 16 18  2  0  0  0  0
 17 19  1  0  0  0  0
 17 26  1  0  0  0  0
 17 27  1  0  0  0  0
M  CHG  2   9   1  11  -1
M  END
