./064082-38-8.hin
 OpenBabel10051109203D

 24 25  0  0  0  0  0  0  0  0999 V2000
    0.6591    0.5362   -0.0408 C   0  0  0  0  0  0  0  0  0  0  0  0
   -0.4486   -0.2598    0.3129 N   0  0  0  0  0  0  0  0  0  0  0  0
   -0.0814   -1.5608   -0.0724 C   0  0  0  0  0  0  0  0  0  0  0  0
   -0.8636   -2.7115    0.0768 N   0  0  0  0  0  0  0  0  0  0  0  0
   -2.1236   -2.7273    0.6449 C   0  0  0  0  0  0  0  0  0  0  0  0
   -2.8234   -4.0838    0.7276 C   0  0  0  0  0  0  0  0  0  0  0  0
   -3.0900   -4.7271   -0.8741 Cl  0  0  0  0  0  0  0  0  0  0  0  0
   -1.9049   -5.1805    1.7295 Cl  0  0  0  0  0  0  0  0  0  0  0  0
   -2.6914   -1.7093    1.0771 O   0  0  0  0  0  0  0  0  0  0  0  0
    1.2033   -1.5055   -0.6329 N   0  0  0  0  0  0  0  0  0  0  0  0
    1.6208   -0.2740   -0.6065 N   0  0  0  0  0  0  0  0  0  0  0  0
    0.6985    1.9532    0.1850 C   0  0  0  0  0  0  0  0  0  0  0  0
    1.8760    2.6168   -0.1607 O   0  0  0  0  0  0  0  0  0  0  0  0
    1.6408    3.9665    0.1617 C   0  0  0  0  0  0  0  0  0  0  0  0
    2.7181    4.9182   -0.0954 N   0  3  0  0  0  0  0  0  0  0  0  0
    2.5112    6.0707    0.1811 O   0  0  0  0  0  0  0  0  0  0  0  0
    3.7512    4.5327   -0.5621 O   0  5  0  0  0  0  0  0  0  0  0  0
    0.3663    4.1423    0.6884 C   0  0  0  0  0  0  0  0  0  0  0  0
   -0.2405    2.8408    0.7026 C   0  0  0  0  0  0  0  0  0  0  0  0
   -1.2984    0.0191    0.7417 H   0  0  0  0  0  0  0  0  0  0  0  0
   -0.4521   -3.5606   -0.2548 H   0  0  0  0  0  0  0  0  0  0  0  0
   -3.8268   -3.9441    1.2087 H   0  0  0  0  0  0  0  0  0  0  0  0
   -0.0792    5.0792    1.0217 H   0  0  0  0  0  0  0  0  0  0  0  0
   -1.2438    2.6119    1.0532 H   0  0  0  0  0  0  0  0  0  0  0  0
  1  2  1  0  0  0  0
  1 11  2  0  0  0  0
  1 12  1  0  0  0  0
  2  3  1  0  0  0  0
  2 20  1  0  0  0  0
  3  4  1  0  0  0  0
  3 10  2  0  0  0  0
  4  5  1  0  0  0  0
  4 21  1  0  0  0  0
  5  6  1  0  0  0  0
  5  9  2  0  0  0  0
  6  7  1  0  0  0  0
  6  8  1  0  0  0  0
  6 22  1  0  0  0  0
 10 11  1  0  0  0  0
 12 13  1  0  0  0  0
 12 19  2  0  0  0  0
 13 14  1  0  0  0  0
 14 15  1  0  0  0  0
 14 18  2  0  0  0  0
 15 16  2  0  0  0  0
 15 17  1  0  0  0  0
 18 19  1  0  0  0  0
 18 23  1  0  0  0  0
 19 24  1  0  0  0  0
M  CHG  2  15   1  17  -1
M  END
