./066104-34-5.hin
 OpenBabel10051109203D

 29 31  0  0  0  0  0  0  0  0999 V2000
    2.3800   -0.5687   -0.0107 C   0  0  0  0  0  0  0  0  0  0  0  0
    2.3394    0.9174   -0.0066 C   0  0  0  0  0  0  0  0  0  0  0  0
    3.5730    1.6224   -0.0109 C   0  0  0  0  0  0  0  0  0  0  0  0
    4.7214    0.8896   -0.0252 C   0  0  0  0  0  0  0  0  0  0  0  0
    4.6817   -0.5774   -0.0398 C   0  0  0  0  0  0  0  0  0  0  0  0
    3.5468   -1.3009   -0.0104 N   0  0  0  0  0  0  0  0  0  0  0  0
    1.0263    1.2962    0.0014 N   0  0  0  0  0  0  0  0  0  0  0  0
    0.3376    0.1426    0.0027 N   0  0  0  0  0  0  0  0  0  0  0  0
    1.0661   -0.9970   -0.0044 N   0  0  0  0  0  0  0  0  0  0  0  0
    5.9085   -1.2431   -0.1592 N   0  0  0  0  0  0  0  0  0  0  0  0
   -1.1093    0.1150    0.0050 C   0  0  0  0  0  0  0  0  0  0  0  0
   -1.8415    1.3230    0.0058 C   0  0  0  0  0  0  0  0  0  0  0  0
   -3.2280    1.2949    0.0059 C   0  0  0  0  0  0  0  0  0  0  0  0
   -3.9049    0.0610    0.0052 C   0  0  0  0  0  0  0  0  0  0  0  0
   -3.1862   -1.1391    0.0053 C   0  0  0  0  0  0  0  0  0  0  0  0
   -1.7940   -1.1152    0.0051 C   0  0  0  0  0  0  0  0  0  0  0  0
   -5.2808    0.1521    0.0045 O   0  0  0  0  0  0  0  0  0  0  0  0
   -5.9937   -1.0804   -0.0004 C   0  0  0  0  0  0  0  0  0  0  0  0
    3.5792    2.7225   -0.0033 H   0  0  0  0  0  0  0  0  0  0  0  0
    5.7011    1.3891   -0.0394 H   0  0  0  0  0  0  0  0  0  0  0  0
    6.6710   -0.7769    0.2764 H   0  0  0  0  0  0  0  0  0  0  0  0
    5.8947   -2.2300   -0.0236 H   0  0  0  0  0  0  0  0  0  0  0  0
   -1.3352    2.3022    0.0058 H   0  0  0  0  0  0  0  0  0  0  0  0
   -3.8078    2.2295    0.0060 H   0  0  0  0  0  0  0  0  0  0  0  0
   -3.7030   -2.1095    0.0049 H   0  0  0  0  0  0  0  0  0  0  0  0
   -1.2530   -2.0762    0.0045 H   0  0  0  0  0  0  0  0  0  0  0  0
   -7.0661   -0.7584   -0.0031 H   0  0  0  0  0  0  0  0  0  0  0  0
   -5.7561   -1.6694   -0.9192 H   0  0  0  0  0  0  0  0  0  0  0  0
   -5.7617   -1.6730    0.9176 H   0  0  0  0  0  0  0  0  0  0  0  0
  1  2  1  0  0  0  0
  1  6  1  0  0  0  0
  1  9  2  0  0  0  0
  2  3  1  0  0  0  0
  2  7  2  0  0  0  0
  3  4  2  0  0  0  0
  3 19  1  0  0  0  0
  4  5  1  0  0  0  0
  4 20  1  0  0  0  0
  5  6  2  0  0  0  0
  5 10  1  0  0  0  0
  7  8  1  0  0  0  0
  8  9  1  0  0  0  0
  8 11  1  0  0  0  0
 10 21  1  0  0  0  0
 10 22  1  0  0  0  0
 11 12  2  0  0  0  0
 11 16  1  0  0  0  0
 12 13  1  0  0  0  0
 12 23  1  0  0  0  0
 13 14  2  0  0  0  0
 13 24  1  0  0  0  0
 14 15  1  0  0  0  0
 14 17  1  0  0  0  0
 15 16  2  0  0  0  0
 15 25  1  0  0  0  0
 16 26  1  0  0  0  0
 17 18  1  0  0  0  0
 18 27  1  0  0  0  0
 18 28  1  0  0  0  0
 18 29  1  0  0  0  0
M  END
