./066104-44-7.hin
 OpenBabel10051109203D

 31 33  0  0  0  0  0  0  0  0999 V2000
    2.0371   -0.9630   -0.0000 C   0  0  0  0  0  0  0  0  0  0  0  0
    2.0273    0.5249    0.0000 C   0  0  0  0  0  0  0  0  0  0  0  0
    3.2752    1.2049    0.0000 C   0  0  0  0  0  0  0  0  0  0  0  0
    4.4086    0.4506    0.0000 C   0  0  0  0  0  0  0  0  0  0  0  0
    4.3388   -1.0181    0.0000 C   0  0  0  0  0  0  0  0  0  0  0  0
    3.1861   -1.7212   -0.0000 N   0  0  0  0  0  0  0  0  0  0  0  0
    0.7235    0.9319    0.0000 N   0  0  0  0  0  0  0  0  0  0  0  0
    0.0096   -0.2057    0.0000 N   0  0  0  0  0  0  0  0  0  0  0  0
    0.7151   -1.3625   -0.0000 N   0  0  0  0  0  0  0  0  0  0  0  0
    5.5341   -1.7096    0.0000 N   0  0  0  0  0  0  0  0  0  0  0  0
   -1.4376   -0.2033    0.0000 C   0  0  0  0  0  0  0  0  0  0  0  0
   -2.1447    1.0129   -0.0000 C   0  0  0  0  0  0  0  0  0  0  0  0
   -3.5441    1.0198   -0.0000 C   0  0  0  0  0  0  0  0  0  0  0  0
   -4.2518   -0.1922   -0.0000 C   0  0  0  0  0  0  0  0  0  0  0  0
   -3.5370   -1.3965    0.0000 C   0  0  0  0  0  0  0  0  0  0  0  0
   -2.1481   -1.4211    0.0000 C   0  0  0  0  0  0  0  0  0  0  0  0
   -5.7325   -0.2513   -0.0000 C   0  0  0  0  0  0  0  0  0  0  0  0
   -4.2498    2.3247   -0.0000 C   0  0  0  0  0  0  0  0  0  0  0  0
    3.3031    2.3047   -0.0000 H   0  0  0  0  0  0  0  0  0  0  0  0
    5.3973    0.9314    0.0000 H   0  0  0  0  0  0  0  0  0  0  0  0
    6.3802   -1.2045   -0.0000 H   0  0  0  0  0  0  0  0  0  0  0  0
    5.5492   -2.6977   -0.0000 H   0  0  0  0  0  0  0  0  0  0  0  0
   -1.6161    1.9803   -0.0000 H   0  0  0  0  0  0  0  0  0  0  0  0
   -4.0893   -2.3495    0.0000 H   0  0  0  0  0  0  0  0  0  0  0  0
   -1.6296   -2.3933    0.0000 H   0  0  0  0  0  0  0  0  0  0  0  0
   -6.1961    0.7644    0.0000 H   0  0  0  0  0  0  0  0  0  0  0  0
   -6.0932   -0.8006   -0.9061 H   0  0  0  0  0  0  0  0  0  0  0  0
   -6.0932   -0.8007    0.9061 H   0  0  0  0  0  0  0  0  0  0  0  0
   -3.5277    3.1781   -0.0000 H   0  0  0  0  0  0  0  0  0  0  0  0
   -4.8979    2.4161   -0.9076 H   0  0  0  0  0  0  0  0  0  0  0  0
   -4.8979    2.4161    0.9076 H   0  0  0  0  0  0  0  0  0  0  0  0
  1  2  1  0  0  0  0
  1  6  1  0  0  0  0
  1  9  2  0  0  0  0
  2  3  1  0  0  0  0
  2  7  2  0  0  0  0
  3  4  2  0  0  0  0
  3 19  1  0  0  0  0
  4  5  1  0  0  0  0
  4 20  1  0  0  0  0
  5  6  2  0  0  0  0
  5 10  1  0  0  0  0
  7  8  1  0  0  0  0
  8  9  1  0  0  0  0
  8 11  1  0  0  0  0
 10 21  1  0  0  0  0
 10 22  1  0  0  0  0
 11 12  2  0  0  0  0
 11 16  1  0  0  0  0
 12 13  1  0  0  0  0
 12 23  1  0  0  0  0
 13 14  2  0  0  0  0
 13 18  1  0  0  0  0
 14 15  1  0  0  0  0
 14 17  1  0  0  0  0
 15 16  2  0  0  0  0
 15 24  1  0  0  0  0
 16 25  1  0  0  0  0
 17 26  1  0  0  0  0
 17 27  1  0  0  0  0
 17 28  1  0  0  0  0
 18 29  1  0  0  0  0
 18 30  1  0  0  0  0
 18 31  1  0  0  0  0
M  END
