./066246-88-6.hin
 OpenBabel10051109203D

 33 34  0  0  0  0  0  0  0  0999 V2000
   -0.4822   -0.2656   -0.7470 C   0  0  0  0  0  0  0  0  0  0  0  0
   -1.5475   -0.8281   -1.4735 C   0  0  0  0  0  0  0  0  0  0  0  0
   -1.5894   -2.1803   -1.7883 C   0  0  0  0  0  0  0  0  0  0  0  0
   -0.5441   -3.0120   -1.3731 C   0  0  0  0  0  0  0  0  0  0  0  0
   -0.5759   -4.6670   -1.7521 Cl  0  0  0  0  0  0  0  0  0  0  0  0
    0.5241   -2.4870   -0.6478 C   0  0  0  0  0  0  0  0  0  0  0  0
    0.5519   -1.1197   -0.3370 C   0  0  0  0  0  0  0  0  0  0  0  0
    1.8938   -0.5826    0.5602 Cl  0  0  0  0  0  0  0  0  0  0  0  0
   -0.5583    1.2052   -0.4792 C   0  0  0  0  0  0  0  0  0  0  0  0
    0.7448    1.9532   -0.7156 C   0  0  0  0  0  0  0  0  0  0  0  0
    0.4991    3.3626   -1.2191 C   0  0  0  0  0  0  0  0  0  0  0  0
    1.7951    4.1112   -1.3968 C   0  0  0  0  0  0  0  0  0  0  0  0
   -1.1812    1.5091    0.8960 C   0  0  0  0  0  0  0  0  0  0  0  0
   -0.4693    1.0313    2.0594 N   0  0  0  0  0  0  0  0  0  0  0  0
    0.5383    1.7417    2.7513 C   0  0  0  0  0  0  0  0  0  0  0  0
    0.9801    0.9970    3.7853 N   0  0  0  0  0  0  0  0  0  0  0  0
    0.2150   -0.1807    3.6905 C   0  0  0  0  0  0  0  0  0  0  0  0
   -0.6594   -0.1650    2.6454 N   0  0  0  0  0  0  0  0  0  0  0  0
   -2.3759   -0.1807   -1.8032 H   0  0  0  0  0  0  0  0  0  0  0  0
   -2.4371   -2.5914   -2.3572 H   0  0  0  0  0  0  0  0  0  0  0  0
    1.3445   -3.1430   -0.3139 H   0  0  0  0  0  0  0  0  0  0  0  0
   -1.3116    1.6320   -1.2142 H   0  0  0  0  0  0  0  0  0  0  0  0
    1.3478    2.0032    0.2294 H   0  0  0  0  0  0  0  0  0  0  0  0
    1.3605    1.3980   -1.4722 H   0  0  0  0  0  0  0  0  0  0  0  0
   -0.0482    3.3237   -2.1982 H   0  0  0  0  0  0  0  0  0  0  0  0
   -0.1577    3.9144   -0.4955 H   0  0  0  0  0  0  0  0  0  0  0  0
    1.5972    5.1430   -1.7752 H   0  0  0  0  0  0  0  0  0  0  0  0
    2.3431    4.1899   -0.4267 H   0  0  0  0  0  0  0  0  0  0  0  0
    2.4553    3.5866   -2.1293 H   0  0  0  0  0  0  0  0  0  0  0  0
   -1.2568    2.6301    0.9999 H   0  0  0  0  0  0  0  0  0  0  0  0
   -2.2213    1.0711    0.9083 H   0  0  0  0  0  0  0  0  0  0  0  0
    0.8737    2.7433    2.4674 H   0  0  0  0  0  0  0  0  0  0  0  0
    0.3204   -1.0156    4.3899 H   0  0  0  0  0  0  0  0  0  0  0  0
  1  2  2  0  0  0  0
  1  7  1  0  0  0  0
  1  9  1  0  0  0  0
  2  3  1  0  0  0  0
  2 19  1  0  0  0  0
  3  4  2  0  0  0  0
  3 20  1  0  0  0  0
  4  5  1  0  0  0  0
  4  6  1  0  0  0  0
  6  7  2  0  0  0  0
  6 21  1  0  0  0  0
  7  8  1  0  0  0  0
  9 10  1  0  0  0  0
  9 13  1  0  0  0  0
  9 22  1  0  0  0  0
 10 11  1  0  0  0  0
 10 23  1  0  0  0  0
 10 24  1  0  0  0  0
 11 12  1  0  0  0  0
 11 25  1  0  0  0  0
 11 26  1  0  0  0  0
 12 27  1  0  0  0  0
 12 28  1  0  0  0  0
 12 29  1  0  0  0  0
 13 14  1  0  0  0  0
 13 30  1  0  0  0  0
 13 31  1  0  0  0  0
 14 15  1  0  0  0  0
 14 18  1  0  0  0  0
 15 16  2  0  0  0  0
 15 32  1  0  0  0  0
 16 17  1  0  0  0  0
 17 18  2  0  0  0  0
 17 33  1  0  0  0  0
M  END
