./066975-54-0.hin
 OpenBabel10051109203D

 57 59  0  0  0  0  0  0  0  0999 V2000
   -3.5741    2.5057   -0.4190 C   0  0  0  0  0  0  0  0  0  0  0  0
   -3.7291    1.0824   -0.1320 C   0  0  0  0  0  0  0  0  0  0  0  0
   -5.0351    0.4892    0.1017 C   0  0  0  0  0  0  0  0  0  0  0  0
   -2.5510    3.0664   -0.8413 O   0  0  0  0  0  0  0  0  0  0  0  0
   -4.6695    3.2773   -0.1600 O   0  0  0  0  0  0  0  0  0  0  0  0
   -5.2769   -0.6735    0.4745 O   0  0  0  0  0  0  0  0  0  0  0  0
   -6.1015    1.3014   -0.1513 O   0  0  0  0  0  0  0  0  0  0  0  0
   -2.5640    0.3346   -0.1037 C   0  0  0  0  0  0  0  0  0  0  0  0
   -2.4831   -0.9835    0.1871 N   0  0  0  0  0  0  0  0  0  0  0  0
   -1.2831   -1.7250    0.1711 C   0  0  0  0  0  0  0  0  0  0  0  0
   -0.0213   -1.1180    0.3356 C   0  0  0  0  0  0  0  0  0  0  0  0
    1.1361   -1.8917    0.3139 C   0  0  0  0  0  0  0  0  0  0  0  0
    1.0576   -3.2909    0.1632 C   0  0  0  0  0  0  0  0  0  0  0  0
   -0.1974   -3.8984    0.0133 C   0  0  0  0  0  0  0  0  0  0  0  0
   -1.3518   -3.1272    0.0108 C   0  0  0  0  0  0  0  0  0  0  0  0
    2.2541   -3.9688    0.1933 O   0  0  0  0  0  0  0  0  0  0  0  0
    2.1719   -5.3994    0.0965 C   0  0  0  0  0  0  0  0  0  0  0  0
    3.6024   -5.8998    0.2011 C   0  0  0  0  0  0  0  0  0  0  0  0
    3.6378   -7.4037    0.1307 C   0  0  0  0  0  0  0  0  0  0  0  0
    2.4599   -1.2210    0.4581 C   0  0  0  0  0  0  0  0  0  0  0  0
    3.2483   -1.2694   -0.7422 N   0  0  0  0  0  0  0  0  0  0  0  0
    4.4087   -0.6796   -0.6266 C   0  0  0  0  0  0  0  0  0  0  0  0
    4.9224   -0.0054    0.6378 C   0  0  0  0  0  0  0  0  0  0  0  0
    4.0129   -0.0270    1.8142 C   0  0  0  0  0  0  0  0  0  0  0  0
    2.7601   -0.6759    1.6159 N   0  0  0  0  0  0  0  0  0  0  0  0
    6.1379    0.4705    0.4222 N   0  0  0  0  0  0  0  0  0  0  0  0
    6.5248    0.1084   -0.8354 N   0  0  0  0  0  0  0  0  0  0  0  0
    5.4531   -0.4421   -1.5955 N   0  0  0  0  0  0  0  0  0  0  0  0
    4.3138    0.4912    2.8920 O   0  0  0  0  0  0  0  0  0  0  0  0
   -4.5380    4.6816   -0.4521 C   0  0  0  0  0  0  0  0  0  0  0  0
   -5.8345    5.3183   -0.0134 C   0  0  0  0  0  0  0  0  0  0  0  0
   -7.4043    0.7374    0.0926 C   0  0  0  0  0  0  0  0  0  0  0  0
   -8.3967    1.7974   -0.3205 C   0  0  0  0  0  0  0  0  0  0  0  0
   -1.6105    0.8622   -0.3429 H   0  0  0  0  0  0  0  0  0  0  0  0
   -3.3279   -1.4952    0.3794 H   0  0  0  0  0  0  0  0  0  0  0  0
    0.0718   -0.0314    0.4954 H   0  0  0  0  0  0  0  0  0  0  0  0
   -0.2832   -4.9882   -0.1067 H   0  0  0  0  0  0  0  0  0  0  0  0
   -2.3267   -3.6269   -0.1130 H   0  0  0  0  0  0  0  0  0  0  0  0
    1.7155   -5.6798   -0.8886 H   0  0  0  0  0  0  0  0  0  0  0  0
    1.5429   -5.7961    0.9359 H   0  0  0  0  0  0  0  0  0  0  0  0
    4.2107   -5.4562   -0.6297 H   0  0  0  0  0  0  0  0  0  0  0  0
    4.0486   -5.5442    1.1666 H   0  0  0  0  0  0  0  0  0  0  0  0
    4.6923   -7.7641    0.2063 H   0  0  0  0  0  0  0  0  0  0  0  0
    3.0508   -7.8543    0.9675 H   0  0  0  0  0  0  0  0  0  0  0  0
    3.2096   -7.7665   -0.8350 H   0  0  0  0  0  0  0  0  0  0  0  0
    6.9179    0.9012   -1.3407 H   0  0  0  0  0  0  0  0  0  0  0  0
    5.7655   -1.2770   -2.0715 H   0  0  0  0  0  0  0  0  0  0  0  0
   -4.3612    4.8015   -1.5525 H   0  0  0  0  0  0  0  0  0  0  0  0
   -3.6572    5.0909    0.1077 H   0  0  0  0  0  0  0  0  0  0  0  0
   -5.8354    6.3916   -0.3186 H   0  0  0  0  0  0  0  0  0  0  0  0
   -6.7036    4.7989   -0.4850 H   0  0  0  0  0  0  0  0  0  0  0  0
   -5.9483    5.2517    1.0948 H   0  0  0  0  0  0  0  0  0  0  0  0
   -7.4857    0.4859    1.1819 H   0  0  0  0  0  0  0  0  0  0  0  0
   -7.5150   -0.2012   -0.5102 H   0  0  0  0  0  0  0  0  0  0  0  0
   -9.4246    1.4612   -0.0462 H   0  0  0  0  0  0  0  0  0  0  0  0
   -8.1733    2.7629    0.1946 H   0  0  0  0  0  0  0  0  0  0  0  0
   -8.3487    1.9711   -1.4219 H   0  0  0  0  0  0  0  0  0  0  0  0
  1  2  1  0  0  0  0
  1  4  2  0  0  0  0
  1  5  1  0  0  0  0
  2  3  1  0  0  0  0
  2  8  2  0  0  0  0
  3  6  2  0  0  0  0
  3  7  1  0  0  0  0
  5 30  1  0  0  0  0
  7 32  1  0  0  0  0
  8  9  1  0  0  0  0
  8 34  1  0  0  0  0
  9 10  1  0  0  0  0
  9 35  1  0  0  0  0
 10 11  2  0  0  0  0
 10 15  1  0  0  0  0
 11 12  1  0  0  0  0
 11 36  1  0  0  0  0
 12 13  2  0  0  0  0
 12 20  1  0  0  0  0
 13 14  1  0  0  0  0
 13 16  1  0  0  0  0
 14 15  2  0  0  0  0
 14 37  1  0  0  0  0
 15 38  1  0  0  0  0
 16 17  1  0  0  0  0
 17 18  1  0  0  0  0
 17 39  1  0  0  0  0
 17 40  1  0  0  0  0
 18 19  1  0  0  0  0
 18 41  1  0  0  0  0
 18 42  1  0  0  0  0
 19 43  1  0  0  0  0
 19 44  1  0  0  0  0
 19 45  1  0  0  0  0
 20 21  1  0  0  0  0
 20 25  2  0  0  0  0
 21 22  2  0  0  0  0
 22 23  1  0  0  0  0
 22 28  1  0  0  0  0
 23 24  1  0  0  0  0
 23 26  2  0  0  0  0
 24 25  1  0  0  0  0
 24 29  2  0  0  0  0
 26 27  1  0  0  0  0
 27 28  1  0  0  0  0
 27 46  1  0  0  0  0
 28 47  1  0  0  0  0
 30 31  1  0  0  0  0
 30 48  1  0  0  0  0
 30 49  1  0  0  0  0
 31 50  1  0  0  0  0
 31 51  1  0  0  0  0
 31 52  1  0  0  0  0
 32 33  1  0  0  0  0
 32 53  1  0  0  0  0
 32 54  1  0  0  0  0
 33 55  1  0  0  0  0
 33 56  1  0  0  0  0
 33 57  1  0  0  0  0
M  END
