./067465-03-6.hin
 OpenBabel10051109203D

 26 27  0  0  0  0  0  0  0  0999 V2000
   -2.3283   -1.9947    0.0000 C   0  0  0  0  0  0  0  0  0  0  0  0
   -3.4651   -2.9725    0.0000 C   0  0  0  0  0  0  0  0  0  0  0  0
   -3.0246   -4.4030   -0.0000 C   0  0  0  0  0  0  0  0  0  0  0  0
   -4.6551   -2.6501    0.0000 O   0  0  0  0  0  0  0  0  0  0  0  0
   -2.8934   -0.3212    0.0000 S   0  0  0  0  0  0  0  0  0  0  0  0
   -1.4435    0.5463    0.0000 C   0  0  0  0  0  0  0  0  0  0  0  0
   -1.3997    1.9247   -0.0000 N   0  0  0  0  0  0  0  0  0  0  0  0
   -0.1051    2.2265   -0.0000 N   0  0  0  0  0  0  0  0  0  0  0  0
    0.6858    1.0576   -0.0000 C   0  0  0  0  0  0  0  0  0  0  0  0
   -0.1518   -0.0174    0.0000 N   0  0  0  0  0  0  0  0  0  0  0  0
    2.1448    1.0415    0.0000 C   0  0  0  0  0  0  0  0  0  0  0  0
    2.8298   -0.1833    0.0000 C   0  0  0  0  0  0  0  0  0  0  0  0
    4.2364   -0.1639    0.0000 C   0  0  0  0  0  0  0  0  0  0  0  0
    4.9693    0.9658    0.0000 N   0  0  0  0  0  0  0  0  0  0  0  0
    4.2978    2.1331   -0.0000 C   0  0  0  0  0  0  0  0  0  0  0  0
    2.8946    2.2271   -0.0000 C   0  0  0  0  0  0  0  0  0  0  0  0
   -1.6909   -2.1930    0.9003 H   0  0  0  0  0  0  0  0  0  0  0  0
   -1.6909   -2.1930   -0.9003 H   0  0  0  0  0  0  0  0  0  0  0  0
   -3.9095   -5.0851   -0.0000 H   0  0  0  0  0  0  0  0  0  0  0  0
   -2.4070   -4.6094   -0.9077 H   0  0  0  0  0  0  0  0  0  0  0  0
   -2.4070   -4.6094    0.9077 H   0  0  0  0  0  0  0  0  0  0  0  0
    0.1974    3.1726   -0.0000 H   0  0  0  0  0  0  0  0  0  0  0  0
    2.2895   -1.1405    0.0000 H   0  0  0  0  0  0  0  0  0  0  0  0
    4.8099   -1.1089    0.0000 H   0  0  0  0  0  0  0  0  0  0  0  0
    4.9209    3.0461   -0.0000 H   0  0  0  0  0  0  0  0  0  0  0  0
    2.4253    3.2187   -0.0000 H   0  0  0  0  0  0  0  0  0  0  0  0
  1  2  1  0  0  0  0
  1  5  1  0  0  0  0
  1 17  1  0  0  0  0
  1 18  1  0  0  0  0
  2  3  1  0  0  0  0
  2  4  2  0  0  0  0
  3 19  1  0  0  0  0
  3 20  1  0  0  0  0
  3 21  1  0  0  0  0
  5  6  1  0  0  0  0
  6  7  2  0  0  0  0
  6 10  1  0  0  0  0
  7  8  1  0  0  0  0
  8  9  1  0  0  0  0
  8 22  1  0  0  0  0
  9 10  2  0  0  0  0
  9 11  1  0  0  0  0
 11 12  2  0  0  0  0
 11 16  1  0  0  0  0
 12 13  1  0  0  0  0
 12 23  1  0  0  0  0
 13 14  2  0  0  0  0
 13 24  1  0  0  0  0
 14 15  1  0  0  0  0
 15 16  2  0  0  0  0
 15 25  1  0  0  0  0
 16 26  1  0  0  0  0
M  END
