./067465-05-8.hin
 OpenBabel10051109203D

 31 32  0  0  0  0  0  0  0  0999 V2000
    1.2864   -1.5937   -1.2371 N   0  0  0  0  0  0  0  0  0  0  0  0
    0.0499   -2.0712   -1.3250 N   0  0  0  0  0  0  0  0  0  0  0  0
   -0.7456   -1.1100   -0.7446 C   0  0  0  0  0  0  0  0  0  0  0  0
    0.0063   -0.0078   -0.2878 N   0  0  0  0  0  0  0  0  0  0  0  0
    1.2900   -0.3276   -0.6066 C   0  0  0  0  0  0  0  0  0  0  0  0
    2.4903    0.4639   -0.3628 C   0  0  0  0  0  0  0  0  0  0  0  0
    3.7592   -0.1308   -0.3096 C   0  0  0  0  0  0  0  0  0  0  0  0
    4.8738    0.6931   -0.0724 C   0  0  0  0  0  0  0  0  0  0  0  0
    4.7932    2.0251    0.1106 N   0  0  0  0  0  0  0  0  0  0  0  0
    3.5670    2.5797    0.0625 C   0  0  0  0  0  0  0  0  0  0  0  0
    2.3873    1.8493   -0.1705 C   0  0  0  0  0  0  0  0  0  0  0  0
   -2.2286   -1.1988   -0.6163 C   0  0  0  0  0  0  0  0  0  0  0  0
   -2.6182   -1.2517    0.8646 C   0  0  0  0  0  0  0  0  0  0  0  0
   -4.0413   -1.4965    1.0660 N   0  0  0  0  0  0  0  0  0  0  0  0
   -4.3285   -2.0262    2.3804 C   0  0  0  0  0  0  0  0  0  0  0  0
   -4.8685   -0.3606    0.7283 C   0  0  0  0  0  0  0  0  0  0  0  0
    2.0586   -2.0929   -1.6112 H   0  0  0  0  0  0  0  0  0  0  0  0
    3.9000   -1.2121   -0.4325 H   0  0  0  0  0  0  0  0  0  0  0  0
    5.8902    0.2621   -0.0237 H   0  0  0  0  0  0  0  0  0  0  0  0
    3.5272    3.6731    0.2201 H   0  0  0  0  0  0  0  0  0  0  0  0
    1.4123    2.3565   -0.1958 H   0  0  0  0  0  0  0  0  0  0  0  0
   -2.6832   -0.2984   -1.1095 H   0  0  0  0  0  0  0  0  0  0  0  0
   -2.6064   -2.1113   -1.1495 H   0  0  0  0  0  0  0  0  0  0  0  0
   -2.0454   -2.0946    1.3461 H   0  0  0  0  0  0  0  0  0  0  0  0
   -2.2899   -0.2908    1.3589 H   0  0  0  0  0  0  0  0  0  0  0  0
   -5.4251   -2.2509    2.4480 H   0  0  0  0  0  0  0  0  0  0  0  0
   -3.7581   -2.9812    2.5226 H   0  0  0  0  0  0  0  0  0  0  0  0
   -4.0575   -1.3205    3.2133 H   0  0  0  0  0  0  0  0  0  0  0  0
   -5.9465   -0.6486    0.8416 H   0  0  0  0  0  0  0  0  0  0  0  0
   -4.6704    0.5405    1.3721 H   0  0  0  0  0  0  0  0  0  0  0  0
   -4.6839   -0.0800   -0.3414 H   0  0  0  0  0  0  0  0  0  0  0  0
  1  2  1  0  0  0  0
  1  5  1  0  0  0  0
  1 17  1  0  0  0  0
  2  3  2  0  0  0  0
  3  4  1  0  0  0  0
  3 12  1  0  0  0  0
  4  5  2  0  0  0  0
  5  6  1  0  0  0  0
  6  7  2  0  0  0  0
  6 11  1  0  0  0  0
  7  8  1  0  0  0  0
  7 18  1  0  0  0  0
  8  9  2  0  0  0  0
  8 19  1  0  0  0  0
  9 10  1  0  0  0  0
 10 11  2  0  0  0  0
 10 20  1  0  0  0  0
 11 21  1  0  0  0  0
 12 13  1  0  0  0  0
 12 22  1  0  0  0  0
 12 23  1  0  0  0  0
 13 14  1  0  0  0  0
 13 24  1  0  0  0  0
 13 25  1  0  0  0  0
 14 15  1  0  0  0  0
 14 16  1  0  0  0  0
 15 26  1  0  0  0  0
 15 27  1  0  0  0  0
 15 28  1  0  0  0  0
 16 29  1  0  0  0  0
 16 30  1  0  0  0  0
 16 31  1  0  0  0  0
M  END
