./068049-83-2.hin
 OpenBabel10051109203D

 35 37  0  0  0  0  0  0  0  0999 V2000
   -0.4039   -5.4314   -0.7387 C   0  0  0  0  0  0  0  0  0  0  0  0
   -0.0865   -4.6971    0.1505 C   0  0  0  0  0  0  0  0  0  0  0  0
    0.3177   -3.8313    1.2244 C   0  0  0  0  0  0  0  0  0  0  0  0
   -0.7228   -2.9471    1.6671 O   0  0  0  0  0  0  0  0  0  0  0  0
   -1.0664   -1.9492    0.7678 C   0  0  0  0  0  0  0  0  0  0  0  0
   -2.3822   -1.8828    0.2767 C   0  0  0  0  0  0  0  0  0  0  0  0
   -2.7501   -0.8142   -0.5449 C   0  0  0  0  0  0  0  0  0  0  0  0
   -1.8260    0.1750   -0.8886 C   0  0  0  0  0  0  0  0  0  0  0  0
   -0.5079    0.1250   -0.3766 C   0  0  0  0  0  0  0  0  0  0  0  0
   -0.1395   -0.9504    0.4493 C   0  0  0  0  0  0  0  0  0  0  0  0
    0.4233    1.1482   -0.7435 N   0  0  0  0  0  0  0  0  0  0  0  0
    0.4006    2.4294   -0.0207 C   0  0  0  0  0  0  0  0  0  0  0  0
   -0.5752    3.0309    0.4375 O   0  0  0  0  0  0  0  0  0  0  0  0
    1.7437    2.9166   -0.1257 N   0  0  0  0  0  0  0  0  0  0  0  0
    2.3473    3.8766    0.7586 C   0  0  0  0  0  0  0  0  0  0  0  0
    3.8155    4.1328    0.4104 C   0  0  0  0  0  0  0  0  0  0  0  0
    4.5809    2.8409    0.2116 C   0  0  0  0  0  0  0  0  0  0  0  0
    3.9741    1.9820   -0.8843 C   0  0  0  0  0  0  0  0  0  0  0  0
    2.4994    1.8476   -0.6930 C   0  0  0  0  0  0  0  0  0  0  0  0
    1.7195    0.8099   -1.0341 N   0  0  0  0  0  0  0  0  0  0  0  0
   -2.3267    1.4160   -1.9280 Cl  0  0  0  0  0  0  0  0  0  0  0  0
   -3.5423   -3.0576    0.6577 Cl  0  0  0  0  0  0  0  0  0  0  0  0
   -0.6857   -6.0811   -1.5286 H   0  0  0  0  0  0  0  0  0  0  0  0
    0.5377   -4.4275    2.1570 H   0  0  0  0  0  0  0  0  0  0  0  0
    1.2238   -3.2352    0.9247 H   0  0  0  0  0  0  0  0  0  0  0  0
   -3.7801   -0.7549   -0.9354 H   0  0  0  0  0  0  0  0  0  0  0  0
    0.8811   -1.0256    0.8568 H   0  0  0  0  0  0  0  0  0  0  0  0
    2.2747    3.5192    1.8271 H   0  0  0  0  0  0  0  0  0  0  0  0
    1.7569    4.8332    0.6727 H   0  0  0  0  0  0  0  0  0  0  0  0
    4.2707    4.7218    1.2480 H   0  0  0  0  0  0  0  0  0  0  0  0
    3.8789    4.7553   -0.5202 H   0  0  0  0  0  0  0  0  0  0  0  0
    4.5963    2.2638    1.1736 H   0  0  0  0  0  0  0  0  0  0  0  0
    5.6442    3.0736   -0.0583 H   0  0  0  0  0  0  0  0  0  0  0  0
    4.4539    0.9678   -0.8899 H   0  0  0  0  0  0  0  0  0  0  0  0
    4.1535    2.4532   -1.8891 H   0  0  0  0  0  0  0  0  0  0  0  0
  1  2  3  0  0  0  0
  1 23  1  0  0  0  0
  2  3  1  0  0  0  0
  3  4  1  0  0  0  0
  3 24  1  0  0  0  0
  3 25  1  0  0  0  0
  4  5  1  0  0  0  0
  5  6  2  0  0  0  0
  5 10  1  0  0  0  0
  6  7  1  0  0  0  0
  6 22  1  0  0  0  0
  7  8  2  0  0  0  0
  7 26  1  0  0  0  0
  8  9  1  0  0  0  0
  8 21  1  0  0  0  0
  9 10  2  0  0  0  0
  9 11  1  0  0  0  0
 10 27  1  0  0  0  0
 11 12  1  0  0  0  0
 11 20  1  0  0  0  0
 12 13  2  0  0  0  0
 12 14  1  0  0  0  0
 14 15  1  0  0  0  0
 14 19  1  0  0  0  0
 15 16  1  0  0  0  0
 15 28  1  0  0  0  0
 15 29  1  0  0  0  0
 16 17  1  0  0  0  0
 16 30  1  0  0  0  0
 16 31  1  0  0  0  0
 17 18  1  0  0  0  0
 17 32  1  0  0  0  0
 17 33  1  0  0  0  0
 18 19  1  0  0  0  0
 18 34  1  0  0  0  0
 18 35  1  0  0  0  0
 19 20  2  0  0  0  0
M  END
