./069141-50-0.hin
 OpenBabel10051109203D

 44 44  0  0  0  0  0  0  0  0999 V2000
    1.4989   -2.5517    0.2870 N   0  0  0  0  0  0  0  0  0  0  0  0
    2.3437   -2.9929    1.2623 C   0  0  0  0  0  0  0  0  0  0  0  0
    2.6393   -2.0056    2.2202 N   0  0  0  0  0  0  0  0  0  0  0  0
    1.9399   -0.9335    1.7938 C   0  0  0  0  0  0  0  0  0  0  0  0
    1.2463   -1.2716    0.6101 N   0  0  0  0  0  0  0  0  0  0  0  0
    0.3497   -0.3885   -0.1247 C   0  0  0  0  0  0  0  0  0  0  0  0
    0.8592   -0.0562   -1.5623 C   0  0  0  0  0  0  0  0  0  0  0  0
   -0.1166    0.7838   -2.1632 O   0  0  0  0  0  0  0  0  0  0  0  0
    2.1948    0.7228   -1.6315 C   0  0  0  0  0  0  0  0  0  0  0  0
    2.3617    1.2242   -3.0662 C   0  0  0  0  0  0  0  0  0  0  0  0
    2.1780    1.9196   -0.6951 C   0  0  0  0  0  0  0  0  0  0  0  0
    3.3756   -0.1804   -1.3078 C   0  0  0  0  0  0  0  0  0  0  0  0
   -1.0701   -0.9841   -0.1939 C   0  0  0  0  0  0  0  0  0  0  0  0
   -2.1426    0.0735   -0.2673 C   0  0  0  0  0  0  0  0  0  0  0  0
   -2.7213    0.2783   -1.3413 O   0  0  0  0  0  0  0  0  0  0  0  0
   -2.5326    0.8515    0.9815 C   0  0  0  0  0  0  0  0  0  0  0  0
   -4.0562    0.8845    1.0675 C   0  0  0  0  0  0  0  0  0  0  0  0
   -1.9853    0.2424    2.2599 C   0  0  0  0  0  0  0  0  0  0  0  0
   -2.0124    2.2769    0.8259 C   0  0  0  0  0  0  0  0  0  0  0  0
    2.7564   -4.0057    1.3057 H   0  0  0  0  0  0  0  0  0  0  0  0
    1.8969    0.0569    2.2569 H   0  0  0  0  0  0  0  0  0  0  0  0
    0.3099    0.5810    0.4572 H   0  0  0  0  0  0  0  0  0  0  0  0
    0.9679   -1.0141   -2.1441 H   0  0  0  0  0  0  0  0  0  0  0  0
   -0.8286    0.2182   -2.4921 H   0  0  0  0  0  0  0  0  0  0  0  0
    3.3314    1.7666   -3.1725 H   0  0  0  0  0  0  0  0  0  0  0  0
    2.3509    0.3631   -3.7756 H   0  0  0  0  0  0  0  0  0  0  0  0
    1.5300    1.9200   -3.3327 H   0  0  0  0  0  0  0  0  0  0  0  0
    3.0538    2.5799   -0.9048 H   0  0  0  0  0  0  0  0  0  0  0  0
    1.2394    2.5071   -0.8437 H   0  0  0  0  0  0  0  0  0  0  0  0
    2.2373    1.5930    0.3717 H   0  0  0  0  0  0  0  0  0  0  0  0
    4.3117    0.2549   -1.7374 H   0  0  0  0  0  0  0  0  0  0  0  0
    3.5280   -0.2774   -0.2064 H   0  0  0  0  0  0  0  0  0  0  0  0
    3.2298   -1.1972   -1.7445 H   0  0  0  0  0  0  0  0  0  0  0  0
   -1.1435   -1.6443   -1.1009 H   0  0  0  0  0  0  0  0  0  0  0  0
   -1.2793   -1.6316    0.6995 H   0  0  0  0  0  0  0  0  0  0  0  0
   -4.3742    1.5213    1.9270 H   0  0  0  0  0  0  0  0  0  0  0  0
   -4.4835    1.3049    0.1249 H   0  0  0  0  0  0  0  0  0  0  0  0
   -4.4586   -0.1458    1.2153 H   0  0  0  0  0  0  0  0  0  0  0  0
   -2.2874    0.8735    3.1314 H   0  0  0  0  0  0  0  0  0  0  0  0
   -2.3931   -0.7856    2.4151 H   0  0  0  0  0  0  0  0  0  0  0  0
   -0.8703    0.1885    2.2371 H   0  0  0  0  0  0  0  0  0  0  0  0
   -2.3433    2.8966    1.6933 H   0  0  0  0  0  0  0  0  0  0  0  0
   -0.8970    2.2904    0.7819 H   0  0  0  0  0  0  0  0  0  0  0  0
   -2.4123    2.7273   -0.1150 H   0  0  0  0  0  0  0  0  0  0  0  0
  1  2  2  0  0  0  0
  1  5  1  0  0  0  0
  2  3  1  0  0  0  0
  2 20  1  0  0  0  0
  3  4  2  0  0  0  0
  4  5  1  0  0  0  0
  4 21  1  0  0  0  0
  5  6  1  0  0  0  0
  6  7  1  0  0  0  0
  6 13  1  0  0  0  0
  6 22  1  0  0  0  0
  7  8  1  0  0  0  0
  7  9  1  0  0  0  0
  7 23  1  0  0  0  0
  8 24  1  0  0  0  0
  9 10  1  0  0  0  0
  9 11  1  0  0  0  0
  9 12  1  0  0  0  0
 10 25  1  0  0  0  0
 10 26  1  0  0  0  0
 10 27  1  0  0  0  0
 11 28  1  0  0  0  0
 11 29  1  0  0  0  0
 11 30  1  0  0  0  0
 12 31  1  0  0  0  0
 12 32  1  0  0  0  0
 12 33  1  0  0  0  0
 13 14  1  0  0  0  0
 13 34  1  0  0  0  0
 13 35  1  0  0  0  0
 14 15  2  0  0  0  0
 14 16  1  0  0  0  0
 16 17  1  0  0  0  0
 16 18  1  0  0  0  0
 16 19  1  0  0  0  0
 17 36  1  0  0  0  0
 17 37  1  0  0  0  0
 17 38  1  0  0  0  0
 18 39  1  0  0  0  0
 18 40  1  0  0  0  0
 18 41  1  0  0  0  0
 19 42  1  0  0  0  0
 19 43  1  0  0  0  0
 19 44  1  0  0  0  0
M  END
