./070321-86-7.hin
 OpenBabel10051109203D

 63 67  0  0  0  0  0  0  0  0999 V2000
    0.8100   -0.0461    0.5956 C   0  0  0  0  0  0  0  0  0  0  0  0
   -0.5440    0.1497    0.2245 C   0  0  0  0  0  0  0  0  0  0  0  0
   -1.3325   -0.9400   -0.1748 C   0  0  0  0  0  0  0  0  0  0  0  0
   -0.7764   -2.2184   -0.2351 C   0  0  0  0  0  0  0  0  0  0  0  0
    0.5738   -2.3940    0.0896 C   0  0  0  0  0  0  0  0  0  0  0  0
    1.3823   -1.3365    0.5119 C   0  0  0  0  0  0  0  0  0  0  0  0
    3.2564   -3.0271    0.6966 C   0  0  0  0  0  0  0  0  0  0  0  0
    2.8241   -1.5726    0.9071 C   0  0  0  0  0  0  0  0  0  0  0  0
    2.9619   -1.2824    2.4023 C   0  0  0  0  0  0  0  0  0  0  0  0
    3.7429   -0.7253    0.0571 C   0  0  0  0  0  0  0  0  0  0  0  0
    3.5931   -0.7542   -1.3379 C   0  0  0  0  0  0  0  0  0  0  0  0
    4.4434   -0.0176   -2.1583 C   0  0  0  0  0  0  0  0  0  0  0  0
    5.4596    0.7570   -1.5973 C   0  0  0  0  0  0  0  0  0  0  0  0
    5.6173    0.7897   -0.2134 C   0  0  0  0  0  0  0  0  0  0  0  0
    4.7649    0.0536    0.6107 C   0  0  0  0  0  0  0  0  0  0  0  0
   -1.2233   -4.6678    0.0575 C   0  0  0  0  0  0  0  0  0  0  0  0
   -1.6052   -3.3934   -0.7019 C   0  0  0  0  0  0  0  0  0  0  0  0
   -1.2970   -3.6135   -2.1822 C   0  0  0  0  0  0  0  0  0  0  0  0
   -3.0750   -3.1496   -0.4563 C   0  0  0  0  0  0  0  0  0  0  0  0
   -4.0242   -3.1850   -1.4826 C   0  0  0  0  0  0  0  0  0  0  0  0
   -5.3778   -2.9905   -1.2017 C   0  0  0  0  0  0  0  0  0  0  0  0
   -5.8000   -2.7588    0.1050 C   0  0  0  0  0  0  0  0  0  0  0  0
   -4.8603   -2.7200    1.1361 C   0  0  0  0  0  0  0  0  0  0  0  0
   -3.5104   -2.9140    0.8577 C   0  0  0  0  0  0  0  0  0  0  0  0
   -2.2277    1.7306    1.0010 N   0  0  0  0  0  0  0  0  0  0  0  0
   -1.1383    1.4684    0.2552 N   0  0  0  0  0  0  0  0  0  0  0  0
   -0.6262    2.4924   -0.4493 N   0  0  0  0  0  0  0  0  0  0  0  0
   -1.4474    3.5522   -0.1563 C   0  0  0  0  0  0  0  0  0  0  0  0
   -2.4807    3.0605    0.7784 C   0  0  0  0  0  0  0  0  0  0  0  0
   -1.4619    4.9118   -0.5707 C   0  0  0  0  0  0  0  0  0  0  0  0
   -2.4466    5.7242   -0.0800 C   0  0  0  0  0  0  0  0  0  0  0  0
   -3.4454    5.2489    0.8237 C   0  0  0  0  0  0  0  0  0  0  0  0
   -3.4802    3.9517    1.2555 C   0  0  0  0  0  0  0  0  0  0  0  0
    1.4805    1.0480    1.0826 O   0  0  0  0  0  0  0  0  0  0  0  0
   -2.3934   -0.7883   -0.4395 H   0  0  0  0  0  0  0  0  0  0  0  0
    0.9970   -3.4080    0.0083 H   0  0  0  0  0  0  0  0  0  0  0  0
    3.1387   -3.3241   -0.3728 H   0  0  0  0  0  0  0  0  0  0  0  0
    4.3333   -3.1355    0.9738 H   0  0  0  0  0  0  0  0  0  0  0  0
    2.6569   -3.7113    1.3430 H   0  0  0  0  0  0  0  0  0  0  0  0
    2.7762   -0.2054    2.6275 H   0  0  0  0  0  0  0  0  0  0  0  0
    2.2167   -1.8926    2.9682 H   0  0  0  0  0  0  0  0  0  0  0  0
    3.9838   -1.5576    2.7582 H   0  0  0  0  0  0  0  0  0  0  0  0
    2.7898   -1.3621   -1.7827 H   0  0  0  0  0  0  0  0  0  0  0  0
    4.3111   -0.0455   -3.2500 H   0  0  0  0  0  0  0  0  0  0  0  0
    6.1311    1.3397   -2.2446 H   0  0  0  0  0  0  0  0  0  0  0  0
    6.4161    1.3985    0.2357 H   0  0  0  0  0  0  0  0  0  0  0  0
    4.9118    0.0942    1.7006 H   0  0  0  0  0  0  0  0  0  0  0  0
   -1.1692   -4.4673    1.1536 H   0  0  0  0  0  0  0  0  0  0  0  0
   -1.9899   -5.4589   -0.1254 H   0  0  0  0  0  0  0  0  0  0  0  0
   -0.2357   -5.0553   -0.2894 H   0  0  0  0  0  0  0  0  0  0  0  0
   -1.6081   -2.7278   -2.7856 H   0  0  0  0  0  0  0  0  0  0  0  0
   -0.1982   -3.7644   -2.3171 H   0  0  0  0  0  0  0  0  0  0  0  0
   -1.8280   -4.5207   -2.5573 H   0  0  0  0  0  0  0  0  0  0  0  0
   -3.7229   -3.3654   -2.5252 H   0  0  0  0  0  0  0  0  0  0  0  0
   -6.1120   -3.0201   -2.0204 H   0  0  0  0  0  0  0  0  0  0  0  0
   -6.8665   -2.6046    0.3236 H   0  0  0  0  0  0  0  0  0  0  0  0
   -5.1847   -2.5318    2.1702 H   0  0  0  0  0  0  0  0  0  0  0  0
   -2.7718   -2.8736    1.6731 H   0  0  0  0  0  0  0  0  0  0  0  0
   -0.6919    5.2766   -1.2649 H   0  0  0  0  0  0  0  0  0  0  0  0
   -2.4873    6.7828   -0.3792 H   0  0  0  0  0  0  0  0  0  0  0  0
   -4.2037    5.9663    1.1737 H   0  0  0  0  0  0  0  0  0  0  0  0
   -4.2474    3.5855    1.9519 H   0  0  0  0  0  0  0  0  0  0  0  0
    2.4185    0.9651    0.8423 H   0  0  0  0  0  0  0  0  0  0  0  0
  1  2  2  0  0  0  0
  1  6  1  0  0  0  0
  1 34  1  0  0  0  0
  2  3  1  0  0  0  0
  2 26  1  0  0  0  0
  3  4  2  0  0  0  0
  3 35  1  0  0  0  0
  4  5  1  0  0  0  0
  4 17  1  0  0  0  0
  5  6  2  0  0  0  0
  5 36  1  0  0  0  0
  6  8  1  0  0  0  0
  7  8  1  0  0  0  0
  7 37  1  0  0  0  0
  7 38  1  0  0  0  0
  7 39  1  0  0  0  0
  8  9  1  0  0  0  0
  8 10  1  0  0  0  0
  9 40  1  0  0  0  0
  9 41  1  0  0  0  0
  9 42  1  0  0  0  0
 10 11  2  0  0  0  0
 10 15  1  0  0  0  0
 11 12  1  0  0  0  0
 11 43  1  0  0  0  0
 12 13  2  0  0  0  0
 12 44  1  0  0  0  0
 13 14  1  0  0  0  0
 13 45  1  0  0  0  0
 14 15  2  0  0  0  0
 14 46  1  0  0  0  0
 15 47  1  0  0  0  0
 16 17  1  0  0  0  0
 16 48  1  0  0  0  0
 16 49  1  0  0  0  0
 16 50  1  0  0  0  0
 17 18  1  0  0  0  0
 17 19  1  0  0  0  0
 18 51  1  0  0  0  0
 18 52  1  0  0  0  0
 18 53  1  0  0  0  0
 19 20  2  0  0  0  0
 19 24  1  0  0  0  0
 20 21  1  0  0  0  0
 20 54  1  0  0  0  0
 21 22  2  0  0  0  0
 21 55  1  0  0  0  0
 22 23  1  0  0  0  0
 22 56  1  0  0  0  0
 23 24  2  0  0  0  0
 23 57  1  0  0  0  0
 24 58  1  0  0  0  0
 25 26  1  0  0  0  0
 25 29  2  0  0  0  0
 26 27  1  0  0  0  0
 27 28  2  0  0  0  0
 28 29  1  0  0  0  0
 28 30  1  0  0  0  0
 29 33  1  0  0  0  0
 30 31  2  0  0  0  0
 30 59  1  0  0  0  0
 31 32  1  0  0  0  0
 31 60  1  0  0  0  0
 32 33  2  0  0  0  0
 32 61  1  0  0  0  0
 33 62  1  0  0  0  0
 34 63  1  0  0  0  0
M  END
