./075020-35-8.hin
 OpenBabel10051109203D

 25 27  0  0  0  0  0  0  0  0999 V2000
   -4.0861   -1.6145    0.0010 C   0  0  0  0  0  0  0  0  0  0  0  0
   -2.7994   -0.8805    0.0009 C   0  0  0  0  0  0  0  0  0  0  0  0
   -2.7881    0.5302    0.0008 C   0  0  0  0  0  0  0  0  0  0  0  0
   -1.5746    1.2163    0.0005 C   0  0  0  0  0  0  0  0  0  0  0  0
   -0.3712    0.4938    0.0003 C   0  0  0  0  0  0  0  0  0  0  0  0
   -0.3605   -0.9110    0.0006 C   0  0  0  0  0  0  0  0  0  0  0  0
   -1.5945   -1.5797    0.0009 C   0  0  0  0  0  0  0  0  0  0  0  0
    0.8857   -1.7040    0.0006 C   0  0  0  0  0  0  0  0  0  0  0  0
    0.9151   -2.9374    0.0011 O   0  0  0  0  0  0  0  0  0  0  0  0
    2.0690   -0.8511   -0.0003 C   0  0  0  0  0  0  0  0  0  0  0  0
    3.4058   -1.1278   -0.0009 N   0  0  0  0  0  0  0  0  0  0  0  0
    3.9945    0.0641   -0.0016 N   0  0  0  0  0  0  0  0  0  0  0  0
    3.1990    1.1532   -0.0014 N   0  0  0  0  0  0  0  0  0  0  0  0
    1.9442    0.6079   -0.0006 C   0  0  0  0  0  0  0  0  0  0  0  0
    0.7666    1.3099   -0.0001 O   0  0  0  0  0  0  0  0  0  0  0  0
   -4.0624    1.2856    0.0009 C   0  0  0  0  0  0  0  0  0  0  0  0
   -4.6857   -1.3445   -0.9049 H   0  0  0  0  0  0  0  0  0  0  0  0
   -3.9239   -2.7202    0.0010 H   0  0  0  0  0  0  0  0  0  0  0  0
   -4.6857   -1.3445    0.9069 H   0  0  0  0  0  0  0  0  0  0  0  0
   -1.5427    2.3162    0.0003 H   0  0  0  0  0  0  0  0  0  0  0  0
   -1.5886   -2.6838    0.0011 H   0  0  0  0  0  0  0  0  0  0  0  0
   -4.6649    1.0218    0.9070 H   0  0  0  0  0  0  0  0  0  0  0  0
   -3.8851    2.3888    0.0010 H   0  0  0  0  0  0  0  0  0  0  0  0
   -4.6650    1.0219   -0.9051 H   0  0  0  0  0  0  0  0  0  0  0  0
    4.9929    0.1622   -0.0021 H   0  0  0  0  0  0  0  0  0  0  0  0
  1  2  1  0  0  0  0
  1 17  1  0  0  0  0
  1 18  1  0  0  0  0
  1 19  1  0  0  0  0
  2  3  2  0  0  0  0
  2  7  1  0  0  0  0
  3  4  1  0  0  0  0
  3 16  1  0  0  0  0
  4  5  2  0  0  0  0
  4 20  1  0  0  0  0
  5  6  1  0  0  0  0
  5 15  1  0  0  0  0
  6  7  2  0  0  0  0
  6  8  1  0  0  0  0
  7 21  1  0  0  0  0
  8  9  2  0  0  0  0
  8 10  1  0  0  0  0
 10 11  2  0  0  0  0
 10 14  1  0  0  0  0
 11 12  1  0  0  0  0
 12 13  1  0  0  0  0
 12 25  1  0  0  0  0
 13 14  2  0  0  0  0
 14 15  1  0  0  0  0
 16 22  1  0  0  0  0
 16 23  1  0  0  0  0
 16 24  1  0  0  0  0
M  END
