./076608-88-3.hin
                    3D
 Structure written by MMmdl.
 44 45  0  0  1  0            999 V2000
   10.0336  -17.6753    0.1724 N   0  0  0  0  0  0
   11.2861  -17.6227   -0.3643 C   0  0  0  0  0  0
   11.8324  -16.4101   -0.4308 N   0  0  0  0  0  0
   10.8703  -15.5937    0.0911 N   0  0  0  0  0  0
   11.0643  -14.1783    0.1628 C   0  0  0  0  0  0
   12.3075  -13.6808   -0.0654 C   0  0  0  0  0  0
   12.7070  -12.2104   -0.0733 C   0  0  0  0  0  0
   13.3466  -11.7781    1.2554 C   0  0  0  0  0  0
   13.5839  -10.2592    1.2623 C   0  0  0  0  0  0
   14.4436   -9.8185    0.0624 C   0  0  0  0  0  0
   13.8769  -10.3315   -1.2769 C   0  0  0  0  0  0
   13.6359  -11.8515   -1.2434 C   0  0  0  0  0  0
    9.8502  -13.2904    0.5081 C   0  0  1  0  0  0
   10.2506  -12.3467    0.8724 H   0  0  0  0  0  0
    8.8826  -12.9580   -0.6821 C   0  0  0  0  0  0
    8.1911  -11.6135   -0.3785 C   0  0  0  0  0  0
    9.6384  -12.8100   -2.0225 C   0  0  0  0  0  0
    7.7895  -14.0317   -0.8753 C   0  0  0  0  0  0
    9.1414  -13.7484    1.6487 O   0  0  0  0  0  0
    9.8463  -16.3891    0.4321 C   0  0  0  0  0  0
   11.8095  -18.4999   -0.7184 H   0  0  0  0  0  0
   13.1253  -14.3544   -0.2740 H   0  0  0  0  0  0
   14.2929  -12.3036    1.4044 H   0  0  0  0  0  0
   14.0637   -9.9694    2.1981 H   0  0  0  0  0  0
   15.4646  -10.1827    0.1867 H   0  0  0  0  0  0
   14.5577  -10.0891   -2.0961 H   0  0  0  0  0  0
   14.5883  -12.3750   -1.1484 H   0  0  0  0  0  0
    7.4876  -11.3396   -1.1626 H   0  0  0  0  0  0
    7.6361  -11.6504    0.5590 H   0  0  0  0  0  0
    8.9121  -10.8004   -0.2971 H   0  0  0  0  0  0
    8.9594  -12.5198   -2.8241 H   0  0  0  0  0  0
   10.4172  -12.0499   -1.9743 H   0  0  0  0  0  0
   10.1073  -13.7451   -2.3347 H   0  0  0  0  0  0
    7.0921  -13.7372   -1.6577 H   0  0  0  0  0  0
    8.2046  -14.9918   -1.1743 H   0  0  0  0  0  0
    7.1996  -14.1871    0.0289 H   0  0  0  0  0  0
    9.6445  -13.5474    2.4256 H   0  0  0  0  0  0
    8.9237  -16.0334    0.8711 H   0  0  0  0  0  0
   11.8181  -11.6031   -0.2262 H   0  0  0  0  0  0
   12.7068  -12.0567    2.0944 H   0  0  0  0  0  0
   12.6259   -9.7393    1.2299 H   0  0  0  0  0  0
   14.5092   -8.7319    0.0384 H   0  0  0  0  0  0
   12.9354   -9.8202   -1.4979 H   0  0  0  0  0  0
   13.1905  -12.1746   -2.1862 H   0  0  0  0  0  0
  1  2  1  0  0  0
  1 20  2  0  0  0
  2  3  2  0  0  0
  2 21  1  0  0  0
  3  4  1  0  0  0
  4  5  1  0  0  0
  4 20  1  0  0  0
  5  6  2  0  0  0
  5 13  1  0  0  0
  6  7  1  0  0  0
  6 22  1  0  0  0
  7  8  1  0  0  0
  7 12  1  0  0  0
  7 39  1  0  0  0
  8  9  1  0  0  0
  8 23  1  0  0  0
  8 40  1  0  0  0
  9 10  1  0  0  0
  9 24  1  0  0  0
  9 41  1  0  0  0
 10 11  1  0  0  0
 10 25  1  0  0  0
 10 42  1  0  0  0
 11 12  1  0  0  0
 11 26  1  0  0  0
 11 43  1  0  0  0
 12 27  1  0  0  0
 12 44  1  0  0  0
 13 14  1  0  0  0
 13 15  1  0  0  0
 13 19  1  0  0  0
 15 16  1  0  0  0
 15 17  1  0  0  0
 15 18  1  0  0  0
 16 28  1  0  0  0
 16 29  1  0  0  0
 16 30  1  0  0  0
 17 31  1  0  0  0
 17 32  1  0  0  0
 17 33  1  0  0  0
 18 34  1  0  0  0
 18 35  1  0  0  0
 18 36  1  0  0  0
 19 37  1  0  0  0
 20 38  1  0  0  0
M  END