./076674-21-0.hin
 OpenBabel10051109203D

 35 37  0  0  0  0  0  0  0  0999 V2000
    2.2700   -1.3342   -1.6228 N   0  0  0  0  0  0  0  0  0  0  0  0
    3.3999   -1.9253   -1.1449 C   0  0  0  0  0  0  0  0  0  0  0  0
    3.8618   -1.3465    0.0536 N   0  0  0  0  0  0  0  0  0  0  0  0
    2.9668   -0.3680    0.2947 C   0  0  0  0  0  0  0  0  0  0  0  0
    1.9998   -0.3559   -0.7365 N   0  0  0  0  0  0  0  0  0  0  0  0
    0.8753    0.5470   -0.8160 C   0  0  0  0  0  0  0  0  0  0  0  0
   -0.1609    0.3917    0.3359 C   0  0  0  0  0  0  0  0  0  0  0  0
    0.5625    0.7618    1.5139 O   0  0  0  0  0  0  0  0  0  0  0  0
   -1.3285    1.3420    0.1655 C   0  0  0  0  0  0  0  0  0  0  0  0
   -2.3929    1.2419    1.0746 C   0  0  0  0  0  0  0  0  0  0  0  0
   -3.4815    2.1012    1.0039 C   0  0  0  0  0  0  0  0  0  0  0  0
   -3.5156    3.0896    0.0014 C   0  0  0  0  0  0  0  0  0  0  0  0
   -4.5703    3.9338   -0.0789 F   0  0  0  0  0  0  0  0  0  0  0  0
   -2.4550    3.1988   -0.9147 C   0  0  0  0  0  0  0  0  0  0  0  0
   -1.3720    2.3277   -0.8238 C   0  0  0  0  0  0  0  0  0  0  0  0
   -0.6507   -1.0359    0.4244 C   0  0  0  0  0  0  0  0  0  0  0  0
   -0.3926   -1.7978    1.5698 C   0  0  0  0  0  0  0  0  0  0  0  0
   -0.8295   -3.1154    1.6757 C   0  0  0  0  0  0  0  0  0  0  0  0
   -1.5338   -3.7054    0.6265 C   0  0  0  0  0  0  0  0  0  0  0  0
   -1.7963   -2.9807   -0.5298 C   0  0  0  0  0  0  0  0  0  0  0  0
   -1.3539   -1.6471   -0.6388 C   0  0  0  0  0  0  0  0  0  0  0  0
   -1.6173   -0.9746   -1.7850 F   0  0  0  0  0  0  0  0  0  0  0  0
    3.9076   -2.7626   -1.6330 H   0  0  0  0  0  0  0  0  0  0  0  0
    2.9313    0.3251    1.1432 H   0  0  0  0  0  0  0  0  0  0  0  0
    1.2876    1.5954   -0.7639 H   0  0  0  0  0  0  0  0  0  0  0  0
    0.3320    0.3903   -1.7912 H   0  0  0  0  0  0  0  0  0  0  0  0
   -0.0788    0.8769    2.2264 H   0  0  0  0  0  0  0  0  0  0  0  0
   -2.3710    0.4590    1.8502 H   0  0  0  0  0  0  0  0  0  0  0  0
   -4.3149    2.0172    1.7162 H   0  0  0  0  0  0  0  0  0  0  0  0
   -2.4880    3.9709   -1.6973 H   0  0  0  0  0  0  0  0  0  0  0  0
   -0.5563    2.4364   -1.5553 H   0  0  0  0  0  0  0  0  0  0  0  0
    0.1850   -1.3536    2.3970 H   0  0  0  0  0  0  0  0  0  0  0  0
   -0.6102   -3.6927    2.5861 H   0  0  0  0  0  0  0  0  0  0  0  0
   -1.8778   -4.7476    0.7081 H   0  0  0  0  0  0  0  0  0  0  0  0
   -2.3408   -3.4342   -1.3711 H   0  0  0  0  0  0  0  0  0  0  0  0
  1  2  2  0  0  0  0
  1  5  1  0  0  0  0
  2  3  1  0  0  0  0
  2 23  1  0  0  0  0
  3  4  2  0  0  0  0
  4  5  1  0  0  0  0
  4 24  1  0  0  0  0
  5  6  1  0  0  0  0
  6  7  1  0  0  0  0
  6 25  1  0  0  0  0
  6 26  1  0  0  0  0
  7  8  1  0  0  0  0
  7  9  1  0  0  0  0
  7 16  1  0  0  0  0
  8 27  1  0  0  0  0
  9 10  2  0  0  0  0
  9 15  1  0  0  0  0
 10 11  1  0  0  0  0
 10 28  1  0  0  0  0
 11 12  2  0  0  0  0
 11 29  1  0  0  0  0
 12 13  1  0  0  0  0
 12 14  1  0  0  0  0
 14 15  2  0  0  0  0
 14 30  1  0  0  0  0
 15 31  1  0  0  0  0
 16 17  2  0  0  0  0
 16 21  1  0  0  0  0
 17 18  1  0  0  0  0
 17 32  1  0  0  0  0
 18 19  2  0  0  0  0
 18 33  1  0  0  0  0
 19 20  1  0  0  0  0
 19 34  1  0  0  0  0
 20 21  2  0  0  0  0
 20 35  1  0  0  0  0
 21 22  1  0  0  0  0
M  END
