./076738-62-0.hin
 OpenBabel10051109203D

 40 41  0  0  0  0  0  0  0  0999 V2000
    0.4514   -1.3245   -0.7396 C   0  0  0  0  0  0  0  0  0  0  0  0
    1.5446   -2.1729   -0.5677 C   0  0  0  0  0  0  0  0  0  0  0  0
    1.3520   -3.4554   -0.0497 C   0  0  0  0  0  0  0  0  0  0  0  0
    0.0681   -3.8848    0.3026 C   0  0  0  0  0  0  0  0  0  0  0  0
   -1.0140   -3.0297    0.1235 C   0  0  0  0  0  0  0  0  0  0  0  0
   -0.8403   -1.7377   -0.4037 C   0  0  0  0  0  0  0  0  0  0  0  0
    2.6792   -4.4957    0.1576 Cl  0  0  0  0  0  0  0  0  0  0  0  0
   -2.0665   -0.9287   -0.6460 C   0  0  0  0  0  0  0  0  0  0  0  0
   -2.1476    0.5738   -0.2978 C   0  0  0  0  0  0  0  0  0  0  0  0
   -1.5047    0.9873    1.0688 C   0  0  0  0  0  0  0  0  0  0  0  0
   -0.9555   -0.1452    1.7245 O   0  0  0  0  0  0  0  0  0  0  0  0
   -1.6615   -0.7962    1.8204 H   0  0  0  0  0  0  0  0  0  0  0  0
   -0.4276    2.0941    1.1868 C   0  0  0  0  0  0  0  0  0  0  0  0
   -0.0677    2.1874    2.6756 C   0  0  0  0  0  0  0  0  0  0  0  0
    0.8418    1.7657    0.4238 C   0  0  0  0  0  0  0  0  0  0  0  0
   -0.9743    3.4481    0.7560 C   0  0  0  0  0  0  0  0  0  0  0  0
   -1.8581    1.4266   -1.4467 N   0  0  0  0  0  0  0  0  0  0  0  0
   -2.5613    2.5479   -1.7129 N   0  0  0  0  0  0  0  0  0  0  0  0
   -2.1413    2.9448   -2.9456 C   0  0  0  0  0  0  0  0  0  0  0  0
   -1.1901    2.0736   -3.5052 N   0  0  0  0  0  0  0  0  0  0  0  0
   -1.0406    1.1229   -2.5594 C   0  0  0  0  0  0  0  0  0  0  0  0
    0.6330   -0.3056   -1.1123 H   0  0  0  0  0  0  0  0  0  0  0  0
    2.5541   -1.8260   -0.8370 H   0  0  0  0  0  0  0  0  0  0  0  0
   -0.0871   -4.8918    0.7189 H   0  0  0  0  0  0  0  0  0  0  0  0
   -2.0213   -3.3775    0.4003 H   0  0  0  0  0  0  0  0  0  0  0  0
   -2.3350   -1.0615   -1.7340 H   0  0  0  0  0  0  0  0  0  0  0  0
   -2.9080   -1.4003   -0.0596 H   0  0  0  0  0  0  0  0  0  0  0  0
   -3.2650    0.7304   -0.1071 H   0  0  0  0  0  0  0  0  0  0  0  0
   -2.3836    1.3590    1.6840 H   0  0  0  0  0  0  0  0  0  0  0  0
    0.7109    2.9721    2.8299 H   0  0  0  0  0  0  0  0  0  0  0  0
   -0.9705    2.4544    3.2741 H   0  0  0  0  0  0  0  0  0  0  0  0
    0.3319    1.2115    3.0421 H   0  0  0  0  0  0  0  0  0  0  0  0
    1.6301    2.5206    0.6641 H   0  0  0  0  0  0  0  0  0  0  0  0
    1.2121    0.7543    0.7232 H   0  0  0  0  0  0  0  0  0  0  0  0
    0.6745    1.7855   -0.6793 H   0  0  0  0  0  0  0  0  0  0  0  0
   -0.5616    4.2543    1.4128 H   0  0  0  0  0  0  0  0  0  0  0  0
   -0.6727    3.6926   -0.2899 H   0  0  0  0  0  0  0  0  0  0  0  0
   -2.0869    3.4793    0.8337 H   0  0  0  0  0  0  0  0  0  0  0  0
   -2.5000    3.8436   -3.4570 H   0  0  0  0  0  0  0  0  0  0  0  0
   -0.4005    0.2384   -2.6315 H   0  0  0  0  0  0  0  0  0  0  0  0
  1  2  2  0  0  0  0
  1  6  1  0  0  0  0
  1 22  1  0  0  0  0
  2  3  1  0  0  0  0
  2 23  1  0  0  0  0
  3  4  2  0  0  0  0
  3  7  1  0  0  0  0
  4  5  1  0  0  0  0
  4 24  1  0  0  0  0
  5  6  2  0  0  0  0
  5 25  1  0  0  0  0
  6  8  1  0  0  0  0
  8  9  1  0  0  0  0
  8 26  1  0  0  0  0
  8 27  1  0  0  0  0
  9 10  1  0  0  0  0
  9 17  1  0  0  0  0
  9 28  1  0  0  0  0
 10 11  1  0  0  0  0
 10 13  1  0  0  0  0
 10 29  1  0  0  0  0
 11 12  1  0  0  0  0
 13 14  1  0  0  0  0
 13 15  1  0  0  0  0
 13 16  1  0  0  0  0
 14 30  1  0  0  0  0
 14 31  1  0  0  0  0
 14 32  1  0  0  0  0
 15 33  1  0  0  0  0
 15 34  1  0  0  0  0
 15 35  1  0  0  0  0
 16 36  1  0  0  0  0
 16 37  1  0  0  0  0
 16 38  1  0  0  0  0
 17 18  1  0  0  0  0
 17 21  1  0  0  0  0
 18 19  2  0  0  0  0
 19 20  1  0  0  0  0
 19 39  1  0  0  0  0
 20 21  2  0  0  0  0
 21 40  1  0  0  0  0
M  END
