./077314-77-3.hin
 OpenBabel10051109203D

 27 28  0  0  0  0  0  0  0  0999 V2000
   -2.8659   -0.1129   -0.1520 N   0  0  0  0  0  0  0  0  0  0  0  0
   -1.5604   -0.6238    0.0148 C   0  0  0  0  0  0  0  0  0  0  0  0
   -1.5536   -1.9881    0.2041 N   0  0  0  0  0  0  0  0  0  0  0  0
   -2.8300   -2.3535    0.1720 N   0  0  0  0  0  0  0  0  0  0  0  0
   -3.6672   -1.2200   -0.0436 C   0  0  0  0  0  0  0  0  0  0  0  0
   -5.0748   -1.3038   -0.0359 N   0  0  0  0  0  0  0  0  0  0  0  0
   -0.3624    0.2160   -0.0195 C   0  0  0  0  0  0  0  0  0  0  0  0
    0.8941   -0.3569   -0.2367 C   0  0  0  0  0  0  0  0  0  0  0  0
    2.0452    0.4865   -0.2625 C   0  0  0  0  0  0  0  0  0  0  0  0
    3.3082   -0.0551   -0.5790 N   0  0  0  0  0  0  0  0  0  0  0  0
    3.5845   -1.4039   -0.1312 C   0  0  0  0  0  0  0  0  0  0  0  0
    5.0659   -1.6921    0.0504 C   0  0  0  0  0  0  0  0  0  0  0  0
    1.9478    1.8436   -0.0642 N   0  0  0  0  0  0  0  0  0  0  0  0
    0.7242    2.3533    0.1290 C   0  0  0  0  0  0  0  0  0  0  0  0
   -0.4614    1.6011    0.1658 C   0  0  0  0  0  0  0  0  0  0  0  0
   -3.1002   -3.2971    0.3194 H   0  0  0  0  0  0  0  0  0  0  0  0
   -5.4134   -1.8494   -0.8045 H   0  0  0  0  0  0  0  0  0  0  0  0
   -5.4921   -0.3928   -0.0244 H   0  0  0  0  0  0  0  0  0  0  0  0
    0.9971   -1.4386   -0.3993 H   0  0  0  0  0  0  0  0  0  0  0  0
    4.0731    0.5774   -0.4494 H   0  0  0  0  0  0  0  0  0  0  0  0
    3.0508   -1.6312    0.8385 H   0  0  0  0  0  0  0  0  0  0  0  0
    3.1684   -2.1046   -0.9128 H   0  0  0  0  0  0  0  0  0  0  0  0
    5.1885   -2.7605    0.3507 H   0  0  0  0  0  0  0  0  0  0  0  0
    5.6299   -1.5232   -0.8984 H   0  0  0  0  0  0  0  0  0  0  0  0
    5.5087   -1.0465    0.8467 H   0  0  0  0  0  0  0  0  0  0  0  0
    0.6942    3.4495    0.2739 H   0  0  0  0  0  0  0  0  0  0  0  0
   -1.4269    2.0943    0.3353 H   0  0  0  0  0  0  0  0  0  0  0  0
  1  2  1  0  0  0  0
  1  5  2  0  0  0  0
  2  3  2  0  0  0  0
  2  7  1  0  0  0  0
  3  4  1  0  0  0  0
  4  5  1  0  0  0  0
  4 16  1  0  0  0  0
  5  6  1  0  0  0  0
  6 17  1  0  0  0  0
  6 18  1  0  0  0  0
  7  8  2  0  0  0  0
  7 15  1  0  0  0  0
  8  9  1  0  0  0  0
  8 19  1  0  0  0  0
  9 10  1  0  0  0  0
  9 13  2  0  0  0  0
 10 11  1  0  0  0  0
 10 20  1  0  0  0  0
 11 12  1  0  0  0  0
 11 21  1  0  0  0  0
 11 22  1  0  0  0  0
 12 23  1  0  0  0  0
 12 24  1  0  0  0  0
 12 25  1  0  0  0  0
 13 14  1  0  0  0  0
 14 15  2  0  0  0  0
 14 26  1  0  0  0  0
 15 27  1  0  0  0  0
M  END
