./078149-96-9.hin
 OpenBabel10051109203D

 46 46  0  0  0  0  0  0  0  0999 V2000
    0.2241   -1.2500    0.5059 N   0  0  0  0  0  0  0  0  0  0  0  0
    0.8893   -0.2491   -0.1066 N   0  0  0  0  0  0  0  0  0  0  0  0
    1.3235    0.5875    0.8741 C   0  0  0  0  0  0  0  0  0  0  0  0
    2.1152    1.8331    0.6486 C   0  0  0  0  0  0  0  0  0  0  0  0
    1.3623    3.0577    1.1297 C   0  0  0  0  0  0  0  0  0  0  0  0
    2.1619    4.3155    0.8617 C   0  0  0  0  0  0  0  0  0  0  0  0
    1.4321    5.5445    1.3609 C   0  0  0  0  0  0  0  0  0  0  0  0
    2.2197    6.8011    1.0940 C   0  0  0  0  0  0  0  0  0  0  0  0
    0.9544    0.1441    2.1664 N   0  0  0  0  0  0  0  0  0  0  0  0
    0.2729   -1.0254    1.9312 C   0  0  0  0  0  0  0  0  0  0  0  0
   -0.1929   -1.9023    2.9032 N   0  0  0  0  0  0  0  0  0  0  0  0
   -0.4826   -2.4092   -0.4035 P   0  0  0  0  0  0  0  0  0  0  0  0
   -1.4925   -1.6355   -1.4188 O   0  0  0  0  0  0  0  0  0  0  0  0
   -2.8061   -1.4902   -0.9164 C   0  0  0  0  0  0  0  0  0  0  0  0
   -3.6525   -0.8147   -1.9786 C   0  0  0  0  0  0  0  0  0  0  0  0
   -5.0641   -0.6238   -1.4900 C   0  0  0  0  0  0  0  0  0  0  0  0
    0.5896   -3.1316   -1.3053 N   0  0  0  0  0  0  0  0  0  0  0  0
    1.0312   -4.4502   -0.9870 C   0  0  0  0  0  0  0  0  0  0  0  0
    1.1558   -2.5038   -2.4529 C   0  0  0  0  0  0  0  0  0  0  0  0
   -1.2815   -3.2634    0.5005 O   0  0  0  0  0  0  0  0  0  0  0  0
    3.0872    1.7406    1.2051 H   0  0  0  0  0  0  0  0  0  0  0  0
    2.3557    1.9397   -0.4431 H   0  0  0  0  0  0  0  0  0  0  0  0
    0.3720    3.1221    0.6072 H   0  0  0  0  0  0  0  0  0  0  0  0
    1.1556    2.9688    2.2287 H   0  0  0  0  0  0  0  0  0  0  0  0
    3.1610    4.2418    1.3670 H   0  0  0  0  0  0  0  0  0  0  0  0
    2.3540    4.4144   -0.2393 H   0  0  0  0  0  0  0  0  0  0  0  0
    0.4305    5.6134    0.8596 H   0  0  0  0  0  0  0  0  0  0  0  0
    1.2433    5.4445    2.4626 H   0  0  0  0  0  0  0  0  0  0  0  0
    1.6658    7.6939    1.4723 H   0  0  0  0  0  0  0  0  0  0  0  0
    3.2126    6.7601    1.6037 H   0  0  0  0  0  0  0  0  0  0  0  0
    2.3942    6.9324   -0.0014 H   0  0  0  0  0  0  0  0  0  0  0  0
   -0.3692   -1.4834    3.7887 H   0  0  0  0  0  0  0  0  0  0  0  0
   -0.8525   -2.5925    2.5985 H   0  0  0  0  0  0  0  0  0  0  0  0
   -3.2022   -2.5105   -0.6574 H   0  0  0  0  0  0  0  0  0  0  0  0
   -2.7543   -0.8687    0.0183 H   0  0  0  0  0  0  0  0  0  0  0  0
   -3.1932    0.1734   -2.2428 H   0  0  0  0  0  0  0  0  0  0  0  0
   -3.6429   -1.4420   -2.9079 H   0  0  0  0  0  0  0  0  0  0  0  0
   -5.6809   -0.1344   -2.2820 H   0  0  0  0  0  0  0  0  0  0  0  0
   -5.5317   -1.6058   -1.2349 H   0  0  0  0  0  0  0  0  0  0  0  0
   -5.0844    0.0215   -0.5785 H   0  0  0  0  0  0  0  0  0  0  0  0
    0.8774   -5.1507   -1.8557 H   0  0  0  0  0  0  0  0  0  0  0  0
    2.1303   -4.4693   -0.7396 H   0  0  0  0  0  0  0  0  0  0  0  0
    0.4431   -4.8292   -0.1061 H   0  0  0  0  0  0  0  0  0  0  0  0
    1.0286   -3.1444   -3.3707 H   0  0  0  0  0  0  0  0  0  0  0  0
    0.6370   -1.5215   -2.6228 H   0  0  0  0  0  0  0  0  0  0  0  0
    2.2604   -2.3220   -2.3255 H   0  0  0  0  0  0  0  0  0  0  0  0
  1  2  1  0  0  0  0
  1 10  1  0  0  0  0
  1 12  1  0  0  0  0
  2  3  2  0  0  0  0
  3  4  1  0  0  0  0
  3  9  1  0  0  0  0
  4  5  1  0  0  0  0
  4 21  1  0  0  0  0
  4 22  1  0  0  0  0
  5  6  1  0  0  0  0
  5 23  1  0  0  0  0
  5 24  1  0  0  0  0
  6  7  1  0  0  0  0
  6 25  1  0  0  0  0
  6 26  1  0  0  0  0
  7  8  1  0  0  0  0
  7 27  1  0  0  0  0
  7 28  1  0  0  0  0
  8 29  1  0  0  0  0
  8 30  1  0  0  0  0
  8 31  1  0  0  0  0
  9 10  2  0  0  0  0
 10 11  1  0  0  0  0
 11 32  1  0  0  0  0
 11 33  1  0  0  0  0
 12 13  1  0  0  0  0
 12 17  1  0  0  0  0
 12 20  2  0  0  0  0
 13 14  1  0  0  0  0
 14 15  1  0  0  0  0
 14 34  1  0  0  0  0
 14 35  1  0  0  0  0
 15 16  1  0  0  0  0
 15 36  1  0  0  0  0
 15 37  1  0  0  0  0
 16 38  1  0  0  0  0
 16 39  1  0  0  0  0
 16 40  1  0  0  0  0
 17 18  1  0  0  0  0
 17 19  1  0  0  0  0
 18 41  1  0  0  0  0
 18 42  1  0  0  0  0
 18 43  1  0  0  0  0
 19 44  1  0  0  0  0
 19 45  1  0  0  0  0
 19 46  1  0  0  0  0
M  END
