./078218-51-6.hin
 OpenBabel10051109203D

 39 40  0  0  0  0  0  0  0  0999 V2000
   -0.6362   -1.7928   -0.0960 N   0  0  0  0  0  0  0  0  0  0  0  0
   -0.7392   -0.4554   -0.0157 N   0  0  0  0  0  0  0  0  0  0  0  0
    0.5282    0.0418    0.0821 C   0  0  0  0  0  0  0  0  0  0  0  0
    0.8651    1.4611    0.1897 C   0  0  0  0  0  0  0  0  0  0  0  0
   -0.0770    2.3716    0.6886 C   0  0  0  0  0  0  0  0  0  0  0  0
    0.2411    3.7242    0.7897 C   0  0  0  0  0  0  0  0  0  0  0  0
    1.5055    4.1694    0.3924 C   0  0  0  0  0  0  0  0  0  0  0  0
    2.4524    3.2677   -0.1031 C   0  0  0  0  0  0  0  0  0  0  0  0
    2.1316    1.9158   -0.2031 C   0  0  0  0  0  0  0  0  0  0  0  0
    1.8954    5.8197    0.5140 Cl  0  0  0  0  0  0  0  0  0  0  0  0
    1.4985   -0.9877    0.0789 N   0  0  0  0  0  0  0  0  0  0  0  0
    0.7582   -2.1358   -0.0350 C   0  0  0  0  0  0  0  0  0  0  0  0
    1.2849   -3.4300   -0.1964 N   0  0  0  0  0  0  0  0  0  0  0  0
   -2.0938   -2.6219   -0.0678 P   0  0  0  0  0  0  0  0  0  0  0  0
   -3.0916   -1.9075   -1.0823 N   0  0  0  0  0  0  0  0  0  0  0  0
   -4.4256   -1.6218   -0.6514 C   0  0  0  0  0  0  0  0  0  0  0  0
   -2.7343   -1.4106   -2.3655 C   0  0  0  0  0  0  0  0  0  0  0  0
   -1.7378   -4.0901   -0.5975 N   0  0  0  0  0  0  0  0  0  0  0  0
   -1.9141   -5.2135    0.2661 C   0  0  0  0  0  0  0  0  0  0  0  0
   -1.2930   -4.3764   -1.9168 C   0  0  0  0  0  0  0  0  0  0  0  0
   -2.6103   -2.6704    1.3190 O   0  0  0  0  0  0  0  0  0  0  0  0
   -1.0725    2.0253    1.0084 H   0  0  0  0  0  0  0  0  0  0  0  0
   -0.5014    4.4350    1.1831 H   0  0  0  0  0  0  0  0  0  0  0  0
    3.4478    3.6203   -0.4126 H   0  0  0  0  0  0  0  0  0  0  0  0
    2.8815    1.2089   -0.5914 H   0  0  0  0  0  0  0  0  0  0  0  0
    2.2834   -3.4359   -0.1163 H   0  0  0  0  0  0  0  0  0  0  0  0
    0.8603   -4.1190    0.3907 H   0  0  0  0  0  0  0  0  0  0  0  0
   -4.6464   -0.5180   -0.7019 H   0  0  0  0  0  0  0  0  0  0  0  0
   -5.1803   -2.1386   -1.3092 H   0  0  0  0  0  0  0  0  0  0  0  0
   -4.5572   -1.9678    0.4112 H   0  0  0  0  0  0  0  0  0  0  0  0
   -3.2714   -1.9686   -3.1848 H   0  0  0  0  0  0  0  0  0  0  0  0
   -3.0051   -0.3220   -2.4746 H   0  0  0  0  0  0  0  0  0  0  0  0
   -1.6296   -1.5092   -2.5288 H   0  0  0  0  0  0  0  0  0  0  0  0
   -2.6280   -5.9628   -0.1786 H   0  0  0  0  0  0  0  0  0  0  0  0
   -0.9389   -5.7536    0.4346 H   0  0  0  0  0  0  0  0  0  0  0  0
   -2.3189   -4.8649    1.2569 H   0  0  0  0  0  0  0  0  0  0  0  0
   -0.3681   -5.0195   -1.9062 H   0  0  0  0  0  0  0  0  0  0  0  0
   -2.0735   -4.9323   -2.5109 H   0  0  0  0  0  0  0  0  0  0  0  0
   -1.0483   -3.4190   -2.4468 H   0  0  0  0  0  0  0  0  0  0  0  0
  1  2  1  0  0  0  0
  1 12  1  0  0  0  0
  1 14  1  0  0  0  0
  2  3  2  0  0  0  0
  3  4  1  0  0  0  0
  3 11  1  0  0  0  0
  4  5  2  0  0  0  0
  4  9  1  0  0  0  0
  5  6  1  0  0  0  0
  5 22  1  0  0  0  0
  6  7  2  0  0  0  0
  6 23  1  0  0  0  0
  7  8  1  0  0  0  0
  7 10  1  0  0  0  0
  8  9  2  0  0  0  0
  8 24  1  0  0  0  0
  9 25  1  0  0  0  0
 11 12  2  0  0  0  0
 12 13  1  0  0  0  0
 13 26  1  0  0  0  0
 13 27  1  0  0  0  0
 14 15  1  0  0  0  0
 14 18  1  0  0  0  0
 14 21  2  0  0  0  0
 15 16  1  0  0  0  0
 15 17  1  0  0  0  0
 16 28  1  0  0  0  0
 16 29  1  0  0  0  0
 16 30  1  0  0  0  0
 17 31  1  0  0  0  0
 17 32  1  0  0  0  0
 17 33  1  0  0  0  0
 18 19  1  0  0  0  0
 18 20  1  0  0  0  0
 19 34  1  0  0  0  0
 19 35  1  0  0  0  0
 19 36  1  0  0  0  0
 20 37  1  0  0  0  0
 20 38  1  0  0  0  0
 20 39  1  0  0  0  0
M  END
