./078218-52-7.hin
 OpenBabel10051109203D

 35 35  0  0  0  0  0  0  0  0999 V2000
    0.7559   -0.0662   -0.0278 N   0  0  0  0  0  0  0  0  0  0  0  0
    0.5206    1.2591   -0.0023 N   0  0  0  0  0  0  0  0  0  0  0  0
    1.7198    1.8772    0.1768 C   0  0  0  0  0  0  0  0  0  0  0  0
    2.7805    0.9506    0.2876 N   0  0  0  0  0  0  0  0  0  0  0  0
    2.1667   -0.2683    0.1555 C   0  0  0  0  0  0  0  0  0  0  0  0
    2.8282   -1.5080    0.0781 N   0  0  0  0  0  0  0  0  0  0  0  0
    1.9226    3.3537    0.2665 C   0  0  0  0  0  0  0  0  0  0  0  0
    2.2662    3.7702    1.6758 C   0  0  0  0  0  0  0  0  0  0  0  0
   -0.6056   -1.0371   -0.0622 P   0  0  0  0  0  0  0  0  0  0  0  0
   -1.6302   -0.4313   -1.1208 N   0  0  0  0  0  0  0  0  0  0  0  0
   -3.0015   -0.2773   -0.7442 C   0  0  0  0  0  0  0  0  0  0  0  0
   -1.2731    0.0943   -2.3923 C   0  0  0  0  0  0  0  0  0  0  0  0
   -0.0792   -2.4612   -0.5730 N   0  0  0  0  0  0  0  0  0  0  0  0
   -0.2019   -3.6043    0.2736 C   0  0  0  0  0  0  0  0  0  0  0  0
    0.4848   -2.6893   -1.8573 C   0  0  0  0  0  0  0  0  0  0  0  0
   -1.1766   -1.1457    1.3003 O   0  0  0  0  0  0  0  0  0  0  0  0
    3.8126   -1.4110    0.2364 H   0  0  0  0  0  0  0  0  0  0  0  0
    2.4277   -2.2194    0.6552 H   0  0  0  0  0  0  0  0  0  0  0  0
    2.7535    3.6434   -0.4321 H   0  0  0  0  0  0  0  0  0  0  0  0
    0.9920    3.8836   -0.0715 H   0  0  0  0  0  0  0  0  0  0  0  0
    2.4087    4.8773    1.7160 H   0  0  0  0  0  0  0  0  0  0  0  0
    1.4468    3.4917    2.3815 H   0  0  0  0  0  0  0  0  0  0  0  0
    3.2086    3.2774    2.0164 H   0  0  0  0  0  0  0  0  0  0  0  0
   -3.3280    0.7991   -0.8107 H   0  0  0  0  0  0  0  0  0  0  0  0
   -3.6751   -0.8682   -1.4271 H   0  0  0  0  0  0  0  0  0  0  0  0
   -3.1399   -0.6316    0.3148 H   0  0  0  0  0  0  0  0  0  0  0  0
   -1.7241   -0.5136   -3.2280 H   0  0  0  0  0  0  0  0  0  0  0  0
   -1.6404    1.1524   -2.5180 H   0  0  0  0  0  0  0  0  0  0  0  0
   -0.1587    0.0993   -2.5135 H   0  0  0  0  0  0  0  0  0  0  0  0
   -0.8103   -4.4143   -0.2191 H   0  0  0  0  0  0  0  0  0  0  0  0
    0.8077   -4.0502    0.5038 H   0  0  0  0  0  0  0  0  0  0  0  0
   -0.7012   -3.3052    1.2370 H   0  0  0  0  0  0  0  0  0  0  0  0
    1.4721   -3.2266   -1.7817 H   0  0  0  0  0  0  0  0  0  0  0  0
   -0.1872   -3.3241   -2.5028 H   0  0  0  0  0  0  0  0  0  0  0  0
    0.6581   -1.7080   -2.3713 H   0  0  0  0  0  0  0  0  0  0  0  0
  1  2  1  0  0  0  0
  1  5  1  0  0  0  0
  1  9  1  0  0  0  0
  2  3  2  0  0  0  0
  3  4  1  0  0  0  0
  3  7  1  0  0  0  0
  4  5  2  0  0  0  0
  5  6  1  0  0  0  0
  6 17  1  0  0  0  0
  6 18  1  0  0  0  0
  7  8  1  0  0  0  0
  7 19  1  0  0  0  0
  7 20  1  0  0  0  0
  8 21  1  0  0  0  0
  8 22  1  0  0  0  0
  8 23  1  0  0  0  0
  9 10  1  0  0  0  0
  9 13  1  0  0  0  0
  9 16  2  0  0  0  0
 10 11  1  0  0  0  0
 10 12  1  0  0  0  0
 11 24  1  0  0  0  0
 11 25  1  0  0  0  0
 11 26  1  0  0  0  0
 12 27  1  0  0  0  0
 12 28  1  0  0  0  0
 12 29  1  0  0  0  0
 13 14  1  0  0  0  0
 13 15  1  0  0  0  0
 14 30  1  0  0  0  0
 14 31  1  0  0  0  0
 14 32  1  0  0  0  0
 15 33  1  0  0  0  0
 15 34  1  0  0  0  0
 15 35  1  0  0  0  0
M  END
