./078218-54-9.hin
 OpenBabel10051109203D

 38 38  0  0  0  0  0  0  0  0999 V2000
    0.6554   -0.3945    0.2953 N   0  0  0  0  0  0  0  0  0  0  0  0
    0.5468    0.9469    0.3301 N   0  0  0  0  0  0  0  0  0  0  0  0
    1.8133    1.4435    0.3812 C   0  0  0  0  0  0  0  0  0  0  0  0
    2.7911    0.4254    0.3842 N   0  0  0  0  0  0  0  0  0  0  0  0
    2.0561   -0.7366    0.3209 C   0  0  0  0  0  0  0  0  0  0  0  0
    2.5809   -2.0188    0.1878 N   0  0  0  0  0  0  0  0  0  0  0  0
    2.1568    2.9038    0.4329 C   0  0  0  0  0  0  0  0  0  0  0  0
    2.8928    3.2217    1.7195 C   0  0  0  0  0  0  0  0  0  0  0  0
    2.9867    3.2889   -0.7757 C   0  0  0  0  0  0  0  0  0  0  0  0
   -0.6964   -1.3355    0.4040 P   0  0  0  0  0  0  0  0  0  0  0  0
   -1.4205   -1.3687   -1.0163 N   0  0  0  0  0  0  0  0  0  0  0  0
   -1.8360   -2.6335   -1.5416 C   0  0  0  0  0  0  0  0  0  0  0  0
   -1.6658   -0.2501   -1.8582 C   0  0  0  0  0  0  0  0  0  0  0  0
   -0.1944   -2.6852    0.7978 O   0  0  0  0  0  0  0  0  0  0  0  0
   -1.6636   -0.7164    1.5077 N   0  0  0  0  0  0  0  0  0  0  0  0
   -2.3644    0.5131    1.3698 C   0  0  0  0  0  0  0  0  0  0  0  0
   -1.8047   -1.3766    2.7675 C   0  0  0  0  0  0  0  0  0  0  0  0
    3.5150   -2.1096    0.5226 H   0  0  0  0  0  0  0  0  0  0  0  0
    1.9572   -2.7654    0.4385 H   0  0  0  0  0  0  0  0  0  0  0  0
    1.1975    3.4979    0.4131 H   0  0  0  0  0  0  0  0  0  0  0  0
    3.0954    4.3187    1.7739 H   0  0  0  0  0  0  0  0  0  0  0  0
    2.2791    2.9267    2.6039 H   0  0  0  0  0  0  0  0  0  0  0  0
    3.8666    2.6772    1.7637 H   0  0  0  0  0  0  0  0  0  0  0  0
    3.1903    4.3869   -0.7558 H   0  0  0  0  0  0  0  0  0  0  0  0
    3.9621    2.7456   -0.7761 H   0  0  0  0  0  0  0  0  0  0  0  0
    2.4420    3.0428   -1.7182 H   0  0  0  0  0  0  0  0  0  0  0  0
   -1.3643   -2.8332   -2.5452 H   0  0  0  0  0  0  0  0  0  0  0  0
   -1.5343   -3.4529   -0.8324 H   0  0  0  0  0  0  0  0  0  0  0  0
   -2.9523   -2.6633   -1.6928 H   0  0  0  0  0  0  0  0  0  0  0  0
   -2.7716   -0.0865   -2.0078 H   0  0  0  0  0  0  0  0  0  0  0  0
   -1.2244    0.6820   -1.4231 H   0  0  0  0  0  0  0  0  0  0  0  0
   -1.2174   -0.4050   -2.8810 H   0  0  0  0  0  0  0  0  0  0  0  0
   -3.4685    0.3722    1.5459 H   0  0  0  0  0  0  0  0  0  0  0  0
   -2.0063    1.2815    2.1127 H   0  0  0  0  0  0  0  0  0  0  0  0
   -2.2183    0.9224    0.3368 H   0  0  0  0  0  0  0  0  0  0  0  0
   -2.8841   -1.6249    2.9738 H   0  0  0  0  0  0  0  0  0  0  0  0
   -1.2066   -2.3293    2.7595 H   0  0  0  0  0  0  0  0  0  0  0  0
   -1.4513   -0.7241    3.6156 H   0  0  0  0  0  0  0  0  0  0  0  0
  1  2  1  0  0  0  0
  1  5  1  0  0  0  0
  1 10  1  0  0  0  0
  2  3  2  0  0  0  0
  3  4  1  0  0  0  0
  3  7  1  0  0  0  0
  4  5  2  0  0  0  0
  5  6  1  0  0  0  0
  6 18  1  0  0  0  0
  6 19  1  0  0  0  0
  7  8  1  0  0  0  0
  7  9  1  0  0  0  0
  7 20  1  0  0  0  0
  8 21  1  0  0  0  0
  8 22  1  0  0  0  0
  8 23  1  0  0  0  0
  9 24  1  0  0  0  0
  9 25  1  0  0  0  0
  9 26  1  0  0  0  0
 10 11  1  0  0  0  0
 10 14  2  0  0  0  0
 10 15  1  0  0  0  0
 11 12  1  0  0  0  0
 11 13  1  0  0  0  0
 12 27  1  0  0  0  0
 12 28  1  0  0  0  0
 12 29  1  0  0  0  0
 13 30  1  0  0  0  0
 13 31  1  0  0  0  0
 13 32  1  0  0  0  0
 15 16  1  0  0  0  0
 15 17  1  0  0  0  0
 16 33  1  0  0  0  0
 16 34  1  0  0  0  0
 16 35  1  0  0  0  0
 17 36  1  0  0  0  0
 17 37  1  0  0  0  0
 17 38  1  0  0  0  0
M  END
