./078218-55-0.hin
 OpenBabel10051109203D

 43 44  0  0  0  0  0  0  0  0999 V2000
   -2.4016    0.5220    0.4224 N   0  0  0  0  0  0  0  0  0  0  0  0
   -3.7046   -0.4876    0.3115 P   0  0  0  0  0  0  0  0  0  0  0  0
   -4.2323   -0.4871   -1.1930 N   0  0  0  0  0  0  0  0  0  0  0  0
   -5.6362   -0.3316   -1.4241 C   0  0  0  0  0  0  0  0  0  0  0  0
   -3.4300   -0.5819   -2.3626 C   0  0  0  0  0  0  0  0  0  0  0  0
   -3.2536   -1.9527    0.7435 N   0  0  0  0  0  0  0  0  0  0  0  0
   -2.3746   -2.7809   -0.0067 C   0  0  0  0  0  0  0  0  0  0  0  0
   -3.6812   -2.4761    2.0030 C   0  0  0  0  0  0  0  0  0  0  0  0
   -4.7140    0.0854    1.2499 O   0  0  0  0  0  0  0  0  0  0  0  0
   -2.2531    1.8173    1.0381 C   0  0  0  0  0  0  0  0  0  0  0  0
   -0.9243    2.1703    1.0058 N   0  0  0  0  0  0  0  0  0  0  0  0
   -0.2991    1.0787    0.3576 C   0  0  0  0  0  0  0  0  0  0  0  0
    1.1390    1.0249    0.0982 C   0  0  0  0  0  0  0  0  0  0  0  0
    1.8899    2.2112    0.0467 C   0  0  0  0  0  0  0  0  0  0  0  0
    3.2554    2.1692   -0.1993 C   0  0  0  0  0  0  0  0  0  0  0  0
    3.8853    0.9250   -0.3950 C   0  0  0  0  0  0  0  0  0  0  0  0
    3.1473   -0.2632   -0.3438 C   0  0  0  0  0  0  0  0  0  0  0  0
    1.7766   -0.2059   -0.0971 C   0  0  0  0  0  0  0  0  0  0  0  0
    5.2433    0.9932   -0.6325 O   0  0  0  0  0  0  0  0  0  0  0  0
    5.9129   -0.2485   -0.8183 C   0  0  0  0  0  0  0  0  0  0  0  0
   -1.1904    0.1026    0.0154 N   0  0  0  0  0  0  0  0  0  0  0  0
   -3.2927    2.6251    1.4898 N   0  0  0  0  0  0  0  0  0  0  0  0
   -5.8458    0.5644   -2.0744 H   0  0  0  0  0  0  0  0  0  0  0  0
   -6.0616   -1.2292   -1.9562 H   0  0  0  0  0  0  0  0  0  0  0  0
   -6.1665   -0.1953   -0.4414 H   0  0  0  0  0  0  0  0  0  0  0  0
   -3.6715   -1.5148   -2.9484 H   0  0  0  0  0  0  0  0  0  0  0  0
   -3.6106    0.2922   -3.0514 H   0  0  0  0  0  0  0  0  0  0  0  0
   -2.3418   -0.5983   -2.1008 H   0  0  0  0  0  0  0  0  0  0  0  0
   -1.4050   -2.9608    0.5393 H   0  0  0  0  0  0  0  0  0  0  0  0
   -2.8365   -3.7901   -0.2017 H   0  0  0  0  0  0  0  0  0  0  0  0
   -2.1436   -2.2991   -0.9920 H   0  0  0  0  0  0  0  0  0  0  0  0
   -2.8050   -2.6880    2.6792 H   0  0  0  0  0  0  0  0  0  0  0  0
   -4.3641   -1.7351    2.5033 H   0  0  0  0  0  0  0  0  0  0  0  0
   -4.2335   -3.4487    1.8685 H   0  0  0  0  0  0  0  0  0  0  0  0
    1.3984    3.1851    0.2018 H   0  0  0  0  0  0  0  0  0  0  0  0
    3.8534    3.0903   -0.2429 H   0  0  0  0  0  0  0  0  0  0  0  0
    3.6308   -1.2380   -0.4930 H   0  0  0  0  0  0  0  0  0  0  0  0
    1.2016   -1.1438   -0.0541 H   0  0  0  0  0  0  0  0  0  0  0  0
    6.9783    0.0530   -0.9835 H   0  0  0  0  0  0  0  0  0  0  0  0
    5.8206   -0.8870    0.0937 H   0  0  0  0  0  0  0  0  0  0  0  0
    5.5112   -0.7830   -1.7131 H   0  0  0  0  0  0  0  0  0  0  0  0
   -4.1432    2.1412    1.7176 H   0  0  0  0  0  0  0  0  0  0  0  0
   -3.0083    3.3224    2.1425 H   0  0  0  0  0  0  0  0  0  0  0  0
  1  2  1  0  0  0  0
  1 10  1  0  0  0  0
  1 21  1  0  0  0  0
  2  3  1  0  0  0  0
  2  6  1  0  0  0  0
  2  9  2  0  0  0  0
  3  4  1  0  0  0  0
  3  5  1  0  0  0  0
  4 23  1  0  0  0  0
  4 24  1  0  0  0  0
  4 25  1  0  0  0  0
  5 26  1  0  0  0  0
  5 27  1  0  0  0  0
  5 28  1  0  0  0  0
  6  7  1  0  0  0  0
  6  8  1  0  0  0  0
  7 29  1  0  0  0  0
  7 30  1  0  0  0  0
  7 31  1  0  0  0  0
  8 32  1  0  0  0  0
  8 33  1  0  0  0  0
  8 34  1  0  0  0  0
 10 11  2  0  0  0  0
 10 22  1  0  0  0  0
 11 12  1  0  0  0  0
 12 13  1  0  0  0  0
 12 21  2  0  0  0  0
 13 14  2  0  0  0  0
 13 18  1  0  0  0  0
 14 15  1  0  0  0  0
 14 35  1  0  0  0  0
 15 16  2  0  0  0  0
 15 36  1  0  0  0  0
 16 17  1  0  0  0  0
 16 19  1  0  0  0  0
 17 18  2  0  0  0  0
 17 37  1  0  0  0  0
 18 38  1  0  0  0  0
 19 20  1  0  0  0  0
 20 39  1  0  0  0  0
 20 40  1  0  0  0  0
 20 41  1  0  0  0  0
 22 42  1  0  0  0  0
 22 43  1  0  0  0  0
M  END
