./078218-56-1.hin
 OpenBabel10051109203D

 43 44  0  0  0  0  0  0  0  0999 V2000
   -0.3315   -1.0559    0.1737 N   0  0  0  0  0  0  0  0  0  0  0  0
   -1.5403   -2.1664   -0.0161 P   0  0  0  0  0  0  0  0  0  0  0  0
   -2.3622   -1.8162   -1.3366 N   0  0  0  0  0  0  0  0  0  0  0  0
   -3.7914   -1.7871   -1.2638 C   0  0  0  0  0  0  0  0  0  0  0  0
   -1.8113   -1.4829   -2.6037 C   0  0  0  0  0  0  0  0  0  0  0  0
   -0.8886   -3.6150   -0.1316 N   0  0  0  0  0  0  0  0  0  0  0  0
   -1.0109   -4.5284    0.9611 C   0  0  0  0  0  0  0  0  0  0  0  0
   -0.1105   -4.0669   -1.2324 C   0  0  0  0  0  0  0  0  0  0  0  0
   -2.3817   -2.0313    1.2095 O   0  0  0  0  0  0  0  0  0  0  0  0
   -0.1499   -0.0063    1.1472 C   0  0  0  0  0  0  0  0  0  0  0  0
    1.1141    0.5174    1.0000 N   0  0  0  0  0  0  0  0  0  0  0  0
    1.6630   -0.2203   -0.0727 C   0  0  0  0  0  0  0  0  0  0  0  0
    3.0187   -0.0410   -0.5788 C   0  0  0  0  0  0  0  0  0  0  0  0
    3.7388    1.0873   -0.5612 C   0  0  0  0  0  0  0  0  0  0  0  0
    3.3429    2.4081   -0.0973 C   0  0  0  0  0  0  0  0  0  0  0  0
    4.2118    3.1252    0.7398 C   0  0  0  0  0  0  0  0  0  0  0  0
    3.8754    4.4062    1.1700 C   0  0  0  0  0  0  0  0  0  0  0  0
    2.6765    4.9905    0.7604 C   0  0  0  0  0  0  0  0  0  0  0  0
    1.8127    4.2873   -0.0781 C   0  0  0  0  0  0  0  0  0  0  0  0
    2.1411    3.0013   -0.5047 C   0  0  0  0  0  0  0  0  0  0  0  0
    0.7935   -1.1583   -0.5542 N   0  0  0  0  0  0  0  0  0  0  0  0
   -1.1282    0.4772    2.0108 N   0  0  0  0  0  0  0  0  0  0  0  0
   -4.1949   -0.7810   -1.5711 H   0  0  0  0  0  0  0  0  0  0  0  0
   -4.2485   -2.5489   -1.9571 H   0  0  0  0  0  0  0  0  0  0  0  0
   -4.1191   -1.9999   -0.2089 H   0  0  0  0  0  0  0  0  0  0  0  0
   -2.0870   -2.2496   -3.3835 H   0  0  0  0  0  0  0  0  0  0  0  0
   -2.2033   -0.4908   -2.9686 H   0  0  0  0  0  0  0  0  0  0  0  0
   -0.6952   -1.4159   -2.5495 H   0  0  0  0  0  0  0  0  0  0  0  0
   -1.4945   -5.4906    0.6298 H   0  0  0  0  0  0  0  0  0  0  0  0
   -0.0028   -4.7984    1.3861 H   0  0  0  0  0  0  0  0  0  0  0  0
   -1.6405   -4.0634    1.7691 H   0  0  0  0  0  0  0  0  0  0  0  0
    0.9585   -4.2629   -0.9334 H   0  0  0  0  0  0  0  0  0  0  0  0
   -0.5194   -5.0310   -1.6489 H   0  0  0  0  0  0  0  0  0  0  0  0
   -0.1165   -3.2970   -2.0468 H   0  0  0  0  0  0  0  0  0  0  0  0
    3.4638   -0.9616   -1.0002 H   0  0  0  0  0  0  0  0  0  0  0  0
    4.7788    1.0460   -0.9420 H   0  0  0  0  0  0  0  0  0  0  0  0
    5.1578    2.6667    1.0636 H   0  0  0  0  0  0  0  0  0  0  0  0
    4.5571    4.9573    1.8340 H   0  0  0  0  0  0  0  0  0  0  0  0
    2.4133    6.0027    1.0997 H   0  0  0  0  0  0  0  0  0  0  0  0
    0.8660    4.7442   -0.4012 H   0  0  0  0  0  0  0  0  0  0  0  0
    1.4525    2.4444   -1.1573 H   0  0  0  0  0  0  0  0  0  0  0  0
   -1.8731   -0.1638    2.2186 H   0  0  0  0  0  0  0  0  0  0  0  0
   -0.7653    0.9817    2.7900 H   0  0  0  0  0  0  0  0  0  0  0  0
  1  2  1  0  0  0  0
  1 10  1  0  0  0  0
  1 21  1  0  0  0  0
  2  3  1  0  0  0  0
  2  6  1  0  0  0  0
  2  9  2  0  0  0  0
  3  4  1  0  0  0  0
  3  5  1  0  0  0  0
  4 23  1  0  0  0  0
  4 24  1  0  0  0  0
  4 25  1  0  0  0  0
  5 26  1  0  0  0  0
  5 27  1  0  0  0  0
  5 28  1  0  0  0  0
  6  7  1  0  0  0  0
  6  8  1  0  0  0  0
  7 29  1  0  0  0  0
  7 30  1  0  0  0  0
  7 31  1  0  0  0  0
  8 32  1  0  0  0  0
  8 33  1  0  0  0  0
  8 34  1  0  0  0  0
 10 11  2  0  0  0  0
 10 22  1  0  0  0  0
 11 12  1  0  0  0  0
 12 13  1  0  0  0  0
 12 21  2  0  0  0  0
 13 14  2  0  0  0  0
 13 35  1  0  0  0  0
 14 15  1  0  0  0  0
 14 36  1  0  0  0  0
 15 16  2  0  0  0  0
 15 20  1  0  0  0  0
 16 17  1  0  0  0  0
 16 37  1  0  0  0  0
 17 18  2  0  0  0  0
 17 38  1  0  0  0  0
 18 19  1  0  0  0  0
 18 39  1  0  0  0  0
 19 20  2  0  0  0  0
 19 40  1  0  0  0  0
 20 41  1  0  0  0  0
 22 42  1  0  0  0  0
 22 43  1  0  0  0  0
M  END
