./078218-57-2.hin
 OpenBabel10051109203D

 32 32  0  0  0  0  0  0  0  0999 V2000
    0.3169    0.4576    0.2874 N   0  0  0  0  0  0  0  0  0  0  0  0
    0.4501    1.5198    1.2539 C   0  0  0  0  0  0  0  0  0  0  0  0
    1.7451    1.9841    1.2211 N   0  0  0  0  0  0  0  0  0  0  0  0
    2.3604    1.1968    0.2219 C   0  0  0  0  0  0  0  0  0  0  0  0
    1.5039    0.2911   -0.3256 N   0  0  0  0  0  0  0  0  0  0  0  0
    3.7847    1.3707   -0.1624 C   0  0  0  0  0  0  0  0  0  0  0  0
   -0.5836    2.0621    2.0110 N   0  0  0  0  0  0  0  0  0  0  0  0
   -0.9211   -0.5928   -0.0116 P   0  0  0  0  0  0  0  0  0  0  0  0
   -1.5941   -0.2160   -1.4073 N   0  0  0  0  0  0  0  0  0  0  0  0
   -3.0204   -0.1170   -1.4732 C   0  0  0  0  0  0  0  0  0  0  0  0
   -0.9075    0.0813   -2.6157 C   0  0  0  0  0  0  0  0  0  0  0  0
   -0.3369   -2.0738   -0.0564 N   0  0  0  0  0  0  0  0  0  0  0  0
   -0.6144   -2.9706    1.0215 C   0  0  0  0  0  0  0  0  0  0  0  0
    0.5216   -2.5739   -1.0734 C   0  0  0  0  0  0  0  0  0  0  0  0
   -1.8689   -0.4025    1.1261 O   0  0  0  0  0  0  0  0  0  0  0  0
    4.4321    1.2975    0.7467 H   0  0  0  0  0  0  0  0  0  0  0  0
    4.1015    0.5917   -0.8977 H   0  0  0  0  0  0  0  0  0  0  0  0
    3.9252    2.3817   -0.6204 H   0  0  0  0  0  0  0  0  0  0  0  0
   -1.3774    1.4618    2.1473 H   0  0  0  0  0  0  0  0  0  0  0  0
   -0.2769    2.5600    2.8178 H   0  0  0  0  0  0  0  0  0  0  0  0
   -3.3426    0.9049   -1.8216 H   0  0  0  0  0  0  0  0  0  0  0  0
   -3.4453   -0.8614   -2.2047 H   0  0  0  0  0  0  0  0  0  0  0  0
   -3.4583   -0.3049   -0.4542 H   0  0  0  0  0  0  0  0  0  0  0  0
   -1.1467   -0.6744   -3.4179 H   0  0  0  0  0  0  0  0  0  0  0  0
   -1.2099    1.0904   -3.0172 H   0  0  0  0  0  0  0  0  0  0  0  0
    0.2002    0.0900   -2.4543 H   0  0  0  0  0  0  0  0  0  0  0  0
   -1.1127   -3.9090    0.6469 H   0  0  0  0  0  0  0  0  0  0  0  0
    0.3313   -3.2891    1.5451 H   0  0  0  0  0  0  0  0  0  0  0  0
   -1.2954   -2.4666    1.7617 H   0  0  0  0  0  0  0  0  0  0  0  0
    1.5451   -2.8198   -0.6699 H   0  0  0  0  0  0  0  0  0  0  0  0
    0.1076   -3.5203   -1.5240 H   0  0  0  0  0  0  0  0  0  0  0  0
    0.6339   -1.8121   -1.8876 H   0  0  0  0  0  0  0  0  0  0  0  0
  1  2  1  0  0  0  0
  1  5  1  0  0  0  0
  1  8  1  0  0  0  0
  2  3  2  0  0  0  0
  2  7  1  0  0  0  0
  3  4  1  0  0  0  0
  4  5  2  0  0  0  0
  4  6  1  0  0  0  0
  6 16  1  0  0  0  0
  6 17  1  0  0  0  0
  6 18  1  0  0  0  0
  7 19  1  0  0  0  0
  7 20  1  0  0  0  0
  8  9  1  0  0  0  0
  8 12  1  0  0  0  0
  8 15  2  0  0  0  0
  9 10  1  0  0  0  0
  9 11  1  0  0  0  0
 10 21  1  0  0  0  0
 10 22  1  0  0  0  0
 10 23  1  0  0  0  0
 11 24  1  0  0  0  0
 11 25  1  0  0  0  0
 11 26  1  0  0  0  0
 12 13  1  0  0  0  0
 12 14  1  0  0  0  0
 13 27  1  0  0  0  0
 13 28  1  0  0  0  0
 13 29  1  0  0  0  0
 14 30  1  0  0  0  0
 14 31  1  0  0  0  0
 14 32  1  0  0  0  0
M  END
