./078218-60-7.hin
 OpenBabel10051109203D

 41 41  0  0  0  0  0  0  0  0999 V2000
   -1.2897   -0.7115   -0.6195 N   0  0  0  0  0  0  0  0  0  0  0  0
   -2.5430   -0.3843   -0.2496 N   0  0  0  0  0  0  0  0  0  0  0  0
   -3.3681   -0.8136   -1.2327 C   0  0  0  0  0  0  0  0  0  0  0  0
   -2.6840   -1.4502   -2.2781 N   0  0  0  0  0  0  0  0  0  0  0  0
   -1.3672   -1.3807   -1.8895 C   0  0  0  0  0  0  0  0  0  0  0  0
   -0.2648   -1.7798   -2.6659 N   0  0  0  0  0  0  0  0  0  0  0  0
   -0.1110   -0.4109    0.5365 P   0  0  0  0  0  0  0  0  0  0  0  0
   -0.2603    1.0993    1.0258 N   0  0  0  0  0  0  0  0  0  0  0  0
   -0.7620    2.1637    0.2115 C   0  0  0  0  0  0  0  0  0  0  0  0
    0.0851    3.4287    0.1513 C   0  0  0  0  0  0  0  0  0  0  0  0
   -0.0838    1.3673    2.4291 C   0  0  0  0  0  0  0  0  0  0  0  0
    1.2807    1.9064    2.8499 C   0  0  0  0  0  0  0  0  0  0  0  0
   -0.2482   -1.3991    1.6311 O   0  0  0  0  0  0  0  0  0  0  0  0
    1.2788   -0.6036   -0.2378 N   0  0  0  0  0  0  0  0  0  0  0  0
    2.0539   -1.7838    0.0229 C   0  0  0  0  0  0  0  0  0  0  0  0
    3.2968   -1.6155    0.8881 C   0  0  0  0  0  0  0  0  0  0  0  0
    1.7639    0.3297   -1.2046 C   0  0  0  0  0  0  0  0  0  0  0  0
    2.8908    1.2602   -0.7684 C   0  0  0  0  0  0  0  0  0  0  0  0
   -4.4575   -0.6965   -1.2250 H   0  0  0  0  0  0  0  0  0  0  0  0
   -0.5536   -2.2163   -3.5201 H   0  0  0  0  0  0  0  0  0  0  0  0
    0.4010   -2.3372   -2.1699 H   0  0  0  0  0  0  0  0  0  0  0  0
   -0.8764    1.7841   -0.8443 H   0  0  0  0  0  0  0  0  0  0  0  0
   -1.7925    2.4718    0.5715 H   0  0  0  0  0  0  0  0  0  0  0  0
    0.1198    3.9319    1.1471 H   0  0  0  0  0  0  0  0  0  0  0  0
    1.1302    3.2047   -0.1732 H   0  0  0  0  0  0  0  0  0  0  0  0
   -0.3752    4.1315   -0.5845 H   0  0  0  0  0  0  0  0  0  0  0  0
   -0.8617    2.1154    2.7674 H   0  0  0  0  0  0  0  0  0  0  0  0
   -0.2746    0.4014    2.9899 H   0  0  0  0  0  0  0  0  0  0  0  0
    1.2307    2.1788    3.9318 H   0  0  0  0  0  0  0  0  0  0  0  0
    2.0844    1.1423    2.7190 H   0  0  0  0  0  0  0  0  0  0  0  0
    1.5640    2.8132    2.2643 H   0  0  0  0  0  0  0  0  0  0  0  0
    1.3726   -2.5269    0.5395 H   0  0  0  0  0  0  0  0  0  0  0  0
    2.3875   -2.2374   -0.9597 H   0  0  0  0  0  0  0  0  0  0  0  0
    3.7521   -2.6229    1.0485 H   0  0  0  0  0  0  0  0  0  0  0  0
    4.0512   -0.9590    0.3943 H   0  0  0  0  0  0  0  0  0  0  0  0
    3.0464   -1.1804    1.8851 H   0  0  0  0  0  0  0  0  0  0  0  0
    2.1233   -0.2250   -2.1241 H   0  0  0  0  0  0  0  0  0  0  0  0
    0.8872    0.9649   -1.5277 H   0  0  0  0  0  0  0  0  0  0  0  0
    2.9619    2.1009   -1.5005 H   0  0  0  0  0  0  0  0  0  0  0  0
    2.7141    1.6878    0.2485 H   0  0  0  0  0  0  0  0  0  0  0  0
    3.8681    0.7218   -0.7564 H   0  0  0  0  0  0  0  0  0  0  0  0
  1  2  1  0  0  0  0
  1  5  1  0  0  0  0
  1  7  1  0  0  0  0
  2  3  2  0  0  0  0
  3  4  1  0  0  0  0
  3 19  1  0  0  0  0
  4  5  2  0  0  0  0
  5  6  1  0  0  0  0
  6 20  1  0  0  0  0
  6 21  1  0  0  0  0
  7  8  1  0  0  0  0
  7 13  2  0  0  0  0
  7 14  1  0  0  0  0
  8  9  1  0  0  0  0
  8 11  1  0  0  0  0
  9 10  1  0  0  0  0
  9 22  1  0  0  0  0
  9 23  1  0  0  0  0
 10 24  1  0  0  0  0
 10 25  1  0  0  0  0
 10 26  1  0  0  0  0
 11 12  1  0  0  0  0
 11 27  1  0  0  0  0
 11 28  1  0  0  0  0
 12 29  1  0  0  0  0
 12 30  1  0  0  0  0
 12 31  1  0  0  0  0
 14 15  1  0  0  0  0
 14 17  1  0  0  0  0
 15 16  1  0  0  0  0
 15 32  1  0  0  0  0
 15 33  1  0  0  0  0
 16 34  1  0  0  0  0
 16 35  1  0  0  0  0
 16 36  1  0  0  0  0
 17 18  1  0  0  0  0
 17 37  1  0  0  0  0
 17 38  1  0  0  0  0
 18 39  1  0  0  0  0
 18 40  1  0  0  0  0
 18 41  1  0  0  0  0
M  END
