./078218-61-8.hin
 OpenBabel10051109203D

 62 62  0  0  0  0  0  0  0  0999 V2000
   -5.0252   -0.8955   -1.1989 N   0  0  0  0  0  0  0  0  0  0  0  0
   -6.0357   -2.1627   -1.5124 P   0  0  0  0  0  0  0  0  0  0  0  0
   -6.4469   -2.1273   -3.0528 N   0  0  0  0  0  0  0  0  0  0  0  0
   -7.8302   -2.2638   -3.3940 C   0  0  0  0  0  0  0  0  0  0  0  0
   -5.5669   -1.9264   -4.1506 C   0  0  0  0  0  0  0  0  0  0  0  0
   -5.2777   -3.5205   -1.1688 N   0  0  0  0  0  0  0  0  0  0  0  0
   -5.6615   -4.2647   -0.0104 C   0  0  0  0  0  0  0  0  0  0  0  0
   -4.1716   -4.0362   -1.8983 C   0  0  0  0  0  0  0  0  0  0  0  0
   -7.2144   -1.9426   -0.6229 O   0  0  0  0  0  0  0  0  0  0  0  0
   -5.2290    0.3208   -0.4513 C   0  0  0  0  0  0  0  0  0  0  0  0
   -6.4565    0.8082   -0.0133 N   0  0  0  0  0  0  0  0  0  0  0  0
   -4.0236    0.9758   -0.3410 N   0  0  0  0  0  0  0  0  0  0  0  0
   -3.1215    0.1421   -1.0378 C   0  0  0  0  0  0  0  0  0  0  0  0
   -1.6754    0.4763   -1.1994 C   0  0  0  0  0  0  0  0  0  0  0  0
   -0.9835    0.6027    0.1434 C   0  0  0  0  0  0  0  0  0  0  0  0
    0.4891    0.9043   -0.0414 C   0  0  0  0  0  0  0  0  0  0  0  0
    1.1821    1.0799    1.2928 C   0  0  0  0  0  0  0  0  0  0  0  0
    2.6539    1.3829    1.1108 C   0  0  0  0  0  0  0  0  0  0  0  0
    3.3408    1.5923    2.4433 C   0  0  0  0  0  0  0  0  0  0  0  0
    4.8124    1.8961    2.2612 C   0  0  0  0  0  0  0  0  0  0  0  0
    5.4948    2.1283    3.5922 C   0  0  0  0  0  0  0  0  0  0  0  0
    6.9665    2.4312    3.4099 C   0  0  0  0  0  0  0  0  0  0  0  0
    7.6481    2.6752    4.7396 C   0  0  0  0  0  0  0  0  0  0  0  0
    9.1141    2.9755    4.5628 C   0  0  0  0  0  0  0  0  0  0  0  0
   -3.7256   -0.9690   -1.5420 N   0  0  0  0  0  0  0  0  0  0  0  0
   -8.1948   -1.3746   -3.9821 H   0  0  0  0  0  0  0  0  0  0  0  0
   -8.0018   -3.1737   -4.0361 H   0  0  0  0  0  0  0  0  0  0  0  0
   -8.4429   -2.3502   -2.4545 H   0  0  0  0  0  0  0  0  0  0  0  0
   -5.5410   -2.8306   -4.8242 H   0  0  0  0  0  0  0  0  0  0  0  0
   -5.9008   -1.0563   -4.7851 H   0  0  0  0  0  0  0  0  0  0  0  0
   -4.5261   -1.7174   -3.7955 H   0  0  0  0  0  0  0  0  0  0  0  0
   -5.9526   -5.3176   -0.2860 H   0  0  0  0  0  0  0  0  0  0  0  0
   -4.8137   -4.3424    0.7279 H   0  0  0  0  0  0  0  0  0  0  0  0
   -6.5378   -3.7617    0.4842 H   0  0  0  0  0  0  0  0  0  0  0  0
   -3.2321   -4.0488   -1.2755 H   0  0  0  0  0  0  0  0  0  0  0  0
   -4.3634   -5.0962   -2.2293 H   0  0  0  0  0  0  0  0  0  0  0  0
   -3.9870   -3.4077   -2.8077 H   0  0  0  0  0  0  0  0  0  0  0  0
   -7.1796    0.1190    0.0920 H   0  0  0  0  0  0  0  0  0  0  0  0
   -6.3874    1.4751    0.7239 H   0  0  0  0  0  0  0  0  0  0  0  0
   -1.1672   -0.3129   -1.8154 H   0  0  0  0  0  0  0  0  0  0  0  0
   -1.5988    1.4478   -1.7593 H   0  0  0  0  0  0  0  0  0  0  0  0
   -1.4640    1.4204    0.7425 H   0  0  0  0  0  0  0  0  0  0  0  0
   -1.1037   -0.3502    0.7223 H   0  0  0  0  0  0  0  0  0  0  0  0
    0.9774    0.0711   -0.6124 H   0  0  0  0  0  0  0  0  0  0  0  0
    0.6081    1.8383   -0.6519 H   0  0  0  0  0  0  0  0  0  0  0  0
    0.6937    1.9143    1.8624 H   0  0  0  0  0  0  0  0  0  0  0  0
    1.0623    0.1475    1.9051 H   0  0  0  0  0  0  0  0  0  0  0  0
    3.1471    0.5380    0.5617 H   0  0  0  0  0  0  0  0  0  0  0  0
    2.7732    2.3021    0.4785 H   0  0  0  0  0  0  0  0  0  0  0  0
    2.8474    2.4378    2.9916 H   0  0  0  0  0  0  0  0  0  0  0  0
    3.2217    0.6739    3.0767 H   0  0  0  0  0  0  0  0  0  0  0  0
    5.3092    1.0436    1.7272 H   0  0  0  0  0  0  0  0  0  0  0  0
    4.9314    2.8052    1.6143 H   0  0  0  0  0  0  0  0  0  0  0  0
    4.9984    2.9819    4.1251 H   0  0  0  0  0  0  0  0  0  0  0  0
    5.3749    1.2202    4.2400 H   0  0  0  0  0  0  0  0  0  0  0  0
    7.4647    1.5743    2.8843 H   0  0  0  0  0  0  0  0  0  0  0  0
    7.0866    3.3346    2.7555 H   0  0  0  0  0  0  0  0  0  0  0  0
    7.1483    3.5326    5.2635 H   0  0  0  0  0  0  0  0  0  0  0  0
    7.5244    1.7721    5.3940 H   0  0  0  0  0  0  0  0  0  0  0  0
    9.5964    3.1535    5.5541 H   0  0  0  0  0  0  0  0  0  0  0  0
    9.6345    2.1214    4.0656 H   0  0  0  0  0  0  0  0  0  0  0  0
    9.2569    3.8863    3.9324 H   0  0  0  0  0  0  0  0  0  0  0  0
  1  2  1  0  0  0  0
  1 10  1  0  0  0  0
  1 25  1  0  0  0  0
  2  3  1  0  0  0  0
  2  6  1  0  0  0  0
  2  9  2  0  0  0  0
  3  4  1  0  0  0  0
  3  5  1  0  0  0  0
  4 26  1  0  0  0  0
  4 27  1  0  0  0  0
  4 28  1  0  0  0  0
  5 29  1  0  0  0  0
  5 30  1  0  0  0  0
  5 31  1  0  0  0  0
  6  7  1  0  0  0  0
  6  8  1  0  0  0  0
  7 32  1  0  0  0  0
  7 33  1  0  0  0  0
  7 34  1  0  0  0  0
  8 35  1  0  0  0  0
  8 36  1  0  0  0  0
  8 37  1  0  0  0  0
 10 11  1  0  0  0  0
 10 12  2  0  0  0  0
 11 38  1  0  0  0  0
 11 39  1  0  0  0  0
 12 13  1  0  0  0  0
 13 14  1  0  0  0  0
 13 25  2  0  0  0  0
 14 15  1  0  0  0  0
 14 40  1  0  0  0  0
 14 41  1  0  0  0  0
 15 16  1  0  0  0  0
 15 42  1  0  0  0  0
 15 43  1  0  0  0  0
 16 17  1  0  0  0  0
 16 44  1  0  0  0  0
 16 45  1  0  0  0  0
 17 18  1  0  0  0  0
 17 46  1  0  0  0  0
 17 47  1  0  0  0  0
 18 19  1  0  0  0  0
 18 48  1  0  0  0  0
 18 49  1  0  0  0  0
 19 20  1  0  0  0  0
 19 50  1  0  0  0  0
 19 51  1  0  0  0  0
 20 21  1  0  0  0  0
 20 52  1  0  0  0  0
 20 53  1  0  0  0  0
 21 22  1  0  0  0  0
 21 54  1  0  0  0  0
 21 55  1  0  0  0  0
 22 23  1  0  0  0  0
 22 56  1  0  0  0  0
 22 57  1  0  0  0  0
 23 24  1  0  0  0  0
 23 58  1  0  0  0  0
 23 59  1  0  0  0  0
 24 60  1  0  0  0  0
 24 61  1  0  0  0  0
 24 62  1  0  0  0  0
M  END
