./078218-65-2.hin
 OpenBabel10051109203D

 32 32  0  0  0  0  0  0  0  0999 V2000
    0.4942    0.4732    0.1412 N   0  0  0  0  0  0  0  0  0  0  0  0
    0.6606    1.6059    1.0371 C   0  0  0  0  0  0  0  0  0  0  0  0
    1.9745    2.0197    0.9745 N   0  0  0  0  0  0  0  0  0  0  0  0
    2.5711    1.1483    0.0398 C   0  0  0  0  0  0  0  0  0  0  0  0
    1.6960    0.2346   -0.4535 N   0  0  0  0  0  0  0  0  0  0  0  0
    4.0053    1.2504   -0.3373 C   0  0  0  0  0  0  0  0  0  0  0  0
   -0.3344    2.2342    1.7487 N   0  0  0  0  0  0  0  0  0  0  0  0
   -0.6999   -0.5660   -0.2039 P   0  0  0  0  0  0  0  0  0  0  0  0
   -1.3750   -0.2033   -1.5788 N   0  0  0  0  0  0  0  0  0  0  0  0
   -2.8023   -0.2582   -1.7311 C   0  0  0  0  0  0  0  0  0  0  0  0
   -0.6728    0.2214   -2.7474 C   0  0  0  0  0  0  0  0  0  0  0  0
   -0.1760   -2.0478   -0.1892 N   0  0  0  0  0  0  0  0  0  0  0  0
   -0.3622   -2.9095    0.9420 C   0  0  0  0  0  0  0  0  0  0  0  0
    0.5990   -2.6084   -1.2510 C   0  0  0  0  0  0  0  0  0  0  0  0
   -1.9577   -0.2852    1.2347 S   0  0  0  0  0  0  0  0  0  0  0  0
    4.6396    1.1640    0.5802 H   0  0  0  0  0  0  0  0  0  0  0  0
    4.2927    0.4448   -1.0557 H   0  0  0  0  0  0  0  0  0  0  0  0
    4.1951    2.2463   -0.8103 H   0  0  0  0  0  0  0  0  0  0  0  0
   -1.1826    1.7221    1.9496 H   0  0  0  0  0  0  0  0  0  0  0  0
   -0.0181    2.8781    2.4393 H   0  0  0  0  0  0  0  0  0  0  0  0
   -3.2020    0.7272   -2.1012 H   0  0  0  0  0  0  0  0  0  0  0  0
   -3.0934   -1.0414   -2.4864 H   0  0  0  0  0  0  0  0  0  0  0  0
   -3.2835   -0.4880   -0.7365 H   0  0  0  0  0  0  0  0  0  0  0  0
   -0.9425   -0.4250   -3.6308 H   0  0  0  0  0  0  0  0  0  0  0  0
   -0.9419    1.2814   -3.0210 H   0  0  0  0  0  0  0  0  0  0  0  0
    0.4345    0.1624   -2.5951 H   0  0  0  0  0  0  0  0  0  0  0  0
   -0.8749   -3.8623    0.6310 H   0  0  0  0  0  0  0  0  0  0  0  0
    0.6267   -3.1960    1.3987 H   0  0  0  0  0  0  0  0  0  0  0  0
   -0.9989   -2.3885    1.7149 H   0  0  0  0  0  0  0  0  0  0  0  0
    1.6219   -2.9169   -0.8922 H   0  0  0  0  0  0  0  0  0  0  0  0
    0.1011   -3.5280   -1.6705 H   0  0  0  0  0  0  0  0  0  0  0  0
    0.7235   -1.8581   -2.0750 H   0  0  0  0  0  0  0  0  0  0  0  0
  1  2  1  0  0  0  0
  1  5  1  0  0  0  0
  1  8  1  0  0  0  0
  2  3  2  0  0  0  0
  2  7  1  0  0  0  0
  3  4  1  0  0  0  0
  4  5  2  0  0  0  0
  4  6  1  0  0  0  0
  6 16  1  0  0  0  0
  6 17  1  0  0  0  0
  6 18  1  0  0  0  0
  7 19  1  0  0  0  0
  7 20  1  0  0  0  0
  8  9  1  0  0  0  0
  8 12  1  0  0  0  0
  8 15  2  0  0  0  0
  9 10  1  0  0  0  0
  9 11  1  0  0  0  0
 10 21  1  0  0  0  0
 10 22  1  0  0  0  0
 10 23  1  0  0  0  0
 11 24  1  0  0  0  0
 11 25  1  0  0  0  0
 11 26  1  0  0  0  0
 12 13  1  0  0  0  0
 12 14  1  0  0  0  0
 13 27  1  0  0  0  0
 13 28  1  0  0  0  0
 13 29  1  0  0  0  0
 14 30  1  0  0  0  0
 14 31  1  0  0  0  0
 14 32  1  0  0  0  0
M  END
