./078324-76-2.hin
 OpenBabel10051109203D

 26 29  0  0  0  0  0  0  0  0999 V2000
    0.5689   -4.2626   -0.0036 N   0  0  0  0  0  0  0  0  0  0  0  0
    1.8821   -4.4741   -0.0036 N   0  0  0  0  0  0  0  0  0  0  0  0
    2.6840   -3.4127   -0.0036 N   0  0  0  0  0  0  0  0  0  0  0  0
    1.8202   -2.3401   -0.0036 C   0  0  0  0  0  0  0  0  0  0  0  0
    0.4504   -2.8906   -0.0036 C   0  0  0  0  0  0  0  0  0  0  0  0
    2.0120   -0.9365   -0.0037 C   0  0  0  0  0  0  0  0  0  0  0  0
    0.9045   -0.1168   -0.0036 C   0  0  0  0  0  0  0  0  0  0  0  0
   -0.4269   -0.6518   -0.0036 C   0  0  0  0  0  0  0  0  0  0  0  0
   -0.6594   -2.0100   -0.0037 C   0  0  0  0  0  0  0  0  0  0  0  0
   -1.6030    0.2470   -0.0037 C   0  0  0  0  0  0  0  0  0  0  0  0
    1.1314    1.3460   -0.0036 C   0  0  0  0  0  0  0  0  0  0  0  0
   -0.0542    2.2258    0.0039 C   0  0  0  0  0  0  0  0  0  0  0  0
    0.1344    3.6136    0.0109 C   0  0  0  0  0  0  0  0  0  0  0  0
   -0.9631    4.4740    0.0178 C   0  0  0  0  0  0  0  0  0  0  0  0
   -2.2563    3.9541    0.0176 C   0  0  0  0  0  0  0  0  0  0  0  0
   -2.4528    2.5735    0.0106 C   0  0  0  0  0  0  0  0  0  0  0  0
   -1.3561    1.7025    0.0038 C   0  0  0  0  0  0  0  0  0  0  0  0
    2.2796    1.8152   -0.0094 O   0  0  0  0  0  0  0  0  0  0  0  0
   -2.7566   -0.2090   -0.0094 O   0  0  0  0  0  0  0  0  0  0  0  0
    2.2571   -5.4072   -0.0037 H   0  0  0  0  0  0  0  0  0  0  0  0
    3.0313   -0.5140   -0.0039 H   0  0  0  0  0  0  0  0  0  0  0  0
   -1.6876   -2.4102   -0.0039 H   0  0  0  0  0  0  0  0  0  0  0  0
    1.1620    4.0142    0.0109 H   0  0  0  0  0  0  0  0  0  0  0  0
   -0.8046    5.5631    0.0232 H   0  0  0  0  0  0  0  0  0  0  0  0
   -3.1246    4.6304    0.0227 H   0  0  0  0  0  0  0  0  0  0  0  0
   -3.4718    2.1512    0.0104 H   0  0  0  0  0  0  0  0  0  0  0  0
  1  2  1  0  0  0  0
  1  5  2  0  0  0  0
  2  3  1  0  0  0  0
  2 20  1  0  0  0  0
  3  4  2  0  0  0  0
  4  5  1  0  0  0  0
  4  6  1  0  0  0  0
  5  9  1  0  0  0  0
  6  7  2  0  0  0  0
  6 21  1  0  0  0  0
  7  8  1  0  0  0  0
  7 11  1  0  0  0  0
  8  9  2  0  0  0  0
  8 10  1  0  0  0  0
  9 22  1  0  0  0  0
 10 17  1  0  0  0  0
 10 19  2  0  0  0  0
 11 12  1  0  0  0  0
 11 18  2  0  0  0  0
 12 13  2  0  0  0  0
 12 17  1  0  0  0  0
 13 14  1  0  0  0  0
 13 23  1  0  0  0  0
 14 15  2  0  0  0  0
 14 24  1  0  0  0  0
 15 16  1  0  0  0  0
 15 25  1  0  0  0  0
 16 17  2  0  0  0  0
 16 26  1  0  0  0  0
M  END
