./078371-72-9.hin
 OpenBabel10051109203D

 38 38  0  0  0  0  0  0  0  0999 V2000
    0.3817   -0.8861   -0.5383 N   0  0  0  0  0  0  0  0  0  0  0  0
    0.6767   -0.0592    0.4765 N   0  0  0  0  0  0  0  0  0  0  0  0
    1.7068    0.7194    0.0472 C   0  0  0  0  0  0  0  0  0  0  0  0
    2.1162    0.4292   -1.2666 N   0  0  0  0  0  0  0  0  0  0  0  0
    1.2762   -0.6036   -1.6365 C   0  0  0  0  0  0  0  0  0  0  0  0
    1.3555   -1.3181   -2.8225 N   0  0  0  0  0  0  0  0  0  0  0  0
    2.3571    1.7557    0.8819 C   0  0  0  0  0  0  0  0  0  0  0  0
    2.9629    1.5827    1.9373 O   0  0  0  0  0  0  0  0  0  0  0  0
    2.2064    3.0085    0.3694 O   0  0  0  0  0  0  0  0  0  0  0  0
    2.8403    4.0900    1.0738 C   0  0  0  0  0  0  0  0  0  0  0  0
    4.3092    4.1634    0.7400 C   0  0  0  0  0  0  0  0  0  0  0  0
   -0.9341   -1.8935   -0.4302 P   0  0  0  0  0  0  0  0  0  0  0  0
   -1.1973   -2.3088   -1.8388 O   0  0  0  0  0  0  0  0  0  0  0  0
   -0.5552   -3.1326    0.4942 N   0  0  0  0  0  0  0  0  0  0  0  0
    0.0969   -3.0723    1.7568 C   0  0  0  0  0  0  0  0  0  0  0  0
   -0.8476   -4.4522    0.0210 C   0  0  0  0  0  0  0  0  0  0  0  0
   -2.1452   -1.0708    0.1902 N   0  0  0  0  0  0  0  0  0  0  0  0
   -3.2311   -0.6778   -0.6535 C   0  0  0  0  0  0  0  0  0  0  0  0
   -2.2131   -0.6171    1.5368 C   0  0  0  0  0  0  0  0  0  0  0  0
    1.8146   -0.8377   -3.5645 H   0  0  0  0  0  0  0  0  0  0  0  0
    0.5381   -1.8446   -3.0738 H   0  0  0  0  0  0  0  0  0  0  0  0
    2.2814    4.9867    0.6917 H   0  0  0  0  0  0  0  0  0  0  0  0
    2.6789    3.9701    2.1768 H   0  0  0  0  0  0  0  0  0  0  0  0
    4.7554    5.0676    1.2183 H   0  0  0  0  0  0  0  0  0  0  0  0
    4.8357    3.2539    1.1195 H   0  0  0  0  0  0  0  0  0  0  0  0
    4.4586    4.2250   -0.3646 H   0  0  0  0  0  0  0  0  0  0  0  0
    1.0208   -3.7182    1.7668 H   0  0  0  0  0  0  0  0  0  0  0  0
    0.4056   -2.0240    1.9994 H   0  0  0  0  0  0  0  0  0  0  0  0
   -0.5744   -3.4485    2.5811 H   0  0  0  0  0  0  0  0  0  0  0  0
   -1.5605   -4.9820    0.7143 H   0  0  0  0  0  0  0  0  0  0  0  0
   -1.3027   -4.3924   -1.0060 H   0  0  0  0  0  0  0  0  0  0  0  0
    0.0854   -5.0815   -0.0334 H   0  0  0  0  0  0  0  0  0  0  0  0
   -3.3221    0.4439   -0.7099 H   0  0  0  0  0  0  0  0  0  0  0  0
   -3.0693   -1.0887   -1.6881 H   0  0  0  0  0  0  0  0  0  0  0  0
   -4.2108   -1.0663   -0.2553 H   0  0  0  0  0  0  0  0  0  0  0  0
   -3.1622   -0.9662    2.0340 H   0  0  0  0  0  0  0  0  0  0  0  0
   -1.3408   -1.0121    2.1187 H   0  0  0  0  0  0  0  0  0  0  0  0
   -2.2028    0.5085    1.5963 H   0  0  0  0  0  0  0  0  0  0  0  0
  1  2  1  0  0  0  0
  1  5  1  0  0  0  0
  1 12  1  0  0  0  0
  2  3  2  0  0  0  0
  3  4  1  0  0  0  0
  3  7  1  0  0  0  0
  4  5  2  0  0  0  0
  5  6  1  0  0  0  0
  6 20  1  0  0  0  0
  6 21  1  0  0  0  0
  7  8  2  0  0  0  0
  7  9  1  0  0  0  0
  9 10  1  0  0  0  0
 10 11  1  0  0  0  0
 10 22  1  0  0  0  0
 10 23  1  0  0  0  0
 11 24  1  0  0  0  0
 11 25  1  0  0  0  0
 11 26  1  0  0  0  0
 12 13  2  0  0  0  0
 12 14  1  0  0  0  0
 12 17  1  0  0  0  0
 14 15  1  0  0  0  0
 14 16  1  0  0  0  0
 15 27  1  0  0  0  0
 15 28  1  0  0  0  0
 15 29  1  0  0  0  0
 16 30  1  0  0  0  0
 16 31  1  0  0  0  0
 16 32  1  0  0  0  0
 17 18  1  0  0  0  0
 17 19  1  0  0  0  0
 18 33  1  0  0  0  0
 18 34  1  0  0  0  0
 18 35  1  0  0  0  0
 19 36  1  0  0  0  0
 19 37  1  0  0  0  0
 19 38  1  0  0  0  0
M  END
