./078371-74-1.hin
 OpenBabel10051109203D

 41 41  0  0  0  0  0  0  0  0999 V2000
    0.4385   -0.9664   -0.2091 N   0  0  0  0  0  0  0  0  0  0  0  0
    0.3885    0.3161    0.1793 N   0  0  0  0  0  0  0  0  0  0  0  0
    1.6619    0.7918    0.1181 C   0  0  0  0  0  0  0  0  0  0  0  0
    2.5848   -0.1688   -0.3349 N   0  0  0  0  0  0  0  0  0  0  0  0
    1.8044   -1.2834   -0.5363 C   0  0  0  0  0  0  0  0  0  0  0  0
    2.2853   -2.5575   -0.8779 N   0  0  0  0  0  0  0  0  0  0  0  0
    2.0507    2.1685    0.5006 C   0  0  0  0  0  0  0  0  0  0  0  0
    1.9625    2.6771    1.6159 O   0  0  0  0  0  0  0  0  0  0  0  0
    2.5350    2.8832   -0.5521 O   0  0  0  0  0  0  0  0  0  0  0  0
    2.9614    4.2311   -0.2953 C   0  0  0  0  0  0  0  0  0  0  0  0
    4.3591    4.2485    0.2924 C   0  0  0  0  0  0  0  0  0  0  0  0
    4.8681    5.6602    0.4149 C   0  0  0  0  0  0  0  0  0  0  0  0
   -1.0424   -1.7483   -0.3808 P   0  0  0  0  0  0  0  0  0  0  0  0
   -1.5630   -1.4880   -1.7423 O   0  0  0  0  0  0  0  0  0  0  0  0
   -0.7000   -3.2979   -0.1827 N   0  0  0  0  0  0  0  0  0  0  0  0
   -0.1397   -3.8513    1.0009 C   0  0  0  0  0  0  0  0  0  0  0  0
   -0.9766   -4.2207   -1.2376 C   0  0  0  0  0  0  0  0  0  0  0  0
   -2.0157   -1.2484    0.7716 N   0  0  0  0  0  0  0  0  0  0  0  0
   -3.3251   -0.7895    0.4199 C   0  0  0  0  0  0  0  0  0  0  0  0
   -1.6533   -1.0948    2.1386 C   0  0  0  0  0  0  0  0  0  0  0  0
    3.2685   -2.5470   -1.0694 H   0  0  0  0  0  0  0  0  0  0  0  0
    1.7656   -3.0155   -1.5985 H   0  0  0  0  0  0  0  0  0  0  0  0
    2.9374    4.6941   -1.3185 H   0  0  0  0  0  0  0  0  0  0  0  0
    2.2302    4.7419    0.3835 H   0  0  0  0  0  0  0  0  0  0  0  0
    4.3353    3.7557    1.3007 H   0  0  0  0  0  0  0  0  0  0  0  0
    5.0436    3.6451   -0.3597 H   0  0  0  0  0  0  0  0  0  0  0  0
    5.8959    5.6607    0.8517 H   0  0  0  0  0  0  0  0  0  0  0  0
    4.9101    6.1549   -0.5858 H   0  0  0  0  0  0  0  0  0  0  0  0
    4.2029    6.2642    1.0785 H   0  0  0  0  0  0  0  0  0  0  0  0
    0.7783   -4.4630    0.7711 H   0  0  0  0  0  0  0  0  0  0  0  0
    0.1552   -3.0265    1.7004 H   0  0  0  0  0  0  0  0  0  0  0  0
   -0.8673   -4.5321    1.5280 H   0  0  0  0  0  0  0  0  0  0  0  0
   -1.6784   -5.0325   -0.8950 H   0  0  0  0  0  0  0  0  0  0  0  0
   -1.4427   -3.6726   -2.1031 H   0  0  0  0  0  0  0  0  0  0  0  0
   -0.0345   -4.7307   -1.5888 H   0  0  0  0  0  0  0  0  0  0  0  0
   -3.4817    0.2825    0.7296 H   0  0  0  0  0  0  0  0  0  0  0  0
   -3.4628   -0.8682   -0.6940 H   0  0  0  0  0  0  0  0  0  0  0  0
   -4.1167   -1.4012    0.9380 H   0  0  0  0  0  0  0  0  0  0  0  0
   -2.2386   -1.7975    2.7977 H   0  0  0  0  0  0  0  0  0  0  0  0
   -0.5600   -1.2989    2.2768 H   0  0  0  0  0  0  0  0  0  0  0  0
   -1.8594   -0.0484    2.5032 H   0  0  0  0  0  0  0  0  0  0  0  0
  1  2  1  0  0  0  0
  1  5  1  0  0  0  0
  1 13  1  0  0  0  0
  2  3  2  0  0  0  0
  3  4  1  0  0  0  0
  3  7  1  0  0  0  0
  4  5  2  0  0  0  0
  5  6  1  0  0  0  0
  6 21  1  0  0  0  0
  6 22  1  0  0  0  0
  7  8  2  0  0  0  0
  7  9  1  0  0  0  0
  9 10  1  0  0  0  0
 10 11  1  0  0  0  0
 10 23  1  0  0  0  0
 10 24  1  0  0  0  0
 11 12  1  0  0  0  0
 11 25  1  0  0  0  0
 11 26  1  0  0  0  0
 12 27  1  0  0  0  0
 12 28  1  0  0  0  0
 12 29  1  0  0  0  0
 13 14  2  0  0  0  0
 13 15  1  0  0  0  0
 13 18  1  0  0  0  0
 15 16  1  0  0  0  0
 15 17  1  0  0  0  0
 16 30  1  0  0  0  0
 16 31  1  0  0  0  0
 16 32  1  0  0  0  0
 17 33  1  0  0  0  0
 17 34  1  0  0  0  0
 17 35  1  0  0  0  0
 18 19  1  0  0  0  0
 18 20  1  0  0  0  0
 19 36  1  0  0  0  0
 19 37  1  0  0  0  0
 19 38  1  0  0  0  0
 20 39  1  0  0  0  0
 20 40  1  0  0  0  0
 20 41  1  0  0  0  0
M  END
