./078592-90-2.hin
 OpenBabel10051109203D

 41 41  0  0  0  0  0  0  0  0999 V2000
   -4.8118   -3.0754   -1.3249 C   0  0  0  0  0  0  0  0  0  0  0  0
   -3.4148   -2.4882   -1.3071 C   0  0  0  0  0  0  0  0  0  0  0  0
   -2.7454   -2.8076    0.0239 C   0  0  0  0  0  0  0  0  0  0  0  0
   -1.4618   -2.0685    0.2081 C   0  0  0  0  0  0  0  0  0  0  0  0
   -1.3349   -0.7131    0.2349 N   0  0  0  0  0  0  0  0  0  0  0  0
   -0.0338   -0.4387    0.4444 N   0  0  0  0  0  0  0  0  0  0  0  0
    0.6679   -1.6865    0.5644 C   0  0  0  0  0  0  0  0  0  0  0  0
   -0.2244   -2.7173    0.4191 N   0  0  0  0  0  0  0  0  0  0  0  0
    2.0633   -1.8286    0.6792 N   0  0  0  0  0  0  0  0  0  0  0  0
    0.3298    1.1754    0.6890 P   0  0  0  0  0  0  0  0  0  0  0  0
    0.0086    1.5546    2.0845 O   0  0  0  0  0  0  0  0  0  0  0  0
    1.9048    1.2855    0.4181 N   0  0  0  0  0  0  0  0  0  0  0  0
    2.5196    1.0155   -0.8345 C   0  0  0  0  0  0  0  0  0  0  0  0
    2.7733    1.7155    1.4665 C   0  0  0  0  0  0  0  0  0  0  0  0
   -0.4625    2.0395   -0.3895 N   0  0  0  0  0  0  0  0  0  0  0  0
   -1.1960    3.1868    0.0481 C   0  0  0  0  0  0  0  0  0  0  0  0
   -0.6090    1.6950   -1.7607 C   0  0  0  0  0  0  0  0  0  0  0  0
   -2.6032   -3.0226   -2.4679 C   0  0  0  0  0  0  0  0  0  0  0  0
   -5.3097   -2.8515   -2.2989 H   0  0  0  0  0  0  0  0  0  0  0  0
   -4.7744   -4.1837   -1.1936 H   0  0  0  0  0  0  0  0  0  0  0  0
   -5.4291   -2.6414   -0.5021 H   0  0  0  0  0  0  0  0  0  0  0  0
   -3.4992   -1.3696   -1.4111 H   0  0  0  0  0  0  0  0  0  0  0  0
   -2.5573   -3.9126    0.0917 H   0  0  0  0  0  0  0  0  0  0  0  0
   -3.4356   -2.5252    0.8653 H   0  0  0  0  0  0  0  0  0  0  0  0
    2.4695   -1.2770    1.4075 H   0  0  0  0  0  0  0  0  0  0  0  0
    2.3311   -2.7914    0.7488 H   0  0  0  0  0  0  0  0  0  0  0  0
    3.3848    0.3029   -0.7208 H   0  0  0  0  0  0  0  0  0  0  0  0
    1.7713    0.5501   -1.5278 H   0  0  0  0  0  0  0  0  0  0  0  0
    2.9251    1.9525   -1.3127 H   0  0  0  0  0  0  0  0  0  0  0  0
    3.3457    2.6393    1.1698 H   0  0  0  0  0  0  0  0  0  0  0  0
    2.1664    1.9397    2.3876 H   0  0  0  0  0  0  0  0  0  0  0  0
    3.5376    0.9239    1.7118 H   0  0  0  0  0  0  0  0  0  0  0  0
   -2.2913    3.0942   -0.1998 H   0  0  0  0  0  0  0  0  0  0  0  0
   -1.0863    3.2975    1.1626 H   0  0  0  0  0  0  0  0  0  0  0  0
   -0.8219    4.1209   -0.4588 H   0  0  0  0  0  0  0  0  0  0  0  0
   -0.1039    2.4498   -2.4289 H   0  0  0  0  0  0  0  0  0  0  0  0
   -0.1636    0.6856   -1.9588 H   0  0  0  0  0  0  0  0  0  0  0  0
   -1.6943    1.6606   -2.0625 H   0  0  0  0  0  0  0  0  0  0  0  0
   -1.5668   -2.6082   -2.4399 H   0  0  0  0  0  0  0  0  0  0  0  0
   -2.5386   -4.1366   -2.4234 H   0  0  0  0  0  0  0  0  0  0  0  0
   -3.0786   -2.7342   -3.4362 H   0  0  0  0  0  0  0  0  0  0  0  0
  1  2  1  0  0  0  0
  1 19  1  0  0  0  0
  1 20  1  0  0  0  0
  1 21  1  0  0  0  0
  2  3  1  0  0  0  0
  2 18  1  0  0  0  0
  2 22  1  0  0  0  0
  3  4  1  0  0  0  0
  3 23  1  0  0  0  0
  3 24  1  0  0  0  0
  4  5  2  0  0  0  0
  4  8  1  0  0  0  0
  5  6  1  0  0  0  0
  6  7  1  0  0  0  0
  6 10  1  0  0  0  0
  7  8  2  0  0  0  0
  7  9  1  0  0  0  0
  9 25  1  0  0  0  0
  9 26  1  0  0  0  0
 10 11  2  0  0  0  0
 10 12  1  0  0  0  0
 10 15  1  0  0  0  0
 12 13  1  0  0  0  0
 12 14  1  0  0  0  0
 13 27  1  0  0  0  0
 13 28  1  0  0  0  0
 13 29  1  0  0  0  0
 14 30  1  0  0  0  0
 14 31  1  0  0  0  0
 14 32  1  0  0  0  0
 15 16  1  0  0  0  0
 15 17  1  0  0  0  0
 16 33  1  0  0  0  0
 16 34  1  0  0  0  0
 16 35  1  0  0  0  0
 17 36  1  0  0  0  0
 17 37  1  0  0  0  0
 17 38  1  0  0  0  0
 18 39  1  0  0  0  0
 18 40  1  0  0  0  0
 18 41  1  0  0  0  0
M  END
