./079983-71-4.hin
 OpenBabel10051109203D

 37 38  0  0  0  0  0  0  0  0999 V2000
   -1.9176   -1.7618    2.8286 N   0  0  0  0  0  0  0  0  0  0  0  0
   -0.6803   -2.3438    3.1642 C   0  0  0  0  0  0  0  0  0  0  0  0
    0.3736   -1.5031    2.9699 N   0  0  0  0  0  0  0  0  0  0  0  0
   -0.1768   -0.3672    2.4999 N   0  0  0  0  0  0  0  0  0  0  0  0
    0.5427    0.8528    2.2336 C   0  0  0  0  0  0  0  0  0  0  0  0
    1.2459    0.9658    0.8444 C   0  0  0  0  0  0  0  0  0  0  0  0
    0.2550    0.7981   -0.2856 C   0  0  0  0  0  0  0  0  0  0  0  0
   -0.3047    1.9728   -0.8218 C   0  0  0  0  0  0  0  0  0  0  0  0
   -1.2222    1.9460   -1.8641 C   0  0  0  0  0  0  0  0  0  0  0  0
   -1.6149    0.7149   -2.3991 C   0  0  0  0  0  0  0  0  0  0  0  0
   -1.0966   -0.4688   -1.8777 C   0  0  0  0  0  0  0  0  0  0  0  0
   -0.1714   -0.4266   -0.8232 C   0  0  0  0  0  0  0  0  0  0  0  0
    0.3560   -1.9390   -0.2539 Cl  0  0  0  0  0  0  0  0  0  0  0  0
   -2.7283    0.6602   -3.6786 Cl  0  0  0  0  0  0  0  0  0  0  0  0
    1.6928    2.3328    0.8853 O   0  0  0  0  0  0  0  0  0  0  0  0
    2.4858    0.0698    0.7859 C   0  0  0  0  0  0  0  0  0  0  0  0
    3.1872    0.0969   -0.5552 C   0  0  0  0  0  0  0  0  0  0  0  0
    4.3667   -0.8537   -0.5661 C   0  0  0  0  0  0  0  0  0  0  0  0
    5.0906   -0.8173   -1.8871 C   0  0  0  0  0  0  0  0  0  0  0  0
   -1.5806   -0.5232    2.4171 C   0  0  0  0  0  0  0  0  0  0  0  0
   -0.5886   -3.3667    3.5422 H   0  0  0  0  0  0  0  0  0  0  0  0
   -0.1933    1.7038    2.3065 H   0  0  0  0  0  0  0  0  0  0  0  0
    1.3417    0.9963    3.0171 H   0  0  0  0  0  0  0  0  0  0  0  0
   -0.0129    2.9496   -0.3980 H   0  0  0  0  0  0  0  0  0  0  0  0
   -1.6356    2.8854   -2.2618 H   0  0  0  0  0  0  0  0  0  0  0  0
   -1.4146   -1.4414   -2.2884 H   0  0  0  0  0  0  0  0  0  0  0  0
    2.2670    2.4645    0.1217 H   0  0  0  0  0  0  0  0  0  0  0  0
    3.1953    0.4346    1.5786 H   0  0  0  0  0  0  0  0  0  0  0  0
    2.2149   -0.9843    1.0494 H   0  0  0  0  0  0  0  0  0  0  0  0
    2.4668   -0.1899   -1.3666 H   0  0  0  0  0  0  0  0  0  0  0  0
    3.5498    1.1342   -0.7830 H   0  0  0  0  0  0  0  0  0  0  0  0
    5.0747   -0.5808    0.2607 H   0  0  0  0  0  0  0  0  0  0  0  0
    4.0062   -1.8967   -0.3619 H   0  0  0  0  0  0  0  0  0  0  0  0
    5.9505   -1.5298   -1.8767 H   0  0  0  0  0  0  0  0  0  0  0  0
    4.4049   -1.1042   -2.7208 H   0  0  0  0  0  0  0  0  0  0  0  0
    5.4842    0.2072   -2.0944 H   0  0  0  0  0  0  0  0  0  0  0  0
   -2.2550    0.2633    2.0653 H   0  0  0  0  0  0  0  0  0  0  0  0
  1  2  1  0  0  0  0
  1 20  2  0  0  0  0
  2  3  2  0  0  0  0
  2 21  1  0  0  0  0
  3  4  1  0  0  0  0
  4  5  1  0  0  0  0
  4 20  1  0  0  0  0
  5  6  1  0  0  0  0
  5 22  1  0  0  0  0
  5 23  1  0  0  0  0
  6  7  1  0  0  0  0
  6 15  1  0  0  0  0
  6 16  1  0  0  0  0
  7  8  2  0  0  0  0
  7 12  1  0  0  0  0
  8  9  1  0  0  0  0
  8 24  1  0  0  0  0
  9 10  2  0  0  0  0
  9 25  1  0  0  0  0
 10 11  1  0  0  0  0
 10 14  1  0  0  0  0
 11 12  2  0  0  0  0
 11 26  1  0  0  0  0
 12 13  1  0  0  0  0
 15 27  1  0  0  0  0
 16 17  1  0  0  0  0
 16 28  1  0  0  0  0
 16 29  1  0  0  0  0
 17 18  1  0  0  0  0
 17 30  1  0  0  0  0
 17 31  1  0  0  0  0
 18 19  1  0  0  0  0
 18 32  1  0  0  0  0
 18 33  1  0  0  0  0
 19 34  1  0  0  0  0
 19 35  1  0  0  0  0
 19 36  1  0  0  0  0
 20 37  1  0  0  0  0
M  END
