./080301-64-0.hin
 OpenBabel10051109203D

 67 68  0  0  0  0  0  0  0  0999 V2000
   -1.3831   -2.4357    0.2675 C   0  0  0  0  0  0  0  0  0  0  0  0
   -2.4568   -1.9895    1.2820 C   0  0  0  0  0  0  0  0  0  0  0  0
   -3.8174   -2.0508    0.5964 C   0  0  0  0  0  0  0  0  0  0  0  0
   -4.9381   -1.5245    1.4664 C   0  0  0  0  0  0  0  0  0  0  0  0
   -6.2492   -1.4942    0.7085 C   0  0  0  0  0  0  0  0  0  0  0  0
   -7.3775   -1.0017    1.5773 C   0  0  0  0  0  0  0  0  0  0  0  0
   -0.1983   -1.6007    0.2100 N   0  0  0  0  0  0  0  0  0  0  0  0
    0.5912   -1.7742   -0.9972 C   0  0  0  0  0  0  0  0  0  0  0  0
    0.4755   -0.6062   -1.9970 C   0  0  0  0  0  0  0  0  0  0  0  0
    1.4824   -0.8315   -3.1227 C   0  0  0  0  0  0  0  0  0  0  0  0
    2.2649    0.4259   -3.4416 C   0  0  0  0  0  0  0  0  0  0  0  0
    3.2159    0.2020   -4.5984 C   0  0  0  0  0  0  0  0  0  0  0  0
    4.0147    1.4427   -4.9039 C   0  0  0  0  0  0  0  0  0  0  0  0
   -0.9445   -0.4841   -2.5282 C   0  0  0  0  0  0  0  0  0  0  0  0
   -1.1230    0.6962   -3.4489 C   0  0  0  0  0  0  0  0  0  0  0  0
   -2.4173   -2.8608    2.5342 C   0  0  0  0  0  0  0  0  0  0  0  0
   -2.5725   -2.0601    3.8031 C   0  0  0  0  0  0  0  0  0  0  0  0
    0.5636   -1.5273    1.4459 C   0  0  0  0  0  0  0  0  0  0  0  0
    1.2662   -0.2631    1.6754 N   0  0  0  0  0  0  0  0  0  0  0  0
    2.4649    0.0515    1.0923 N   0  0  0  0  0  0  0  0  0  0  0  0
    2.7248    1.2802    1.1517 N   0  0  0  0  0  0  0  0  0  0  0  0
    1.6214    1.9651    1.7536 C   0  0  0  0  0  0  0  0  0  0  0  0
    0.6400    0.9452    2.0678 C   0  0  0  0  0  0  0  0  0  0  0  0
    1.3802    3.3027    2.0675 C   0  0  0  0  0  0  0  0  0  0  0  0
    0.1693    3.6105    2.6771 C   0  0  0  0  0  0  0  0  0  0  0  0
   -0.7799    2.6194    2.9796 C   0  0  0  0  0  0  0  0  0  0  0  0
   -0.5657    1.2769    2.6887 C   0  0  0  0  0  0  0  0  0  0  0  0
   -1.1083   -3.5126    0.4760 H   0  0  0  0  0  0  0  0  0  0  0  0
   -1.8347   -2.4107   -0.7683 H   0  0  0  0  0  0  0  0  0  0  0  0
   -2.2749   -0.9168    1.5763 H   0  0  0  0  0  0  0  0  0  0  0  0
   -3.7733   -1.4402   -0.3460 H   0  0  0  0  0  0  0  0  0  0  0  0
   -4.0396   -3.1095    0.2991 H   0  0  0  0  0  0  0  0  0  0  0  0
   -5.0492   -2.1724    2.3761 H   0  0  0  0  0  0  0  0  0  0  0  0
   -4.6872   -0.4907    1.8231 H   0  0  0  0  0  0  0  0  0  0  0  0
   -6.1472   -0.8291   -0.1896 H   0  0  0  0  0  0  0  0  0  0  0  0
   -6.4861   -2.5241    0.3309 H   0  0  0  0  0  0  0  0  0  0  0  0
   -8.3330   -0.9844    0.9996 H   0  0  0  0  0  0  0  0  0  0  0  0
   -7.5133   -1.6681    2.4634 H   0  0  0  0  0  0  0  0  0  0  0  0
   -7.1693    0.0319    1.9458 H   0  0  0  0  0  0  0  0  0  0  0  0
    0.2892   -2.7200   -1.5353 H   0  0  0  0  0  0  0  0  0  0  0  0
    1.6820   -1.8858   -0.7279 H   0  0  0  0  0  0  0  0  0  0  0  0
    0.7324    0.3493   -1.4594 H   0  0  0  0  0  0  0  0  0  0  0  0
    2.2082   -1.6415   -2.8431 H   0  0  0  0  0  0  0  0  0  0  0  0
    0.9491   -1.1842   -4.0449 H   0  0  0  0  0  0  0  0  0  0  0  0
    1.5547    1.2579   -3.6931 H   0  0  0  0  0  0  0  0  0  0  0  0
    2.8452    0.7478   -2.5366 H   0  0  0  0  0  0  0  0  0  0  0  0
    3.9123   -0.6425   -4.3512 H   0  0  0  0  0  0  0  0  0  0  0  0
    2.6342   -0.1055   -5.5074 H   0  0  0  0  0  0  0  0  0  0  0  0
    4.7087    1.2573   -5.7589 H   0  0  0  0  0  0  0  0  0  0  0  0
    3.3393    2.2898   -5.1748 H   0  0  0  0  0  0  0  0  0  0  0  0
    4.6209    1.7490   -4.0170 H   0  0  0  0  0  0  0  0  0  0  0  0
   -1.6530   -0.3724   -1.6639 H   0  0  0  0  0  0  0  0  0  0  0  0
   -1.2227   -1.4282   -3.0677 H   0  0  0  0  0  0  0  0  0  0  0  0
   -2.1952    0.7922   -3.7470 H   0  0  0  0  0  0  0  0  0  0  0  0
   -0.8111    1.6417   -2.9423 H   0  0  0  0  0  0  0  0  0  0  0  0
   -0.5105    0.5773   -4.3755 H   0  0  0  0  0  0  0  0  0  0  0  0
   -1.4468   -3.4244    2.5851 H   0  0  0  0  0  0  0  0  0  0  0  0
   -3.2303   -3.6331    2.4793 H   0  0  0  0  0  0  0  0  0  0  0  0
   -1.6927   -1.3890    3.9602 H   0  0  0  0  0  0  0  0  0  0  0  0
   -3.4916   -1.4261    3.7650 H   0  0  0  0  0  0  0  0  0  0  0  0
   -2.6508   -2.7441    4.6827 H   0  0  0  0  0  0  0  0  0  0  0  0
    1.3527   -2.3413    1.5006 H   0  0  0  0  0  0  0  0  0  0  0  0
   -0.1488   -1.6340    2.3200 H   0  0  0  0  0  0  0  0  0  0  0  0
    2.1242    4.0792    1.8400 H   0  0  0  0  0  0  0  0  0  0  0  0
   -0.0554    4.6572    2.9318 H   0  0  0  0  0  0  0  0  0  0  0  0
   -1.7237    2.9178    3.4621 H   0  0  0  0  0  0  0  0  0  0  0  0
   -1.3146    0.5110    2.9333 H   0  0  0  0  0  0  0  0  0  0  0  0
  1  2  1  0  0  0  0
  1  7  1  0  0  0  0
  1 28  1  0  0  0  0
  1 29  1  0  0  0  0
  2  3  1  0  0  0  0
  2 16  1  0  0  0  0
  2 30  1  0  0  0  0
  3  4  1  0  0  0  0
  3 31  1  0  0  0  0
  3 32  1  0  0  0  0
  4  5  1  0  0  0  0
  4 33  1  0  0  0  0
  4 34  1  0  0  0  0
  5  6  1  0  0  0  0
  5 35  1  0  0  0  0
  5 36  1  0  0  0  0
  6 37  1  0  0  0  0
  6 38  1  0  0  0  0
  6 39  1  0  0  0  0
  7  8  1  0  0  0  0
  7 18  1  0  0  0  0
  8  9  1  0  0  0  0
  8 40  1  0  0  0  0
  8 41  1  0  0  0  0
  9 10  1  0  0  0  0
  9 14  1  0  0  0  0
  9 42  1  0  0  0  0
 10 11  1  0  0  0  0
 10 43  1  0  0  0  0
 10 44  1  0  0  0  0
 11 12  1  0  0  0  0
 11 45  1  0  0  0  0
 11 46  1  0  0  0  0
 12 13  1  0  0  0  0
 12 47  1  0  0  0  0
 12 48  1  0  0  0  0
 13 49  1  0  0  0  0
 13 50  1  0  0  0  0
 13 51  1  0  0  0  0
 14 15  1  0  0  0  0
 14 52  1  0  0  0  0
 14 53  1  0  0  0  0
 15 54  1  0  0  0  0
 15 55  1  0  0  0  0
 15 56  1  0  0  0  0
 16 17  1  0  0  0  0
 16 57  1  0  0  0  0
 16 58  1  0  0  0  0
 17 59  1  0  0  0  0
 17 60  1  0  0  0  0
 17 61  1  0  0  0  0
 18 19  1  0  0  0  0
 18 62  1  0  0  0  0
 18 63  1  0  0  0  0
 19 20  1  0  0  0  0
 19 23  1  0  0  0  0
 20 21  2  0  0  0  0
 21 22  1  0  0  0  0
 22 23  2  0  0  0  0
 22 24  1  0  0  0  0
 23 27  1  0  0  0  0
 24 25  2  0  0  0  0
 24 64  1  0  0  0  0
 25 26  1  0  0  0  0
 25 65  1  0  0  0  0
 26 27  2  0  0  0  0
 26 66  1  0  0  0  0
 27 67  1  0  0  0  0
M  END
