./080584-88-9.hin
 OpenBabel10101111513D

 36 37  0  0  0  0  0  0  0  0999 V2000
   -3.7305    2.2159    1.1608 C   0  0  0  0  0  0  0  0  0  0  0  0
   -3.3082    3.3788    0.4765 C   0  0  0  0  0  0  0  0  0  0  0  0
   -2.0310    3.4654   -0.0713 C   0  0  0  0  0  0  0  0  0  0  0  0
   -1.1817    2.3665    0.0757 C   0  0  0  0  0  0  0  0  0  0  0  0
   -1.6266    1.1795    0.7783 C   0  0  0  0  0  0  0  0  0  0  0  0
   -2.9123    1.1090    1.3255 C   0  0  0  0  0  0  0  0  0  0  0  0
   -4.2520    4.5156    0.3562 C   0  0  0  0  0  0  0  0  0  0  0  0
   -0.5068    0.3244    0.7352 N   0  0  0  0  0  0  0  0  0  0  0  0
    0.4903    0.9483    0.0506 N   0  0  0  0  0  0  0  0  0  0  0  0
    0.1601    2.1031   -0.3345 N   0  0  0  0  0  0  0  0  0  0  0  0
   -0.4241   -1.0341    1.2886 C   0  0  0  0  0  0  0  0  0  0  0  0
   -0.4032   -2.1622    0.3976 N   0  0  0  0  0  0  0  0  0  0  0  0
    0.7283   -2.2988   -0.4874 C   0  0  0  0  0  0  0  0  0  0  0  0
   -1.6652   -2.6871   -0.0569 C   0  0  0  0  0  0  0  0  0  0  0  0
    0.5430   -1.8715   -1.9521 C   0  0  0  0  0  0  0  0  0  0  0  0
   -2.5663   -1.7805   -0.9101 C   0  0  0  0  0  0  0  0  0  0  0  0
    1.7677   -1.9961   -2.6456 O   0  0  0  0  0  0  0  0  0  0  0  0
   -3.7952   -2.4295   -1.1674 O   0  0  0  0  0  0  0  0  0  0  0  0
   -4.7512    2.1942    1.5753 H   0  0  0  0  0  0  0  0  0  0  0  0
   -1.6943    4.3671   -0.6033 H   0  0  0  0  0  0  0  0  0  0  0  0
   -3.2607    0.2159    1.8613 H   0  0  0  0  0  0  0  0  0  0  0  0
   -4.4276    4.9770    1.3606 H   0  0  0  0  0  0  0  0  0  0  0  0
   -3.8534    5.3044   -0.3278 H   0  0  0  0  0  0  0  0  0  0  0  0
   -5.2360    4.1657   -0.0442 H   0  0  0  0  0  0  0  0  0  0  0  0
    0.5353   -1.0727    1.8928 H   0  0  0  0  0  0  0  0  0  0  0  0
   -1.3184   -1.1370    1.9749 H   0  0  0  0  0  0  0  0  0  0  0  0
    1.5988   -1.7241   -0.0597 H   0  0  0  0  0  0  0  0  0  0  0  0
    1.0124   -3.3921   -0.4876 H   0  0  0  0  0  0  0  0  0  0  0  0
   -1.4541   -3.6268   -0.6442 H   0  0  0  0  0  0  0  0  0  0  0  0
   -2.2571   -2.9860    0.8573 H   0  0  0  0  0  0  0  0  0  0  0  0
   -0.1550   -2.5715   -2.4861 H   0  0  0  0  0  0  0  0  0  0  0  0
    0.1509   -0.8242   -2.0313 H   0  0  0  0  0  0  0  0  0  0  0  0
   -2.8540   -0.8481   -0.3511 H   0  0  0  0  0  0  0  0  0  0  0  0
   -2.0628   -1.4963   -1.8718 H   0  0  0  0  0  0  0  0  0  0  0  0
    2.3669   -1.3273   -2.2915 H   0  0  0  0  0  0  0  0  0  0  0  0
   -3.6026   -3.2098   -1.7010 H   0  0  0  0  0  0  0  0  0  0  0  0
  1  2  2  0  0  0  0
  1  6  1  0  0  0  0
  1 19  1  0  0  0  0
  2  3  1  0  0  0  0
  2  7  1  0  0  0  0
  3  4  2  0  0  0  0
  3 20  1  0  0  0  0
  4  5  1  0  0  0  0
  4 10  1  0  0  0  0
  5  6  2  0  0  0  0
  5  8  1  0  0  0  0
  6 21  1  0  0  0  0
  7 22  1  0  0  0  0
  7 23  1  0  0  0  0
  7 24  1  0  0  0  0
  8  9  1  0  0  0  0
  8 11  1  0  0  0  0
  9 10  2  0  0  0  0
 11 12  1  0  0  0  0
 11 25  1  0  0  0  0
 11 26  1  0  0  0  0
 12 13  1  0  0  0  0
 12 14  1  0  0  0  0
 13 15  1  0  0  0  0
 13 27  1  0  0  0  0
 13 28  1  0  0  0  0
 14 16  1  0  0  0  0
 14 29  1  0  0  0  0
 14 30  1  0  0  0  0
 15 17  1  0  0  0  0
 15 31  1  0  0  0  0
 15 32  1  0  0  0  0
 16 18  1  0  0  0  0
 16 33  1  0  0  0  0
 16 34  1  0  0  0  0
 17 35  1  0  0  0  0
 18 36  1  0  0  0  0
M  END
