./080584-89-0.hin
 OpenBabel10101111513D

 36 37  0  0  0  0  0  0  0  0999 V2000
   -3.3278    2.0496    1.2095 C   0  0  0  0  0  0  0  0  0  0  0  0
   -2.8103    3.2441    0.6778 C   0  0  0  0  0  0  0  0  0  0  0  0
   -1.4820    3.3622    0.2750 C   0  0  0  0  0  0  0  0  0  0  0  0
   -0.6722    2.2261    0.4219 C   0  0  0  0  0  0  0  0  0  0  0  0
   -1.2127    0.9981    0.9701 C   0  0  0  0  0  0  0  0  0  0  0  0
   -2.5510    0.9107    1.3684 C   0  0  0  0  0  0  0  0  0  0  0  0
   -0.9374    4.6170   -0.2841 C   0  0  0  0  0  0  0  0  0  0  0  0
   -0.1095    0.1209    0.9774 N   0  0  0  0  0  0  0  0  0  0  0  0
    0.9680    0.7720    0.4620 N   0  0  0  0  0  0  0  0  0  0  0  0
    0.7014    1.9626    0.1405 N   0  0  0  0  0  0  0  0  0  0  0  0
   -0.1109   -1.2791    1.4277 C   0  0  0  0  0  0  0  0  0  0  0  0
   -0.0043   -2.3373    0.4624 N   0  0  0  0  0  0  0  0  0  0  0  0
    1.2220   -2.4464   -0.2892 C   0  0  0  0  0  0  0  0  0  0  0  0
   -1.2129   -2.7997   -0.1720 C   0  0  0  0  0  0  0  0  0  0  0  0
    1.2702   -1.8511   -1.7029 C   0  0  0  0  0  0  0  0  0  0  0  0
   -2.0061   -1.8004   -1.0277 C   0  0  0  0  0  0  0  0  0  0  0  0
    0.5693   -2.7388   -2.5617 O   0  0  0  0  0  0  0  0  0  0  0  0
   -3.1836   -2.4135   -1.5142 O   0  0  0  0  0  0  0  0  0  0  0  0
   -4.3879    2.0201    1.5078 H   0  0  0  0  0  0  0  0  0  0  0  0
   -3.4804    4.1120    0.5787 H   0  0  0  0  0  0  0  0  0  0  0  0
   -2.9685   -0.0153    1.7851 H   0  0  0  0  0  0  0  0  0  0  0  0
   -0.6318    4.4604   -1.3496 H   0  0  0  0  0  0  0  0  0  0  0  0
   -1.6933    5.4391   -0.2472 H   0  0  0  0  0  0  0  0  0  0  0  0
   -0.0319    4.9360    0.2910 H   0  0  0  0  0  0  0  0  0  0  0  0
    0.7705   -1.3826    2.1344 H   0  0  0  0  0  0  0  0  0  0  0  0
   -1.0808   -1.4117    1.9962 H   0  0  0  0  0  0  0  0  0  0  0  0
    2.0518   -1.9653    0.3022 H   0  0  0  0  0  0  0  0  0  0  0  0
    1.4415   -3.5507   -0.3836 H   0  0  0  0  0  0  0  0  0  0  0  0
   -0.9372   -3.6737   -0.8316 H   0  0  0  0  0  0  0  0  0  0  0  0
   -1.8992   -3.1787    0.6396 H   0  0  0  0  0  0  0  0  0  0  0  0
    0.8071   -0.8313   -1.7515 H   0  0  0  0  0  0  0  0  0  0  0  0
    2.3444   -1.7803   -2.0242 H   0  0  0  0  0  0  0  0  0  0  0  0
   -2.3722   -0.9316   -0.4163 H   0  0  0  0  0  0  0  0  0  0  0  0
   -1.3793   -1.4267   -1.8809 H   0  0  0  0  0  0  0  0  0  0  0  0
    0.6737   -2.3973   -3.4572 H   0  0  0  0  0  0  0  0  0  0  0  0
   -2.9103   -3.1370   -2.0912 H   0  0  0  0  0  0  0  0  0  0  0  0
  1  2  2  0  0  0  0
  1  6  1  0  0  0  0
  1 19  1  0  0  0  0
  2  3  1  0  0  0  0
  2 20  1  0  0  0  0
  3  4  2  0  0  0  0
  3  7  1  0  0  0  0
  4  5  1  0  0  0  0
  4 10  1  0  0  0  0
  5  6  2  0  0  0  0
  5  8  1  0  0  0  0
  6 21  1  0  0  0  0
  7 22  1  0  0  0  0
  7 23  1  0  0  0  0
  7 24  1  0  0  0  0
  8  9  1  0  0  0  0
  8 11  1  0  0  0  0
  9 10  2  0  0  0  0
 11 12  1  0  0  0  0
 11 25  1  0  0  0  0
 11 26  1  0  0  0  0
 12 13  1  0  0  0  0
 12 14  1  0  0  0  0
 13 15  1  0  0  0  0
 13 27  1  0  0  0  0
 13 28  1  0  0  0  0
 14 16  1  0  0  0  0
 14 29  1  0  0  0  0
 14 30  1  0  0  0  0
 15 17  1  0  0  0  0
 15 31  1  0  0  0  0
 15 32  1  0  0  0  0
 16 18  1  0  0  0  0
 16 33  1  0  0  0  0
 16 34  1  0  0  0  0
 17 35  1  0  0  0  0
 18 36  1  0  0  0  0
M  END
