./080595-74-0.hin
 OpenBabel10051109203D

 70 71  0  0  0  0  0  0  0  0999 V2000
   -1.5463   -1.7142   -0.3702 C   0  0  0  0  0  0  0  0  0  0  0  0
   -0.5372   -2.8184    0.0006 C   0  0  0  0  0  0  0  0  0  0  0  0
   -1.2869   -4.1293    0.2042 C   0  0  0  0  0  0  0  0  0  0  0  0
   -1.8941   -4.2355    1.5872 C   0  0  0  0  0  0  0  0  0  0  0  0
   -2.6635   -5.5296    1.7502 C   0  0  0  0  0  0  0  0  0  0  0  0
   -3.2628   -5.6468    3.1277 C   0  0  0  0  0  0  0  0  0  0  0  0
   -1.0791   -0.3650   -0.1515 N   0  0  0  0  0  0  0  0  0  0  0  0
   -1.5565    0.6390   -1.0685 C   0  0  0  0  0  0  0  0  0  0  0  0
   -0.6770    0.9363   -2.2079 N   0  0  0  0  0  0  0  0  0  0  0  0
   -0.4026    0.0440   -3.2062 N   0  0  0  0  0  0  0  0  0  0  0  0
    0.5984    0.3770   -3.8923 N   0  0  0  0  0  0  0  0  0  0  0  0
    1.1678    1.5695   -3.3424 C   0  0  0  0  0  0  0  0  0  0  0  0
    0.3409    1.9194   -2.2052 C   0  0  0  0  0  0  0  0  0  0  0  0
    2.2531    2.3661   -3.7058 C   0  0  0  0  0  0  0  0  0  0  0  0
    2.5159    3.4990   -2.9366 C   0  0  0  0  0  0  0  0  0  0  0  0
    1.7027    3.8316   -1.8316 C   0  0  0  0  0  0  0  0  0  0  0  0
    0.6119    3.0628   -1.4497 C   0  0  0  0  0  0  0  0  0  0  0  0
    3.6594    4.3809   -3.2712 C   0  0  0  0  0  0  0  0  0  0  0  0
   -0.8702    0.0541    1.2136 C   0  0  0  0  0  0  0  0  0  0  0  0
    0.4807    0.7513    1.4712 C   0  0  0  0  0  0  0  0  0  0  0  0
    0.4278    1.4721    2.8149 C   0  0  0  0  0  0  0  0  0  0  0  0
    0.9611    2.8869    2.7167 C   0  0  0  0  0  0  0  0  0  0  0  0
    0.9288    3.5824    4.0611 C   0  0  0  0  0  0  0  0  0  0  0  0
    1.4543    4.9915    3.9672 C   0  0  0  0  0  0  0  0  0  0  0  0
    1.6108   -0.2662    1.4221 C   0  0  0  0  0  0  0  0  0  0  0  0
    2.9730    0.3733    1.5003 C   0  0  0  0  0  0  0  0  0  0  0  0
    0.5138   -2.9600   -1.0919 C   0  0  0  0  0  0  0  0  0  0  0  0
    1.7612   -3.6516   -0.6037 C   0  0  0  0  0  0  0  0  0  0  0  0
   -1.8000   -1.8340   -1.4628 H   0  0  0  0  0  0  0  0  0  0  0  0
   -2.4939   -1.8886    0.2226 H   0  0  0  0  0  0  0  0  0  0  0  0
   -0.0149   -2.5495    0.9620 H   0  0  0  0  0  0  0  0  0  0  0  0
   -2.0909   -4.2288   -0.5719 H   0  0  0  0  0  0  0  0  0  0  0  0
   -0.5779   -4.9865    0.0527 H   0  0  0  0  0  0  0  0  0  0  0  0
   -1.0816   -4.1840    2.3595 H   0  0  0  0  0  0  0  0  0  0  0  0
   -2.5800   -3.3676    1.7736 H   0  0  0  0  0  0  0  0  0  0  0  0
   -3.4775   -5.5802    0.9794 H   0  0  0  0  0  0  0  0  0  0  0  0
   -1.9776   -6.3977    1.5623 H   0  0  0  0  0  0  0  0  0  0  0  0
   -3.8246   -6.6069    3.2264 H   0  0  0  0  0  0  0  0  0  0  0  0
   -2.4645   -5.6235    3.9086 H   0  0  0  0  0  0  0  0  0  0  0  0
   -3.9685   -4.8036    3.3242 H   0  0  0  0  0  0  0  0  0  0  0  0
   -1.6808    1.6291   -0.5329 H   0  0  0  0  0  0  0  0  0  0  0  0
   -2.5461    0.3255   -1.5259 H   0  0  0  0  0  0  0  0  0  0  0  0
    2.8765    2.1056   -4.5734 H   0  0  0  0  0  0  0  0  0  0  0  0
    1.9483    4.7369   -1.2542 H   0  0  0  0  0  0  0  0  0  0  0  0
   -0.0097    3.3445   -0.5888 H   0  0  0  0  0  0  0  0  0  0  0  0
    4.2267    3.9951   -4.1532 H   0  0  0  0  0  0  0  0  0  0  0  0
    3.2961    5.4119   -3.5096 H   0  0  0  0  0  0  0  0  0  0  0  0
    4.3621    4.4506   -2.4034 H   0  0  0  0  0  0  0  0  0  0  0  0
   -0.9344   -0.8468    1.8883 H   0  0  0  0  0  0  0  0  0  0  0  0
   -1.6963    0.7619    1.5263 H   0  0  0  0  0  0  0  0  0  0  0  0
    0.6554    1.5091    0.6539 H   0  0  0  0  0  0  0  0  0  0  0  0
   -0.6256    1.5110    3.2013 H   0  0  0  0  0  0  0  0  0  0  0  0
    1.0258    0.9032    3.5756 H   0  0  0  0  0  0  0  0  0  0  0  0
    2.0142    2.8642    2.3284 H   0  0  0  0  0  0  0  0  0  0  0  0
    0.3496    3.4702    1.9780 H   0  0  0  0  0  0  0  0  0  0  0  0
   -0.1240    3.5978    4.4494 H   0  0  0  0  0  0  0  0  0  0  0  0
    1.5430    2.9995    4.7975 H   0  0  0  0  0  0  0  0  0  0  0  0
    1.4242    5.4846    4.9687 H   0  0  0  0  0  0  0  0  0  0  0  0
    2.5105    4.9951    3.6039 H   0  0  0  0  0  0  0  0  0  0  0  0
    0.8386    5.5960    3.2581 H   0  0  0  0  0  0  0  0  0  0  0  0
    1.5347   -0.8509    0.4646 H   0  0  0  0  0  0  0  0  0  0  0  0
    1.4896   -0.9983    2.2645 H   0  0  0  0  0  0  0  0  0  0  0  0
    3.7679   -0.4040    1.3911 H   0  0  0  0  0  0  0  0  0  0  0  0
    3.1033    1.1274    0.6868 H   0  0  0  0  0  0  0  0  0  0  0  0
    3.1168    0.8877    2.4816 H   0  0  0  0  0  0  0  0  0  0  0  0
    0.7911   -1.9416   -1.4743 H   0  0  0  0  0  0  0  0  0  0  0  0
    0.0776   -3.5289   -1.9551 H   0  0  0  0  0  0  0  0  0  0  0  0
    2.5000   -3.7410   -1.4368 H   0  0  0  0  0  0  0  0  0  0  0  0
    2.2341   -3.0699    0.2253 H   0  0  0  0  0  0  0  0  0  0  0  0
    1.5337   -4.6774   -0.2255 H   0  0  0  0  0  0  0  0  0  0  0  0
  1  2  1  0  0  0  0
  1  7  1  0  0  0  0
  1 29  1  0  0  0  0
  1 30  1  0  0  0  0
  2  3  1  0  0  0  0
  2 27  1  0  0  0  0
  2 31  1  0  0  0  0
  3  4  1  0  0  0  0
  3 32  1  0  0  0  0
  3 33  1  0  0  0  0
  4  5  1  0  0  0  0
  4 34  1  0  0  0  0
  4 35  1  0  0  0  0
  5  6  1  0  0  0  0
  5 36  1  0  0  0  0
  5 37  1  0  0  0  0
  6 38  1  0  0  0  0
  6 39  1  0  0  0  0
  6 40  1  0  0  0  0
  7  8  1  0  0  0  0
  7 19  1  0  0  0  0
  8  9  1  0  0  0  0
  8 41  1  0  0  0  0
  8 42  1  0  0  0  0
  9 10  1  0  0  0  0
  9 13  1  0  0  0  0
 10 11  2  0  0  0  0
 11 12  1  0  0  0  0
 12 13  2  0  0  0  0
 12 14  1  0  0  0  0
 13 17  1  0  0  0  0
 14 15  2  0  0  0  0
 14 43  1  0  0  0  0
 15 16  1  0  0  0  0
 15 18  1  0  0  0  0
 16 17  2  0  0  0  0
 16 44  1  0  0  0  0
 17 45  1  0  0  0  0
 18 46  1  0  0  0  0
 18 47  1  0  0  0  0
 18 48  1  0  0  0  0
 19 20  1  0  0  0  0
 19 49  1  0  0  0  0
 19 50  1  0  0  0  0
 20 21  1  0  0  0  0
 20 25  1  0  0  0  0
 20 51  1  0  0  0  0
 21 22  1  0  0  0  0
 21 52  1  0  0  0  0
 21 53  1  0  0  0  0
 22 23  1  0  0  0  0
 22 54  1  0  0  0  0
 22 55  1  0  0  0  0
 23 24  1  0  0  0  0
 23 56  1  0  0  0  0
 23 57  1  0  0  0  0
 24 58  1  0  0  0  0
 24 59  1  0  0  0  0
 24 60  1  0  0  0  0
 25 26  1  0  0  0  0
 25 61  1  0  0  0  0
 25 62  1  0  0  0  0
 26 63  1  0  0  0  0
 26 64  1  0  0  0  0
 26 65  1  0  0  0  0
 27 28  1  0  0  0  0
 27 66  1  0  0  0  0
 27 67  1  0  0  0  0
 28 68  1  0  0  0  0
 28 69  1  0  0  0  0
 28 70  1  0  0  0  0
M  END
