./081518-28-7.hin
 OpenBabel10051109203D

 33 35  0  0  0  0  0  0  0  0999 V2000
    0.1164   -2.8824    1.2161 C   0  0  0  0  0  0  0  0  0  0  0  0
   -0.7940   -2.4262    0.1411 C   0  0  0  0  0  0  0  0  0  0  0  0
   -0.5117   -1.2717   -0.6284 C   0  0  0  0  0  0  0  0  0  0  0  0
   -1.3939   -0.8847   -1.6595 C   0  0  0  0  0  0  0  0  0  0  0  0
   -2.5412   -1.6283   -1.9137 C   0  0  0  0  0  0  0  0  0  0  0  0
   -2.8228   -2.7648   -1.1568 C   0  0  0  0  0  0  0  0  0  0  0  0
   -1.9546   -3.1561   -0.1427 C   0  0  0  0  0  0  0  0  0  0  0  0
    0.6473   -0.4993   -0.3731 N   0  0  0  0  0  0  0  0  0  0  0  0
    1.9712   -0.8510   -0.7364 C   0  0  0  0  0  0  0  0  0  0  0  0
    2.5674   -2.2326   -1.2198 S   0  0  0  0  0  0  0  0  0  0  0  0
    2.6911    0.3425   -0.4892 N   0  0  0  0  0  0  0  0  0  0  0  0
    1.9194    1.3639   -0.0805 N   0  0  0  0  0  0  0  0  0  0  0  0
    0.6621    0.8804    0.0033 C   0  0  0  0  0  0  0  0  0  0  0  0
   -0.5135    1.6183    0.4583 C   0  0  0  0  0  0  0  0  0  0  0  0
   -0.9249    2.7958   -0.1979 C   0  0  0  0  0  0  0  0  0  0  0  0
   -0.2243    3.1759   -1.3158 O   0  0  0  0  0  0  0  0  0  0  0  0
   -2.0281    3.5246    0.2768 C   0  0  0  0  0  0  0  0  0  0  0  0
   -2.7195    3.0725    1.3958 C   0  0  0  0  0  0  0  0  0  0  0  0
   -2.3244    1.9014    2.0447 C   0  0  0  0  0  0  0  0  0  0  0  0
   -1.2278    1.1801    1.5794 C   0  0  0  0  0  0  0  0  0  0  0  0
    1.1291   -3.1082    0.7821 H   0  0  0  0  0  0  0  0  0  0  0  0
   -0.2715   -3.8056    1.7118 H   0  0  0  0  0  0  0  0  0  0  0  0
    0.2344   -2.0878    1.9949 H   0  0  0  0  0  0  0  0  0  0  0  0
   -1.1786    0.0088   -2.2671 H   0  0  0  0  0  0  0  0  0  0  0  0
   -3.2221   -1.3186   -2.7203 H   0  0  0  0  0  0  0  0  0  0  0  0
   -3.7284   -3.3543   -1.3638 H   0  0  0  0  0  0  0  0  0  0  0  0
   -2.1759   -4.0586    0.4483 H   0  0  0  0  0  0  0  0  0  0  0  0
    3.6380    0.4991   -0.7550 H   0  0  0  0  0  0  0  0  0  0  0  0
   -0.5626    4.0378   -1.6029 H   0  0  0  0  0  0  0  0  0  0  0  0
   -2.3373    4.4459   -0.2367 H   0  0  0  0  0  0  0  0  0  0  0  0
   -3.5837    3.6429    1.7694 H   0  0  0  0  0  0  0  0  0  0  0  0
   -2.8774    1.5476    2.9269 H   0  0  0  0  0  0  0  0  0  0  0  0
   -0.9135    0.2574    2.0931 H   0  0  0  0  0  0  0  0  0  0  0  0
  1  2  1  0  0  0  0
  1 21  1  0  0  0  0
  1 22  1  0  0  0  0
  1 23  1  0  0  0  0
  2  3  2  0  0  0  0
  2  7  1  0  0  0  0
  3  4  1  0  0  0  0
  3  8  1  0  0  0  0
  4  5  2  0  0  0  0
  4 24  1  0  0  0  0
  5  6  1  0  0  0  0
  5 25  1  0  0  0  0
  6  7  2  0  0  0  0
  6 26  1  0  0  0  0
  7 27  1  0  0  0  0
  8  9  1  0  0  0  0
  8 13  1  0  0  0  0
  9 10  2  0  0  0  0
  9 11  1  0  0  0  0
 11 12  1  0  0  0  0
 11 28  1  0  0  0  0
 12 13  2  0  0  0  0
 13 14  1  0  0  0  0
 14 15  2  0  0  0  0
 14 20  1  0  0  0  0
 15 16  1  0  0  0  0
 15 17  1  0  0  0  0
 16 29  1  0  0  0  0
 17 18  2  0  0  0  0
 17 30  1  0  0  0  0
 18 19  1  0  0  0  0
 18 31  1  0  0  0  0
 19 20  2  0  0  0  0
 19 32  1  0  0  0  0
 20 33  1  0  0  0  0
M  END
