./081518-31-2.hin
 OpenBabel10051109203D

 36 38  0  0  0  0  0  0  0  0999 V2000
    0.3658   -3.0872   -1.8163 Cl  0  0  0  0  0  0  0  0  0  0  0  0
   -0.7461   -3.3201   -0.5554 C   0  0  0  0  0  0  0  0  0  0  0  0
   -0.8873   -2.3666    0.4657 C   0  0  0  0  0  0  0  0  0  0  0  0
   -1.8168   -2.5848    1.4900 C   0  0  0  0  0  0  0  0  0  0  0  0
   -2.5987   -3.7381    1.4930 C   0  0  0  0  0  0  0  0  0  0  0  0
   -2.4534   -4.6838    0.4781 C   0  0  0  0  0  0  0  0  0  0  0  0
   -1.5298   -4.4798   -0.5450 C   0  0  0  0  0  0  0  0  0  0  0  0
   -0.0402   -1.1769    0.5075 C   0  0  0  0  0  0  0  0  0  0  0  0
    1.2620   -1.1201    0.9268 N   0  0  0  0  0  0  0  0  0  0  0  0
    1.6866    0.1194    0.8744 N   0  0  0  0  0  0  0  0  0  0  0  0
    0.6830    0.9384    0.4130 C   0  0  0  0  0  0  0  0  0  0  0  0
    0.7402    2.6075    0.1799 S   0  0  0  0  0  0  0  0  0  0  0  0
    2.4693    2.9787    0.3666 C   0  0  0  0  0  0  0  0  0  0  0  0
    2.5992    4.4043    0.0100 C   0  0  0  0  0  0  0  0  0  0  0  0
    2.9572    5.3528    0.8745 C   0  0  0  0  0  0  0  0  0  0  0  0
   -0.4478    0.1346    0.1582 N   0  0  0  0  0  0  0  0  0  0  0  0
   -1.6916    0.5680   -0.3467 C   0  0  0  0  0  0  0  0  0  0  0  0
   -2.2274    1.8101    0.0573 C   0  0  0  0  0  0  0  0  0  0  0  0
   -3.4508    2.2360   -0.4521 C   0  0  0  0  0  0  0  0  0  0  0  0
   -4.1564    1.4462   -1.3584 C   0  0  0  0  0  0  0  0  0  0  0  0
   -3.6299    0.2205   -1.7632 C   0  0  0  0  0  0  0  0  0  0  0  0
   -2.4057   -0.2230   -1.2714 C   0  0  0  0  0  0  0  0  0  0  0  0
   -1.9204   -1.8429    2.2968 H   0  0  0  0  0  0  0  0  0  0  0  0
   -3.3265   -3.9036    2.3013 H   0  0  0  0  0  0  0  0  0  0  0  0
   -3.0664   -5.5978    0.4843 H   0  0  0  0  0  0  0  0  0  0  0  0
   -1.4125   -5.2302   -1.3418 H   0  0  0  0  0  0  0  0  0  0  0  0
    3.0845    2.3417   -0.3176 H   0  0  0  0  0  0  0  0  0  0  0  0
    2.8025    2.7686    1.4128 H   0  0  0  0  0  0  0  0  0  0  0  0
    2.3933    4.6439   -1.0478 H   0  0  0  0  0  0  0  0  0  0  0  0
    3.1738    5.1461    1.9314 H   0  0  0  0  0  0  0  0  0  0  0  0
    3.0612    6.4041    0.5746 H   0  0  0  0  0  0  0  0  0  0  0  0
   -1.6817    2.4506    0.7723 H   0  0  0  0  0  0  0  0  0  0  0  0
   -3.8596    3.2065   -0.1318 H   0  0  0  0  0  0  0  0  0  0  0  0
   -5.1232    1.7899   -1.7546 H   0  0  0  0  0  0  0  0  0  0  0  0
   -4.1803   -0.4051   -2.4825 H   0  0  0  0  0  0  0  0  0  0  0  0
   -1.9990   -1.1919   -1.6050 H   0  0  0  0  0  0  0  0  0  0  0  0
  1  2  1  0  0  0  0
  2  3  2  0  0  0  0
  2  7  1  0  0  0  0
  3  4  1  0  0  0  0
  3  8  1  0  0  0  0
  4  5  2  0  0  0  0
  4 23  1  0  0  0  0
  5  6  1  0  0  0  0
  5 24  1  0  0  0  0
  6  7  2  0  0  0  0
  6 25  1  0  0  0  0
  7 26  1  0  0  0  0
  8  9  2  0  0  0  0
  8 16  1  0  0  0  0
  9 10  1  0  0  0  0
 10 11  2  0  0  0  0
 11 12  1  0  0  0  0
 11 16  1  0  0  0  0
 12 13  1  0  0  0  0
 13 14  1  0  0  0  0
 13 27  1  0  0  0  0
 13 28  1  0  0  0  0
 14 15  2  0  0  0  0
 14 29  1  0  0  0  0
 15 30  1  0  0  0  0
 15 31  1  0  0  0  0
 16 17  1  0  0  0  0
 17 18  2  0  0  0  0
 17 22  1  0  0  0  0
 18 19  1  0  0  0  0
 18 32  1  0  0  0  0
 19 20  2  0  0  0  0
 19 33  1  0  0  0  0
 20 21  1  0  0  0  0
 20 34  1  0  0  0  0
 21 22  2  0  0  0  0
 21 35  1  0  0  0  0
 22 36  1  0  0  0  0
M  END
