./081518-32-3.hin
 OpenBabel10051109203D

 38 40  0  0  0  0  0  0  0  0999 V2000
   -4.7336   -5.2363   -1.9802 C   0  0  0  0  0  0  0  0  0  0  0  0
   -4.4518   -4.0485   -1.0943 C   0  0  0  0  0  0  0  0  0  0  0  0
   -3.0833   -3.4799   -1.3759 C   0  0  0  0  0  0  0  0  0  0  0  0
   -2.9141   -2.0784   -0.3034 S   0  0  0  0  0  0  0  0  0  0  0  0
   -1.3787   -1.4935   -0.6818 C   0  0  0  0  0  0  0  0  0  0  0  0
   -0.4685   -2.0168   -1.5712 N   0  0  0  0  0  0  0  0  0  0  0  0
    0.6157   -1.2791   -1.5855 N   0  0  0  0  0  0  0  0  0  0  0  0
    0.4718   -0.2365   -0.7095 C   0  0  0  0  0  0  0  0  0  0  0  0
   -0.8050   -0.3431   -0.1087 N   0  0  0  0  0  0  0  0  0  0  0  0
   -1.3761    0.4810    0.8900 C   0  0  0  0  0  0  0  0  0  0  0  0
   -1.0008    0.3238    2.2401 C   0  0  0  0  0  0  0  0  0  0  0  0
   -1.5701    1.1387    3.2154 C   0  0  0  0  0  0  0  0  0  0  0  0
   -2.5107    2.1074    2.8685 C   0  0  0  0  0  0  0  0  0  0  0  0
   -2.8854    2.2650    1.5351 C   0  0  0  0  0  0  0  0  0  0  0  0
   -2.3268    1.4627    0.5431 C   0  0  0  0  0  0  0  0  0  0  0  0
    1.4480    0.8119   -0.4249 C   0  0  0  0  0  0  0  0  0  0  0  0
    1.3127    2.1045   -0.9542 C   0  0  0  0  0  0  0  0  0  0  0  0
   -0.0062    2.5092   -1.9459 Cl  0  0  0  0  0  0  0  0  0  0  0  0
    2.2772    3.0810   -0.6797 C   0  0  0  0  0  0  0  0  0  0  0  0
    3.3771    2.7646    0.1147 C   0  0  0  0  0  0  0  0  0  0  0  0
    3.5228    1.4778    0.6332 C   0  0  0  0  0  0  0  0  0  0  0  0
    2.5638    0.5038    0.3637 C   0  0  0  0  0  0  0  0  0  0  0  0
   -3.9775   -6.0410   -1.8129 H   0  0  0  0  0  0  0  0  0  0  0  0
   -4.7002   -4.9417   -3.0570 H   0  0  0  0  0  0  0  0  0  0  0  0
   -5.7468   -5.6492   -1.7566 H   0  0  0  0  0  0  0  0  0  0  0  0
   -4.5195   -4.3595   -0.0172 H   0  0  0  0  0  0  0  0  0  0  0  0
   -5.2334   -3.2600   -1.2648 H   0  0  0  0  0  0  0  0  0  0  0  0
   -2.9892   -3.1736   -2.4460 H   0  0  0  0  0  0  0  0  0  0  0  0
   -2.2862   -4.2353   -1.1718 H   0  0  0  0  0  0  0  0  0  0  0  0
   -0.2613   -0.4389    2.5299 H   0  0  0  0  0  0  0  0  0  0  0  0
   -1.2726    1.0117    4.2674 H   0  0  0  0  0  0  0  0  0  0  0  0
   -2.9564    2.7462    3.6456 H   0  0  0  0  0  0  0  0  0  0  0  0
   -3.6272    3.0293    1.2578 H   0  0  0  0  0  0  0  0  0  0  0  0
   -2.6276    1.6016   -0.5076 H   0  0  0  0  0  0  0  0  0  0  0  0
    2.1686    4.0942   -1.0956 H   0  0  0  0  0  0  0  0  0  0  0  0
    4.1346    3.5339    0.3276 H   0  0  0  0  0  0  0  0  0  0  0  0
    4.3973    1.2285    1.2522 H   0  0  0  0  0  0  0  0  0  0  0  0
    2.6812   -0.5164    0.7605 H   0  0  0  0  0  0  0  0  0  0  0  0
  1  2  1  0  0  0  0
  1 23  1  0  0  0  0
  1 24  1  0  0  0  0
  1 25  1  0  0  0  0
  2  3  1  0  0  0  0
  2 26  1  0  0  0  0
  2 27  1  0  0  0  0
  3  4  1  0  0  0  0
  3 28  1  0  0  0  0
  3 29  1  0  0  0  0
  4  5  1  0  0  0  0
  5  6  2  0  0  0  0
  5  9  1  0  0  0  0
  6  7  1  0  0  0  0
  7  8  2  0  0  0  0
  8  9  1  0  0  0  0
  8 16  1  0  0  0  0
  9 10  1  0  0  0  0
 10 11  2  0  0  0  0
 10 15  1  0  0  0  0
 11 12  1  0  0  0  0
 11 30  1  0  0  0  0
 12 13  2  0  0  0  0
 12 31  1  0  0  0  0
 13 14  1  0  0  0  0
 13 32  1  0  0  0  0
 14 15  2  0  0  0  0
 14 33  1  0  0  0  0
 15 34  1  0  0  0  0
 16 17  2  0  0  0  0
 16 22  1  0  0  0  0
 17 18  1  0  0  0  0
 17 19  1  0  0  0  0
 19 20  2  0  0  0  0
 19 35  1  0  0  0  0
 20 21  1  0  0  0  0
 20 36  1  0  0  0  0
 21 22  2  0  0  0  0
 21 37  1  0  0  0  0
 22 38  1  0  0  0  0
M  END
