./081518-37-8.hin
 OpenBabel10051109203D

 42 44  0  0  0  0  0  0  0  0999 V2000
   -0.9334   -1.9135    0.8291 C   0  0  0  0  0  0  0  0  0  0  0  0
   -1.0827   -2.8732    1.8360 C   0  0  0  0  0  0  0  0  0  0  0  0
   -2.0618   -3.8599    1.7340 C   0  0  0  0  0  0  0  0  0  0  0  0
   -2.9108   -3.8931    0.6275 C   0  0  0  0  0  0  0  0  0  0  0  0
   -2.7807   -2.9496   -0.3873 C   0  0  0  0  0  0  0  0  0  0  0  0
    0.0488   -0.8459    0.9878 C   0  0  0  0  0  0  0  0  0  0  0  0
   -0.1528    0.3502    1.6239 N   0  0  0  0  0  0  0  0  0  0  0  0
    0.9610    1.0432    1.6226 N   0  0  0  0  0  0  0  0  0  0  0  0
    1.9489    0.3375    0.9803 C   0  0  0  0  0  0  0  0  0  0  0  0
    1.3922   -0.8842    0.5437 N   0  0  0  0  0  0  0  0  0  0  0  0
    2.0709   -1.9089   -0.1491 C   0  0  0  0  0  0  0  0  0  0  0  0
    4.0560   -3.2661   -0.4730 C   0  0  0  0  0  0  0  0  0  0  0  0
    3.4366   -3.9327   -1.5291 C   0  0  0  0  0  0  0  0  0  0  0  0
    2.1393   -3.5839   -1.9012 C   0  0  0  0  0  0  0  0  0  0  0  0
    1.4542   -2.5768   -1.2275 C   0  0  0  0  0  0  0  0  0  0  0  0
    3.5593    0.7801    0.7357 S   0  0  0  0  0  0  0  0  0  0  0  0
    3.6081    2.5183    1.0445 C   0  0  0  0  0  0  0  0  0  0  0  0
    3.0434    3.3544   -0.0745 C   0  0  0  0  0  0  0  0  0  0  0  0
    3.2695    4.8308    0.1843 C   0  0  0  0  0  0  0  0  0  0  0  0
    2.7112    5.6735   -0.9331 C   0  0  0  0  0  0  0  0  0  0  0  0
   -1.7880   -1.9617   -0.2903 C   0  0  0  0  0  0  0  0  0  0  0  0
   -1.5855   -1.0319   -1.2827 O   0  0  0  0  0  0  0  0  0  0  0  0
    3.3877   -2.2603    0.2193 C   0  0  0  0  0  0  0  0  0  0  0  0
   -0.4244   -2.8369    2.7181 H   0  0  0  0  0  0  0  0  0  0  0  0
   -2.1687   -4.6082    2.5325 H   0  0  0  0  0  0  0  0  0  0  0  0
   -3.6893   -4.6675    0.5543 H   0  0  0  0  0  0  0  0  0  0  0  0
   -3.4507   -2.9700   -1.2583 H   0  0  0  0  0  0  0  0  0  0  0  0
    5.0825   -3.5330   -0.1792 H   0  0  0  0  0  0  0  0  0  0  0  0
    3.9710   -4.7281   -2.0688 H   0  0  0  0  0  0  0  0  0  0  0  0
    1.6488   -4.1023   -2.7390 H   0  0  0  0  0  0  0  0  0  0  0  0
    0.4325   -2.3001   -1.5385 H   0  0  0  0  0  0  0  0  0  0  0  0
    3.1014    2.7740    2.0074 H   0  0  0  0  0  0  0  0  0  0  0  0
    4.7054    2.7176    1.1649 H   0  0  0  0  0  0  0  0  0  0  0  0
    3.5244    3.0666   -1.0468 H   0  0  0  0  0  0  0  0  0  0  0  0
    1.9423    3.1587   -0.1740 H   0  0  0  0  0  0  0  0  0  0  0  0
    2.7824    5.1181    1.1535 H   0  0  0  0  0  0  0  0  0  0  0  0
    4.3685    5.0287    0.2936 H   0  0  0  0  0  0  0  0  0  0  0  0
    2.8854    6.7567   -0.7251 H   0  0  0  0  0  0  0  0  0  0  0  0
    3.2007    5.4171   -1.9037 H   0  0  0  0  0  0  0  0  0  0  0  0
    1.6120    5.5066   -1.0405 H   0  0  0  0  0  0  0  0  0  0  0  0
   -2.3420   -1.0706   -1.8870 H   0  0  0  0  0  0  0  0  0  0  0  0
    3.8946   -1.7379    1.0490 H   0  0  0  0  0  0  0  0  0  0  0  0
  1  2  2  0  0  0  0
  1  6  1  0  0  0  0
  1 21  1  0  0  0  0
  2  3  1  0  0  0  0
  2 24  1  0  0  0  0
  3  4  2  0  0  0  0
  3 25  1  0  0  0  0
  4  5  1  0  0  0  0
  4 26  1  0  0  0  0
  5 21  2  0  0  0  0
  5 27  1  0  0  0  0
  6  7  2  0  0  0  0
  6 10  1  0  0  0  0
  7  8  1  0  0  0  0
  8  9  2  0  0  0  0
  9 10  1  0  0  0  0
  9 16  1  0  0  0  0
 10 11  1  0  0  0  0
 11 15  1  0  0  0  0
 11 23  2  0  0  0  0
 12 13  2  0  0  0  0
 12 23  1  0  0  0  0
 12 28  1  0  0  0  0
 13 14  1  0  0  0  0
 13 29  1  0  0  0  0
 14 15  2  0  0  0  0
 14 30  1  0  0  0  0
 15 31  1  0  0  0  0
 16 17  1  0  0  0  0
 17 18  1  0  0  0  0
 17 32  1  0  0  0  0
 17 33  1  0  0  0  0
 18 19  1  0  0  0  0
 18 34  1  0  0  0  0
 18 35  1  0  0  0  0
 19 20  1  0  0  0  0
 19 36  1  0  0  0  0
 19 37  1  0  0  0  0
 20 38  1  0  0  0  0
 20 39  1  0  0  0  0
 20 40  1  0  0  0  0
 21 22  1  0  0  0  0
 22 41  1  0  0  0  0
 23 42  1  0  0  0  0
M  END
