./082200-72-4.hin
 OpenBabel10051109203D

 38 39  0  0  0  0  0  0  0  0999 V2000
   -1.7253   -0.9096    1.2857 C   0  0  0  0  0  0  0  0  0  0  0  0
   -2.9107   -1.6109    1.5043 C   0  0  0  0  0  0  0  0  0  0  0  0
   -2.9505   -2.9937    1.3125 C   0  0  0  0  0  0  0  0  0  0  0  0
   -4.3978   -3.8429    1.5863 Cl  0  0  0  0  0  0  0  0  0  0  0  0
   -1.8090   -3.6879    0.8933 C   0  0  0  0  0  0  0  0  0  0  0  0
   -0.6249   -2.9975    0.6658 C   0  0  0  0  0  0  0  0  0  0  0  0
   -0.5855   -1.6051    0.8689 C   0  0  0  0  0  0  0  0  0  0  0  0
    0.6668   -1.0410    0.6911 O   0  0  0  0  0  0  0  0  0  0  0  0
    0.7406    0.3726    0.4275 C   0  0  0  0  0  0  0  0  0  0  0  0
    0.1620    0.6942   -0.8678 N   0  0  0  0  0  0  0  0  0  0  0  0
   -1.0028    1.3643   -1.0189 N   0  0  0  0  0  0  0  0  0  0  0  0
   -1.2301    1.3590   -2.3583 C   0  0  0  0  0  0  0  0  0  0  0  0
   -0.2320    0.6769   -3.0862 N   0  0  0  0  0  0  0  0  0  0  0  0
    0.6242    0.2612   -2.1344 C   0  0  0  0  0  0  0  0  0  0  0  0
    2.2635    0.6690    0.5907 C   0  0  0  0  0  0  0  0  0  0  0  0
    2.9256    0.1844   -0.5654 O   0  0  0  0  0  0  0  0  0  0  0  0
    2.5940    2.1518    0.8636 C   0  0  0  0  0  0  0  0  0  0  0  0
    4.0930    2.2477    1.1434 C   0  0  0  0  0  0  0  0  0  0  0  0
    2.2633    3.0313   -0.3300 C   0  0  0  0  0  0  0  0  0  0  0  0
    1.8444    2.6402    2.0944 C   0  0  0  0  0  0  0  0  0  0  0  0
   -1.7143    0.1800    1.4296 H   0  0  0  0  0  0  0  0  0  0  0  0
   -3.8119   -1.0673    1.8275 H   0  0  0  0  0  0  0  0  0  0  0  0
   -1.8466   -4.7772    0.7385 H   0  0  0  0  0  0  0  0  0  0  0  0
    0.2824   -3.5230    0.3347 H   0  0  0  0  0  0  0  0  0  0  0  0
    0.1809    0.9363    1.2326 H   0  0  0  0  0  0  0  0  0  0  0  0
   -2.0930    1.8315   -2.8381 H   0  0  0  0  0  0  0  0  0  0  0  0
    1.5565   -0.3047   -2.2608 H   0  0  0  0  0  0  0  0  0  0  0  0
    2.5928    0.0652    1.4892 H   0  0  0  0  0  0  0  0  0  0  0  0
    3.8717    0.2016   -0.3755 H   0  0  0  0  0  0  0  0  0  0  0  0
    4.3519    3.2779    1.4879 H   0  0  0  0  0  0  0  0  0  0  0  0
    4.3921    1.5230    1.9378 H   0  0  0  0  0  0  0  0  0  0  0  0
    4.6794    2.0364    0.2169 H   0  0  0  0  0  0  0  0  0  0  0  0
    2.7732    4.0199   -0.2287 H   0  0  0  0  0  0  0  0  0  0  0  0
    2.6097    2.5421   -1.2729 H   0  0  0  0  0  0  0  0  0  0  0  0
    1.1644    3.2127   -0.4003 H   0  0  0  0  0  0  0  0  0  0  0  0
    2.2656    3.6195    2.4295 H   0  0  0  0  0  0  0  0  0  0  0  0
    0.7612    2.7958    1.8719 H   0  0  0  0  0  0  0  0  0  0  0  0
    1.9425    1.9080    2.9314 H   0  0  0  0  0  0  0  0  0  0  0  0
  1  2  2  0  0  0  0
  1  7  1  0  0  0  0
  1 21  1  0  0  0  0
  2  3  1  0  0  0  0
  2 22  1  0  0  0  0
  3  4  1  0  0  0  0
  3  5  2  0  0  0  0
  5  6  1  0  0  0  0
  5 23  1  0  0  0  0
  6  7  2  0  0  0  0
  6 24  1  0  0  0  0
  7  8  1  0  0  0  0
  8  9  1  0  0  0  0
  9 10  1  0  0  0  0
  9 15  1  0  0  0  0
  9 25  1  0  0  0  0
 10 11  1  0  0  0  0
 10 14  1  0  0  0  0
 11 12  2  0  0  0  0
 12 13  1  0  0  0  0
 12 26  1  0  0  0  0
 13 14  2  0  0  0  0
 14 27  1  0  0  0  0
 15 16  1  0  0  0  0
 15 17  1  0  0  0  0
 15 28  1  0  0  0  0
 16 29  1  0  0  0  0
 17 18  1  0  0  0  0
 17 19  1  0  0  0  0
 17 20  1  0  0  0  0
 18 30  1  0  0  0  0
 18 31  1  0  0  0  0
 18 32  1  0  0  0  0
 19 33  1  0  0  0  0
 19 34  1  0  0  0  0
 19 35  1  0  0  0  0
 20 36  1  0  0  0  0
 20 37  1  0  0  0  0
 20 38  1  0  0  0  0
M  END
