./083044-89-7.hin
 OpenBabel10051109203D

 70 72  0  0  0  0  0  0  0  0999 V2000
    4.6860   -0.2794    0.1723 C   0  0  0  0  0  0  0  0  0  0  0  0
    3.2106   -0.2613    0.4319 C   0  0  0  0  0  0  0  0  0  0  0  0
    2.4476   -0.7989   -0.7661 C   0  0  0  0  0  0  0  0  0  0  0  0
    5.4346    0.6705   -0.0623 O   0  0  0  0  0  0  0  0  0  0  0  0
    5.2227   -1.5354    0.2259 O   0  0  0  0  0  0  0  0  0  0  0  0
    0.9861   -0.8621   -0.4872 C   0  0  0  0  0  0  0  0  0  0  0  0
    0.3600   -2.0884   -0.2695 C   0  0  0  0  0  0  0  0  0  0  0  0
   -1.0161   -2.1930   -0.0137 C   0  0  0  0  0  0  0  0  0  0  0  0
   -1.7709   -1.0046    0.0447 C   0  0  0  0  0  0  0  0  0  0  0  0
   -1.1390    0.2475   -0.1845 C   0  0  0  0  0  0  0  0  0  0  0  0
    0.2344    0.3146   -0.4553 C   0  0  0  0  0  0  0  0  0  0  0  0
   -3.0921   -1.0578    0.4292 O   0  0  0  0  0  0  0  0  0  0  0  0
   -3.0300    1.6570   -0.8341 N   0  0  0  0  0  0  0  0  0  0  0  0
   -1.8939    1.4830   -0.1341 N   0  0  0  0  0  0  0  0  0  0  0  0
   -1.4673    2.5333    0.5888 N   0  0  0  0  0  0  0  0  0  0  0  0
   -2.4059    3.5097    0.3632 C   0  0  0  0  0  0  0  0  0  0  0  0
   -3.4146    2.9433   -0.5540 C   0  0  0  0  0  0  0  0  0  0  0  0
   -2.5399    4.8434    0.8329 C   0  0  0  0  0  0  0  0  0  0  0  0
   -3.6265    5.5601    0.3991 C   0  0  0  0  0  0  0  0  0  0  0  0
   -4.6083    5.0175   -0.4920 C   0  0  0  0  0  0  0  0  0  0  0  0
   -4.5181    3.7387   -0.9662 C   0  0  0  0  0  0  0  0  0  0  0  0
   -3.8433    7.1639    0.9253 Cl  0  0  0  0  0  0  0  0  0  0  0  0
   -1.5681   -3.5841    0.1904 C   0  0  0  0  0  0  0  0  0  0  0  0
   -3.0732   -3.6391    0.4139 C   0  0  0  0  0  0  0  0  0  0  0  0
   -1.2562   -4.4278   -1.0464 C   0  0  0  0  0  0  0  0  0  0  0  0
   -0.8933   -4.2090    1.4112 C   0  0  0  0  0  0  0  0  0  0  0  0
    6.6411   -1.6402    0.0087 C   0  0  0  0  0  0  0  0  0  0  0  0
    6.9726   -3.1157    0.1251 C   0  0  0  0  0  0  0  0  0  0  0  0
    8.4621   -3.3315   -0.0302 C   0  0  0  0  0  0  0  0  0  0  0  0
    8.8092   -4.8015    0.0721 C   0  0  0  0  0  0  0  0  0  0  0  0
   10.3009   -5.0238   -0.0566 C   0  0  0  0  0  0  0  0  0  0  0  0
   10.6456   -6.4945    0.0394 C   0  0  0  0  0  0  0  0  0  0  0  0
   12.1384   -6.7196   -0.0747 C   0  0  0  0  0  0  0  0  0  0  0  0
   12.4850   -8.1832    0.0161 C   0  0  0  0  0  0  0  0  0  0  0  0
    2.9950   -0.8874    1.3379 H   0  0  0  0  0  0  0  0  0  0  0  0
    2.9031    0.7961    0.6482 H   0  0  0  0  0  0  0  0  0  0  0  0
    2.6310   -0.1357   -1.6545 H   0  0  0  0  0  0  0  0  0  0  0  0
    2.8390   -1.8205   -1.0224 H   0  0  0  0  0  0  0  0  0  0  0  0
    0.9712   -3.0063   -0.3017 H   0  0  0  0  0  0  0  0  0  0  0  0
    0.7321    1.2824   -0.6324 H   0  0  0  0  0  0  0  0  0  0  0  0
   -3.6296   -0.6725   -0.2805 H   0  0  0  0  0  0  0  0  0  0  0  0
   -1.7879    5.2620    1.5179 H   0  0  0  0  0  0  0  0  0  0  0  0
   -5.4511    5.6610   -0.7918 H   0  0  0  0  0  0  0  0  0  0  0  0
   -5.2691    3.3179   -1.6501 H   0  0  0  0  0  0  0  0  0  0  0  0
   -3.6160   -3.1847   -0.4486 H   0  0  0  0  0  0  0  0  0  0  0  0
   -3.3968   -4.7041    0.5143 H   0  0  0  0  0  0  0  0  0  0  0  0
   -3.3546   -3.0947    1.3474 H   0  0  0  0  0  0  0  0  0  0  0  0
   -0.1560   -4.5275   -1.2012 H   0  0  0  0  0  0  0  0  0  0  0  0
   -1.6854   -5.4513   -0.9215 H   0  0  0  0  0  0  0  0  0  0  0  0
   -1.7052   -3.9606   -1.9548 H   0  0  0  0  0  0  0  0  0  0  0  0
    0.2108   -4.2783    1.2669 H   0  0  0  0  0  0  0  0  0  0  0  0
   -1.0987   -3.5952    2.3203 H   0  0  0  0  0  0  0  0  0  0  0  0
   -1.2931   -5.2385    1.5764 H   0  0  0  0  0  0  0  0  0  0  0  0
    7.1712   -1.0290    0.7846 H   0  0  0  0  0  0  0  0  0  0  0  0
    6.8829   -1.2345   -1.0077 H   0  0  0  0  0  0  0  0  0  0  0  0
    6.6280   -3.4983    1.1212 H   0  0  0  0  0  0  0  0  0  0  0  0
    6.4143   -3.6875   -0.6611 H   0  0  0  0  0  0  0  0  0  0  0  0
    8.8011   -2.9324   -1.0225 H   0  0  0  0  0  0  0  0  0  0  0  0
    9.0116   -2.7586    0.7629 H   0  0  0  0  0  0  0  0  0  0  0  0
    8.4527   -5.2044    1.0568 H   0  0  0  0  0  0  0  0  0  0  0  0
    8.2729   -5.3713   -0.7319 H   0  0  0  0  0  0  0  0  0  0  0  0
   10.6592   -4.6165   -1.0387 H   0  0  0  0  0  0  0  0  0  0  0  0
   10.8366   -4.4583    0.7509 H   0  0  0  0  0  0  0  0  0  0  0  0
   10.2783   -6.9042    1.0173 H   0  0  0  0  0  0  0  0  0  0  0  0
   10.1176   -7.0586   -0.7741 H   0  0  0  0  0  0  0  0  0  0  0  0
   12.5051   -6.3050   -1.0509 H   0  0  0  0  0  0  0  0  0  0  0  0
   12.6644   -6.1563    0.7409 H   0  0  0  0  0  0  0  0  0  0  0  0
   13.5893   -8.3266   -0.0679 H   0  0  0  0  0  0  0  0  0  0  0  0
   12.1472   -8.6087    0.9919 H   0  0  0  0  0  0  0  0  0  0  0  0
   11.9913   -8.7572   -0.8051 H   0  0  0  0  0  0  0  0  0  0  0  0
  1  2  1  0  0  0  0
  1  4  2  0  0  0  0
  1  5  1  0  0  0  0
  2  3  1  0  0  0  0
  2 35  1  0  0  0  0
  2 36  1  0  0  0  0
  3  6  1  0  0  0  0
  3 37  1  0  0  0  0
  3 38  1  0  0  0  0
  5 27  1  0  0  0  0
  6  7  2  0  0  0  0
  6 11  1  0  0  0  0
  7  8  1  0  0  0  0
  7 39  1  0  0  0  0
  8  9  2  0  0  0  0
  8 23  1  0  0  0  0
  9 10  1  0  0  0  0
  9 12  1  0  0  0  0
 10 11  2  0  0  0  0
 10 14  1  0  0  0  0
 11 40  1  0  0  0  0
 12 41  1  0  0  0  0
 13 14  1  0  0  0  0
 13 17  2  0  0  0  0
 14 15  1  0  0  0  0
 15 16  2  0  0  0  0
 16 17  1  0  0  0  0
 16 18  1  0  0  0  0
 17 21  1  0  0  0  0
 18 19  2  0  0  0  0
 18 42  1  0  0  0  0
 19 20  1  0  0  0  0
 19 22  1  0  0  0  0
 20 21  2  0  0  0  0
 20 43  1  0  0  0  0
 21 44  1  0  0  0  0
 23 24  1  0  0  0  0
 23 25  1  0  0  0  0
 23 26  1  0  0  0  0
 24 45  1  0  0  0  0
 24 46  1  0  0  0  0
 24 47  1  0  0  0  0
 25 48  1  0  0  0  0
 25 49  1  0  0  0  0
 25 50  1  0  0  0  0
 26 51  1  0  0  0  0
 26 52  1  0  0  0  0
 26 53  1  0  0  0  0
 27 28  1  0  0  0  0
 27 54  1  0  0  0  0
 27 55  1  0  0  0  0
 28 29  1  0  0  0  0
 28 56  1  0  0  0  0
 28 57  1  0  0  0  0
 29 30  1  0  0  0  0
 29 58  1  0  0  0  0
 29 59  1  0  0  0  0
 30 31  1  0  0  0  0
 30 60  1  0  0  0  0
 30 61  1  0  0  0  0
 31 32  1  0  0  0  0
 31 62  1  0  0  0  0
 31 63  1  0  0  0  0
 32 33  1  0  0  0  0
 32 64  1  0  0  0  0
 32 65  1  0  0  0  0
 33 34  1  0  0  0  0
 33 66  1  0  0  0  0
 33 67  1  0  0  0  0
 34 68  1  0  0  0  0
 34 69  1  0  0  0  0
 34 70  1  0  0  0  0
M  END
