./083044-90-0.hin
 OpenBabel10051109203D

 70 72  0  0  0  0  0  0  0  0999 V2000
    4.3948   -1.1388    0.1066 C   0  0  0  0  0  0  0  0  0  0  0  0
    2.9215   -1.2141    0.3647 C   0  0  0  0  0  0  0  0  0  0  0  0
    2.1456   -0.8756   -0.8956 C   0  0  0  0  0  0  0  0  0  0  0  0
    5.0373   -0.2371   -0.4352 O   0  0  0  0  0  0  0  0  0  0  0  0
    5.0675   -2.2375    0.5618 O   0  0  0  0  0  0  0  0  0  0  0  0
    0.6783   -0.8821   -0.6426 C   0  0  0  0  0  0  0  0  0  0  0  0
    0.0045   -2.0890   -0.4532 C   0  0  0  0  0  0  0  0  0  0  0  0
   -1.3782   -2.1497   -0.2271 C   0  0  0  0  0  0  0  0  0  0  0  0
   -2.0936   -0.9359   -0.1747 C   0  0  0  0  0  0  0  0  0  0  0  0
   -1.4142    0.2950   -0.3762 C   0  0  0  0  0  0  0  0  0  0  0  0
   -0.0319    0.3188   -0.6123 C   0  0  0  0  0  0  0  0  0  0  0  0
   -3.4249   -0.9490    0.1766 O   0  0  0  0  0  0  0  0  0  0  0  0
   -3.2329    1.7741   -1.0735 N   0  0  0  0  0  0  0  0  0  0  0  0
   -2.1286    1.5550   -0.3361 N   0  0  0  0  0  0  0  0  0  0  0  0
   -1.6895    2.5848    0.4081 N   0  0  0  0  0  0  0  0  0  0  0  0
   -2.5844    3.5958    0.1578 C   0  0  0  0  0  0  0  0  0  0  0  0
   -3.5805    3.0717   -0.7974 C   0  0  0  0  0  0  0  0  0  0  0  0
   -2.6864    4.9307    0.6319 C   0  0  0  0  0  0  0  0  0  0  0  0
   -3.7308    5.6889    0.1660 C   0  0  0  0  0  0  0  0  0  0  0  0
   -4.7001    5.1874   -0.7621 C   0  0  0  0  0  0  0  0  0  0  0  0
   -4.6397    3.9090   -1.2418 C   0  0  0  0  0  0  0  0  0  0  0  0
   -3.9077    7.2965    0.6956 Cl  0  0  0  0  0  0  0  0  0  0  0  0
   -1.9816   -3.5228   -0.0480 C   0  0  0  0  0  0  0  0  0  0  0  0
   -3.4919   -3.5282    0.1445 C   0  0  0  0  0  0  0  0  0  0  0  0
   -1.6731   -4.3656   -1.2863 C   0  0  0  0  0  0  0  0  0  0  0  0
   -1.3539   -4.1816    1.1801 C   0  0  0  0  0  0  0  0  0  0  0  0
    6.4942   -2.2442    0.3705 C   0  0  0  0  0  0  0  0  0  0  0  0
    6.9867   -3.6183    0.8185 C   0  0  0  0  0  0  0  0  0  0  0  0
    8.4234   -3.8191    0.3482 C   0  0  0  0  0  0  0  0  0  0  0  0
    8.6066   -5.1529   -0.3464 C   0  0  0  0  0  0  0  0  0  0  0  0
   10.0453   -5.3574   -0.7719 C   0  0  0  0  0  0  0  0  0  0  0  0
   10.2290   -6.6736   -1.4820 C   0  0  0  0  0  0  0  0  0  0  0  0
    6.8530   -3.7489    2.3292 C   0  0  0  0  0  0  0  0  0  0  0  0
    7.0937   -5.1562    2.8096 C   0  0  0  0  0  0  0  0  0  0  0  0
    2.6481   -2.2388    0.7303 H   0  0  0  0  0  0  0  0  0  0  0  0
    2.6822   -0.4789    1.1794 H   0  0  0  0  0  0  0  0  0  0  0  0
    2.4770    0.1302   -1.2723 H   0  0  0  0  0  0  0  0  0  0  0  0
    2.3878   -1.6263   -1.6959 H   0  0  0  0  0  0  0  0  0  0  0  0
    0.5873   -3.0250   -0.4861 H   0  0  0  0  0  0  0  0  0  0  0  0
    0.4994    1.2729   -0.7649 H   0  0  0  0  0  0  0  0  0  0  0  0
   -3.9311   -0.5291   -0.5364 H   0  0  0  0  0  0  0  0  0  0  0  0
   -1.9440    5.3179    1.3452 H   0  0  0  0  0  0  0  0  0  0  0  0
   -5.5081    5.8629   -1.0864 H   0  0  0  0  0  0  0  0  0  0  0  0
   -5.3810    3.5196   -1.9544 H   0  0  0  0  0  0  0  0  0  0  0  0
   -4.0011   -3.0499   -0.7256 H   0  0  0  0  0  0  0  0  0  0  0  0
   -3.8534   -4.5823    0.2306 H   0  0  0  0  0  0  0  0  0  0  0  0
   -3.7739   -2.9806    1.0759 H   0  0  0  0  0  0  0  0  0  0  0  0
   -0.5739   -4.5016   -1.4195 H   0  0  0  0  0  0  0  0  0  0  0  0
   -2.1395   -5.3748   -1.1802 H   0  0  0  0  0  0  0  0  0  0  0  0
   -2.0869   -3.8750   -2.1991 H   0  0  0  0  0  0  0  0  0  0  0  0
   -0.2499   -4.2870    1.0577 H   0  0  0  0  0  0  0  0  0  0  0  0
   -1.5573   -3.5696    2.0909 H   0  0  0  0  0  0  0  0  0  0  0  0
   -1.7914   -5.1984    1.3269 H   0  0  0  0  0  0  0  0  0  0  0  0
    6.9401   -1.4197    0.9838 H   0  0  0  0  0  0  0  0  0  0  0  0
    6.7116   -2.0618   -0.7146 H   0  0  0  0  0  0  0  0  0  0  0  0
    6.3225   -4.3929    0.3400 H   0  0  0  0  0  0  0  0  0  0  0  0
    8.7215   -2.9990   -0.3583 H   0  0  0  0  0  0  0  0  0  0  0  0
    9.1216   -3.7586    1.2248 H   0  0  0  0  0  0  0  0  0  0  0  0
    8.2959   -5.9815    0.3442 H   0  0  0  0  0  0  0  0  0  0  0  0
    7.9393   -5.2044   -1.2469 H   0  0  0  0  0  0  0  0  0  0  0  0
   10.3582   -4.5178   -1.4476 H   0  0  0  0  0  0  0  0  0  0  0  0
   10.7110   -5.3197    0.1307 H   0  0  0  0  0  0  0  0  0  0  0  0
   11.2959   -6.8059   -1.7842 H   0  0  0  0  0  0  0  0  0  0  0  0
    9.9426   -7.5241   -0.8171 H   0  0  0  0  0  0  0  0  0  0  0  0
    9.5943   -6.7186   -2.4000 H   0  0  0  0  0  0  0  0  0  0  0  0
    5.8171   -3.4269    2.6209 H   0  0  0  0  0  0  0  0  0  0  0  0
    7.5726   -3.0492    2.8307 H   0  0  0  0  0  0  0  0  0  0  0  0
    6.9459   -5.2160    3.9151 H   0  0  0  0  0  0  0  0  0  0  0  0
    6.3860   -5.8681    2.3196 H   0  0  0  0  0  0  0  0  0  0  0  0
    8.1362   -5.4824    2.5747 H   0  0  0  0  0  0  0  0  0  0  0  0
  1  2  1  0  0  0  0
  1  4  2  0  0  0  0
  1  5  1  0  0  0  0
  2  3  1  0  0  0  0
  2 35  1  0  0  0  0
  2 36  1  0  0  0  0
  3  6  1  0  0  0  0
  3 37  1  0  0  0  0
  3 38  1  0  0  0  0
  5 27  1  0  0  0  0
  6  7  2  0  0  0  0
  6 11  1  0  0  0  0
  7  8  1  0  0  0  0
  7 39  1  0  0  0  0
  8  9  2  0  0  0  0
  8 23  1  0  0  0  0
  9 10  1  0  0  0  0
  9 12  1  0  0  0  0
 10 11  2  0  0  0  0
 10 14  1  0  0  0  0
 11 40  1  0  0  0  0
 12 41  1  0  0  0  0
 13 14  1  0  0  0  0
 13 17  2  0  0  0  0
 14 15  1  0  0  0  0
 15 16  2  0  0  0  0
 16 17  1  0  0  0  0
 16 18  1  0  0  0  0
 17 21  1  0  0  0  0
 18 19  2  0  0  0  0
 18 42  1  0  0  0  0
 19 20  1  0  0  0  0
 19 22  1  0  0  0  0
 20 21  2  0  0  0  0
 20 43  1  0  0  0  0
 21 44  1  0  0  0  0
 23 24  1  0  0  0  0
 23 25  1  0  0  0  0
 23 26  1  0  0  0  0
 24 45  1  0  0  0  0
 24 46  1  0  0  0  0
 24 47  1  0  0  0  0
 25 48  1  0  0  0  0
 25 49  1  0  0  0  0
 25 50  1  0  0  0  0
 26 51  1  0  0  0  0
 26 52  1  0  0  0  0
 26 53  1  0  0  0  0
 27 28  1  0  0  0  0
 27 54  1  0  0  0  0
 27 55  1  0  0  0  0
 28 29  1  0  0  0  0
 28 33  1  0  0  0  0
 28 56  1  0  0  0  0
 29 30  1  0  0  0  0
 29 57  1  0  0  0  0
 29 58  1  0  0  0  0
 30 31  1  0  0  0  0
 30 59  1  0  0  0  0
 30 60  1  0  0  0  0
 31 32  1  0  0  0  0
 31 61  1  0  0  0  0
 31 62  1  0  0  0  0
 32 63  1  0  0  0  0
 32 64  1  0  0  0  0
 32 65  1  0  0  0  0
 33 34  1  0  0  0  0
 33 66  1  0  0  0  0
 33 67  1  0  0  0  0
 34 68  1  0  0  0  0
 34 69  1  0  0  0  0
 34 70  1  0  0  0  0
M  END
