./083366-66-9.hin
 OpenBabel10051109203D

 65 68  0  0  0  0  0  0  0  0999 V2000
   -1.2287   -2.9787    3.7151 Cl  0  0  0  0  0  0  0  0  0  0  0  0
   -7.5345    3.4045   -0.4053 N   0  0  0  0  0  0  0  0  0  0  0  0
   -7.3547    4.7539   -0.8485 C   0  0  0  0  0  0  0  0  0  0  0  0
   -6.0528    5.0483   -1.0079 N   0  0  0  0  0  0  0  0  0  0  0  0
   -5.3240    3.9509   -0.6683 N   0  0  0  0  0  0  0  0  0  0  0  0
   -6.2114    2.8402   -0.3782 C   0  0  0  0  0  0  0  0  0  0  0  0
   -5.8901    1.7012   -0.0112 O   0  0  0  0  0  0  0  0  0  0  0  0
   -4.0126    3.6924   -1.2566 C   0  0  0  0  0  0  0  0  0  0  0  0
   -2.9101    4.5809   -0.6932 C   0  0  0  0  0  0  0  0  0  0  0  0
   -2.5769    4.2931    0.7710 C   0  0  0  0  0  0  0  0  0  0  0  0
   -1.9187    3.0038    0.9591 N   0  0  0  0  0  0  0  0  0  0  0  0
   -2.7760    1.9822    1.5429 C   0  0  0  0  0  0  0  0  0  0  0  0
   -2.9001    2.0451    3.0807 C   0  0  0  0  0  0  0  0  0  0  0  0
   -1.6437    2.1696    3.8009 N   0  0  0  0  0  0  0  0  0  0  0  0
   -1.0067    0.9739    4.2286 C   0  0  0  0  0  0  0  0  0  0  0  0
   -0.0127    1.0603    5.2344 C   0  0  0  0  0  0  0  0  0  0  0  0
    0.5781   -0.0877    5.7470 C   0  0  0  0  0  0  0  0  0  0  0  0
    0.2084   -1.3515    5.2893 C   0  0  0  0  0  0  0  0  0  0  0  0
   -0.7665   -1.4453    4.2952 C   0  0  0  0  0  0  0  0  0  0  0  0
   -1.3671   -0.3062    3.7567 C   0  0  0  0  0  0  0  0  0  0  0  0
   -0.7615    3.1636    3.2041 C   0  0  0  0  0  0  0  0  0  0  0  0
   -0.6499    3.0835    1.6649 C   0  0  0  0  0  0  0  0  0  0  0  0
   -8.4855    5.7164   -1.0096 C   0  0  0  0  0  0  0  0  0  0  0  0
   -8.9868    6.1974    0.3305 C   0  0  0  0  0  0  0  0  0  0  0  0
   -8.7121    2.6192   -0.6104 C   0  0  0  0  0  0  0  0  0  0  0  0
   -9.1578    2.3957   -2.0637 C   0  0  0  0  0  0  0  0  0  0  0  0
   -8.2449    1.4503   -2.6215 O   0  0  0  0  0  0  0  0  0  0  0  0
   -8.4901    1.0725   -3.9296 C   0  0  0  0  0  0  0  0  0  0  0  0
   -7.5748    0.1351   -4.4465 C   0  0  0  0  0  0  0  0  0  0  0  0
   -7.7318   -0.3104   -5.7534 C   0  0  0  0  0  0  0  0  0  0  0  0
   -8.7821    0.1637   -6.5441 C   0  0  0  0  0  0  0  0  0  0  0  0
   -9.6815    1.0896   -6.0228 C   0  0  0  0  0  0  0  0  0  0  0  0
   -9.5452    1.5526   -4.7129 C   0  0  0  0  0  0  0  0  0  0  0  0
   -3.7760    2.6091   -1.0467 H   0  0  0  0  0  0  0  0  0  0  0  0
   -4.0512    3.8377   -2.3752 H   0  0  0  0  0  0  0  0  0  0  0  0
   -2.0020    4.4234   -1.3334 H   0  0  0  0  0  0  0  0  0  0  0  0
   -3.2030    5.6607   -0.7716 H   0  0  0  0  0  0  0  0  0  0  0  0
   -1.9067    5.1289    1.1272 H   0  0  0  0  0  0  0  0  0  0  0  0
   -3.5254    4.3623    1.3776 H   0  0  0  0  0  0  0  0  0  0  0  0
   -2.3392    0.9869    1.2458 H   0  0  0  0  0  0  0  0  0  0  0  0
   -3.8101    2.0519    1.1004 H   0  0  0  0  0  0  0  0  0  0  0  0
   -3.4676    1.1448    3.4404 H   0  0  0  0  0  0  0  0  0  0  0  0
   -3.5011    2.9595    3.3575 H   0  0  0  0  0  0  0  0  0  0  0  0
    0.2887    2.0432    5.6284 H   0  0  0  0  0  0  0  0  0  0  0  0
    1.3458    0.0011    6.5310 H   0  0  0  0  0  0  0  0  0  0  0  0
    0.6768   -2.2550    5.7048 H   0  0  0  0  0  0  0  0  0  0  0  0
   -2.1189   -0.4225    2.9601 H   0  0  0  0  0  0  0  0  0  0  0  0
    0.2706    3.0752    3.6398 H   0  0  0  0  0  0  0  0  0  0  0  0
   -1.1802    4.1705    3.4896 H   0  0  0  0  0  0  0  0  0  0  0  0
   -0.0682    2.1589    1.3878 H   0  0  0  0  0  0  0  0  0  0  0  0
   -0.0700    3.9768    1.3055 H   0  0  0  0  0  0  0  0  0  0  0  0
   -8.1405    6.5922   -1.6236 H   0  0  0  0  0  0  0  0  0  0  0  0
   -9.3177    5.2149   -1.5734 H   0  0  0  0  0  0  0  0  0  0  0  0
   -9.8214    6.9247    0.1813 H   0  0  0  0  0  0  0  0  0  0  0  0
   -9.3637    5.3439    0.9445 H   0  0  0  0  0  0  0  0  0  0  0  0
   -8.1698    6.7052    0.8980 H   0  0  0  0  0  0  0  0  0  0  0  0
   -8.5246    1.6119   -0.1339 H   0  0  0  0  0  0  0  0  0  0  0  0
   -9.5612    3.1370   -0.0775 H   0  0  0  0  0  0  0  0  0  0  0  0
  -10.1952    1.9676   -2.0637 H   0  0  0  0  0  0  0  0  0  0  0  0
   -9.1371    3.3429   -2.6634 H   0  0  0  0  0  0  0  0  0  0  0  0
   -6.7557   -0.2282   -3.8098 H   0  0  0  0  0  0  0  0  0  0  0  0
   -7.0219   -1.0430   -6.1663 H   0  0  0  0  0  0  0  0  0  0  0  0
   -8.8968   -0.1958   -7.5766 H   0  0  0  0  0  0  0  0  0  0  0  0
  -10.5093    1.4634   -6.6439 H   0  0  0  0  0  0  0  0  0  0  0  0
  -10.2639    2.2823   -4.3174 H   0  0  0  0  0  0  0  0  0  0  0  0
  1 19  1  0  0  0  0
  2  3  1  0  0  0  0
  2  6  1  0  0  0  0
  2 25  1  0  0  0  0
  3  4  2  0  0  0  0
  3 23  1  0  0  0  0
  4  5  1  0  0  0  0
  5  6  1  0  0  0  0
  5  8  1  0  0  0  0
  6  7  2  0  0  0  0
  8  9  1  0  0  0  0
  8 34  1  0  0  0  0
  8 35  1  0  0  0  0
  9 10  1  0  0  0  0
  9 36  1  0  0  0  0
  9 37  1  0  0  0  0
 10 11  1  0  0  0  0
 10 38  1  0  0  0  0
 10 39  1  0  0  0  0
 11 12  1  0  0  0  0
 11 22  1  0  0  0  0
 12 13  1  0  0  0  0
 12 40  1  0  0  0  0
 12 41  1  0  0  0  0
 13 14  1  0  0  0  0
 13 42  1  0  0  0  0
 13 43  1  0  0  0  0
 14 15  1  0  0  0  0
 14 21  1  0  0  0  0
 15 16  2  0  0  0  0
 15 20  1  0  0  0  0
 16 17  1  0  0  0  0
 16 44  1  0  0  0  0
 17 18  2  0  0  0  0
 17 45  1  0  0  0  0
 18 19  1  0  0  0  0
 18 46  1  0  0  0  0
 19 20  2  0  0  0  0
 20 47  1  0  0  0  0
 21 22  1  0  0  0  0
 21 48  1  0  0  0  0
 21 49  1  0  0  0  0
 22 50  1  0  0  0  0
 22 51  1  0  0  0  0
 23 24  1  0  0  0  0
 23 52  1  0  0  0  0
 23 53  1  0  0  0  0
 24 54  1  0  0  0  0
 24 55  1  0  0  0  0
 24 56  1  0  0  0  0
 25 26  1  0  0  0  0
 25 57  1  0  0  0  0
 25 58  1  0  0  0  0
 26 27  1  0  0  0  0
 26 59  1  0  0  0  0
 26 60  1  0  0  0  0
 27 28  1  0  0  0  0
 28 29  2  0  0  0  0
 28 33  1  0  0  0  0
 29 30  1  0  0  0  0
 29 61  1  0  0  0  0
 30 31  2  0  0  0  0
 30 62  1  0  0  0  0
 31 32  1  0  0  0  0
 31 63  1  0  0  0  0
 32 33  2  0  0  0  0
 32 64  1  0  0  0  0
 33 65  1  0  0  0  0
M  END
