./083657-17-4.hin
 OpenBabel10051109203D

 38 39  0  0  0  0  0  0  0  0999 V2000
    0.6190   -1.3994    1.8730 C   0  0  0  0  0  0  0  0  0  0  0  0
    1.3827   -2.4435    2.2432 N   0  0  0  0  0  0  0  0  0  0  0  0
    0.8832   -3.5097    1.4681 C   0  0  0  0  0  0  0  0  0  0  0  0
   -0.1452   -3.1440    0.6563 N   0  0  0  0  0  0  0  0  0  0  0  0
   -0.3134   -1.8242    0.8898 N   0  0  0  0  0  0  0  0  0  0  0  0
   -1.3413   -1.0156    0.3338 C   0  0  0  0  0  0  0  0  0  0  0  0
   -2.7120   -1.6560    0.1528 C   0  0  0  0  0  0  0  0  0  0  0  0
   -3.6253   -0.7236    0.7305 O   0  0  0  0  0  0  0  0  0  0  0  0
   -3.0723   -1.9595   -1.3211 C   0  0  0  0  0  0  0  0  0  0  0  0
   -4.3726   -2.7575   -1.3417 C   0  0  0  0  0  0  0  0  0  0  0  0
   -3.2677   -0.6812   -2.1198 C   0  0  0  0  0  0  0  0  0  0  0  0
   -1.9779   -2.7984   -1.9606 C   0  0  0  0  0  0  0  0  0  0  0  0
   -1.1699    0.2920    0.0336 C   0  0  0  0  0  0  0  0  0  0  0  0
    0.0551    1.0710    0.0966 C   0  0  0  0  0  0  0  0  0  0  0  0
    0.0446    2.3118    0.7522 C   0  0  0  0  0  0  0  0  0  0  0  0
    1.1885    3.1041    0.7862 C   0  0  0  0  0  0  0  0  0  0  0  0
    2.3535    2.6628    0.1499 C   0  0  0  0  0  0  0  0  0  0  0  0
    3.7507    3.6287    0.1847 Cl  0  0  0  0  0  0  0  0  0  0  0  0
    2.3747    1.4338   -0.5171 C   0  0  0  0  0  0  0  0  0  0  0  0
    1.2281    0.6435   -0.5411 C   0  0  0  0  0  0  0  0  0  0  0  0
    0.6756   -0.3656    2.2319 H   0  0  0  0  0  0  0  0  0  0  0  0
    1.2925   -4.5235    1.5220 H   0  0  0  0  0  0  0  0  0  0  0  0
   -2.7789   -2.6240    0.7305 H   0  0  0  0  0  0  0  0  0  0  0  0
   -4.5049   -1.1112    0.6497 H   0  0  0  0  0  0  0  0  0  0  0  0
   -4.5863   -3.1059   -2.3810 H   0  0  0  0  0  0  0  0  0  0  0  0
   -4.2957   -3.6522   -0.6786 H   0  0  0  0  0  0  0  0  0  0  0  0
   -5.2304   -2.1280   -1.0035 H   0  0  0  0  0  0  0  0  0  0  0  0
   -3.7099   -0.9181   -3.1174 H   0  0  0  0  0  0  0  0  0  0  0  0
   -3.9539    0.0139   -1.5774 H   0  0  0  0  0  0  0  0  0  0  0  0
   -2.2894   -0.1677   -2.2810 H   0  0  0  0  0  0  0  0  0  0  0  0
   -2.2376   -3.0094   -3.0264 H   0  0  0  0  0  0  0  0  0  0  0  0
   -1.0024   -2.2563   -1.9358 H   0  0  0  0  0  0  0  0  0  0  0  0
   -1.8642   -3.7694   -1.4220 H   0  0  0  0  0  0  0  0  0  0  0  0
   -2.0690    0.8584   -0.2821 H   0  0  0  0  0  0  0  0  0  0  0  0
   -0.8765    2.6602    1.2444 H   0  0  0  0  0  0  0  0  0  0  0  0
    1.1729    4.0730    1.3083 H   0  0  0  0  0  0  0  0  0  0  0  0
    3.2909    1.0893   -1.0207 H   0  0  0  0  0  0  0  0  0  0  0  0
    1.2431   -0.3215   -1.0711 H   0  0  0  0  0  0  0  0  0  0  0  0
  1  2  2  0  0  0  0
  1  5  1  0  0  0  0
  1 21  1  0  0  0  0
  2  3  1  0  0  0  0
  3  4  2  0  0  0  0
  3 22  1  0  0  0  0
  4  5  1  0  0  0  0
  5  6  1  0  0  0  0
  6  7  1  0  0  0  0
  6 13  2  0  0  0  0
  7  8  1  0  0  0  0
  7  9  1  0  0  0  0
  7 23  1  0  0  0  0
  8 24  1  0  0  0  0
  9 10  1  0  0  0  0
  9 11  1  0  0  0  0
  9 12  1  0  0  0  0
 10 25  1  0  0  0  0
 10 26  1  0  0  0  0
 10 27  1  0  0  0  0
 11 28  1  0  0  0  0
 11 29  1  0  0  0  0
 11 30  1  0  0  0  0
 12 31  1  0  0  0  0
 12 32  1  0  0  0  0
 12 33  1  0  0  0  0
 13 14  1  0  0  0  0
 13 34  1  0  0  0  0
 14 15  2  0  0  0  0
 14 20  1  0  0  0  0
 15 16  1  0  0  0  0
 15 35  1  0  0  0  0
 16 17  2  0  0  0  0
 16 36  1  0  0  0  0
 17 18  1  0  0  0  0
 17 19  1  0  0  0  0
 19 20  2  0  0  0  0
 19 37  1  0  0  0  0
 20 38  1  0  0  0  0
M  END
