./083657-24-3.hin
 OpenBabel10051109203D

 38 39  0  0  0  0  0  0  0  0999 V2000
    0.5220   -2.3959    1.1640 C   0  0  0  0  0  0  0  0  0  0  0  0
    1.6867   -3.1530    1.0958 C   0  0  0  0  0  0  0  0  0  0  0  0
    2.4482   -3.1412   -0.0782 C   0  0  0  0  0  0  0  0  0  0  0  0
    2.0469   -2.3798   -1.1778 C   0  0  0  0  0  0  0  0  0  0  0  0
    0.8730   -1.6225   -1.0975 C   0  0  0  0  0  0  0  0  0  0  0  0
    0.1011   -1.6161    0.0761 C   0  0  0  0  0  0  0  0  0  0  0  0
   -1.1560   -0.8871    0.1695 C   0  0  0  0  0  0  0  0  0  0  0  0
   -1.3339    0.4442    0.3394 C   0  0  0  0  0  0  0  0  0  0  0  0
   -2.7649    0.9763    0.3752 C   0  0  0  0  0  0  0  0  0  0  0  0
   -2.9002    2.1141    1.1976 O   0  0  0  0  0  0  0  0  0  0  0  0
   -3.3902    1.1787   -1.0254 C   0  0  0  0  0  0  0  0  0  0  0  0
   -4.7842    1.7673   -0.8322 C   0  0  0  0  0  0  0  0  0  0  0  0
   -2.5671    2.1153   -1.8915 C   0  0  0  0  0  0  0  0  0  0  0  0
   -3.5240   -0.1633   -1.7307 C   0  0  0  0  0  0  0  0  0  0  0  0
   -0.2453    1.3309    0.5463 N   0  0  0  0  0  0  0  0  0  0  0  0
   -0.1813    2.6097    0.1154 N   0  0  0  0  0  0  0  0  0  0  0  0
    1.0064    3.0760    0.5854 C   0  0  0  0  0  0  0  0  0  0  0  0
    1.7203    2.1172    1.3321 N   0  0  0  0  0  0  0  0  0  0  0  0
    0.9224    1.0346    1.2991 C   0  0  0  0  0  0  0  0  0  0  0  0
    0.3998   -0.7186   -2.4555 Cl  0  0  0  0  0  0  0  0  0  0  0  0
    3.8709   -4.0623   -0.1702 Cl  0  0  0  0  0  0  0  0  0  0  0  0
   -0.0842   -2.4087    2.0834 H   0  0  0  0  0  0  0  0  0  0  0  0
    2.0046   -3.7574    1.9594 H   0  0  0  0  0  0  0  0  0  0  0  0
    2.6473   -2.3741   -2.1019 H   0  0  0  0  0  0  0  0  0  0  0  0
   -2.0536   -1.5296    0.0892 H   0  0  0  0  0  0  0  0  0  0  0  0
   -3.3816    0.1951    0.9202 H   0  0  0  0  0  0  0  0  0  0  0  0
   -2.6236    2.8920    0.6956 H   0  0  0  0  0  0  0  0  0  0  0  0
   -5.2788    1.9090   -1.8226 H   0  0  0  0  0  0  0  0  0  0  0  0
   -5.4105    1.0834   -0.2112 H   0  0  0  0  0  0  0  0  0  0  0  0
   -4.7222    2.7561   -0.3174 H   0  0  0  0  0  0  0  0  0  0  0  0
   -3.0774    2.2659   -2.8741 H   0  0  0  0  0  0  0  0  0  0  0  0
   -2.4508    3.1118   -1.4023 H   0  0  0  0  0  0  0  0  0  0  0  0
   -1.5551    1.6844   -2.0832 H   0  0  0  0  0  0  0  0  0  0  0  0
   -4.0890   -0.0326   -2.6853 H   0  0  0  0  0  0  0  0  0  0  0  0
   -2.5171   -0.5824   -1.9733 H   0  0  0  0  0  0  0  0  0  0  0  0
   -4.0766   -0.8918   -1.0900 H   0  0  0  0  0  0  0  0  0  0  0  0
    1.3824    4.0888    0.4077 H   0  0  0  0  0  0  0  0  0  0  0  0
    1.1023    0.0571    1.7608 H   0  0  0  0  0  0  0  0  0  0  0  0
  1  2  2  0  0  0  0
  1  6  1  0  0  0  0
  1 22  1  0  0  0  0
  2  3  1  0  0  0  0
  2 23  1  0  0  0  0
  3  4  2  0  0  0  0
  3 21  1  0  0  0  0
  4  5  1  0  0  0  0
  4 24  1  0  0  0  0
  5  6  2  0  0  0  0
  5 20  1  0  0  0  0
  6  7  1  0  0  0  0
  7  8  2  0  0  0  0
  7 25  1  0  0  0  0
  8  9  1  0  0  0  0
  8 15  1  0  0  0  0
  9 10  1  0  0  0  0
  9 11  1  0  0  0  0
  9 26  1  0  0  0  0
 10 27  1  0  0  0  0
 11 12  1  0  0  0  0
 11 13  1  0  0  0  0
 11 14  1  0  0  0  0
 12 28  1  0  0  0  0
 12 29  1  0  0  0  0
 12 30  1  0  0  0  0
 13 31  1  0  0  0  0
 13 32  1  0  0  0  0
 13 33  1  0  0  0  0
 14 34  1  0  0  0  0
 14 35  1  0  0  0  0
 14 36  1  0  0  0  0
 15 16  1  0  0  0  0
 15 19  1  0  0  0  0
 16 17  2  0  0  0  0
 17 18  1  0  0  0  0
 17 37  1  0  0  0  0
 18 19  2  0  0  0  0
 19 38  1  0  0  0  0
M  END
