./085509-19-9.hin
 OpenBabel10051109203D

 37 39  0  0  0  0  0  0  0  0999 V2000
   -0.2971   -2.3232   -0.8502 C   0  0  0  0  0  0  0  0  0  0  0  0
   -0.5886   -3.6860   -0.8557 C   0  0  0  0  0  0  0  0  0  0  0  0
   -1.9307   -4.1045   -0.8472 C   0  0  0  0  0  0  0  0  0  0  0  0
   -2.9646   -3.1482   -0.8376 C   0  0  0  0  0  0  0  0  0  0  0  0
   -2.6361   -1.7984   -0.8338 C   0  0  0  0  0  0  0  0  0  0  0  0
   -1.3044   -1.3618   -0.8373 C   0  0  0  0  0  0  0  0  0  0  0  0
   -2.2302   -5.4238   -0.8486 F   0  0  0  0  0  0  0  0  0  0  0  0
   -1.1128    0.4165   -0.8131 Si  0  0  0  0  0  0  0  0  0  0  0  0
   -2.0944    1.1106   -2.1965 C   0  0  0  0  0  0  0  0  0  0  0  0
    0.5000    1.1900   -0.8373 C   0  0  0  0  0  0  0  0  0  0  0  0
    0.4677    2.5910   -0.8338 C   0  0  0  0  0  0  0  0  0  0  0  0
    1.6308    3.3506   -0.8376 C   0  0  0  0  0  0  0  0  0  0  0  0
    2.8770    2.6946   -0.8472 C   0  0  0  0  0  0  0  0  0  0  0  0
    1.7422    0.5607   -0.8502 C   0  0  0  0  0  0  0  0  0  0  0  0
    2.9298    1.2898   -0.8557 C   0  0  0  0  0  0  0  0  0  0  0  0
    4.0211    3.4168   -0.8486 F   0  0  0  0  0  0  0  0  0  0  0  0
   -2.0164    1.0555    0.7230 C   0  0  0  0  0  0  0  0  0  0  0  0
   -1.4669    0.6669    1.9903 N   0  0  0  0  0  0  0  0  0  0  0  0
   -1.9952    1.0405    3.1724 N   0  0  0  0  0  0  0  0  0  0  0  0
   -1.1900    0.4711    4.1135 C   0  0  0  0  0  0  0  0  0  0  0  0
   -0.1371   -0.2734    3.5550 N   0  0  0  0  0  0  0  0  0  0  0  0
   -0.3294   -0.1375    2.2262 C   0  0  0  0  0  0  0  0  0  0  0  0
    0.7649   -2.0352   -0.8549 H   0  0  0  0  0  0  0  0  0  0  0  0
    0.2162   -4.4351   -0.8623 H   0  0  0  0  0  0  0  0  0  0  0  0
   -4.0131   -3.4786   -0.8295 H   0  0  0  0  0  0  0  0  0  0  0  0
   -3.4540   -1.0573   -0.8238 H   0  0  0  0  0  0  0  0  0  0  0  0
   -2.1153    2.2246   -2.1712 H   0  0  0  0  0  0  0  0  0  0  0  0
   -1.6721    0.8120   -3.1843 H   0  0  0  0  0  0  0  0  0  0  0  0
   -3.1516    0.7590   -2.1712 H   0  0  0  0  0  0  0  0  0  0  0  0
   -0.5036    3.1151   -0.8238 H   0  0  0  0  0  0  0  0  0  0  0  0
    1.5928    4.4493   -0.8295 H   0  0  0  0  0  0  0  0  0  0  0  0
    1.8246   -0.5365   -0.8549 H   0  0  0  0  0  0  0  0  0  0  0  0
    3.9044    0.7808   -0.8623 H   0  0  0  0  0  0  0  0  0  0  0  0
   -2.0462    2.1806    0.6705 H   0  0  0  0  0  0  0  0  0  0  0  0
   -3.0871    0.7085    0.6705 H   0  0  0  0  0  0  0  0  0  0  0  0
   -1.3370    0.5751    5.1926 H   0  0  0  0  0  0  0  0  0  0  0  0
    0.2807   -0.5688    1.4250 H   0  0  0  0  0  0  0  0  0  0  0  0
  1  2  2  0  0  0  0
  1  6  1  0  0  0  0
  1 23  1  0  0  0  0
  2  3  1  0  0  0  0
  2 24  1  0  0  0  0
  3  4  2  0  0  0  0
  3  7  1  0  0  0  0
  4  5  1  0  0  0  0
  4 25  1  0  0  0  0
  5  6  2  0  0  0  0
  5 26  1  0  0  0  0
  6  8  1  0  0  0  0
  8  9  1  0  0  0  0
  8 10  1  0  0  0  0
  8 17  1  0  0  0  0
  9 27  1  0  0  0  0
  9 28  1  0  0  0  0
  9 29  1  0  0  0  0
 10 11  2  0  0  0  0
 10 14  1  0  0  0  0
 11 12  1  0  0  0  0
 11 30  1  0  0  0  0
 12 13  2  0  0  0  0
 12 31  1  0  0  0  0
 13 15  1  0  0  0  0
 13 16  1  0  0  0  0
 14 15  2  0  0  0  0
 14 32  1  0  0  0  0
 15 33  1  0  0  0  0
 17 18  1  0  0  0  0
 17 34  1  0  0  0  0
 17 35  1  0  0  0  0
 18 19  1  0  0  0  0
 18 22  1  0  0  0  0
 19 20  2  0  0  0  0
 20 21  1  0  0  0  0
 20 36  1  0  0  0  0
 21 22  2  0  0  0  0
 22 37  1  0  0  0  0
M  END
