./085634-51-1.hin
 OpenBabel10051109203D

 46 49  0  0  0  0  0  0  0  0999 V2000
    0.2181   -2.5049    0.7661 N   0  0  0  0  0  0  0  0  0  0  0  0
    1.4919   -2.7675    1.2375 N   0  0  0  0  0  0  0  0  0  0  0  0
    2.2355   -1.7631    1.2076 N   0  0  0  0  0  0  0  0  0  0  0  0
    1.5073   -0.6503    0.6721 C   0  0  0  0  0  0  0  0  0  0  0  0
    0.1712   -1.1378    0.3821 C   0  0  0  0  0  0  0  0  0  0  0  0
   -0.7800   -0.2656   -0.1489 C   0  0  0  0  0  0  0  0  0  0  0  0
   -0.3945    1.0494   -0.3915 C   0  0  0  0  0  0  0  0  0  0  0  0
    0.9057    1.5172   -0.1198 C   0  0  0  0  0  0  0  0  0  0  0  0
    1.8718    0.6701    0.4297 C   0  0  0  0  0  0  0  0  0  0  0  0
    1.2506    2.9206   -0.4103 C   0  0  0  0  0  0  0  0  0  0  0  0
    2.4723    3.1528   -1.2715 C   0  0  0  0  0  0  0  0  0  0  0  0
    3.0404    4.5528   -1.0682 C   0  0  0  0  0  0  0  0  0  0  0  0
    1.9997    5.5996   -0.7476 C   0  0  0  0  0  0  0  0  0  0  0  0
    0.7867    5.1496   -0.1943 N   0  0  0  0  0  0  0  0  0  0  0  0
    0.4842    3.8822    0.0588 N   0  0  0  0  0  0  0  0  0  0  0  0
    2.1724    6.8155   -0.9214 O   0  0  0  0  0  0  0  0  0  0  0  0
    2.1207    2.9173   -2.7283 C   0  0  0  0  0  0  0  0  0  0  0  0
   -0.7833   -3.5243    0.6519 C   0  0  0  0  0  0  0  0  0  0  0  0
   -0.4532   -4.7027    0.8095 O   0  0  0  0  0  0  0  0  0  0  0  0
   -2.2085   -3.1035    0.3271 C   0  0  0  0  0  0  0  0  0  0  0  0
   -3.0687   -4.3215    0.0024 C   0  0  0  0  0  0  0  0  0  0  0  0
   -3.4255   -5.1467    1.2208 C   0  0  0  0  0  0  0  0  0  0  0  0
   -4.0472   -4.2999    2.3107 C   0  0  0  0  0  0  0  0  0  0  0  0
   -3.1427   -3.1406    2.6723 C   0  0  0  0  0  0  0  0  0  0  0  0
   -2.8283   -2.2930    1.4574 C   0  0  0  0  0  0  0  0  0  0  0  0
   -1.8110   -0.5764   -0.3651 H   0  0  0  0  0  0  0  0  0  0  0  0
   -1.1376    1.7500   -0.8073 H   0  0  0  0  0  0  0  0  0  0  0  0
    2.8839    1.0260    0.6736 H   0  0  0  0  0  0  0  0  0  0  0  0
    3.2678    2.4107   -0.9756 H   0  0  0  0  0  0  0  0  0  0  0  0
    3.5970    4.8809   -1.9858 H   0  0  0  0  0  0  0  0  0  0  0  0
    3.7686    4.5503   -0.2122 H   0  0  0  0  0  0  0  0  0  0  0  0
    0.1232    5.8119    0.1595 H   0  0  0  0  0  0  0  0  0  0  0  0
    1.3717    3.6661   -3.0810 H   0  0  0  0  0  0  0  0  0  0  0  0
    3.0371    3.0058   -3.3608 H   0  0  0  0  0  0  0  0  0  0  0  0
    1.6927    1.8945   -2.8611 H   0  0  0  0  0  0  0  0  0  0  0  0
   -2.1665   -2.4724   -0.6071 H   0  0  0  0  0  0  0  0  0  0  0  0
   -4.0094   -3.9514   -0.4857 H   0  0  0  0  0  0  0  0  0  0  0  0
   -2.5268   -4.9698   -0.7354 H   0  0  0  0  0  0  0  0  0  0  0  0
   -4.1404   -5.9556    0.9178 H   0  0  0  0  0  0  0  0  0  0  0  0
   -2.4979   -5.6438    1.6137 H   0  0  0  0  0  0  0  0  0  0  0  0
   -5.0407   -3.9089    1.9669 H   0  0  0  0  0  0  0  0  0  0  0  0
   -4.2292   -4.9315    3.2188 H   0  0  0  0  0  0  0  0  0  0  0  0
   -3.6369   -2.5015    3.4496 H   0  0  0  0  0  0  0  0  0  0  0  0
   -2.1883   -3.5337    3.1128 H   0  0  0  0  0  0  0  0  0  0  0  0
   -3.7780   -1.8354    1.0700 H   0  0  0  0  0  0  0  0  0  0  0  0
   -2.1473   -1.4523    1.7531 H   0  0  0  0  0  0  0  0  0  0  0  0
  1  2  1  0  0  0  0
  1  5  1  0  0  0  0
  1 18  1  0  0  0  0
  2  3  2  0  0  0  0
  3  4  1  0  0  0  0
  4  5  2  0  0  0  0
  4  9  1  0  0  0  0
  5  6  1  0  0  0  0
  6  7  2  0  0  0  0
  6 26  1  0  0  0  0
  7  8  1  0  0  0  0
  7 27  1  0  0  0  0
  8  9  2  0  0  0  0
  8 10  1  0  0  0  0
  9 28  1  0  0  0  0
 10 11  1  0  0  0  0
 10 15  2  0  0  0  0
 11 12  1  0  0  0  0
 11 17  1  0  0  0  0
 11 29  1  0  0  0  0
 12 13  1  0  0  0  0
 12 30  1  0  0  0  0
 12 31  1  0  0  0  0
 13 14  1  0  0  0  0
 13 16  2  0  0  0  0
 14 15  1  0  0  0  0
 14 32  1  0  0  0  0
 17 33  1  0  0  0  0
 17 34  1  0  0  0  0
 17 35  1  0  0  0  0
 18 19  2  0  0  0  0
 18 20  1  0  0  0  0
 20 21  1  0  0  0  0
 20 25  1  0  0  0  0
 20 36  1  0  0  0  0
 21 22  1  0  0  0  0
 21 37  1  0  0  0  0
 21 38  1  0  0  0  0
 22 23  1  0  0  0  0
 22 39  1  0  0  0  0
 22 40  1  0  0  0  0
 23 24  1  0  0  0  0
 23 41  1  0  0  0  0
 23 42  1  0  0  0  0
 24 25  1  0  0  0  0
 24 43  1  0  0  0  0
 24 44  1  0  0  0  0
 25 45  1  0  0  0  0
 25 46  1  0  0  0  0
M  END
