./088671-89-0.hin
 OpenBabel10051109203D

 37 38  0  0  0  0  0  0  0  0999 V2000
   -0.7869   -0.6547   -0.0363 C   0  0  0  0  0  0  0  0  0  0  0  0
    0.4450    0.2242   -0.0868 C   0  0  0  0  0  0  0  0  0  0  0  0
    1.1863    0.0404    1.2725 C   0  0  0  0  0  0  0  0  0  0  0  0
    2.0354    1.1267    1.7022 N   0  0  0  0  0  0  0  0  0  0  0  0
    3.4489    1.0937    1.7638 C   0  0  0  0  0  0  0  0  0  0  0  0
    3.9010    2.2688    2.2429 N   0  0  0  0  0  0  0  0  0  0  0  0
    2.7230    3.0095    2.4644 C   0  0  0  0  0  0  0  0  0  0  0  0
    1.5937    2.3219    2.1397 N   0  0  0  0  0  0  0  0  0  0  0  0
    1.3034   -0.2522   -1.2719 C   0  0  0  0  0  0  0  0  0  0  0  0
    2.5143    0.6040   -1.5649 C   0  0  0  0  0  0  0  0  0  0  0  0
    3.2051    0.1379   -2.8311 C   0  0  0  0  0  0  0  0  0  0  0  0
    4.4262    0.9698   -3.1267 C   0  0  0  0  0  0  0  0  0  0  0  0
    0.0853    1.6239   -0.2763 C   0  0  0  0  0  0  0  0  0  0  0  0
   -0.1726    2.7480   -0.4196 N   0  0  0  0  0  0  0  0  0  0  0  0
   -2.0622   -0.1596   -0.3255 C   0  0  0  0  0  0  0  0  0  0  0  0
   -3.1754   -0.9991   -0.2830 C   0  0  0  0  0  0  0  0  0  0  0  0
   -3.0164   -2.3464    0.0503 C   0  0  0  0  0  0  0  0  0  0  0  0
   -4.3686   -3.3721    0.1042 Cl  0  0  0  0  0  0  0  0  0  0  0  0
   -1.7457   -2.8552    0.3397 C   0  0  0  0  0  0  0  0  0  0  0  0
   -0.6412   -2.0098    0.2940 C   0  0  0  0  0  0  0  0  0  0  0  0
    1.8375   -0.8758    1.1937 H   0  0  0  0  0  0  0  0  0  0  0  0
    0.4057   -0.1326    2.0705 H   0  0  0  0  0  0  0  0  0  0  0  0
    4.0479    0.2267    1.4695 H   0  0  0  0  0  0  0  0  0  0  0  0
    2.7283    4.0320    2.8560 H   0  0  0  0  0  0  0  0  0  0  0  0
    1.6291   -1.3068   -1.0673 H   0  0  0  0  0  0  0  0  0  0  0  0
    0.6464   -0.2783   -2.1832 H   0  0  0  0  0  0  0  0  0  0  0  0
    2.2110    1.6780   -1.6814 H   0  0  0  0  0  0  0  0  0  0  0  0
    3.2396    0.5538   -0.7105 H   0  0  0  0  0  0  0  0  0  0  0  0
    3.4986   -0.9398   -2.7235 H   0  0  0  0  0  0  0  0  0  0  0  0
    2.4890    0.2009   -3.6928 H   0  0  0  0  0  0  0  0  0  0  0  0
    4.9181    0.6148   -4.0643 H   0  0  0  0  0  0  0  0  0  0  0  0
    4.1489    2.0439   -3.2580 H   0  0  0  0  0  0  0  0  0  0  0  0
    5.1648    0.8994   -2.2919 H   0  0  0  0  0  0  0  0  0  0  0  0
   -2.2124    0.8986   -0.5916 H   0  0  0  0  0  0  0  0  0  0  0  0
   -4.1740   -0.5955   -0.5118 H   0  0  0  0  0  0  0  0  0  0  0  0
   -1.6174   -3.9166    0.6016 H   0  0  0  0  0  0  0  0  0  0  0  0
    0.3556   -2.4195    0.5182 H   0  0  0  0  0  0  0  0  0  0  0  0
  1  2  1  0  0  0  0
  1 15  2  0  0  0  0
  1 20  1  0  0  0  0
  2  3  1  0  0  0  0
  2  9  1  0  0  0  0
  2 13  1  0  0  0  0
  3  4  1  0  0  0  0
  3 21  1  0  0  0  0
  3 22  1  0  0  0  0
  4  5  1  0  0  0  0
  4  8  1  0  0  0  0
  5  6  2  0  0  0  0
  5 23  1  0  0  0  0
  6  7  1  0  0  0  0
  7  8  2  0  0  0  0
  7 24  1  0  0  0  0
  9 10  1  0  0  0  0
  9 25  1  0  0  0  0
  9 26  1  0  0  0  0
 10 11  1  0  0  0  0
 10 27  1  0  0  0  0
 10 28  1  0  0  0  0
 11 12  1  0  0  0  0
 11 29  1  0  0  0  0
 11 30  1  0  0  0  0
 12 31  1  0  0  0  0
 12 32  1  0  0  0  0
 12 33  1  0  0  0  0
 13 14  3  0  0  0  0
 15 16  1  0  0  0  0
 15 34  1  0  0  0  0
 16 17  2  0  0  0  0
 16 35  1  0  0  0  0
 17 18  1  0  0  0  0
 17 19  1  0  0  0  0
 19 20  2  0  0  0  0
 19 36  1  0  0  0  0
 20 37  1  0  0  0  0
M  END
