./089482-17-7.hin
 OpenBabel10051109203D

 38 39  0  0  0  0  0  0  0  0999 V2000
   -1.7109   -0.8751    0.8410 C   0  0  0  0  0  0  0  0  0  0  0  0
   -2.8717   -1.5989    1.1138 C   0  0  0  0  0  0  0  0  0  0  0  0
   -2.8672   -2.9921    1.0174 C   0  0  0  0  0  0  0  0  0  0  0  0
   -4.2849   -3.8670    1.3539 Cl  0  0  0  0  0  0  0  0  0  0  0  0
   -1.7038   -3.6758    0.6431 C   0  0  0  0  0  0  0  0  0  0  0  0
   -0.5432   -2.9648    0.3652 C   0  0  0  0  0  0  0  0  0  0  0  0
   -0.5504   -1.5605    0.4694 C   0  0  0  0  0  0  0  0  0  0  0  0
    0.6795   -0.9744    0.2159 O   0  0  0  0  0  0  0  0  0  0  0  0
    0.7371    0.4515    0.0444 C   0  0  0  0  0  0  0  0  0  0  0  0
    0.2029    0.8097   -1.2631 N   0  0  0  0  0  0  0  0  0  0  0  0
   -0.9524    1.4808   -1.4518 N   0  0  0  0  0  0  0  0  0  0  0  0
   -1.1183    1.5109   -2.8011 C   0  0  0  0  0  0  0  0  0  0  0  0
   -0.0872    0.8474   -3.4985 N   0  0  0  0  0  0  0  0  0  0  0  0
    0.7233    0.4082   -2.5171 C   0  0  0  0  0  0  0  0  0  0  0  0
    2.2631    0.7590    0.2209 C   0  0  0  0  0  0  0  0  0  0  0  0
    2.7188    0.0245    1.3445 O   0  0  0  0  0  0  0  0  0  0  0  0
    2.5828    2.2426    0.5046 C   0  0  0  0  0  0  0  0  0  0  0  0
    4.0951    2.3465    0.6944 C   0  0  0  0  0  0  0  0  0  0  0  0
    2.1779    3.1199   -0.6685 C   0  0  0  0  0  0  0  0  0  0  0  0
    1.8930    2.7197    1.7728 C   0  0  0  0  0  0  0  0  0  0  0  0
    2.8160    0.4288   -0.7029 H   0  0  0  0  0  0  0  0  0  0  0  0
   -1.7382    0.2215    0.9117 H   0  0  0  0  0  0  0  0  0  0  0  0
   -3.7891   -1.0636    1.4040 H   0  0  0  0  0  0  0  0  0  0  0  0
   -1.7052   -4.7740    0.5651 H   0  0  0  0  0  0  0  0  0  0  0  0
    0.3796   -3.4835    0.0690 H   0  0  0  0  0  0  0  0  0  0  0  0
    0.1504    0.9715    0.8563 H   0  0  0  0  0  0  0  0  0  0  0  0
   -1.9592    1.9959   -3.3076 H   0  0  0  0  0  0  0  0  0  0  0  0
    1.6456   -0.1705   -2.6283 H   0  0  0  0  0  0  0  0  0  0  0  0
    2.6409   -0.9152    1.1319 H   0  0  0  0  0  0  0  0  0  0  0  0
    4.3796    3.4002    0.9281 H   0  0  0  0  0  0  0  0  0  0  0  0
    4.4216    1.6891    1.5361 H   0  0  0  0  0  0  0  0  0  0  0  0
    4.6240    2.0312   -0.2362 H   0  0  0  0  0  0  0  0  0  0  0  0
    2.6956    4.1077   -0.5932 H   0  0  0  0  0  0  0  0  0  0  0  0
    2.4660    2.6456   -1.6372 H   0  0  0  0  0  0  0  0  0  0  0  0
    1.0785    3.3107   -0.6684 H   0  0  0  0  0  0  0  0  0  0  0  0
    2.2901    3.7220    2.0646 H   0  0  0  0  0  0  0  0  0  0  0  0
    0.7914    2.8151    1.6197 H   0  0  0  0  0  0  0  0  0  0  0  0
    2.0835    2.0002    2.6058 H   0  0  0  0  0  0  0  0  0  0  0  0
  1  2  2  0  0  0  0
  1  7  1  0  0  0  0
  1 22  1  0  0  0  0
  2  3  1  0  0  0  0
  2 23  1  0  0  0  0
  3  4  1  0  0  0  0
  3  5  2  0  0  0  0
  5  6  1  0  0  0  0
  5 24  1  0  0  0  0
  6  7  2  0  0  0  0
  6 25  1  0  0  0  0
  7  8  1  0  0  0  0
  8  9  1  0  0  0  0
  9 10  1  0  0  0  0
  9 15  1  0  0  0  0
  9 26  1  0  0  0  0
 10 11  1  0  0  0  0
 10 14  1  0  0  0  0
 11 12  2  0  0  0  0
 12 13  1  0  0  0  0
 12 27  1  0  0  0  0
 13 14  2  0  0  0  0
 14 28  1  0  0  0  0
 15 16  1  0  0  0  0
 15 17  1  0  0  0  0
 15 21  1  0  0  0  0
 16 29  1  0  0  0  0
 17 18  1  0  0  0  0
 17 19  1  0  0  0  0
 17 20  1  0  0  0  0
 18 30  1  0  0  0  0
 18 31  1  0  0  0  0
 18 32  1  0  0  0  0
 19 33  1  0  0  0  0
 19 34  1  0  0  0  0
 19 35  1  0  0  0  0
 20 36  1  0  0  0  0
 20 37  1  0  0  0  0
 20 38  1  0  0  0  0
M  END
