./094667-47-7.hin
 OpenBabel10051109203D

 18 19  0  0  0  0  0  0  0  0999 V2000
    0.5310   -0.7437   -0.0933 N   0  0  0  0  0  0  0  0  0  0  0  0
    1.8623   -1.1039   -0.0789 N   0  0  0  0  0  0  0  0  0  0  0  0
    2.6372   -0.1253   -0.0459 N   0  0  0  0  0  0  0  0  0  0  0  0
    1.8661    1.0879   -0.0265 C   0  0  0  0  0  0  0  0  0  0  0  0
    0.4780    0.6772   -0.0504 C   0  0  0  0  0  0  0  0  0  0  0  0
    2.2048    2.4374    0.0089 C   0  0  0  0  0  0  0  0  0  0  0  0
    1.1578    3.3581    0.0231 C   0  0  0  0  0  0  0  0  0  0  0  0
   -0.1845    2.9541    0.0040 C   0  0  0  0  0  0  0  0  0  0  0  0
   -0.5559    1.6100   -0.0325 C   0  0  0  0  0  0  0  0  0  0  0  0
   -0.7145   -1.8500   -0.1053 S   0  0  0  0  0  0  0  0  0  0  0  0
   -0.5054   -2.8512   -1.0274 O   0  0  0  0  0  0  0  0  0  0  0  0
   -1.9216   -1.1903   -0.0020 O   0  0  0  0  0  0  0  0  0  0  0  0
   -0.5292   -2.6432    1.3258 O   0  0  0  0  0  0  0  0  0  0  0  0
    3.2557    2.7605    0.0254 H   0  0  0  0  0  0  0  0  0  0  0  0
    1.3913    4.4340    0.0514 H   0  0  0  0  0  0  0  0  0  0  0  0
   -0.9750    3.7216    0.0196 H   0  0  0  0  0  0  0  0  0  0  0  0
   -1.6128    1.2998   -0.0404 H   0  0  0  0  0  0  0  0  0  0  0  0
   -0.0103   -3.4470    1.3431 H   0  0  0  0  0  0  0  0  0  0  0  0
  1  2  1  0  0  0  0
  1  5  1  0  0  0  0
  1 10  1  0  0  0  0
  2  3  2  0  0  0  0
  3  4  1  0  0  0  0
  4  5  2  0  0  0  0
  4  6  1  0  0  0  0
  5  9  1  0  0  0  0
  6  7  2  0  0  0  0
  6 14  1  0  0  0  0
  7  8  1  0  0  0  0
  7 15  1  0  0  0  0
  8  9  2  0  0  0  0
  8 16  1  0  0  0  0
  9 17  1  0  0  0  0
 10 11  2  0  0  0  0
 10 12  2  0  0  0  0
 10 13  1  0  0  0  0
 13 18  1  0  0  0  0
M  END
