./097232-75-2.hin
 OpenBabel10051109203D

 39 41  0  0  0  0  0  0  0  0999 V2000
    0.9029   -2.0648    2.1579 C   0  0  0  0  0  0  0  0  0  0  0  0
    2.0834   -2.1616    2.8907 C   0  0  0  0  0  0  0  0  0  0  0  0
    2.0867   -2.8528    4.1072 C   0  0  0  0  0  0  0  0  0  0  0  0
    0.9157   -3.4460    4.5913 C   0  0  0  0  0  0  0  0  0  0  0  0
   -0.2597   -3.3449    3.8523 C   0  0  0  0  0  0  0  0  0  0  0  0
   -0.2753   -2.6544    2.6312 C   0  0  0  0  0  0  0  0  0  0  0  0
   -1.5431   -2.5722    1.8787 C   0  0  0  0  0  0  0  0  0  0  0  0
   -2.5843   -3.1034    2.2774 O   0  0  0  0  0  0  0  0  0  0  0  0
   -1.5198   -1.8099    0.5966 C   0  0  0  0  0  0  0  0  0  0  0  0
   -1.2288   -2.4552   -0.6144 C   0  0  0  0  0  0  0  0  0  0  0  0
   -1.2364   -1.7495   -1.8220 C   0  0  0  0  0  0  0  0  0  0  0  0
   -1.5495   -0.3890   -1.8274 C   0  0  0  0  0  0  0  0  0  0  0  0
   -1.8403    0.2691   -0.6306 C   0  0  0  0  0  0  0  0  0  0  0  0
   -1.8270   -0.4410    0.5737 C   0  0  0  0  0  0  0  0  0  0  0  0
   -2.1925    0.3812    2.0126 Cl  0  0  0  0  0  0  0  0  0  0  0  0
   -1.5997    0.3571   -3.1311 C   0  0  0  0  0  0  0  0  0  0  0  0
   -0.4643    1.2225   -3.3705 N   0  0  0  0  0  0  0  0  0  0  0  0
   -0.3649    2.5932   -3.0128 C   0  0  0  0  0  0  0  0  0  0  0  0
    1.0073    2.9057   -3.2822 C   0  0  0  0  0  0  0  0  0  0  0  0
    1.6175    1.7133   -3.7306 N   0  0  0  0  0  0  0  0  0  0  0  0
    0.7739    0.7765   -3.7571 N   0  0  0  0  0  0  0  0  0  0  0  0
    1.6172    4.2281   -3.1405 C   0  0  0  0  0  0  0  0  0  0  0  0
    0.9192    5.2176   -2.8043 O   0  0  0  0  0  0  0  0  0  0  0  0
    2.9552    4.3730   -3.3863 N   0  0  0  0  0  0  0  0  0  0  0  0
   -1.3356    3.3962   -2.4714 N   0  0  0  0  0  0  0  0  0  0  0  0
   -0.8619   -4.1121   -0.6380 Cl  0  0  0  0  0  0  0  0  0  0  0  0
    3.5241   -2.9728    5.0029 Cl  0  0  0  0  0  0  0  0  0  0  0  0
    0.9036   -1.5199    1.2001 H   0  0  0  0  0  0  0  0  0  0  0  0
    3.0061   -1.6960    2.5120 H   0  0  0  0  0  0  0  0  0  0  0  0
    0.9205   -3.9892    5.5486 H   0  0  0  0  0  0  0  0  0  0  0  0
   -1.1905   -3.8081    4.2210 H   0  0  0  0  0  0  0  0  0  0  0  0
   -0.9935   -2.2673   -2.7643 H   0  0  0  0  0  0  0  0  0  0  0  0
   -2.0760    1.3458   -0.6328 H   0  0  0  0  0  0  0  0  0  0  0  0
   -2.5314    0.9923   -3.1571 H   0  0  0  0  0  0  0  0  0  0  0  0
   -1.6550   -0.3829   -3.9838 H   0  0  0  0  0  0  0  0  0  0  0  0
    3.3668    5.2679   -3.2946 H   0  0  0  0  0  0  0  0  0  0  0  0
    3.5172    3.6065   -3.6539 H   0  0  0  0  0  0  0  0  0  0  0  0
   -1.0710    4.3650   -2.4351 H   0  0  0  0  0  0  0  0  0  0  0  0
   -2.2786    3.2102   -2.7262 H   0  0  0  0  0  0  0  0  0  0  0  0
  1  2  2  0  0  0  0
  1  6  1  0  0  0  0
  1 28  1  0  0  0  0
  2  3  1  0  0  0  0
  2 29  1  0  0  0  0
  3  4  2  0  0  0  0
  3 27  1  0  0  0  0
  4  5  1  0  0  0  0
  4 30  1  0  0  0  0
  5  6  2  0  0  0  0
  5 31  1  0  0  0  0
  6  7  1  0  0  0  0
  7  8  2  0  0  0  0
  7  9  1  0  0  0  0
  9 10  2  0  0  0  0
  9 14  1  0  0  0  0
 10 11  1  0  0  0  0
 10 26  1  0  0  0  0
 11 12  2  0  0  0  0
 11 32  1  0  0  0  0
 12 13  1  0  0  0  0
 12 16  1  0  0  0  0
 13 14  2  0  0  0  0
 13 33  1  0  0  0  0
 14 15  1  0  0  0  0
 16 17  1  0  0  0  0
 16 34  1  0  0  0  0
 16 35  1  0  0  0  0
 17 18  1  0  0  0  0
 17 21  1  0  0  0  0
 18 19  2  0  0  0  0
 18 25  1  0  0  0  0
 19 20  1  0  0  0  0
 19 22  1  0  0  0  0
 20 21  2  0  0  0  0
 22 23  2  0  0  0  0
 22 24  1  0  0  0  0
 24 36  1  0  0  0  0
 24 37  1  0  0  0  0
 25 38  1  0  0  0  0
 25 39  1  0  0  0  0
M  END
