./098518-95-7.hin
 OpenBabel10051109203D

 36 39  0  0  0  0  0  0  0  0999 V2000
   -1.6866    1.1045    0.9080 C   0  0  0  0  0  0  0  0  0  0  0  0
   -0.5583    1.8812    1.3543 N   0  0  0  0  0  0  0  0  0  0  0  0
    0.0292    1.8077    2.6390 C   0  0  0  0  0  0  0  0  0  0  0  0
    1.0633    2.6687    2.7046 N   0  0  0  0  0  0  0  0  0  0  0  0
    1.0835    3.2560    1.4235 C   0  0  0  0  0  0  0  0  0  0  0  0
    0.1090    2.7784    0.6017 N   0  0  0  0  0  0  0  0  0  0  0  0
   -1.4092   -0.4295    0.8183 C   0  0  0  0  0  0  0  0  0  0  0  0
   -2.6609   -0.9882    0.4504 O   0  0  0  0  0  0  0  0  0  0  0  0
   -2.6779   -2.4159    0.4232 C   0  0  0  0  0  0  0  0  0  0  0  0
   -2.2940   -2.9828    1.7782 C   0  0  0  0  0  0  0  0  0  0  0  0
   -1.0294   -2.3007    2.2669 C   0  0  0  0  0  0  0  0  0  0  0  0
   -1.1258   -0.8816    2.1340 O   0  0  0  0  0  0  0  0  0  0  0  0
   -0.3132   -0.7474   -0.1443 C   0  0  0  0  0  0  0  0  0  0  0  0
    1.0453   -0.9067   -0.0006 C   0  0  0  0  0  0  0  0  0  0  0  0
    1.5809   -1.1495   -1.3274 C   0  0  0  0  0  0  0  0  0  0  0  0
    0.4560   -1.1169   -2.2092 C   0  0  0  0  0  0  0  0  0  0  0  0
   -0.7171   -0.8742   -1.4922 O   0  0  0  0  0  0  0  0  0  0  0  0
    0.5624   -1.3052   -3.5837 C   0  0  0  0  0  0  0  0  0  0  0  0
    1.8450   -1.5333   -4.0777 C   0  0  0  0  0  0  0  0  0  0  0  0
    2.9645   -1.5701   -3.2314 C   0  0  0  0  0  0  0  0  0  0  0  0
    2.8487   -1.3795   -1.8568 C   0  0  0  0  0  0  0  0  0  0  0  0
   -2.0159    1.4360   -0.1171 H   0  0  0  0  0  0  0  0  0  0  0  0
   -2.5282    1.2470    1.6435 H   0  0  0  0  0  0  0  0  0  0  0  0
   -0.3341    1.1238    3.4147 H   0  0  0  0  0  0  0  0  0  0  0  0
    1.8122    4.0187    1.1324 H   0  0  0  0  0  0  0  0  0  0  0  0
   -1.9832   -2.7782   -0.3806 H   0  0  0  0  0  0  0  0  0  0  0  0
   -3.7396   -2.6601    0.1545 H   0  0  0  0  0  0  0  0  0  0  0  0
   -2.1294   -4.0862    1.7011 H   0  0  0  0  0  0  0  0  0  0  0  0
   -3.1239   -2.8011    2.5087 H   0  0  0  0  0  0  0  0  0  0  0  0
   -0.1320   -2.6622    1.6971 H   0  0  0  0  0  0  0  0  0  0  0  0
   -0.8739   -2.4521    3.3677 H   0  0  0  0  0  0  0  0  0  0  0  0
    1.6229   -0.8546    0.9196 H   0  0  0  0  0  0  0  0  0  0  0  0
   -0.3182   -1.2703   -4.2372 H   0  0  0  0  0  0  0  0  0  0  0  0
    1.9846   -1.6860   -5.1587 H   0  0  0  0  0  0  0  0  0  0  0  0
    3.9575   -1.7516   -3.6695 H   0  0  0  0  0  0  0  0  0  0  0  0
    3.7328   -1.4058   -1.2047 H   0  0  0  0  0  0  0  0  0  0  0  0
  1  2  1  0  0  0  0
  1  7  1  0  0  0  0
  1 22  1  0  0  0  0
  1 23  1  0  0  0  0
  2  3  1  0  0  0  0
  2  6  1  0  0  0  0
  3  4  2  0  0  0  0
  3 24  1  0  0  0  0
  4  5  1  0  0  0  0
  5  6  2  0  0  0  0
  5 25  1  0  0  0  0
  7  8  1  0  0  0  0
  7 12  1  0  0  0  0
  7 13  1  0  0  0  0
  8  9  1  0  0  0  0
  9 10  1  0  0  0  0
  9 26  1  0  0  0  0
  9 27  1  0  0  0  0
 10 11  1  0  0  0  0
 10 28  1  0  0  0  0
 10 29  1  0  0  0  0
 11 12  1  0  0  0  0
 11 30  1  0  0  0  0
 11 31  1  0  0  0  0
 13 14  2  0  0  0  0
 13 17  1  0  0  0  0
 14 15  1  0  0  0  0
 14 32  1  0  0  0  0
 15 16  2  0  0  0  0
 15 21  1  0  0  0  0
 16 17  1  0  0  0  0
 16 18  1  0  0  0  0
 18 19  2  0  0  0  0
 18 33  1  0  0  0  0
 19 20  1  0  0  0  0
 19 34  1  0  0  0  0
 20 21  2  0  0  0  0
 20 35  1  0  0  0  0
 21 36  1  0  0  0  0
M  END
