./098518-96-8.hin
 OpenBabel10051109203D

 35 37  0  0  0  0  0  0  0  0999 V2000
   -0.5333   -1.2599    3.1526 C   0  0  0  0  0  0  0  0  0  0  0  0
   -1.4881   -1.6473    2.1757 O   0  0  0  0  0  0  0  0  0  0  0  0
   -1.5794   -0.8328    1.0197 C   0  0  0  0  0  0  0  0  0  0  0  0
   -1.8168    0.6767    1.3302 C   0  0  0  0  0  0  0  0  0  0  0  0
   -0.6392    1.5068    1.3646 N   0  0  0  0  0  0  0  0  0  0  0  0
   -0.1086    2.2180    0.2622 C   0  0  0  0  0  0  0  0  0  0  0  0
    0.9423    2.9556    0.6704 N   0  0  0  0  0  0  0  0  0  0  0  0
    1.0290    2.6700    2.0471 C   0  0  0  0  0  0  0  0  0  0  0  0
    0.0753    1.7961    2.4708 N   0  0  0  0  0  0  0  0  0  0  0  0
   -2.8235   -1.2496    0.4729 O   0  0  0  0  0  0  0  0  0  0  0  0
   -2.9343   -2.6406    0.1960 C   0  0  0  0  0  0  0  0  0  0  0  0
   -0.4414   -1.0876    0.0820 C   0  0  0  0  0  0  0  0  0  0  0  0
    0.6581   -1.9114    0.1326 C   0  0  0  0  0  0  0  0  0  0  0  0
    1.3759   -1.7336   -1.1164 C   0  0  0  0  0  0  0  0  0  0  0  0
    0.6205   -0.7758   -1.8617 C   0  0  0  0  0  0  0  0  0  0  0  0
   -0.4994   -0.3674   -1.1333 O   0  0  0  0  0  0  0  0  0  0  0  0
    0.9868   -0.3407   -3.1313 C   0  0  0  0  0  0  0  0  0  0  0  0
    2.1533   -0.8907   -3.6594 C   0  0  0  0  0  0  0  0  0  0  0  0
    2.9121   -1.8315   -2.9459 C   0  0  0  0  0  0  0  0  0  0  0  0
    2.5370   -2.2618   -1.6755 C   0  0  0  0  0  0  0  0  0  0  0  0
    0.4541   -1.0282    2.6850 H   0  0  0  0  0  0  0  0  0  0  0  0
   -0.4534   -2.1581    3.8172 H   0  0  0  0  0  0  0  0  0  0  0  0
   -0.9128   -0.3829    3.7314 H   0  0  0  0  0  0  0  0  0  0  0  0
   -2.3592    0.7312    2.3167 H   0  0  0  0  0  0  0  0  0  0  0  0
   -2.4890    1.0738    0.5152 H   0  0  0  0  0  0  0  0  0  0  0  0
   -0.5096    2.1252   -0.7535 H   0  0  0  0  0  0  0  0  0  0  0  0
    1.7895    3.1127    2.6979 H   0  0  0  0  0  0  0  0  0  0  0  0
   -2.9475   -3.2262    1.1466 H   0  0  0  0  0  0  0  0  0  0  0  0
   -2.0941   -2.9781   -0.4583 H   0  0  0  0  0  0  0  0  0  0  0  0
   -3.9149   -2.7233   -0.3372 H   0  0  0  0  0  0  0  0  0  0  0  0
    0.9444   -2.5773    0.9436 H   0  0  0  0  0  0  0  0  0  0  0  0
    0.3878    0.3951   -3.6820 H   0  0  0  0  0  0  0  0  0  0  0  0
    2.4882   -0.5787   -4.6605 H   0  0  0  0  0  0  0  0  0  0  0  0
    3.8268   -2.2363   -3.4048 H   0  0  0  0  0  0  0  0  0  0  0  0
    3.1398   -2.9984   -1.1265 H   0  0  0  0  0  0  0  0  0  0  0  0
  1  2  1  0  0  0  0
  1 21  1  0  0  0  0
  1 22  1  0  0  0  0
  1 23  1  0  0  0  0
  2  3  1  0  0  0  0
  3  4  1  0  0  0  0
  3 10  1  0  0  0  0
  3 12  1  0  0  0  0
  4  5  1  0  0  0  0
  4 24  1  0  0  0  0
  4 25  1  0  0  0  0
  5  6  1  0  0  0  0
  5  9  1  0  0  0  0
  6  7  2  0  0  0  0
  6 26  1  0  0  0  0
  7  8  1  0  0  0  0
  8  9  2  0  0  0  0
  8 27  1  0  0  0  0
 10 11  1  0  0  0  0
 11 28  1  0  0  0  0
 11 29  1  0  0  0  0
 11 30  1  0  0  0  0
 12 13  2  0  0  0  0
 12 16  1  0  0  0  0
 13 14  1  0  0  0  0
 13 31  1  0  0  0  0
 14 15  2  0  0  0  0
 14 20  1  0  0  0  0
 15 16  1  0  0  0  0
 15 17  1  0  0  0  0
 17 18  2  0  0  0  0
 17 32  1  0  0  0  0
 18 19  1  0  0  0  0
 18 33  1  0  0  0  0
 19 20  2  0  0  0  0
 19 34  1  0  0  0  0
 20 35  1  0  0  0  0
M  END
