./098519-00-7.hin
 OpenBabel10051109203D

 36 39  0  0  0  0  0  0  0  0999 V2000
   -1.0525   -4.6356   -3.4842 Cl  0  0  0  0  0  0  0  0  0  0  0  0
   -0.3819   -3.4103   -2.5136 C   0  0  0  0  0  0  0  0  0  0  0  0
   -1.1918   -2.3489   -2.1026 C   0  0  0  0  0  0  0  0  0  0  0  0
   -0.6134   -1.3631   -1.3101 C   0  0  0  0  0  0  0  0  0  0  0  0
    0.7669   -1.4636   -0.9473 C   0  0  0  0  0  0  0  0  0  0  0  0
    1.1418   -0.3777   -0.1559 O   0  0  0  0  0  0  0  0  0  0  0  0
   -0.0254    0.4075   -0.0246 C   0  0  0  0  0  0  0  0  0  0  0  0
   -1.0920   -0.1368   -0.6964 C   0  0  0  0  0  0  0  0  0  0  0  0
    0.1359    1.6661    0.7938 C   0  0  0  0  0  0  0  0  0  0  0  0
    0.6531    1.2322    2.2011 C   0  0  0  0  0  0  0  0  0  0  0  0
    1.3422    2.2282    2.9820 N   0  0  0  0  0  0  0  0  0  0  0  0
    2.7049    2.5794    2.8315 C   0  0  0  0  0  0  0  0  0  0  0  0
    3.0419    3.4747    3.7810 N   0  0  0  0  0  0  0  0  0  0  0  0
    1.8487    3.6464    4.5092 C   0  0  0  0  0  0  0  0  0  0  0  0
    0.8198    2.8932    4.0313 N   0  0  0  0  0  0  0  0  0  0  0  0
   -1.1658    2.2235    0.8602 O   0  0  0  0  0  0  0  0  0  0  0  0
   -1.2648    3.6075    1.1824 C   0  0  0  0  0  0  0  0  0  0  0  0
   -0.4206    4.4407    0.2421 C   0  0  0  0  0  0  0  0  0  0  0  0
    0.9895    3.8922    0.2472 C   0  0  0  0  0  0  0  0  0  0  0  0
    1.0342    2.4798    0.0640 O   0  0  0  0  0  0  0  0  0  0  0  0
    1.5721   -2.5252   -1.3586 C   0  0  0  0  0  0  0  0  0  0  0  0
    3.2021   -2.6407   -0.9254 Cl  0  0  0  0  0  0  0  0  0  0  0  0
    0.9737   -3.5061   -2.1543 C   0  0  0  0  0  0  0  0  0  0  0  0
   -2.2506   -2.2908   -2.3943 H   0  0  0  0  0  0  0  0  0  0  0  0
   -2.1015    0.2644   -0.7583 H   0  0  0  0  0  0  0  0  0  0  0  0
    1.3784    0.3812    2.0438 H   0  0  0  0  0  0  0  0  0  0  0  0
   -0.2456    0.8561    2.7701 H   0  0  0  0  0  0  0  0  0  0  0  0
    3.3427    2.1688    2.0409 H   0  0  0  0  0  0  0  0  0  0  0  0
    1.7710    4.3158    5.3719 H   0  0  0  0  0  0  0  0  0  0  0  0
   -0.9735    3.7717    2.2514 H   0  0  0  0  0  0  0  0  0  0  0  0
   -2.3615    3.8174    1.0530 H   0  0  0  0  0  0  0  0  0  0  0  0
   -0.4174    5.5104    0.5692 H   0  0  0  0  0  0  0  0  0  0  0  0
   -0.8453    4.3908   -0.7937 H   0  0  0  0  0  0  0  0  0  0  0  0
    1.5219    4.1643    1.1963 H   0  0  0  0  0  0  0  0  0  0  0  0
    1.5808    4.2718   -0.6316 H   0  0  0  0  0  0  0  0  0  0  0  0
    1.5724   -4.3631   -2.5037 H   0  0  0  0  0  0  0  0  0  0  0  0
  1  2  1  0  0  0  0
  2  3  2  0  0  0  0
  2 23  1  0  0  0  0
  3  4  1  0  0  0  0
  3 24  1  0  0  0  0
  4  5  2  0  0  0  0
  4  8  1  0  0  0  0
  5  6  1  0  0  0  0
  5 21  1  0  0  0  0
  6  7  1  0  0  0  0
  7  8  2  0  0  0  0
  7  9  1  0  0  0  0
  8 25  1  0  0  0  0
  9 10  1  0  0  0  0
  9 16  1  0  0  0  0
  9 20  1  0  0  0  0
 10 11  1  0  0  0  0
 10 26  1  0  0  0  0
 10 27  1  0  0  0  0
 11 12  1  0  0  0  0
 11 15  1  0  0  0  0
 12 13  2  0  0  0  0
 12 28  1  0  0  0  0
 13 14  1  0  0  0  0
 14 15  2  0  0  0  0
 14 29  1  0  0  0  0
 16 17  1  0  0  0  0
 17 18  1  0  0  0  0
 17 30  1  0  0  0  0
 17 31  1  0  0  0  0
 18 19  1  0  0  0  0
 18 32  1  0  0  0  0
 18 33  1  0  0  0  0
 19 20  1  0  0  0  0
 19 34  1  0  0  0  0
 19 35  1  0  0  0  0
 21 22  1  0  0  0  0
 21 23  2  0  0  0  0
 23 36  1  0  0  0  0
M  END
