./098519-01-8.hin
 OpenBabel10051109203D

 39 42  0  0  0  0  0  0  0  0999 V2000
   -2.8920   -1.5512   -1.9762 C   0  0  0  0  0  0  0  0  0  0  0  0
   -3.2298   -0.8855   -0.6628 C   0  0  0  0  0  0  0  0  0  0  0  0
   -3.0505    0.6426   -0.6877 C   0  0  0  0  0  0  0  0  0  0  0  0
   -2.1050    0.9191    0.3653 O   0  0  0  0  0  0  0  0  0  0  0  0
   -1.4892   -0.2829    0.8038 C   0  0  0  0  0  0  0  0  0  0  0  0
   -2.3280   -1.3468    0.3638 O   0  0  0  0  0  0  0  0  0  0  0  0
   -1.3729   -0.2883    2.3528 C   0  0  0  0  0  0  0  0  0  0  0  0
   -2.6315   -0.2648    3.0542 N   0  0  0  0  0  0  0  0  0  0  0  0
   -3.5834   -1.3114    3.0596 C   0  0  0  0  0  0  0  0  0  0  0  0
   -4.6536   -0.9354    3.7866 N   0  0  0  0  0  0  0  0  0  0  0  0
   -4.3216    0.3675    4.2092 C   0  0  0  0  0  0  0  0  0  0  0  0
   -3.1036    0.7799    3.7617 N   0  0  0  0  0  0  0  0  0  0  0  0
   -0.1148   -0.4335    0.2227 C   0  0  0  0  0  0  0  0  0  0  0  0
    0.4610   -1.3740   -0.5976 C   0  0  0  0  0  0  0  0  0  0  0  0
    1.8394   -0.9649   -0.7976 C   0  0  0  0  0  0  0  0  0  0  0  0
    2.9184   -1.4807   -1.5083 C   0  0  0  0  0  0  0  0  0  0  0  0
    4.1244   -0.7784   -1.4573 C   0  0  0  0  0  0  0  0  0  0  0  0
    4.2731    0.4107   -0.7218 C   0  0  0  0  0  0  0  0  0  0  0  0
    3.2010    0.9435   -0.0011 C   0  0  0  0  0  0  0  0  0  0  0  0
    1.9947    0.2445   -0.0498 C   0  0  0  0  0  0  0  0  0  0  0  0
    0.7986    0.5802    0.5837 O   0  0  0  0  0  0  0  0  0  0  0  0
    3.3790    2.3719    0.8836 Cl  0  0  0  0  0  0  0  0  0  0  0  0
    5.4672   -1.3760   -2.3132 Cl  0  0  0  0  0  0  0  0  0  0  0  0
   -4.3190    1.4103   -0.4001 C   0  0  0  0  0  0  0  0  0  0  0  0
   -1.8427   -1.3161   -2.2789 H   0  0  0  0  0  0  0  0  0  0  0  0
   -2.9909   -2.6590   -1.8787 H   0  0  0  0  0  0  0  0  0  0  0  0
   -3.5911   -1.1908   -2.7679 H   0  0  0  0  0  0  0  0  0  0  0  0
   -4.2551   -1.1821   -0.3104 H   0  0  0  0  0  0  0  0  0  0  0  0
   -2.5802    0.9856   -1.6491 H   0  0  0  0  0  0  0  0  0  0  0  0
   -0.8317   -1.2329    2.6431 H   0  0  0  0  0  0  0  0  0  0  0  0
   -0.7526    0.6116    2.6340 H   0  0  0  0  0  0  0  0  0  0  0  0
   -3.4277   -2.2551    2.5259 H   0  0  0  0  0  0  0  0  0  0  0  0
   -4.9821    0.9733    4.8371 H   0  0  0  0  0  0  0  0  0  0  0  0
   -0.0121   -2.2593   -1.0172 H   0  0  0  0  0  0  0  0  0  0  0  0
    2.8213   -2.4096   -2.0888 H   0  0  0  0  0  0  0  0  0  0  0  0
    5.2458    0.9293   -0.7131 H   0  0  0  0  0  0  0  0  0  0  0  0
   -4.7821    1.0686    0.5564 H   0  0  0  0  0  0  0  0  0  0  0  0
   -4.0889    2.4994   -0.3091 H   0  0  0  0  0  0  0  0  0  0  0  0
   -5.0427    1.2560   -1.2354 H   0  0  0  0  0  0  0  0  0  0  0  0
  1  2  1  0  0  0  0
  1 25  1  0  0  0  0
  1 26  1  0  0  0  0
  1 27  1  0  0  0  0
  2  3  1  0  0  0  0
  2  6  1  0  0  0  0
  2 28  1  0  0  0  0
  3  4  1  0  0  0  0
  3 24  1  0  0  0  0
  3 29  1  0  0  0  0
  4  5  1  0  0  0  0
  5  6  1  0  0  0  0
  5  7  1  0  0  0  0
  5 13  1  0  0  0  0
  7  8  1  0  0  0  0
  7 30  1  0  0  0  0
  7 31  1  0  0  0  0
  8  9  1  0  0  0  0
  8 12  1  0  0  0  0
  9 10  2  0  0  0  0
  9 32  1  0  0  0  0
 10 11  1  0  0  0  0
 11 12  2  0  0  0  0
 11 33  1  0  0  0  0
 13 14  2  0  0  0  0
 13 21  1  0  0  0  0
 14 15  1  0  0  0  0
 14 34  1  0  0  0  0
 15 16  2  0  0  0  0
 15 20  1  0  0  0  0
 16 17  1  0  0  0  0
 16 35  1  0  0  0  0
 17 18  2  0  0  0  0
 17 23  1  0  0  0  0
 18 19  1  0  0  0  0
 18 36  1  0  0  0  0
 19 20  2  0  0  0  0
 19 22  1  0  0  0  0
 20 21  1  0  0  0  0
 24 37  1  0  0  0  0
 24 38  1  0  0  0  0
 24 39  1  0  0  0  0
M  END
