./098519-02-9.hin
 OpenBabel10051109203D

 46 49  0  0  0  0  0  0  0  0999 V2000
   -3.3237   -0.3825   -0.4615 C   0  0  0  0  0  0  0  0  0  0  0  0
   -2.7344    0.9617   -0.0245 C   0  0  0  0  0  0  0  0  0  0  0  0
   -1.5804    0.6111    0.7666 O   0  0  0  0  0  0  0  0  0  0  0  0
   -1.2529   -0.7575    0.5715 C   0  0  0  0  0  0  0  0  0  0  0  0
   -2.4351   -1.3768    0.0724 O   0  0  0  0  0  0  0  0  0  0  0  0
   -0.8160   -1.4072    1.9109 C   0  0  0  0  0  0  0  0  0  0  0  0
   -1.8171   -1.4058    2.9468 N   0  0  0  0  0  0  0  0  0  0  0  0
   -3.0511   -2.0952    2.8997 C   0  0  0  0  0  0  0  0  0  0  0  0
   -3.7267   -1.8759    4.0446 N   0  0  0  0  0  0  0  0  0  0  0  0
   -2.8677   -1.0314    4.7760 C   0  0  0  0  0  0  0  0  0  0  0  0
   -1.7152   -0.7386    4.1135 N   0  0  0  0  0  0  0  0  0  0  0  0
   -0.1351   -0.9139   -0.4171 C   0  0  0  0  0  0  0  0  0  0  0  0
   -0.0117   -1.6206   -1.5895 C   0  0  0  0  0  0  0  0  0  0  0  0
    1.3325   -1.3789   -2.0817 C   0  0  0  0  0  0  0  0  0  0  0  0
    2.0554   -1.7969   -3.1944 C   0  0  0  0  0  0  0  0  0  0  0  0
    3.3666   -1.3351   -3.3275 C   0  0  0  0  0  0  0  0  0  0  0  0
    3.9622   -0.4773   -2.3859 C   0  0  0  0  0  0  0  0  0  0  0  0
    3.2523   -0.0475   -1.2618 C   0  0  0  0  0  0  0  0  0  0  0  0
    1.9420   -0.5070   -1.1256 C   0  0  0  0  0  0  0  0  0  0  0  0
    1.0483   -0.2155   -0.0955 O   0  0  0  0  0  0  0  0  0  0  0  0
    3.9675    0.9828   -0.1297 Cl  0  0  0  0  0  0  0  0  0  0  0  0
    4.2835   -1.8229   -4.6744 Cl  0  0  0  0  0  0  0  0  0  0  0  0
   -3.6282    1.8627    0.8230 C   0  0  0  0  0  0  0  0  0  0  0  0
   -4.6857    1.0853    1.3701 O   0  0  0  0  0  0  0  0  0  0  0  0
   -5.4040    1.7887    2.3862 C   0  0  0  0  0  0  0  0  0  0  0  0
   -6.4955    0.8514    2.8715 C   0  0  0  0  0  0  0  0  0  0  0  0
   -7.3281    1.5164    3.9355 C   0  0  0  0  0  0  0  0  0  0  0  0
   -3.3343   -0.4949   -1.5744 H   0  0  0  0  0  0  0  0  0  0  0  0
   -4.3319   -0.5984   -0.0260 H   0  0  0  0  0  0  0  0  0  0  0  0
   -2.3569    1.5499   -0.9055 H   0  0  0  0  0  0  0  0  0  0  0  0
   -0.5494   -2.4789    1.6856 H   0  0  0  0  0  0  0  0  0  0  0  0
    0.1019   -0.8486    2.2561 H   0  0  0  0  0  0  0  0  0  0  0  0
   -3.3681   -2.6803    2.0292 H   0  0  0  0  0  0  0  0  0  0  0  0
   -3.1125   -0.6587    5.7751 H   0  0  0  0  0  0  0  0  0  0  0  0
   -0.7646   -2.2455   -2.0647 H   0  0  0  0  0  0  0  0  0  0  0  0
    1.6064   -2.4680   -3.9410 H   0  0  0  0  0  0  0  0  0  0  0  0
    5.0009   -0.1395   -2.5354 H   0  0  0  0  0  0  0  0  0  0  0  0
   -3.0175    2.3311    1.6417 H   0  0  0  0  0  0  0  0  0  0  0  0
   -4.0681    2.6676    0.1741 H   0  0  0  0  0  0  0  0  0  0  0  0
   -4.7049    2.0603    3.2212 H   0  0  0  0  0  0  0  0  0  0  0  0
   -5.8396    2.7275    1.9512 H   0  0  0  0  0  0  0  0  0  0  0  0
   -7.1399    0.5540    2.0036 H   0  0  0  0  0  0  0  0  0  0  0  0
   -6.0254   -0.0849    3.2732 H   0  0  0  0  0  0  0  0  0  0  0  0
   -8.1257    0.8188    4.2882 H   0  0  0  0  0  0  0  0  0  0  0  0
   -6.6967    1.8009    4.8119 H   0  0  0  0  0  0  0  0  0  0  0  0
   -7.8163    2.4398    3.5397 H   0  0  0  0  0  0  0  0  0  0  0  0
  1  2  1  0  0  0  0
  1  5  1  0  0  0  0
  1 28  1  0  0  0  0
  1 29  1  0  0  0  0
  2  3  1  0  0  0  0
  2 23  1  0  0  0  0
  2 30  1  0  0  0  0
  3  4  1  0  0  0  0
  4  5  1  0  0  0  0
  4  6  1  0  0  0  0
  4 12  1  0  0  0  0
  6  7  1  0  0  0  0
  6 31  1  0  0  0  0
  6 32  1  0  0  0  0
  7  8  1  0  0  0  0
  7 11  1  0  0  0  0
  8  9  2  0  0  0  0
  8 33  1  0  0  0  0
  9 10  1  0  0  0  0
 10 11  2  0  0  0  0
 10 34  1  0  0  0  0
 12 13  2  0  0  0  0
 12 20  1  0  0  0  0
 13 14  1  0  0  0  0
 13 35  1  0  0  0  0
 14 15  2  0  0  0  0
 14 19  1  0  0  0  0
 15 16  1  0  0  0  0
 15 36  1  0  0  0  0
 16 17  2  0  0  0  0
 16 22  1  0  0  0  0
 17 18  1  0  0  0  0
 17 37  1  0  0  0  0
 18 19  2  0  0  0  0
 18 21  1  0  0  0  0
 19 20  1  0  0  0  0
 23 24  1  0  0  0  0
 23 38  1  0  0  0  0
 23 39  1  0  0  0  0
 24 25  1  0  0  0  0
 25 26  1  0  0  0  0
 25 40  1  0  0  0  0
 25 41  1  0  0  0  0
 26 27  1  0  0  0  0
 26 42  1  0  0  0  0
 26 43  1  0  0  0  0
 27 44  1  0  0  0  0
 27 45  1  0  0  0  0
 27 46  1  0  0  0  0
M  END
