./098519-04-1.hin
 OpenBabel10051109203D

 36 39  0  0  0  0  0  0  0  0999 V2000
   -2.8501   -0.9345   -1.1282 C   0  0  0  0  0  0  0  0  0  0  0  0
   -2.7064    0.5895   -1.0713 C   0  0  0  0  0  0  0  0  0  0  0  0
   -1.8029    0.8272    0.0285 O   0  0  0  0  0  0  0  0  0  0  0  0
   -1.1963   -0.3925    0.4428 C   0  0  0  0  0  0  0  0  0  0  0  0
   -1.9907   -1.4419   -0.0989 O   0  0  0  0  0  0  0  0  0  0  0  0
   -1.1732   -0.4714    1.9939 C   0  0  0  0  0  0  0  0  0  0  0  0
   -2.4650   -0.3580    2.6232 N   0  0  0  0  0  0  0  0  0  0  0  0
   -3.2777    0.7997    2.6202 C   0  0  0  0  0  0  0  0  0  0  0  0
   -4.4328    0.5336    3.2612 N   0  0  0  0  0  0  0  0  0  0  0  0
   -4.2949   -0.8169    3.6393 C   0  0  0  0  0  0  0  0  0  0  0  0
   -3.1105   -1.3625    3.2475 N   0  0  0  0  0  0  0  0  0  0  0  0
    0.2103   -0.4948   -0.0616 C   0  0  0  0  0  0  0  0  0  0  0  0
    0.8763   -1.4492   -0.7927 C   0  0  0  0  0  0  0  0  0  0  0  0
    2.2398   -0.9758   -0.9493 C   0  0  0  0  0  0  0  0  0  0  0  0
    2.2927    0.2819   -0.2710 C   0  0  0  0  0  0  0  0  0  0  0  0
    1.0488    0.5884    0.2822 O   0  0  0  0  0  0  0  0  0  0  0  0
    3.4455    1.0577   -0.1987 C   0  0  0  0  0  0  0  0  0  0  0  0
    4.5788    0.5500   -0.8276 C   0  0  0  0  0  0  0  0  0  0  0  0
    4.5441   -0.6873   -1.4986 C   0  0  0  0  0  0  0  0  0  0  0  0
    3.3858   -1.4642   -1.5704 C   0  0  0  0  0  0  0  0  0  0  0  0
    5.9653   -1.2509   -2.2463 Cl  0  0  0  0  0  0  0  0  0  0  0  0
   -4.0009    1.3151   -0.7899 C   0  0  0  0  0  0  0  0  0  0  0  0
   -2.5059   -1.3619   -2.1027 H   0  0  0  0  0  0  0  0  0  0  0  0
   -3.8820   -1.2899   -0.8817 H   0  0  0  0  0  0  0  0  0  0  0  0
   -2.2091    0.9927   -1.9944 H   0  0  0  0  0  0  0  0  0  0  0  0
   -0.6961   -1.4532    2.2728 H   0  0  0  0  0  0  0  0  0  0  0  0
   -0.5301    0.3837    2.3509 H   0  0  0  0  0  0  0  0  0  0  0  0
   -2.9692    1.7367    2.1427 H   0  0  0  0  0  0  0  0  0  0  0  0
   -5.0663   -1.3587    4.1950 H   0  0  0  0  0  0  0  0  0  0  0  0
    0.4725   -2.3826   -1.1787 H   0  0  0  0  0  0  0  0  0  0  0  0
    3.4573    2.0212    0.3271 H   0  0  0  0  0  0  0  0  0  0  0  0
    5.5170    1.1263   -0.7992 H   0  0  0  0  0  0  0  0  0  0  0  0
    3.3756   -2.4288   -2.0982 H   0  0  0  0  0  0  0  0  0  0  0  0
   -4.4327    0.9844    0.1866 H   0  0  0  0  0  0  0  0  0  0  0  0
   -3.8180    2.4154   -0.7391 H   0  0  0  0  0  0  0  0  0  0  0  0
   -4.7310    1.1035   -1.6067 H   0  0  0  0  0  0  0  0  0  0  0  0
  1  2  1  0  0  0  0
  1  5  1  0  0  0  0
  1 23  1  0  0  0  0
  1 24  1  0  0  0  0
  2  3  1  0  0  0  0
  2 22  1  0  0  0  0
  2 25  1  0  0  0  0
  3  4  1  0  0  0  0
  4  5  1  0  0  0  0
  4  6  1  0  0  0  0
  4 12  1  0  0  0  0
  6  7  1  0  0  0  0
  6 26  1  0  0  0  0
  6 27  1  0  0  0  0
  7  8  1  0  0  0  0
  7 11  1  0  0  0  0
  8  9  2  0  0  0  0
  8 28  1  0  0  0  0
  9 10  1  0  0  0  0
 10 11  2  0  0  0  0
 10 29  1  0  0  0  0
 12 13  2  0  0  0  0
 12 16  1  0  0  0  0
 13 14  1  0  0  0  0
 13 30  1  0  0  0  0
 14 15  2  0  0  0  0
 14 20  1  0  0  0  0
 15 16  1  0  0  0  0
 15 17  1  0  0  0  0
 17 18  2  0  0  0  0
 17 31  1  0  0  0  0
 18 19  1  0  0  0  0
 18 32  1  0  0  0  0
 19 20  2  0  0  0  0
 19 21  1  0  0  0  0
 20 33  1  0  0  0  0
 22 34  1  0  0  0  0
 22 35  1  0  0  0  0
 22 36  1  0  0  0  0
M  END
