./098519-06-3.hin
 OpenBabel10051109203D

 39 42  0  0  0  0  0  0  0  0999 V2000
   -2.7761   -0.6488   -1.1737 C   0  0  0  0  0  0  0  0  0  0  0  0
   -2.5635    0.7720   -0.6415 C   0  0  0  0  0  0  0  0  0  0  0  0
   -1.6405    0.6121    0.4562 O   0  0  0  0  0  0  0  0  0  0  0  0
   -1.0833   -0.6981    0.4464 C   0  0  0  0  0  0  0  0  0  0  0  0
   -1.9339   -1.4903   -0.3749 O   0  0  0  0  0  0  0  0  0  0  0  0
   -1.0382   -1.2654    1.8916 C   0  0  0  0  0  0  0  0  0  0  0  0
   -2.3098   -1.2936    2.5695 N   0  0  0  0  0  0  0  0  0  0  0  0
   -3.0587   -0.1563    2.9522 C   0  0  0  0  0  0  0  0  0  0  0  0
   -4.2104   -0.5554    3.5273 N   0  0  0  0  0  0  0  0  0  0  0  0
   -4.1359   -1.9613    3.4700 C   0  0  0  0  0  0  0  0  0  0  0  0
   -2.9925   -2.4118    2.8839 N   0  0  0  0  0  0  0  0  0  0  0  0
    0.3089   -0.6896   -0.1062 C   0  0  0  0  0  0  0  0  0  0  0  0
    0.9192   -1.3899   -1.1191 C   0  0  0  0  0  0  0  0  0  0  0  0
    2.2999   -0.9430   -1.1599 C   0  0  0  0  0  0  0  0  0  0  0  0
    2.4205    0.0345   -0.1233 C   0  0  0  0  0  0  0  0  0  0  0  0
    1.2011    0.1980    0.5349 O   0  0  0  0  0  0  0  0  0  0  0  0
    3.6082    0.7043    0.1542 C   0  0  0  0  0  0  0  0  0  0  0  0
    4.7070    0.3778   -0.6356 C   0  0  0  0  0  0  0  0  0  0  0  0
    4.6055   -0.5834   -1.6593 C   0  0  0  0  0  0  0  0  0  0  0  0
    3.4123   -1.2540   -1.9367 C   0  0  0  0  0  0  0  0  0  0  0  0
    5.9874   -0.9363   -2.5879 Cl  0  0  0  0  0  0  0  0  0  0  0  0
   -3.8354    1.4184   -0.1203 C   0  0  0  0  0  0  0  0  0  0  0  0
   -3.6092    2.8579    0.2617 C   0  0  0  0  0  0  0  0  0  0  0  0
   -2.4579   -0.7585   -2.2402 H   0  0  0  0  0  0  0  0  0  0  0  0
   -3.8209   -1.0232   -1.0313 H   0  0  0  0  0  0  0  0  0  0  0  0
   -2.0585    1.4303   -1.3984 H   0  0  0  0  0  0  0  0  0  0  0  0
   -0.6138   -2.3073    1.8296 H   0  0  0  0  0  0  0  0  0  0  0  0
   -0.3404   -0.6004    2.4774 H   0  0  0  0  0  0  0  0  0  0  0  0
   -2.7130    0.8681    2.7692 H   0  0  0  0  0  0  0  0  0  0  0  0
   -4.9216   -2.6132    3.8640 H   0  0  0  0  0  0  0  0  0  0  0  0
    0.4674   -2.1386   -1.7662 H   0  0  0  0  0  0  0  0  0  0  0  0
    3.6722    1.4523    0.9551 H   0  0  0  0  0  0  0  0  0  0  0  0
    5.6705    0.8803   -0.4559 H   0  0  0  0  0  0  0  0  0  0  0  0
    3.3500   -2.0025   -2.7398 H   0  0  0  0  0  0  0  0  0  0  0  0
   -4.6166    1.3499   -0.9220 H   0  0  0  0  0  0  0  0  0  0  0  0
   -4.2026    0.8429    0.7717 H   0  0  0  0  0  0  0  0  0  0  0  0
   -4.5491    3.2995    0.6721 H   0  0  0  0  0  0  0  0  0  0  0  0
   -2.8102    2.9286    1.0400 H   0  0  0  0  0  0  0  0  0  0  0  0
   -3.2913    3.4595   -0.6239 H   0  0  0  0  0  0  0  0  0  0  0  0
  1  2  1  0  0  0  0
  1  5  1  0  0  0  0
  1 24  1  0  0  0  0
  1 25  1  0  0  0  0
  2  3  1  0  0  0  0
  2 22  1  0  0  0  0
  2 26  1  0  0  0  0
  3  4  1  0  0  0  0
  4  5  1  0  0  0  0
  4  6  1  0  0  0  0
  4 12  1  0  0  0  0
  6  7  1  0  0  0  0
  6 27  1  0  0  0  0
  6 28  1  0  0  0  0
  7  8  1  0  0  0  0
  7 11  1  0  0  0  0
  8  9  2  0  0  0  0
  8 29  1  0  0  0  0
  9 10  1  0  0  0  0
 10 11  2  0  0  0  0
 10 30  1  0  0  0  0
 12 13  2  0  0  0  0
 12 16  1  0  0  0  0
 13 14  1  0  0  0  0
 13 31  1  0  0  0  0
 14 15  2  0  0  0  0
 14 20  1  0  0  0  0
 15 16  1  0  0  0  0
 15 17  1  0  0  0  0
 17 18  2  0  0  0  0
 17 32  1  0  0  0  0
 18 19  1  0  0  0  0
 18 33  1  0  0  0  0
 19 20  2  0  0  0  0
 19 21  1  0  0  0  0
 20 34  1  0  0  0  0
 22 23  1  0  0  0  0
 22 35  1  0  0  0  0
 22 36  1  0  0  0  0
 23 37  1  0  0  0  0
 23 38  1  0  0  0  0
 23 39  1  0  0  0  0
M  END
