./098519-07-4.hin
 OpenBabel10051109203D

 36 39  0  0  0  0  0  0  0  0999 V2000
   -5.4607   -2.4791    0.0565 Cl  0  0  0  0  0  0  0  0  0  0  0  0
   -3.9698   -1.6576    0.0651 C   0  0  0  0  0  0  0  0  0  0  0  0
   -2.7872   -2.3984    0.0075 C   0  0  0  0  0  0  0  0  0  0  0  0
   -1.5844   -1.6980    0.0148 C   0  0  0  0  0  0  0  0  0  0  0  0
   -1.6070   -0.2698    0.0793 C   0  0  0  0  0  0  0  0  0  0  0  0
   -0.3064    0.2387    0.0725 O   0  0  0  0  0  0  0  0  0  0  0  0
    0.5342   -0.8933    0.0100 C   0  0  0  0  0  0  0  0  0  0  0  0
   -0.1806   -2.0667   -0.0240 C   0  0  0  0  0  0  0  0  0  0  0  0
    2.0085   -0.6152    0.0110 C   0  0  0  0  0  0  0  0  0  0  0  0
    2.4248    0.2235   -1.2357 C   0  0  0  0  0  0  0  0  0  0  0  0
    2.0932    1.6242   -1.1805 N   0  0  0  0  0  0  0  0  0  0  0  0
    0.8661    2.2037   -1.5788 C   0  0  0  0  0  0  0  0  0  0  0  0
    0.9141    3.5345   -1.3742 N   0  0  0  0  0  0  0  0  0  0  0  0
    2.1987    3.7380   -0.8329 C   0  0  0  0  0  0  0  0  0  0  0  0
    2.9128    2.5863   -0.7091 N   0  0  0  0  0  0  0  0  0  0  0  0
    2.6303   -1.8972   -0.0554 O   0  0  0  0  0  0  0  0  0  0  0  0
    4.0264   -1.9428    0.2253 C   0  0  0  0  0  0  0  0  0  0  0  0
    4.3661   -1.2575    1.5334 C   0  0  0  0  0  0  0  0  0  0  0  0
    3.7029    0.1058    1.5537 C   0  0  0  0  0  0  0  0  0  0  0  0
    2.3132   -0.0092    1.2512 O   0  0  0  0  0  0  0  0  0  0  0  0
   -2.7835    0.4703    0.1396 C   0  0  0  0  0  0  0  0  0  0  0  0
   -3.9740   -0.2514    0.1312 C   0  0  0  0  0  0  0  0  0  0  0  0
   -2.8017   -3.4968   -0.0398 H   0  0  0  0  0  0  0  0  0  0  0  0
    0.2218   -3.0763   -0.0683 H   0  0  0  0  0  0  0  0  0  0  0  0
    3.5370    0.1139   -1.3793 H   0  0  0  0  0  0  0  0  0  0  0  0
    1.8990   -0.2225   -2.1266 H   0  0  0  0  0  0  0  0  0  0  0  0
    0.0263    1.6181   -1.9666 H   0  0  0  0  0  0  0  0  0  0  0  0
    2.5711    4.7262   -0.5460 H   0  0  0  0  0  0  0  0  0  0  0  0
    4.5967   -1.4861   -0.6266 H   0  0  0  0  0  0  0  0  0  0  0  0
    4.2393   -3.0455    0.2682 H   0  0  0  0  0  0  0  0  0  0  0  0
    5.4745   -1.1519    1.6369 H   0  0  0  0  0  0  0  0  0  0  0  0
    3.9891   -1.8731    2.3905 H   0  0  0  0  0  0  0  0  0  0  0  0
    4.1989    0.8049    0.8317 H   0  0  0  0  0  0  0  0  0  0  0  0
    3.7027    0.5558    2.5825 H   0  0  0  0  0  0  0  0  0  0  0  0
   -2.7702    1.5669    0.1960 H   0  0  0  0  0  0  0  0  0  0  0  0
   -4.9332    0.2877    0.1791 H   0  0  0  0  0  0  0  0  0  0  0  0
  1  2  1  0  0  0  0
  2  3  2  0  0  0  0
  2 22  1  0  0  0  0
  3  4  1  0  0  0  0
  3 23  1  0  0  0  0
  4  5  2  0  0  0  0
  4  8  1  0  0  0  0
  5  6  1  0  0  0  0
  5 21  1  0  0  0  0
  6  7  1  0  0  0  0
  7  8  2  0  0  0  0
  7  9  1  0  0  0  0
  8 24  1  0  0  0  0
  9 10  1  0  0  0  0
  9 16  1  0  0  0  0
  9 20  1  0  0  0  0
 10 11  1  0  0  0  0
 10 25  1  0  0  0  0
 10 26  1  0  0  0  0
 11 12  1  0  0  0  0
 11 15  1  0  0  0  0
 12 13  2  0  0  0  0
 12 27  1  0  0  0  0
 13 14  1  0  0  0  0
 14 15  2  0  0  0  0
 14 28  1  0  0  0  0
 16 17  1  0  0  0  0
 17 18  1  0  0  0  0
 17 29  1  0  0  0  0
 17 30  1  0  0  0  0
 18 19  1  0  0  0  0
 18 31  1  0  0  0  0
 18 32  1  0  0  0  0
 19 20  1  0  0  0  0
 19 33  1  0  0  0  0
 19 34  1  0  0  0  0
 21 22  2  0  0  0  0
 21 35  1  0  0  0  0
 22 36  1  0  0  0  0
M  END
