./098519-25-6.hin
 OpenBabel10051109203D

 39 42  0  0  0  0  0  0  0  0999 V2000
   -1.4472   -0.3607   -3.6967 N   0  0  0  0  0  0  0  0  0  0  0  0
   -0.9760   -1.1052   -4.7161 N   0  0  0  0  0  0  0  0  0  0  0  0
   -2.0689   -1.3604   -5.4869 C   0  0  0  0  0  0  0  0  0  0  0  0
   -3.2536   -0.7993   -4.9691 N   0  0  0  0  0  0  0  0  0  0  0  0
   -2.8432   -0.1826   -3.8438 C   0  0  0  0  0  0  0  0  0  0  0  0
   -0.6614    0.1180   -2.5878 C   0  0  0  0  0  0  0  0  0  0  0  0
   -0.8462   -0.6824   -1.2661 C   0  0  0  0  0  0  0  0  0  0  0  0
   -0.4139   -2.0265   -1.4283 O   0  0  0  0  0  0  0  0  0  0  0  0
   -1.4639   -2.9513   -1.0758 C   0  0  0  0  0  0  0  0  0  0  0  0
   -2.6256   -2.0689   -0.6167 C   0  0  0  0  0  0  0  0  0  0  0  0
   -2.2265   -0.7255   -0.9177 O   0  0  0  0  0  0  0  0  0  0  0  0
   -0.0388   -0.0080   -0.1995 C   0  0  0  0  0  0  0  0  0  0  0  0
   -0.5885    1.1959    0.2922 O   0  0  0  0  0  0  0  0  0  0  0  0
    0.3238    1.6586    1.2401 C   0  0  0  0  0  0  0  0  0  0  0  0
    1.4340    0.7625    1.3421 C   0  0  0  0  0  0  0  0  0  0  0  0
    1.1646   -0.3042    0.3947 C   0  0  0  0  0  0  0  0  0  0  0  0
    2.4653    1.0393    2.2339 C   0  0  0  0  0  0  0  0  0  0  0  0
    2.3644    2.2008    3.0026 C   0  0  0  0  0  0  0  0  0  0  0  0
    1.2710    3.0790    2.9005 C   0  0  0  0  0  0  0  0  0  0  0  0
    0.2264    2.8179    2.0099 C   0  0  0  0  0  0  0  0  0  0  0  0
   -1.0878    3.8734    1.8864 Cl  0  0  0  0  0  0  0  0  0  0  0  0
    3.6044    2.5744    4.1050 Cl  0  0  0  0  0  0  0  0  0  0  0  0
   -0.9545   -3.9549   -0.0574 C   0  0  0  0  0  0  0  0  0  0  0  0
   -0.5985   -3.3682    1.2823 C   0  0  0  0  0  0  0  0  0  0  0  0
   -2.0432   -1.9351   -6.4179 H   0  0  0  0  0  0  0  0  0  0  0  0
   -3.4493    0.3724   -3.1194 H   0  0  0  0  0  0  0  0  0  0  0  0
   -0.9724    1.1800   -2.3717 H   0  0  0  0  0  0  0  0  0  0  0  0
    0.4334    0.0820   -2.8510 H   0  0  0  0  0  0  0  0  0  0  0  0
   -1.7192   -3.4901   -2.0318 H   0  0  0  0  0  0  0  0  0  0  0  0
   -2.8187   -2.1329    0.4832 H   0  0  0  0  0  0  0  0  0  0  0  0
   -3.5664   -2.2520   -1.1939 H   0  0  0  0  0  0  0  0  0  0  0  0
    1.8014   -1.1649    0.1998 H   0  0  0  0  0  0  0  0  0  0  0  0
    3.3284    0.3642    2.3273 H   0  0  0  0  0  0  0  0  0  0  0  0
    1.2365    3.9835    3.5296 H   0  0  0  0  0  0  0  0  0  0  0  0
   -1.7444   -4.7422    0.0682 H   0  0  0  0  0  0  0  0  0  0  0  0
   -0.0459   -4.4502   -0.4952 H   0  0  0  0  0  0  0  0  0  0  0  0
   -0.0249   -4.1137    1.8849 H   0  0  0  0  0  0  0  0  0  0  0  0
    0.0325   -2.4538    1.1510 H   0  0  0  0  0  0  0  0  0  0  0  0
   -1.5117   -3.0862    1.8601 H   0  0  0  0  0  0  0  0  0  0  0  0
  1  2  1  0  0  0  0
  1  5  1  0  0  0  0
  1  6  1  0  0  0  0
  2  3  2  0  0  0  0
  3  4  1  0  0  0  0
  3 25  1  0  0  0  0
  4  5  2  0  0  0  0
  5 26  1  0  0  0  0
  6  7  1  0  0  0  0
  6 27  1  0  0  0  0
  6 28  1  0  0  0  0
  7  8  1  0  0  0  0
  7 11  1  0  0  0  0
  7 12  1  0  0  0  0
  8  9  1  0  0  0  0
  9 10  1  0  0  0  0
  9 23  1  0  0  0  0
  9 29  1  0  0  0  0
 10 11  1  0  0  0  0
 10 30  1  0  0  0  0
 10 31  1  0  0  0  0
 12 13  1  0  0  0  0
 12 16  2  0  0  0  0
 13 14  1  0  0  0  0
 14 15  2  0  0  0  0
 14 20  1  0  0  0  0
 15 16  1  0  0  0  0
 15 17  1  0  0  0  0
 16 32  1  0  0  0  0
 17 18  2  0  0  0  0
 17 33  1  0  0  0  0
 18 19  1  0  0  0  0
 18 22  1  0  0  0  0
 19 20  2  0  0  0  0
 19 34  1  0  0  0  0
 20 21  1  0  0  0  0
 23 24  1  0  0  0  0
 23 35  1  0  0  0  0
 23 36  1  0  0  0  0
 24 37  1  0  0  0  0
 24 38  1  0  0  0  0
 24 39  1  0  0  0  0
M  END
