./098519-26-7.hin
 OpenBabel10051109203D

 36 39  0  0  0  0  0  0  0  0999 V2000
    2.9231   -1.7777   -1.0300 C   0  0  0  0  0  0  0  0  0  0  0  0
    2.8795   -1.9885    0.4863 C   0  0  0  0  0  0  0  0  0  0  0  0
    2.0434   -0.9230    0.9791 O   0  0  0  0  0  0  0  0  0  0  0  0
    1.4233   -0.2326   -0.0962 C   0  0  0  0  0  0  0  0  0  0  0  0
    2.1263   -0.6113   -1.2782 O   0  0  0  0  0  0  0  0  0  0  0  0
    1.5301    1.3013    0.1268 C   0  0  0  0  0  0  0  0  0  0  0  0
    2.8771    1.8110    0.1694 N   0  0  0  0  0  0  0  0  0  0  0  0
    3.7525    1.8969   -0.9392 C   0  0  0  0  0  0  0  0  0  0  0  0
    4.9461    2.3667   -0.5279 N   0  0  0  0  0  0  0  0  0  0  0  0
    4.7669    2.5493    0.8583 C   0  0  0  0  0  0  0  0  0  0  0  0
    3.5207    2.2057    1.2852 N   0  0  0  0  0  0  0  0  0  0  0  0
   -0.0241   -0.6008   -0.2222 C   0  0  0  0  0  0  0  0  0  0  0  0
   -0.7544   -1.2157   -1.2108 C   0  0  0  0  0  0  0  0  0  0  0  0
   -2.1262   -1.2753   -0.7394 C   0  0  0  0  0  0  0  0  0  0  0  0
   -3.3184   -1.7665   -1.2619 C   0  0  0  0  0  0  0  0  0  0  0  0
   -4.4705   -1.6364   -0.4834 C   0  0  0  0  0  0  0  0  0  0  0  0
   -4.4570   -1.0341    0.7871 C   0  0  0  0  0  0  0  0  0  0  0  0
   -3.2694   -0.5347    1.3283 C   0  0  0  0  0  0  0  0  0  0  0  0
   -2.1163   -0.6639    0.5536 C   0  0  0  0  0  0  0  0  0  0  0  0
   -0.8277   -0.2441    0.8822 O   0  0  0  0  0  0  0  0  0  0  0  0
   -3.2525    0.1901    2.8543 Cl  0  0  0  0  0  0  0  0  0  0  0  0
   -5.9478   -2.2251   -1.0864 Cl  0  0  0  0  0  0  0  0  0  0  0  0
    2.3059   -3.3252    0.8939 C   0  0  0  0  0  0  0  0  0  0  0  0
    2.4730   -2.6294   -1.5989 H   0  0  0  0  0  0  0  0  0  0  0  0
    3.9483   -1.5439   -1.4111 H   0  0  0  0  0  0  0  0  0  0  0  0
    3.8825   -1.8195    0.9649 H   0  0  0  0  0  0  0  0  0  0  0  0
    0.9973    1.5263    1.0958 H   0  0  0  0  0  0  0  0  0  0  0  0
    0.9970    1.8018   -0.7300 H   0  0  0  0  0  0  0  0  0  0  0  0
    3.4562    1.6038   -1.9518 H   0  0  0  0  0  0  0  0  0  0  0  0
    5.5556    2.9339    1.5122 H   0  0  0  0  0  0  0  0  0  0  0  0
   -0.3900   -1.5841   -2.1671 H   0  0  0  0  0  0  0  0  0  0  0  0
   -3.3484   -2.2403   -2.2538 H   0  0  0  0  0  0  0  0  0  0  0  0
   -5.3933   -0.9545    1.3635 H   0  0  0  0  0  0  0  0  0  0  0  0
    2.1929   -3.3652    2.0043 H   0  0  0  0  0  0  0  0  0  0  0  0
    2.9922   -4.1418    0.5664 H   0  0  0  0  0  0  0  0  0  0  0  0
    1.3017   -3.4842    0.4333 H   0  0  0  0  0  0  0  0  0  0  0  0
  1  2  1  0  0  0  0
  1  5  1  0  0  0  0
  1 24  1  0  0  0  0
  1 25  1  0  0  0  0
  2  3  1  0  0  0  0
  2 23  1  0  0  0  0
  2 26  1  0  0  0  0
  3  4  1  0  0  0  0
  4  5  1  0  0  0  0
  4  6  1  0  0  0  0
  4 12  1  0  0  0  0
  6  7  1  0  0  0  0
  6 27  1  0  0  0  0
  6 28  1  0  0  0  0
  7  8  1  0  0  0  0
  7 11  1  0  0  0  0
  8  9  2  0  0  0  0
  8 29  1  0  0  0  0
  9 10  1  0  0  0  0
 10 11  2  0  0  0  0
 10 30  1  0  0  0  0
 12 13  2  0  0  0  0
 12 20  1  0  0  0  0
 13 14  1  0  0  0  0
 13 31  1  0  0  0  0
 14 15  2  0  0  0  0
 14 19  1  0  0  0  0
 15 16  1  0  0  0  0
 15 32  1  0  0  0  0
 16 17  2  0  0  0  0
 16 22  1  0  0  0  0
 17 18  1  0  0  0  0
 17 33  1  0  0  0  0
 18 19  2  0  0  0  0
 18 21  1  0  0  0  0
 19 20  1  0  0  0  0
 23 34  1  0  0  0  0
 23 35  1  0  0  0  0
 23 36  1  0  0  0  0
M  END
