./098519-29-0.hin
 OpenBabel10051109203D

 43 46  0  0  0  0  0  0  0  0999 V2000
    1.4431    0.7607   -1.2258 C   0  0  0  0  0  0  0  0  0  0  0  0
    1.6173    0.7373    0.2954 C   0  0  0  0  0  0  0  0  0  0  0  0
    0.8880   -0.4244    0.7306 O   0  0  0  0  0  0  0  0  0  0  0  0
    0.1031   -0.9425   -0.3409 C   0  0  0  0  0  0  0  0  0  0  0  0
    0.6743   -0.4127   -1.5319 O   0  0  0  0  0  0  0  0  0  0  0  0
    0.1887   -2.4935   -0.3666 C   0  0  0  0  0  0  0  0  0  0  0  0
    1.5215   -3.0219   -0.5123 N   0  0  0  0  0  0  0  0  0  0  0  0
    2.3247   -2.9044   -1.6712 C   0  0  0  0  0  0  0  0  0  0  0  0
    3.5280   -3.4624   -1.4358 N   0  0  0  0  0  0  0  0  0  0  0  0
    3.4292   -3.9060   -0.1015 C   0  0  0  0  0  0  0  0  0  0  0  0
    2.2214   -3.6327    0.4639 N   0  0  0  0  0  0  0  0  0  0  0  0
   -1.3316   -0.5476   -0.1849 C   0  0  0  0  0  0  0  0  0  0  0  0
   -2.2722   -0.8382    0.7758 C   0  0  0  0  0  0  0  0  0  0  0  0
   -3.4948   -0.1649    0.3787 C   0  0  0  0  0  0  0  0  0  0  0  0
   -4.7817   -0.0575    0.9014 C   0  0  0  0  0  0  0  0  0  0  0  0
   -5.7143    0.7073    0.2056 C   0  0  0  0  0  0  0  0  0  0  0  0
   -5.3855    1.3604   -0.9930 C   0  0  0  0  0  0  0  0  0  0  0  0
   -4.1094    1.2756   -1.5453 C   0  0  0  0  0  0  0  0  0  0  0  0
   -3.1836    0.5100   -0.8429 C   0  0  0  0  0  0  0  0  0  0  0  0
   -1.8526    0.2829   -1.1987 O   0  0  0  0  0  0  0  0  0  0  0  0
    1.0509    1.9709    0.9984 C   0  0  0  0  0  0  0  0  0  0  0  0
    1.8888    3.0947    0.7908 O   0  0  0  0  0  0  0  0  0  0  0  0
    2.9668    3.1879    1.7249 C   0  0  0  0  0  0  0  0  0  0  0  0
    3.7429    4.4341    1.3681 C   0  0  0  0  0  0  0  0  0  0  0  0
    2.4076    0.6533   -1.7808 H   0  0  0  0  0  0  0  0  0  0  0  0
    0.8741    1.6561   -1.5807 H   0  0  0  0  0  0  0  0  0  0  0  0
    2.6832    0.5590    0.5983 H   0  0  0  0  0  0  0  0  0  0  0  0
   -0.4202   -2.8403   -1.2494 H   0  0  0  0  0  0  0  0  0  0  0  0
   -0.2721   -2.8701    0.5902 H   0  0  0  0  0  0  0  0  0  0  0  0
    1.9738   -2.4140   -2.5861 H   0  0  0  0  0  0  0  0  0  0  0  0
    4.2461   -4.4205    0.4136 H   0  0  0  0  0  0  0  0  0  0  0  0
   -2.1413   -1.4434    1.6698 H   0  0  0  0  0  0  0  0  0  0  0  0
   -5.0510   -0.5639    1.8387 H   0  0  0  0  0  0  0  0  0  0  0  0
   -6.7363    0.8049    0.6019 H   0  0  0  0  0  0  0  0  0  0  0  0
   -6.1554    1.9543   -1.5090 H   0  0  0  0  0  0  0  0  0  0  0  0
   -3.8423    1.7815   -2.4816 H   0  0  0  0  0  0  0  0  0  0  0  0
    0.9133    1.7510    2.0894 H   0  0  0  0  0  0  0  0  0  0  0  0
    0.0654    2.2664    0.5466 H   0  0  0  0  0  0  0  0  0  0  0  0
    3.6128    2.2735    1.6485 H   0  0  0  0  0  0  0  0  0  0  0  0
    2.5513    3.2537    2.7660 H   0  0  0  0  0  0  0  0  0  0  0  0
    3.0835    5.3328    1.4257 H   0  0  0  0  0  0  0  0  0  0  0  0
    4.1437    4.3601    0.3291 H   0  0  0  0  0  0  0  0  0  0  0  0
    4.5924    4.5559    2.0810 H   0  0  0  0  0  0  0  0  0  0  0  0
  1  2  1  0  0  0  0
  1  5  1  0  0  0  0
  1 25  1  0  0  0  0
  1 26  1  0  0  0  0
  2  3  1  0  0  0  0
  2 21  1  0  0  0  0
  2 27  1  0  0  0  0
  3  4  1  0  0  0  0
  4  5  1  0  0  0  0
  4  6  1  0  0  0  0
  4 12  1  0  0  0  0
  6  7  1  0  0  0  0
  6 28  1  0  0  0  0
  6 29  1  0  0  0  0
  7  8  1  0  0  0  0
  7 11  1  0  0  0  0
  8  9  2  0  0  0  0
  8 30  1  0  0  0  0
  9 10  1  0  0  0  0
 10 11  2  0  0  0  0
 10 31  1  0  0  0  0
 12 13  2  0  0  0  0
 12 20  1  0  0  0  0
 13 14  1  0  0  0  0
 13 32  1  0  0  0  0
 14 15  2  0  0  0  0
 14 19  1  0  0  0  0
 15 16  1  0  0  0  0
 15 33  1  0  0  0  0
 16 17  2  0  0  0  0
 16 34  1  0  0  0  0
 17 18  1  0  0  0  0
 17 35  1  0  0  0  0
 18 19  2  0  0  0  0
 18 36  1  0  0  0  0
 19 20  1  0  0  0  0
 21 22  1  0  0  0  0
 21 37  1  0  0  0  0
 21 38  1  0  0  0  0
 22 23  1  0  0  0  0
 23 24  1  0  0  0  0
 23 39  1  0  0  0  0
 23 40  1  0  0  0  0
 24 41  1  0  0  0  0
 24 42  1  0  0  0  0
 24 43  1  0  0  0  0
M  END
