./098519-32-5.hin
 OpenBabel10051109203D

 45 48  0  0  0  0  0  0  0  0999 V2000
    0.7768   -0.6158   -3.0324 N   0  0  0  0  0  0  0  0  0  0  0  0
    0.5028    0.1176   -4.1300 N   0  0  0  0  0  0  0  0  0  0  0  0
   -0.0968   -0.7565   -4.9840 C   0  0  0  0  0  0  0  0  0  0  0  0
   -0.2333   -2.0511   -4.4442 N   0  0  0  0  0  0  0  0  0  0  0  0
    0.3123   -1.9387   -3.2171 C   0  0  0  0  0  0  0  0  0  0  0  0
    1.3711   -0.0944   -1.8269 C   0  0  0  0  0  0  0  0  0  0  0  0
    0.4846   -0.2132   -0.5482 C   0  0  0  0  0  0  0  0  0  0  0  0
    0.2562   -1.5931   -0.3276 O   0  0  0  0  0  0  0  0  0  0  0  0
   -0.6331   -1.8884    0.7487 C   0  0  0  0  0  0  0  0  0  0  0  0
   -2.0017   -1.2309    0.5374 C   0  0  0  0  0  0  0  0  0  0  0  0
   -1.7365    0.2471    0.2155 C   0  0  0  0  0  0  0  0  0  0  0  0
   -0.7637    0.3965   -0.8170 O   0  0  0  0  0  0  0  0  0  0  0  0
   -2.8134   -1.3258    1.8144 C   0  0  0  0  0  0  0  0  0  0  0  0
   -2.7350   -1.8723   -0.6389 C   0  0  0  0  0  0  0  0  0  0  0  0
   -3.2522   -3.2604   -0.3679 C   0  0  0  0  0  0  0  0  0  0  0  0
    1.2021    0.4564    0.5840 C   0  0  0  0  0  0  0  0  0  0  0  0
    2.0055   -0.3840    1.3843 O   0  0  0  0  0  0  0  0  0  0  0  0
    2.5964    0.4578    2.3289 C   0  0  0  0  0  0  0  0  0  0  0  0
    2.1707    1.8079    2.1279 C   0  0  0  0  0  0  0  0  0  0  0  0
    1.2702    1.7688    0.9906 C   0  0  0  0  0  0  0  0  0  0  0  0
    2.6544    2.8024    2.9751 C   0  0  0  0  0  0  0  0  0  0  0  0
    3.5364    2.4343    3.9878 C   0  0  0  0  0  0  0  0  0  0  0  0
    3.9398    1.1015    4.1660 C   0  0  0  0  0  0  0  0  0  0  0  0
    3.4774    0.0809    3.3379 C   0  0  0  0  0  0  0  0  0  0  0  0
   -0.4397   -0.4947   -5.9894 H   0  0  0  0  0  0  0  0  0  0  0  0
    0.3972   -2.7074   -2.4400 H   0  0  0  0  0  0  0  0  0  0  0  0
    1.6165    0.9965   -1.9611 H   0  0  0  0  0  0  0  0  0  0  0  0
    2.3110   -0.6800   -1.6154 H   0  0  0  0  0  0  0  0  0  0  0  0
   -0.1744   -1.5413    1.7127 H   0  0  0  0  0  0  0  0  0  0  0  0
   -0.7026   -3.0078    0.7326 H   0  0  0  0  0  0  0  0  0  0  0  0
   -1.3856    0.7896    1.1338 H   0  0  0  0  0  0  0  0  0  0  0  0
   -2.6470    0.7473   -0.2085 H   0  0  0  0  0  0  0  0  0  0  0  0
   -2.3324   -0.7370    2.6328 H   0  0  0  0  0  0  0  0  0  0  0  0
   -3.8431   -0.9290    1.6451 H   0  0  0  0  0  0  0  0  0  0  0  0
   -2.8900   -2.3902    2.1443 H   0  0  0  0  0  0  0  0  0  0  0  0
   -3.5973   -1.2130   -0.9262 H   0  0  0  0  0  0  0  0  0  0  0  0
   -2.0246   -1.8949   -1.5108 H   0  0  0  0  0  0  0  0  0  0  0  0
   -3.6822   -3.6906   -1.3056 H   0  0  0  0  0  0  0  0  0  0  0  0
   -2.4370   -3.9376   -0.0162 H   0  0  0  0  0  0  0  0  0  0  0  0
   -4.0548   -3.2438    0.4090 H   0  0  0  0  0  0  0  0  0  0  0  0
    0.7532    2.6208    0.5547 H   0  0  0  0  0  0  0  0  0  0  0  0
    2.3469    3.8494    2.8447 H   0  0  0  0  0  0  0  0  0  0  0  0
    3.9303    3.2052    4.6674 H   0  0  0  0  0  0  0  0  0  0  0  0
    4.6395    0.8569    4.9799 H   0  0  0  0  0  0  0  0  0  0  0  0
    3.7878   -0.9634    3.4678 H   0  0  0  0  0  0  0  0  0  0  0  0
  1  2  1  0  0  0  0
  1  5  1  0  0  0  0
  1  6  1  0  0  0  0
  2  3  2  0  0  0  0
  3  4  1  0  0  0  0
  3 25  1  0  0  0  0
  4  5  2  0  0  0  0
  5 26  1  0  0  0  0
  6  7  1  0  0  0  0
  6 27  1  0  0  0  0
  6 28  1  0  0  0  0
  7  8  1  0  0  0  0
  7 12  1  0  0  0  0
  7 16  1  0  0  0  0
  8  9  1  0  0  0  0
  9 10  1  0  0  0  0
  9 29  1  0  0  0  0
  9 30  1  0  0  0  0
 10 11  1  0  0  0  0
 10 13  1  0  0  0  0
 10 14  1  0  0  0  0
 11 12  1  0  0  0  0
 11 31  1  0  0  0  0
 11 32  1  0  0  0  0
 13 33  1  0  0  0  0
 13 34  1  0  0  0  0
 13 35  1  0  0  0  0
 14 15  1  0  0  0  0
 14 36  1  0  0  0  0
 14 37  1  0  0  0  0
 15 38  1  0  0  0  0
 15 39  1  0  0  0  0
 15 40  1  0  0  0  0
 16 17  1  0  0  0  0
 16 20  2  0  0  0  0
 17 18  1  0  0  0  0
 18 19  2  0  0  0  0
 18 24  1  0  0  0  0
 19 20  1  0  0  0  0
 19 21  1  0  0  0  0
 20 41  1  0  0  0  0
 21 22  2  0  0  0  0
 21 42  1  0  0  0  0
 22 23  1  0  0  0  0
 22 43  1  0  0  0  0
 23 24  2  0  0  0  0
 23 44  1  0  0  0  0
 24 45  1  0  0  0  0
M  END
