./098519-35-8.hin
 OpenBabel10051109203D

 45 48  0  0  0  0  0  0  0  0999 V2000
   -0.4809   -0.0028   -2.9760 N   0  0  0  0  0  0  0  0  0  0  0  0
    0.0357   -0.6921   -4.0124 N   0  0  0  0  0  0  0  0  0  0  0  0
   -1.0185   -0.8904   -4.8507 C   0  0  0  0  0  0  0  0  0  0  0  0
   -2.2245   -0.3516   -4.3595 N   0  0  0  0  0  0  0  0  0  0  0  0
   -1.8669    0.1921   -3.1794 C   0  0  0  0  0  0  0  0  0  0  0  0
    0.2510    0.3854   -1.7975 C   0  0  0  0  0  0  0  0  0  0  0  0
   -0.1771   -0.3448   -0.4720 C   0  0  0  0  0  0  0  0  0  0  0  0
    0.0189   -1.7206   -0.6927 O   0  0  0  0  0  0  0  0  0  0  0  0
   -0.5931   -2.6747    0.1939 C   0  0  0  0  0  0  0  0  0  0  0  0
   -2.0213   -2.2950    0.5776 C   0  0  0  0  0  0  0  0  0  0  0  0
   -2.2593   -0.7993    0.6976 C   0  0  0  0  0  0  0  0  0  0  0  0
   -1.5479   -0.0635   -0.2988 O   0  0  0  0  0  0  0  0  0  0  0  0
    0.7005    0.2104    0.6105 C   0  0  0  0  0  0  0  0  0  0  0  0
    0.2724    1.4383    1.1628 O   0  0  0  0  0  0  0  0  0  0  0  0
    1.2761    1.8140    2.0577 C   0  0  0  0  0  0  0  0  0  0  0  0
    2.3233    0.8406    2.0683 C   0  0  0  0  0  0  0  0  0  0  0  0
    1.9189   -0.1784    1.1178 C   0  0  0  0  0  0  0  0  0  0  0  0
    3.4219    1.0386    2.9015 C   0  0  0  0  0  0  0  0  0  0  0  0
    3.4512    2.1836    3.6935 C   0  0  0  0  0  0  0  0  0  0  0  0
    2.4105    3.1253    3.6668 C   0  0  0  0  0  0  0  0  0  0  0  0
    1.2968    2.9605    2.8459 C   0  0  0  0  0  0  0  0  0  0  0  0
    0.2841   -2.8926    1.4198 C   0  0  0  0  0  0  0  0  0  0  0  0
   -0.6133   -3.9623   -0.6370 C   0  0  0  0  0  0  0  0  0  0  0  0
   -2.0080   -0.2537    2.0879 C   0  0  0  0  0  0  0  0  0  0  0  0
   -0.9494   -1.4092   -5.8113 H   0  0  0  0  0  0  0  0  0  0  0  0
   -2.5038    0.7007   -2.4471 H   0  0  0  0  0  0  0  0  0  0  0  0
    0.0745    1.4841   -1.6201 H   0  0  0  0  0  0  0  0  0  0  0  0
    1.3486    0.1827   -1.9433 H   0  0  0  0  0  0  0  0  0  0  0  0
   -2.2845   -2.7909    1.5472 H   0  0  0  0  0  0  0  0  0  0  0  0
   -2.7176   -2.6939   -0.2086 H   0  0  0  0  0  0  0  0  0  0  0  0
   -3.3335   -0.5751    0.4134 H   0  0  0  0  0  0  0  0  0  0  0  0
    2.4782   -1.0767    0.8652 H   0  0  0  0  0  0  0  0  0  0  0  0
    4.2432    0.3091    2.9303 H   0  0  0  0  0  0  0  0  0  0  0  0
    4.3108    2.3586    4.3581 H   0  0  0  0  0  0  0  0  0  0  0  0
    2.4764    4.0163    4.3097 H   0  0  0  0  0  0  0  0  0  0  0  0
    0.4789    3.6913    2.8171 H   0  0  0  0  0  0  0  0  0  0  0  0
    0.3276   -1.9744    2.0515 H   0  0  0  0  0  0  0  0  0  0  0  0
   -0.1247   -3.7342    2.0276 H   0  0  0  0  0  0  0  0  0  0  0  0
    1.3229   -3.1487    1.0992 H   0  0  0  0  0  0  0  0  0  0  0  0
    0.4299   -4.2728   -0.8815 H   0  0  0  0  0  0  0  0  0  0  0  0
   -1.1139   -4.7671   -0.0502 H   0  0  0  0  0  0  0  0  0  0  0  0
   -1.1660   -3.7961   -1.5918 H   0  0  0  0  0  0  0  0  0  0  0  0
   -0.9743   -0.4878    2.4366 H   0  0  0  0  0  0  0  0  0  0  0  0
   -2.1226    0.8579    2.0807 H   0  0  0  0  0  0  0  0  0  0  0  0
   -2.7415   -0.6961    2.8026 H   0  0  0  0  0  0  0  0  0  0  0  0
  1  2  1  0  0  0  0
  1  5  1  0  0  0  0
  1  6  1  0  0  0  0
  2  3  2  0  0  0  0
  3  4  1  0  0  0  0
  3 25  1  0  0  0  0
  4  5  2  0  0  0  0
  5 26  1  0  0  0  0
  6  7  1  0  0  0  0
  6 27  1  0  0  0  0
  6 28  1  0  0  0  0
  7  8  1  0  0  0  0
  7 12  1  0  0  0  0
  7 13  1  0  0  0  0
  8  9  1  0  0  0  0
  9 10  1  0  0  0  0
  9 22  1  0  0  0  0
  9 23  1  0  0  0  0
 10 11  1  0  0  0  0
 10 29  1  0  0  0  0
 10 30  1  0  0  0  0
 11 12  1  0  0  0  0
 11 24  1  0  0  0  0
 11 31  1  0  0  0  0
 13 14  1  0  0  0  0
 13 17  2  0  0  0  0
 14 15  1  0  0  0  0
 15 16  2  0  0  0  0
 15 21  1  0  0  0  0
 16 17  1  0  0  0  0
 16 18  1  0  0  0  0
 17 32  1  0  0  0  0
 18 19  2  0  0  0  0
 18 33  1  0  0  0  0
 19 20  1  0  0  0  0
 19 34  1  0  0  0  0
 20 21  2  0  0  0  0
 20 35  1  0  0  0  0
 21 36  1  0  0  0  0
 22 37  1  0  0  0  0
 22 38  1  0  0  0  0
 22 39  1  0  0  0  0
 23 40  1  0  0  0  0
 23 41  1  0  0  0  0
 23 42  1  0  0  0  0
 24 43  1  0  0  0  0
 24 44  1  0  0  0  0
 24 45  1  0  0  0  0
M  END
