./098519-39-2.hin
 OpenBabel10051109203D

 39 42  0  0  0  0  0  0  0  0999 V2000
   -2.1615   -1.5638   -0.8019 C   0  0  0  0  0  0  0  0  0  0  0  0
   -2.1185   -0.0316   -0.7959 C   0  0  0  0  0  0  0  0  0  0  0  0
   -1.1968    0.2991    0.2633 O   0  0  0  0  0  0  0  0  0  0  0  0
   -0.5016   -0.8601    0.6948 C   0  0  0  0  0  0  0  0  0  0  0  0
   -1.2846   -1.9717    0.2571 O   0  0  0  0  0  0  0  0  0  0  0  0
   -0.3950   -0.8634    2.2455 C   0  0  0  0  0  0  0  0  0  0  0  0
   -1.6582   -0.9130    2.9382 N   0  0  0  0  0  0  0  0  0  0  0  0
   -2.5647   -1.9988    2.9098 C   0  0  0  0  0  0  0  0  0  0  0  0
   -3.6603   -1.6823    3.6271 N   0  0  0  0  0  0  0  0  0  0  0  0
   -3.3912   -0.3740    4.0770 C   0  0  0  0  0  0  0  0  0  0  0  0
   -2.1860    0.0983    3.6553 N   0  0  0  0  0  0  0  0  0  0  0  0
    0.8805   -0.9436    0.1263 C   0  0  0  0  0  0  0  0  0  0  0  0
    1.8371   -1.9312    0.1728 C   0  0  0  0  0  0  0  0  0  0  0  0
    2.9898   -1.4293   -0.5518 C   0  0  0  0  0  0  0  0  0  0  0  0
    4.2555   -1.9207   -0.8639 C   0  0  0  0  0  0  0  0  0  0  0  0
    5.1137   -1.1103   -1.6024 C   0  0  0  0  0  0  0  0  0  0  0  0
    4.7321    0.1714   -2.0299 C   0  0  0  0  0  0  0  0  0  0  0  0
    3.4750    0.6953   -1.7366 C   0  0  0  0  0  0  0  0  0  0  0  0
    2.6232   -0.1216   -0.9994 C   0  0  0  0  0  0  0  0  0  0  0  0
    1.3241    0.1866   -0.5901 O   0  0  0  0  0  0  0  0  0  0  0  0
   -1.6311    0.5803   -2.0975 C   0  0  0  0  0  0  0  0  0  0  0  0
   -2.6503    0.4283   -3.1948 C   0  0  0  0  0  0  0  0  0  0  0  0
   -1.7822   -2.0037   -1.7580 H   0  0  0  0  0  0  0  0  0  0  0  0
   -3.1697   -1.9751   -0.5472 H   0  0  0  0  0  0  0  0  0  0  0  0
   -3.0991    0.4187   -0.4839 H   0  0  0  0  0  0  0  0  0  0  0  0
    0.1971   -1.7775    2.5352 H   0  0  0  0  0  0  0  0  0  0  0  0
    0.1676    0.0685    2.5384 H   0  0  0  0  0  0  0  0  0  0  0  0
   -2.3616   -2.9243    2.3599 H   0  0  0  0  0  0  0  0  0  0  0  0
   -4.0871    0.1920    4.7038 H   0  0  0  0  0  0  0  0  0  0  0  0
    1.7588   -2.9068    0.6459 H   0  0  0  0  0  0  0  0  0  0  0  0
    4.5659   -2.9219   -0.5344 H   0  0  0  0  0  0  0  0  0  0  0  0
    6.1180   -1.4800   -1.8591 H   0  0  0  0  0  0  0  0  0  0  0  0
    5.4442    0.7773   -2.6106 H   0  0  0  0  0  0  0  0  0  0  0  0
    3.1677    1.6964   -2.0642 H   0  0  0  0  0  0  0  0  0  0  0  0
   -1.4185    1.6677   -1.9161 H   0  0  0  0  0  0  0  0  0  0  0  0
   -0.6588    0.1025   -2.3904 H   0  0  0  0  0  0  0  0  0  0  0  0
   -2.2662    0.8852   -4.1388 H   0  0  0  0  0  0  0  0  0  0  0  0
   -2.8683   -0.6501   -3.3890 H   0  0  0  0  0  0  0  0  0  0  0  0
   -3.6069    0.9367   -2.9216 H   0  0  0  0  0  0  0  0  0  0  0  0
  1  2  1  0  0  0  0
  1  5  1  0  0  0  0
  1 23  1  0  0  0  0
  1 24  1  0  0  0  0
  2  3  1  0  0  0  0
  2 21  1  0  0  0  0
  2 25  1  0  0  0  0
  3  4  1  0  0  0  0
  4  5  1  0  0  0  0
  4  6  1  0  0  0  0
  4 12  1  0  0  0  0
  6  7  1  0  0  0  0
  6 26  1  0  0  0  0
  6 27  1  0  0  0  0
  7  8  1  0  0  0  0
  7 11  1  0  0  0  0
  8  9  2  0  0  0  0
  8 28  1  0  0  0  0
  9 10  1  0  0  0  0
 10 11  2  0  0  0  0
 10 29  1  0  0  0  0
 12 13  2  0  0  0  0
 12 20  1  0  0  0  0
 13 14  1  0  0  0  0
 13 30  1  0  0  0  0
 14 15  2  0  0  0  0
 14 19  1  0  0  0  0
 15 16  1  0  0  0  0
 15 31  1  0  0  0  0
 16 17  2  0  0  0  0
 16 32  1  0  0  0  0
 17 18  1  0  0  0  0
 17 33  1  0  0  0  0
 18 19  2  0  0  0  0
 18 34  1  0  0  0  0
 19 20  1  0  0  0  0
 21 22  1  0  0  0  0
 21 35  1  0  0  0  0
 21 36  1  0  0  0  0
 22 37  1  0  0  0  0
 22 38  1  0  0  0  0
 22 39  1  0  0  0  0
M  END
