./098519-41-6.hin
 OpenBabel10051109203D

 46 49  0  0  0  0  0  0  0  0999 V2000
   -3.5719   -1.3737    0.3855 C   0  0  0  0  0  0  0  0  0  0  0  0
   -3.5261    0.1533    0.4840 C   0  0  0  0  0  0  0  0  0  0  0  0
   -2.4333    0.4286    1.3809 O   0  0  0  0  0  0  0  0  0  0  0  0
   -1.6578   -0.7482    1.5831 C   0  0  0  0  0  0  0  0  0  0  0  0
   -2.4908   -1.8386    1.2087 O   0  0  0  0  0  0  0  0  0  0  0  0
   -1.2610   -0.8564    3.0822 C   0  0  0  0  0  0  0  0  0  0  0  0
   -2.3716   -0.8793    3.9992 N   0  0  0  0  0  0  0  0  0  0  0  0
   -3.2245    0.2153    4.2779 C   0  0  0  0  0  0  0  0  0  0  0  0
   -4.1893   -0.1798    5.1303 N   0  0  0  0  0  0  0  0  0  0  0  0
   -3.9008   -1.5432    5.3449 C   0  0  0  0  0  0  0  0  0  0  0  0
   -2.8091   -1.9727    4.6551 N   0  0  0  0  0  0  0  0  0  0  0  0
   -0.4039   -0.7449    0.7630 C   0  0  0  0  0  0  0  0  0  0  0  0
    0.5404   -1.7146    0.5203 C   0  0  0  0  0  0  0  0  0  0  0  0
    1.5401   -1.1147   -0.3446 C   0  0  0  0  0  0  0  0  0  0  0  0
    2.7195   -1.5621   -0.9312 C   0  0  0  0  0  0  0  0  0  0  0  0
    3.4323   -0.6607   -1.7250 C   0  0  0  0  0  0  0  0  0  0  0  0
    2.9975    0.6588   -1.9419 C   0  0  0  0  0  0  0  0  0  0  0  0
    1.8154    1.1254   -1.3612 C   0  0  0  0  0  0  0  0  0  0  0  0
    1.1008    0.2281   -0.5673 C   0  0  0  0  0  0  0  0  0  0  0  0
   -0.0961    0.4661    0.1083 O   0  0  0  0  0  0  0  0  0  0  0  0
    1.2920    2.7114   -1.6224 Cl  0  0  0  0  0  0  0  0  0  0  0  0
    4.8795   -1.1686   -2.4595 Cl  0  0  0  0  0  0  0  0  0  0  0  0
   -3.2435    0.8475   -0.8473 C   0  0  0  0  0  0  0  0  0  0  0  0
   -4.3074    0.4890   -1.7207 O   0  0  0  0  0  0  0  0  0  0  0  0
   -4.1958    1.0895   -3.0195 C   0  0  0  0  0  0  0  0  0  0  0  0
   -5.1036    0.2736   -3.9233 C   0  0  0  0  0  0  0  0  0  0  0  0
   -4.6224    2.5444   -2.9774 C   0  0  0  0  0  0  0  0  0  0  0  0
   -3.4047   -1.7403   -0.6578 H   0  0  0  0  0  0  0  0  0  0  0  0
   -4.5051   -1.8124    0.8179 H   0  0  0  0  0  0  0  0  0  0  0  0
   -4.4405    0.5821    0.9712 H   0  0  0  0  0  0  0  0  0  0  0  0
   -0.6476   -1.7946    3.1979 H   0  0  0  0  0  0  0  0  0  0  0  0
   -0.6321    0.0479    3.3209 H   0  0  0  0  0  0  0  0  0  0  0  0
   -3.0807    1.2057    3.8323 H   0  0  0  0  0  0  0  0  0  0  0  0
   -4.4998   -2.1784    6.0047 H   0  0  0  0  0  0  0  0  0  0  0  0
    0.5470   -2.7391    0.8863 H   0  0  0  0  0  0  0  0  0  0  0  0
    3.0750   -2.5908   -0.7731 H   0  0  0  0  0  0  0  0  0  0  0  0
    3.5952    1.3333   -2.5766 H   0  0  0  0  0  0  0  0  0  0  0  0
   -3.2148    1.9584   -0.6974 H   0  0  0  0  0  0  0  0  0  0  0  0
   -2.2591    0.5061   -1.2660 H   0  0  0  0  0  0  0  0  0  0  0  0
   -3.1290    1.0118   -3.3735 H   0  0  0  0  0  0  0  0  0  0  0  0
   -5.0394    0.6681   -4.9646 H   0  0  0  0  0  0  0  0  0  0  0  0
   -4.7925   -0.7978   -3.9150 H   0  0  0  0  0  0  0  0  0  0  0  0
   -6.1604    0.3381   -3.5708 H   0  0  0  0  0  0  0  0  0  0  0  0
   -4.6768    2.9507   -4.0152 H   0  0  0  0  0  0  0  0  0  0  0  0
   -5.6263    2.6386   -2.4985 H   0  0  0  0  0  0  0  0  0  0  0  0
   -3.8924    3.1534   -2.3929 H   0  0  0  0  0  0  0  0  0  0  0  0
  1  2  1  0  0  0  0
  1  5  1  0  0  0  0
  1 28  1  0  0  0  0
  1 29  1  0  0  0  0
  2  3  1  0  0  0  0
  2 23  1  0  0  0  0
  2 30  1  0  0  0  0
  3  4  1  0  0  0  0
  4  5  1  0  0  0  0
  4  6  1  0  0  0  0
  4 12  1  0  0  0  0
  6  7  1  0  0  0  0
  6 31  1  0  0  0  0
  6 32  1  0  0  0  0
  7  8  1  0  0  0  0
  7 11  1  0  0  0  0
  8  9  2  0  0  0  0
  8 33  1  0  0  0  0
  9 10  1  0  0  0  0
 10 11  2  0  0  0  0
 10 34  1  0  0  0  0
 12 13  2  0  0  0  0
 12 20  1  0  0  0  0
 13 14  1  0  0  0  0
 13 35  1  0  0  0  0
 14 15  2  0  0  0  0
 14 19  1  0  0  0  0
 15 16  1  0  0  0  0
 15 36  1  0  0  0  0
 16 17  2  0  0  0  0
 16 22  1  0  0  0  0
 17 18  1  0  0  0  0
 17 37  1  0  0  0  0
 18 19  2  0  0  0  0
 18 21  1  0  0  0  0
 19 20  1  0  0  0  0
 23 24  1  0  0  0  0
 23 38  1  0  0  0  0
 23 39  1  0  0  0  0
 24 25  1  0  0  0  0
 25 26  1  0  0  0  0
 25 27  1  0  0  0  0
 25 40  1  0  0  0  0
 26 41  1  0  0  0  0
 26 42  1  0  0  0  0
 26 43  1  0  0  0  0
 27 44  1  0  0  0  0
 27 45  1  0  0  0  0
 27 46  1  0  0  0  0
M  END
