./098519-49-4.hin
 OpenBabel10051109203D

 36 39  0  0  0  0  0  0  0  0999 V2000
   -2.0137   -1.5942   -1.2805 C   0  0  0  0  0  0  0  0  0  0  0  0
   -1.8509   -0.0705   -1.2884 C   0  0  0  0  0  0  0  0  0  0  0  0
   -0.9763    0.2056   -0.1748 O   0  0  0  0  0  0  0  0  0  0  0  0
   -0.3803   -0.9966    0.2922 C   0  0  0  0  0  0  0  0  0  0  0  0
   -1.1937   -2.0610   -0.2005 O   0  0  0  0  0  0  0  0  0  0  0  0
   -0.3530   -1.0099    1.8444 C   0  0  0  0  0  0  0  0  0  0  0  0
   -1.6491   -0.9840    2.4747 N   0  0  0  0  0  0  0  0  0  0  0  0
   -2.6088   -2.0212    2.4117 C   0  0  0  0  0  0  0  0  0  0  0  0
   -3.7144   -1.6458    3.0844 N   0  0  0  0  0  0  0  0  0  0  0  0
   -3.3949   -0.3529    3.5445 C   0  0  0  0  0  0  0  0  0  0  0  0
   -2.1503    0.0543    3.1711 N   0  0  0  0  0  0  0  0  0  0  0  0
    1.0222   -1.1455   -0.2116 C   0  0  0  0  0  0  0  0  0  0  0  0
    1.6571   -2.1199   -0.9442 C   0  0  0  0  0  0  0  0  0  0  0  0
    3.0351   -1.6919   -1.1013 C   0  0  0  0  0  0  0  0  0  0  0  0
    4.1695   -2.2107   -1.7215 C   0  0  0  0  0  0  0  0  0  0  0  0
    5.3519   -1.4786   -1.6527 C   0  0  0  0  0  0  0  0  0  0  0  0
    5.4191   -0.2477   -0.9809 C   0  0  0  0  0  0  0  0  0  0  0  0
    4.3057    0.3017   -0.3489 C   0  0  0  0  0  0  0  0  0  0  0  0
    3.1288   -0.4371   -0.4217 C   0  0  0  0  0  0  0  0  0  0  0  0
    1.8951   -0.0909    0.1327 O   0  0  0  0  0  0  0  0  0  0  0  0
   -3.1416    0.6854   -1.0809 C   0  0  0  0  0  0  0  0  0  0  0  0
   -1.6447   -2.0707   -2.2224 H   0  0  0  0  0  0  0  0  0  0  0  0
   -3.0573   -1.9251   -1.0503 H   0  0  0  0  0  0  0  0  0  0  0  0
   -1.3223    0.2822   -2.2149 H   0  0  0  0  0  0  0  0  0  0  0  0
    0.1668   -1.9583    2.1603 H   0  0  0  0  0  0  0  0  0  0  0  0
    0.2543   -0.1145    2.1645 H   0  0  0  0  0  0  0  0  0  0  0  0
   -2.4320   -2.9582    1.8725 H   0  0  0  0  0  0  0  0  0  0  0  0
   -4.0838    0.2502    4.1437 H   0  0  0  0  0  0  0  0  0  0  0  0
    1.2230   -3.0383   -1.3321 H   0  0  0  0  0  0  0  0  0  0  0  0
    4.1294   -3.1729   -2.2506 H   0  0  0  0  0  0  0  0  0  0  0  0
    6.2591   -1.8713   -2.1363 H   0  0  0  0  0  0  0  0  0  0  0  0
    6.3753    0.2970   -0.9531 H   0  0  0  0  0  0  0  0  0  0  0  0
    4.3470    1.2636    0.1775 H   0  0  0  0  0  0  0  0  0  0  0  0
   -3.6660    0.3303   -0.1617 H   0  0  0  0  0  0  0  0  0  0  0  0
   -2.9272    1.7752   -0.9640 H   0  0  0  0  0  0  0  0  0  0  0  0
   -3.8057    0.5344   -1.9649 H   0  0  0  0  0  0  0  0  0  0  0  0
  1  2  1  0  0  0  0
  1  5  1  0  0  0  0
  1 22  1  0  0  0  0
  1 23  1  0  0  0  0
  2  3  1  0  0  0  0
  2 21  1  0  0  0  0
  2 24  1  0  0  0  0
  3  4  1  0  0  0  0
  4  5  1  0  0  0  0
  4  6  1  0  0  0  0
  4 12  1  0  0  0  0
  6  7  1  0  0  0  0
  6 25  1  0  0  0  0
  6 26  1  0  0  0  0
  7  8  1  0  0  0  0
  7 11  1  0  0  0  0
  8  9  2  0  0  0  0
  8 27  1  0  0  0  0
  9 10  1  0  0  0  0
 10 11  2  0  0  0  0
 10 28  1  0  0  0  0
 12 13  2  0  0  0  0
 12 20  1  0  0  0  0
 13 14  1  0  0  0  0
 13 29  1  0  0  0  0
 14 15  2  0  0  0  0
 14 19  1  0  0  0  0
 15 16  1  0  0  0  0
 15 30  1  0  0  0  0
 16 17  2  0  0  0  0
 16 31  1  0  0  0  0
 17 18  1  0  0  0  0
 17 32  1  0  0  0  0
 18 19  2  0  0  0  0
 18 33  1  0  0  0  0
 19 20  1  0  0  0  0
 21 34  1  0  0  0  0
 21 35  1  0  0  0  0
 21 36  1  0  0  0  0
M  END
