./098532-64-0.hin
 OpenBabel10051109203D

 40 43  0  0  0  0  0  0  0  0999 V2000
    0.3692   -0.7725   -2.6414 N   0  0  0  0  0  0  0  0  0  0  0  0
    0.9223   -1.7694   -3.3586 N   0  0  0  0  0  0  0  0  0  0  0  0
    0.0362   -1.9979   -4.3671 C   0  0  0  0  0  0  0  0  0  0  0  0
   -1.0984   -1.1648   -4.3049 N   0  0  0  0  0  0  0  0  0  0  0  0
   -0.8720   -0.4076   -3.2133 C   0  0  0  0  0  0  0  0  0  0  0  0
    0.9366   -0.1982   -1.4471 C   0  0  0  0  0  0  0  0  0  0  0  0
    0.1691   -0.5228   -0.1374 C   0  0  0  0  0  0  0  0  0  0  0  0
    0.1836   -1.9258    0.1038 O   0  0  0  0  0  0  0  0  0  0  0  0
   -1.1185   -2.3749    0.5235 C   0  0  0  0  0  0  0  0  0  0  0  0
   -2.0379   -1.1698    0.3131 C   0  0  0  0  0  0  0  0  0  0  0  0
   -1.2025   -0.1531   -0.2603 O   0  0  0  0  0  0  0  0  0  0  0  0
    0.8090    0.2245    0.9914 C   0  0  0  0  0  0  0  0  0  0  0  0
    2.1658   -0.0901    1.2221 O   0  0  0  0  0  0  0  0  0  0  0  0
    2.5535    0.7138    2.2957 C   0  0  0  0  0  0  0  0  0  0  0  0
    1.4591    1.5247    2.7315 C   0  0  0  0  0  0  0  0  0  0  0  0
    0.3472    1.1804    1.8645 C   0  0  0  0  0  0  0  0  0  0  0  0
    1.6499    2.4004    3.7979 C   0  0  0  0  0  0  0  0  0  0  0  0
    2.9062    2.4469    4.3967 C   0  0  0  0  0  0  0  0  0  0  0  0
    3.9653    1.6398    3.9520 C   0  0  0  0  0  0  0  0  0  0  0  0
    3.8117    0.7529    2.8886 C   0  0  0  0  0  0  0  0  0  0  0  0
   -1.4770   -3.5879   -0.3317 C   0  0  0  0  0  0  0  0  0  0  0  0
   -2.5784   -4.2182    0.3190 O   0  0  0  0  0  0  0  0  0  0  0  0
   -2.9531   -5.4324   -0.3112 C   0  0  0  0  0  0  0  0  0  0  0  0
    0.1813   -2.7441   -5.1542 H   0  0  0  0  0  0  0  0  0  0  0  0
   -1.5159    0.3678   -2.7841 H   0  0  0  0  0  0  0  0  0  0  0  0
    0.9334    0.9222   -1.5657 H   0  0  0  0  0  0  0  0  0  0  0  0
    1.9937   -0.5653   -1.3020 H   0  0  0  0  0  0  0  0  0  0  0  0
   -1.0443   -2.6667    1.6046 H   0  0  0  0  0  0  0  0  0  0  0  0
   -2.4525   -0.7770    1.2745 H   0  0  0  0  0  0  0  0  0  0  0  0
   -2.8569   -1.3607   -0.4241 H   0  0  0  0  0  0  0  0  0  0  0  0
   -0.6526    1.6062    1.9043 H   0  0  0  0  0  0  0  0  0  0  0  0
    0.8284    3.0365    4.1557 H   0  0  0  0  0  0  0  0  0  0  0  0
    3.0770    3.1320    5.2409 H   0  0  0  0  0  0  0  0  0  0  0  0
    4.9412    1.7091    4.4565 H   0  0  0  0  0  0  0  0  0  0  0  0
    4.6323    0.1162    2.5347 H   0  0  0  0  0  0  0  0  0  0  0  0
   -1.7723   -3.2817   -1.3690 H   0  0  0  0  0  0  0  0  0  0  0  0
   -0.6018   -4.2883   -0.3840 H   0  0  0  0  0  0  0  0  0  0  0  0
   -3.8170   -5.8031    0.2952 H   0  0  0  0  0  0  0  0  0  0  0  0
   -3.2647   -5.2469   -1.3687 H   0  0  0  0  0  0  0  0  0  0  0  0
   -2.1098   -6.1660   -0.2845 H   0  0  0  0  0  0  0  0  0  0  0  0
  1  2  1  0  0  0  0
  1  5  1  0  0  0  0
  1  6  1  0  0  0  0
  2  3  2  0  0  0  0
  3  4  1  0  0  0  0
  3 24  1  0  0  0  0
  4  5  2  0  0  0  0
  5 25  1  0  0  0  0
  6  7  1  0  0  0  0
  6 26  1  0  0  0  0
  6 27  1  0  0  0  0
  7  8  1  0  0  0  0
  7 11  1  0  0  0  0
  7 12  1  0  0  0  0
  8  9  1  0  0  0  0
  9 10  1  0  0  0  0
  9 21  1  0  0  0  0
  9 28  1  0  0  0  0
 10 11  1  0  0  0  0
 10 29  1  0  0  0  0
 10 30  1  0  0  0  0
 12 13  1  0  0  0  0
 12 16  2  0  0  0  0
 13 14  1  0  0  0  0
 14 15  2  0  0  0  0
 14 20  1  0  0  0  0
 15 16  1  0  0  0  0
 15 17  1  0  0  0  0
 16 31  1  0  0  0  0
 17 18  2  0  0  0  0
 17 32  1  0  0  0  0
 18 19  1  0  0  0  0
 18 33  1  0  0  0  0
 19 20  2  0  0  0  0
 19 34  1  0  0  0  0
 20 35  1  0  0  0  0
 21 22  1  0  0  0  0
 21 36  1  0  0  0  0
 21 37  1  0  0  0  0
 22 23  1  0  0  0  0
 23 38  1  0  0  0  0
 23 39  1  0  0  0  0
 23 40  1  0  0  0  0
M  END
