./098532-67-3.hin
 OpenBabel10051109203D

 33 36  0  0  0  0  0  0  0  0999 V2000
    3.5973   -4.4597    0.4482 Cl  0  0  0  0  0  0  0  0  0  0  0  0
    2.7093   -3.0260    0.2288 C   0  0  0  0  0  0  0  0  0  0  0  0
    3.3610   -1.7968    0.3561 C   0  0  0  0  0  0  0  0  0  0  0  0
    2.6068   -0.6428    0.1712 C   0  0  0  0  0  0  0  0  0  0  0  0
    1.2150   -0.7487   -0.1383 C   0  0  0  0  0  0  0  0  0  0  0  0
    0.6522    0.5193   -0.2836 O   0  0  0  0  0  0  0  0  0  0  0  0
    1.7098    1.4290   -0.0567 C   0  0  0  0  0  0  0  0  0  0  0  0
    2.8903    0.7810    0.2157 C   0  0  0  0  0  0  0  0  0  0  0  0
    1.3365    2.8758   -0.1612 C   0  0  0  0  0  0  0  0  0  0  0  0
    0.4131    3.1336   -1.3933 C   0  0  0  0  0  0  0  0  0  0  0  0
   -0.9982    3.1872   -1.1167 N   0  0  0  0  0  0  0  0  0  0  0  0
   -1.8535    2.0711   -0.9484 C   0  0  0  0  0  0  0  0  0  0  0  0
   -3.0837    2.5016   -0.6114 N   0  0  0  0  0  0  0  0  0  0  0  0
   -2.9397    3.9036   -0.5581 C   0  0  0  0  0  0  0  0  0  0  0  0
   -1.6785    4.3213   -0.8489 N   0  0  0  0  0  0  0  0  0  0  0  0
    2.5216    3.6511   -0.3543 O   0  0  0  0  0  0  0  0  0  0  0  0
    2.7595    4.5058    0.7709 C   0  0  0  0  0  0  0  0  0  0  0  0
    1.5712    4.2966    1.7001 C   0  0  0  0  0  0  0  0  0  0  0  0
    0.7470    3.3176    1.0557 O   0  0  0  0  0  0  0  0  0  0  0  0
    0.5668   -1.9769   -0.2654 C   0  0  0  0  0  0  0  0  0  0  0  0
   -1.0792   -2.0893   -0.6323 Cl  0  0  0  0  0  0  0  0  0  0  0  0
    1.3402   -3.1253   -0.0752 C   0  0  0  0  0  0  0  0  0  0  0  0
    4.4330   -1.7400    0.5949 H   0  0  0  0  0  0  0  0  0  0  0  0
    3.8593    1.2327    0.4153 H   0  0  0  0  0  0  0  0  0  0  0  0
    0.7443    4.1071   -1.8581 H   0  0  0  0  0  0  0  0  0  0  0  0
    0.5848    2.2963   -2.1274 H   0  0  0  0  0  0  0  0  0  0  0  0
   -1.5172    1.0355   -1.0789 H   0  0  0  0  0  0  0  0  0  0  0  0
   -3.7683    4.5739   -0.3101 H   0  0  0  0  0  0  0  0  0  0  0  0
    2.8303    5.5492    0.3731 H   0  0  0  0  0  0  0  0  0  0  0  0
    3.7321    4.1939    1.2277 H   0  0  0  0  0  0  0  0  0  0  0  0
    0.9439    5.2149    1.8262 H   0  0  0  0  0  0  0  0  0  0  0  0
    1.8622    3.8803    2.6971 H   0  0  0  0  0  0  0  0  0  0  0  0
    0.8704   -4.1186   -0.1639 H   0  0  0  0  0  0  0  0  0  0  0  0
  1  2  1  0  0  0  0
  2  3  2  0  0  0  0
  2 22  1  0  0  0  0
  3  4  1  0  0  0  0
  3 23  1  0  0  0  0
  4  5  2  0  0  0  0
  4  8  1  0  0  0  0
  5  6  1  0  0  0  0
  5 20  1  0  0  0  0
  6  7  1  0  0  0  0
  7  8  2  0  0  0  0
  7  9  1  0  0  0  0
  8 24  1  0  0  0  0
  9 10  1  0  0  0  0
  9 16  1  0  0  0  0
  9 19  1  0  0  0  0
 10 11  1  0  0  0  0
 10 25  1  0  0  0  0
 10 26  1  0  0  0  0
 11 12  1  0  0  0  0
 11 15  1  0  0  0  0
 12 13  2  0  0  0  0
 12 27  1  0  0  0  0
 13 14  1  0  0  0  0
 14 15  2  0  0  0  0
 14 28  1  0  0  0  0
 16 17  1  0  0  0  0
 17 18  1  0  0  0  0
 17 29  1  0  0  0  0
 17 30  1  0  0  0  0
 18 19  1  0  0  0  0
 18 31  1  0  0  0  0
 18 32  1  0  0  0  0
 20 21  1  0  0  0  0
 20 22  2  0  0  0  0
 22 33  1  0  0  0  0
M  END
