./098532-68-4.hin
 OpenBabel10051109203D

 36 39  0  0  0  0  0  0  0  0999 V2000
   -3.3613   -1.2711   -0.8344 C   0  0  0  0  0  0  0  0  0  0  0  0
   -3.2306    0.2550   -0.8225 C   0  0  0  0  0  0  0  0  0  0  0  0
   -2.3176    0.5319    0.2605 O   0  0  0  0  0  0  0  0  0  0  0  0
   -1.6990   -0.6699    0.7062 C   0  0  0  0  0  0  0  0  0  0  0  0
   -2.4838   -1.7422    0.1972 O   0  0  0  0  0  0  0  0  0  0  0  0
   -1.6669   -0.7039    2.2589 C   0  0  0  0  0  0  0  0  0  0  0  0
   -2.9575   -0.5914    2.8902 N   0  0  0  0  0  0  0  0  0  0  0  0
   -3.7776    0.5612    2.8753 C   0  0  0  0  0  0  0  0  0  0  0  0
   -4.9309    0.2943    3.5190 N   0  0  0  0  0  0  0  0  0  0  0  0
   -4.7847   -1.0517    3.9105 C   0  0  0  0  0  0  0  0  0  0  0  0
   -3.5971   -1.5938    3.5242 N   0  0  0  0  0  0  0  0  0  0  0  0
   -0.2932   -0.7735    0.1974 C   0  0  0  0  0  0  0  0  0  0  0  0
    0.3781   -1.7380   -0.5148 C   0  0  0  0  0  0  0  0  0  0  0  0
    1.7374   -1.2574   -0.6868 C   0  0  0  0  0  0  0  0  0  0  0  0
    2.8796   -1.7580   -1.3033 C   0  0  0  0  0  0  0  0  0  0  0  0
    4.0369   -0.9776   -1.2575 C   0  0  0  0  0  0  0  0  0  0  0  0
    4.0766    0.2738   -0.6175 C   0  0  0  0  0  0  0  0  0  0  0  0
    2.9397    0.7923    0.0079 C   0  0  0  0  0  0  0  0  0  0  0  0
    1.7817    0.0156   -0.0361 C   0  0  0  0  0  0  0  0  0  0  0  0
    0.5377    0.3235    0.5137 O   0  0  0  0  0  0  0  0  0  0  0  0
    2.9870    2.2959    0.7779 Cl  0  0  0  0  0  0  0  0  0  0  0  0
    5.4542   -1.5540   -2.0000 Cl  0  0  0  0  0  0  0  0  0  0  0  0
   -4.5283    0.9774   -0.5479 C   0  0  0  0  0  0  0  0  0  0  0  0
   -3.0257   -1.7233   -1.8007 H   0  0  0  0  0  0  0  0  0  0  0  0
   -4.3868   -1.6280   -0.5645 H   0  0  0  0  0  0  0  0  0  0  0  0
   -2.7463    0.6363   -1.7617 H   0  0  0  0  0  0  0  0  0  0  0  0
   -1.1743   -1.6702    2.5639 H   0  0  0  0  0  0  0  0  0  0  0  0
   -1.0352    0.1708    2.5879 H   0  0  0  0  0  0  0  0  0  0  0  0
   -3.4747    1.4958    2.3895 H   0  0  0  0  0  0  0  0  0  0  0  0
   -5.5527   -1.5924    4.4721 H   0  0  0  0  0  0  0  0  0  0  0  0
   -0.0182   -2.6835   -0.8788 H   0  0  0  0  0  0  0  0  0  0  0  0
    2.8678   -2.7351   -1.8078 H   0  0  0  0  0  0  0  0  0  0  0  0
    5.0146    0.8529   -0.6082 H   0  0  0  0  0  0  0  0  0  0  0  0
   -4.9446    0.6745    0.4442 H   0  0  0  0  0  0  0  0  0  0  0  0
   -4.3552    2.0804   -0.5348 H   0  0  0  0  0  0  0  0  0  0  0  0
   -5.2665    0.7330   -1.3481 H   0  0  0  0  0  0  0  0  0  0  0  0
  1  2  1  0  0  0  0
  1  5  1  0  0  0  0
  1 24  1  0  0  0  0
  1 25  1  0  0  0  0
  2  3  1  0  0  0  0
  2 23  1  0  0  0  0
  2 26  1  0  0  0  0
  3  4  1  0  0  0  0
  4  5  1  0  0  0  0
  4  6  1  0  0  0  0
  4 12  1  0  0  0  0
  6  7  1  0  0  0  0
  6 27  1  0  0  0  0
  6 28  1  0  0  0  0
  7  8  1  0  0  0  0
  7 11  1  0  0  0  0
  8  9  2  0  0  0  0
  8 29  1  0  0  0  0
  9 10  1  0  0  0  0
 10 11  2  0  0  0  0
 10 30  1  0  0  0  0
 12 13  2  0  0  0  0
 12 20  1  0  0  0  0
 13 14  1  0  0  0  0
 13 31  1  0  0  0  0
 14 15  2  0  0  0  0
 14 19  1  0  0  0  0
 15 16  1  0  0  0  0
 15 32  1  0  0  0  0
 16 17  2  0  0  0  0
 16 22  1  0  0  0  0
 17 18  1  0  0  0  0
 17 33  1  0  0  0  0
 18 19  2  0  0  0  0
 18 21  1  0  0  0  0
 19 20  1  0  0  0  0
 23 34  1  0  0  0  0
 23 35  1  0  0  0  0
 23 36  1  0  0  0  0
M  END
