./098532-71-9.hin
 OpenBabel10051109203D

 43 46  0  0  0  0  0  0  0  0999 V2000
   -0.1026    0.1987   -2.7287 N   0  0  0  0  0  0  0  0  0  0  0  0
    0.5324   -0.6079   -3.6006 N   0  0  0  0  0  0  0  0  0  0  0  0
   -0.4052   -0.8965   -4.5452 C   0  0  0  0  0  0  0  0  0  0  0  0
   -1.6524   -0.2937   -4.2878 N   0  0  0  0  0  0  0  0  0  0  0  0
   -1.4425    0.3844   -3.1422 C   0  0  0  0  0  0  0  0  0  0  0  0
    0.4833    0.7492   -1.5321 C   0  0  0  0  0  0  0  0  0  0  0  0
   -0.0709    0.1657   -0.2047 C   0  0  0  0  0  0  0  0  0  0  0  0
    0.2099   -1.2275   -0.1276 O   0  0  0  0  0  0  0  0  0  0  0  0
   -0.9399   -1.9429    0.3628 C   0  0  0  0  0  0  0  0  0  0  0  0
   -2.0717   -0.9128    0.3662 C   0  0  0  0  0  0  0  0  0  0  0  0
   -1.4908    0.2890   -0.1617 O   0  0  0  0  0  0  0  0  0  0  0  0
    0.5491    0.9053    0.9401 C   0  0  0  0  0  0  0  0  0  0  0  0
    1.9556    0.8125    1.0187 O   0  0  0  0  0  0  0  0  0  0  0  0
    2.3133    1.5678    2.1371 C   0  0  0  0  0  0  0  0  0  0  0  0
    1.1506    2.1309    2.7505 C   0  0  0  0  0  0  0  0  0  0  0  0
    0.0279    1.6803    1.9485 C   0  0  0  0  0  0  0  0  0  0  0  0
    1.3025    2.9229    3.8864 C   0  0  0  0  0  0  0  0  0  0  0  0
    2.5885    3.1314    4.3780 C   0  0  0  0  0  0  0  0  0  0  0  0
    3.7150    2.5667    3.7592 C   0  0  0  0  0  0  0  0  0  0  0  0
    3.6018    1.7701    2.6218 C   0  0  0  0  0  0  0  0  0  0  0  0
   -1.1723   -3.1249   -0.5758 C   0  0  0  0  0  0  0  0  0  0  0  0
   -1.9992   -4.0382    0.1397 O   0  0  0  0  0  0  0  0  0  0  0  0
   -2.1980   -5.2571   -0.5792 C   0  0  0  0  0  0  0  0  0  0  0  0
   -3.0772   -6.1319    0.2833 C   0  0  0  0  0  0  0  0  0  0  0  0
   -0.2201   -1.5251   -5.4216 H   0  0  0  0  0  0  0  0  0  0  0  0
   -2.1595    0.9851   -2.5721 H   0  0  0  0  0  0  0  0  0  0  0  0
    0.2748    1.8564   -1.5217 H   0  0  0  0  0  0  0  0  0  0  0  0
    1.5971    0.5688   -1.5246 H   0  0  0  0  0  0  0  0  0  0  0  0
   -0.6972   -2.3072    1.3963 H   0  0  0  0  0  0  0  0  0  0  0  0
   -2.4448   -0.6936    1.3974 H   0  0  0  0  0  0  0  0  0  0  0  0
   -2.9183   -1.1806   -0.3136 H   0  0  0  0  0  0  0  0  0  0  0  0
   -1.0191    1.9193    2.1197 H   0  0  0  0  0  0  0  0  0  0  0  0
    0.4283    3.3695    4.3801 H   0  0  0  0  0  0  0  0  0  0  0  0
    2.7295    3.7537    5.2746 H   0  0  0  0  0  0  0  0  0  0  0  0
    4.7125    2.7575    4.1837 H   0  0  0  0  0  0  0  0  0  0  0  0
    4.4755    1.3223    2.1319 H   0  0  0  0  0  0  0  0  0  0  0  0
   -1.6868   -2.8026   -1.5185 H   0  0  0  0  0  0  0  0  0  0  0  0
   -0.1899   -3.6037   -0.8325 H   0  0  0  0  0  0  0  0  0  0  0  0
   -2.6890   -5.0321   -1.5636 H   0  0  0  0  0  0  0  0  0  0  0  0
   -1.2042   -5.7437   -0.7700 H   0  0  0  0  0  0  0  0  0  0  0  0
   -3.2589   -7.1004   -0.2399 H   0  0  0  0  0  0  0  0  0  0  0  0
   -2.5847   -6.3319    1.2648 H   0  0  0  0  0  0  0  0  0  0  0  0
   -4.0555   -5.6309    0.4776 H   0  0  0  0  0  0  0  0  0  0  0  0
  1  2  1  0  0  0  0
  1  5  1  0  0  0  0
  1  6  1  0  0  0  0
  2  3  2  0  0  0  0
  3  4  1  0  0  0  0
  3 25  1  0  0  0  0
  4  5  2  0  0  0  0
  5 26  1  0  0  0  0
  6  7  1  0  0  0  0
  6 27  1  0  0  0  0
  6 28  1  0  0  0  0
  7  8  1  0  0  0  0
  7 11  1  0  0  0  0
  7 12  1  0  0  0  0
  8  9  1  0  0  0  0
  9 10  1  0  0  0  0
  9 21  1  0  0  0  0
  9 29  1  0  0  0  0
 10 11  1  0  0  0  0
 10 30  1  0  0  0  0
 10 31  1  0  0  0  0
 12 13  1  0  0  0  0
 12 16  2  0  0  0  0
 13 14  1  0  0  0  0
 14 15  2  0  0  0  0
 14 20  1  0  0  0  0
 15 16  1  0  0  0  0
 15 17  1  0  0  0  0
 16 32  1  0  0  0  0
 17 18  2  0  0  0  0
 17 33  1  0  0  0  0
 18 19  1  0  0  0  0
 18 34  1  0  0  0  0
 19 20  2  0  0  0  0
 19 35  1  0  0  0  0
 20 36  1  0  0  0  0
 21 22  1  0  0  0  0
 21 37  1  0  0  0  0
 21 38  1  0  0  0  0
 22 23  1  0  0  0  0
 23 24  1  0  0  0  0
 23 39  1  0  0  0  0
 23 40  1  0  0  0  0
 24 41  1  0  0  0  0
 24 42  1  0  0  0  0
 24 43  1  0  0  0  0
M  END
