./098532-73-1.hin
 OpenBabel10051109203D

 43 46  0  0  0  0  0  0  0  0999 V2000
   -0.8308    0.3981   -3.7891 N   0  0  0  0  0  0  0  0  0  0  0  0
   -0.2645   -0.2848   -4.8040 N   0  0  0  0  0  0  0  0  0  0  0  0
   -1.3054   -0.6143   -5.6167 C   0  0  0  0  0  0  0  0  0  0  0  0
   -2.5498   -0.1632   -5.1316 N   0  0  0  0  0  0  0  0  0  0  0  0
   -2.2310    0.4637   -3.9829 C   0  0  0  0  0  0  0  0  0  0  0  0
   -0.1179    0.9306   -2.6556 C   0  0  0  0  0  0  0  0  0  0  0  0
   -0.4418    0.2431   -1.3021 C   0  0  0  0  0  0  0  0  0  0  0  0
   -0.0605   -1.1243   -1.3469 O   0  0  0  0  0  0  0  0  0  0  0  0
   -1.0487   -1.9329   -0.6749 C   0  0  0  0  0  0  0  0  0  0  0  0
   -2.2499   -1.0016   -0.4868 C   0  0  0  0  0  0  0  0  0  0  0  0
   -1.8492    0.2489   -1.0686 O   0  0  0  0  0  0  0  0  0  0  0  0
    0.2730    0.9739   -0.2055 C   0  0  0  0  0  0  0  0  0  0  0  0
    0.8618    0.1527    0.7785 O   0  0  0  0  0  0  0  0  0  0  0  0
    1.4528    1.0277    1.6891 C   0  0  0  0  0  0  0  0  0  0  0  0
    1.2370    2.3831    1.2878 C   0  0  0  0  0  0  0  0  0  0  0  0
    0.4683    2.3093    0.0586 C   0  0  0  0  0  0  0  0  0  0  0  0
    1.7453    3.4221    2.0611 C   0  0  0  0  0  0  0  0  0  0  0  0
    2.4563    3.0844    3.2145 C   0  0  0  0  0  0  0  0  0  0  0  0
    2.6671    1.7501    3.6059 C   0  0  0  0  0  0  0  0  0  0  0  0
    2.1640    0.6939    2.8422 C   0  0  0  0  0  0  0  0  0  0  0  0
    2.4162   -0.9095    3.3120 Cl  0  0  0  0  0  0  0  0  0  0  0  0
    3.0940    4.3252    4.1872 Cl  0  0  0  0  0  0  0  0  0  0  0  0
   -1.3231   -3.1394   -1.5686 C   0  0  0  0  0  0  0  0  0  0  0  0
   -1.9823   -4.0967   -0.7451 O   0  0  0  0  0  0  0  0  0  0  0  0
   -2.1889   -5.3366   -1.4248 C   0  0  0  0  0  0  0  0  0  0  0  0
   -2.8869   -6.2553   -0.4497 C   0  0  0  0  0  0  0  0  0  0  0  0
   -1.2006   -1.1676   -6.5552 H   0  0  0  0  0  0  0  0  0  0  0  0
   -2.9053    0.9474   -3.2671 H   0  0  0  0  0  0  0  0  0  0  0  0
   -0.3946    2.0183   -2.5513 H   0  0  0  0  0  0  0  0  0  0  0  0
    0.9931    0.8307   -2.8199 H   0  0  0  0  0  0  0  0  0  0  0  0
   -0.6090   -2.2555    0.3064 H   0  0  0  0  0  0  0  0  0  0  0  0
   -2.4861   -0.8239    0.5915 H   0  0  0  0  0  0  0  0  0  0  0  0
   -3.1603   -1.3326   -1.0452 H   0  0  0  0  0  0  0  0  0  0  0  0
    0.1196    3.1629   -0.5175 H   0  0  0  0  0  0  0  0  0  0  0  0
    1.5902    4.4715    1.7711 H   0  0  0  0  0  0  0  0  0  0  0  0
    3.2357    1.5344    4.5253 H   0  0  0  0  0  0  0  0  0  0  0  0
   -1.9804   -2.8638   -2.4344 H   0  0  0  0  0  0  0  0  0  0  0  0
   -0.3538   -3.5541   -1.9539 H   0  0  0  0  0  0  0  0  0  0  0  0
   -2.8176   -5.1597   -2.3381 H   0  0  0  0  0  0  0  0  0  0  0  0
   -1.1972   -5.7582   -1.7407 H   0  0  0  0  0  0  0  0  0  0  0  0
   -3.0678   -7.2417   -0.9387 H   0  0  0  0  0  0  0  0  0  0  0  0
   -2.2589   -6.4068    0.4606 H   0  0  0  0  0  0  0  0  0  0  0  0
   -3.8638   -5.8183   -0.1329 H   0  0  0  0  0  0  0  0  0  0  0  0
  1  2  1  0  0  0  0
  1  5  1  0  0  0  0
  1  6  1  0  0  0  0
  2  3  2  0  0  0  0
  3  4  1  0  0  0  0
  3 27  1  0  0  0  0
  4  5  2  0  0  0  0
  5 28  1  0  0  0  0
  6  7  1  0  0  0  0
  6 29  1  0  0  0  0
  6 30  1  0  0  0  0
  7  8  1  0  0  0  0
  7 11  1  0  0  0  0
  7 12  1  0  0  0  0
  8  9  1  0  0  0  0
  9 10  1  0  0  0  0
  9 23  1  0  0  0  0
  9 31  1  0  0  0  0
 10 11  1  0  0  0  0
 10 32  1  0  0  0  0
 10 33  1  0  0  0  0
 12 13  1  0  0  0  0
 12 16  2  0  0  0  0
 13 14  1  0  0  0  0
 14 15  2  0  0  0  0
 14 20  1  0  0  0  0
 15 16  1  0  0  0  0
 15 17  1  0  0  0  0
 16 34  1  0  0  0  0
 17 18  2  0  0  0  0
 17 35  1  0  0  0  0
 18 19  1  0  0  0  0
 18 22  1  0  0  0  0
 19 20  2  0  0  0  0
 19 36  1  0  0  0  0
 20 21  1  0  0  0  0
 23 24  1  0  0  0  0
 23 37  1  0  0  0  0
 23 38  1  0  0  0  0
 24 25  1  0  0  0  0
 25 26  1  0  0  0  0
 25 39  1  0  0  0  0
 25 40  1  0  0  0  0
 26 41  1  0  0  0  0
 26 42  1  0  0  0  0
 26 43  1  0  0  0  0
M  END
