./098532-80-0.hin
 OpenBabel10051109203D

 51 54  0  0  0  0  0  0  0  0999 V2000
   -1.0577    0.5001   -3.0595 N   0  0  0  0  0  0  0  0  0  0  0  0
   -1.5708    1.4002   -3.9220 N   0  0  0  0  0  0  0  0  0  0  0  0
   -2.2096    0.6490   -4.8606 C   0  0  0  0  0  0  0  0  0  0  0  0
   -2.1304   -0.7347   -4.6082 N   0  0  0  0  0  0  0  0  0  0  0  0
   -1.4106   -0.8057   -3.4709 C   0  0  0  0  0  0  0  0  0  0  0  0
   -0.3155    0.8414   -1.8710 C   0  0  0  0  0  0  0  0  0  0  0  0
   -0.8878    0.2581   -0.5414 C   0  0  0  0  0  0  0  0  0  0  0  0
   -0.8764   -1.1539   -0.6584 O   0  0  0  0  0  0  0  0  0  0  0  0
   -1.4685   -1.8616    0.4462 C   0  0  0  0  0  0  0  0  0  0  0  0
   -2.9327   -1.4217    0.6324 C   0  0  0  0  0  0  0  0  0  0  0  0
   -2.9337    0.1136    0.6783 C   0  0  0  0  0  0  0  0  0  0  0  0
   -2.2323    0.6728   -0.4293 O   0  0  0  0  0  0  0  0  0  0  0  0
   -3.4806   -1.9443    1.9480 C   0  0  0  0  0  0  0  0  0  0  0  0
   -3.7958   -1.8969   -0.5227 C   0  0  0  0  0  0  0  0  0  0  0  0
   -0.0181    0.7270    0.5858 C   0  0  0  0  0  0  0  0  0  0  0  0
   -0.4333    1.9122    1.2281 O   0  0  0  0  0  0  0  0  0  0  0  0
    0.5396    2.1701    2.1960 C   0  0  0  0  0  0  0  0  0  0  0  0
    1.5522    1.1610    2.1654 C   0  0  0  0  0  0  0  0  0  0  0  0
    1.1583    0.2446    1.1118 C   0  0  0  0  0  0  0  0  0  0  0  0
    2.6160    1.2436    3.0612 C   0  0  0  0  0  0  0  0  0  0  0  0
    2.6452    2.3121    3.9534 C   0  0  0  0  0  0  0  0  0  0  0  0
    1.6386    3.2909    3.9651 C   0  0  0  0  0  0  0  0  0  0  0  0
    0.5607    3.2413    3.0840 C   0  0  0  0  0  0  0  0  0  0  0  0
   -1.3057   -3.3389    0.1090 C   0  0  0  0  0  0  0  0  0  0  0  0
    0.1134   -3.8074    0.3513 C   0  0  0  0  0  0  0  0  0  0  0  0
    0.2944   -5.2459   -0.0587 C   0  0  0  0  0  0  0  0  0  0  0  0
   -2.7331    1.0647   -5.7267 H   0  0  0  0  0  0  0  0  0  0  0  0
   -1.1300   -1.7008   -2.9024 H   0  0  0  0  0  0  0  0  0  0  0  0
   -0.2829    1.9611   -1.7456 H   0  0  0  0  0  0  0  0  0  0  0  0
    0.7293    0.4332   -1.9797 H   0  0  0  0  0  0  0  0  0  0  0  0
   -0.8886   -1.6035    1.3785 H   0  0  0  0  0  0  0  0  0  0  0  0
   -2.4710    0.4795    1.6334 H   0  0  0  0  0  0  0  0  0  0  0  0
   -3.9719    0.5240    0.5650 H   0  0  0  0  0  0  0  0  0  0  0  0
   -2.8147   -1.6556    2.7966 H   0  0  0  0  0  0  0  0  0  0  0  0
   -4.4962   -1.5166    2.1307 H   0  0  0  0  0  0  0  0  0  0  0  0
   -3.5670   -3.0569    1.9243 H   0  0  0  0  0  0  0  0  0  0  0  0
   -3.8611   -3.0111   -0.5318 H   0  0  0  0  0  0  0  0  0  0  0  0
   -4.8275   -1.4807   -0.4303 H   0  0  0  0  0  0  0  0  0  0  0  0
   -3.3510   -1.5502   -1.4886 H   0  0  0  0  0  0  0  0  0  0  0  0
    1.6952   -0.6517    0.8092 H   0  0  0  0  0  0  0  0  0  0  0  0
    3.4105    0.4844    3.0608 H   0  0  0  0  0  0  0  0  0  0  0  0
    3.4774    2.3958    4.6688 H   0  0  0  0  0  0  0  0  0  0  0  0
    1.7035    4.1186    4.6880 H   0  0  0  0  0  0  0  0  0  0  0  0
   -0.2302    4.0020    3.0835 H   0  0  0  0  0  0  0  0  0  0  0  0
   -2.0170   -3.9318    0.7403 H   0  0  0  0  0  0  0  0  0  0  0  0
   -1.5800   -3.5017   -0.9671 H   0  0  0  0  0  0  0  0  0  0  0  0
    0.8190   -3.1534   -0.2271 H   0  0  0  0  0  0  0  0  0  0  0  0
    0.3679   -3.6902    1.4380 H   0  0  0  0  0  0  0  0  0  0  0  0
    1.3437   -5.5747    0.1360 H   0  0  0  0  0  0  0  0  0  0  0  0
   -0.3959   -5.9100    0.5157 H   0  0  0  0  0  0  0  0  0  0  0  0
    0.0804   -5.3761   -1.1473 H   0  0  0  0  0  0  0  0  0  0  0  0
  1  2  1  0  0  0  0
  1  5  1  0  0  0  0
  1  6  1  0  0  0  0
  2  3  2  0  0  0  0
  3  4  1  0  0  0  0
  3 27  1  0  0  0  0
  4  5  2  0  0  0  0
  5 28  1  0  0  0  0
  6  7  1  0  0  0  0
  6 29  1  0  0  0  0
  6 30  1  0  0  0  0
  7  8  1  0  0  0  0
  7 12  1  0  0  0  0
  7 15  1  0  0  0  0
  8  9  1  0  0  0  0
  9 10  1  0  0  0  0
  9 24  1  0  0  0  0
  9 31  1  0  0  0  0
 10 11  1  0  0  0  0
 10 13  1  0  0  0  0
 10 14  1  0  0  0  0
 11 12  1  0  0  0  0
 11 32  1  0  0  0  0
 11 33  1  0  0  0  0
 13 34  1  0  0  0  0
 13 35  1  0  0  0  0
 13 36  1  0  0  0  0
 14 37  1  0  0  0  0
 14 38  1  0  0  0  0
 14 39  1  0  0  0  0
 15 16  1  0  0  0  0
 15 19  2  0  0  0  0
 16 17  1  0  0  0  0
 17 18  2  0  0  0  0
 17 23  1  0  0  0  0
 18 19  1  0  0  0  0
 18 20  1  0  0  0  0
 19 40  1  0  0  0  0
 20 21  2  0  0  0  0
 20 41  1  0  0  0  0
 21 22  1  0  0  0  0
 21 42  1  0  0  0  0
 22 23  2  0  0  0  0
 22 43  1  0  0  0  0
 23 44  1  0  0  0  0
 24 25  1  0  0  0  0
 24 45  1  0  0  0  0
 24 46  1  0  0  0  0
 25 26  1  0  0  0  0
 25 47  1  0  0  0  0
 25 48  1  0  0  0  0
 26 49  1  0  0  0  0
 26 50  1  0  0  0  0
 26 51  1  0  0  0  0
M  END
