./098532-81-1.hin
 OpenBabel10051109203D

 48 51  0  0  0  0  0  0  0  0999 V2000
   -0.8367   -1.8037   -3.7110 C   0  0  0  0  0  0  0  0  0  0  0  0
   -0.3911   -2.1119   -2.3059 C   0  0  0  0  0  0  0  0  0  0  0  0
   -1.4099   -1.7719   -1.2207 C   0  0  0  0  0  0  0  0  0  0  0  0
   -2.7883   -2.3603   -1.5055 C   0  0  0  0  0  0  0  0  0  0  0  0
   -2.7916   -3.8592   -1.6578 C   0  0  0  0  0  0  0  0  0  0  0  0
   -1.5522   -0.2549   -1.0667 C   0  0  0  0  0  0  0  0  0  0  0  0
   -0.3892    0.3737   -0.5408 O   0  0  0  0  0  0  0  0  0  0  0  0
    0.2434   -0.1895    0.5919 C   0  0  0  0  0  0  0  0  0  0  0  0
   -0.3094    0.3213    1.9591 C   0  0  0  0  0  0  0  0  0  0  0  0
   -1.7405    0.4297    2.0930 N   0  0  0  0  0  0  0  0  0  0  0  0
   -2.5213    1.5094    1.6171 C   0  0  0  0  0  0  0  0  0  0  0  0
   -3.8030    1.3350    1.9974 N   0  0  0  0  0  0  0  0  0  0  0  0
   -3.7693    0.1270    2.7199 C   0  0  0  0  0  0  0  0  0  0  0  0
   -2.5242   -0.4219    2.7826 N   0  0  0  0  0  0  0  0  0  0  0  0
    0.2870   -1.6040    0.5331 O   0  0  0  0  0  0  0  0  0  0  0  0
   -0.8963   -2.2821    0.1296 C   0  0  0  0  0  0  0  0  0  0  0  0
    1.6851    0.2507    0.5193 C   0  0  0  0  0  0  0  0  0  0  0  0
    2.8654   -0.4411    0.4003 C   0  0  0  0  0  0  0  0  0  0  0  0
    3.9265    0.5499    0.3755 C   0  0  0  0  0  0  0  0  0  0  0  0
    3.2733    1.8181    0.4807 C   0  0  0  0  0  0  0  0  0  0  0  0
    1.8899    1.6474    0.5713 O   0  0  0  0  0  0  0  0  0  0  0  0
    3.9597    3.0279    0.4875 C   0  0  0  0  0  0  0  0  0  0  0  0
    5.3475    2.9511    0.3864 C   0  0  0  0  0  0  0  0  0  0  0  0
    6.0108    1.7186    0.2836 C   0  0  0  0  0  0  0  0  0  0  0  0
    5.3150    0.5119    0.2765 C   0  0  0  0  0  0  0  0  0  0  0  0
    0.0026   -2.0024   -4.4220 H   0  0  0  0  0  0  0  0  0  0  0  0
   -1.7033   -2.4437   -4.0071 H   0  0  0  0  0  0  0  0  0  0  0  0
   -1.1363   -0.7336   -3.8186 H   0  0  0  0  0  0  0  0  0  0  0  0
    0.5486   -1.5386   -2.0761 H   0  0  0  0  0  0  0  0  0  0  0  0
   -0.1424   -3.2046   -2.2319 H   0  0  0  0  0  0  0  0  0  0  0  0
   -3.4821   -2.0763   -0.6684 H   0  0  0  0  0  0  0  0  0  0  0  0
   -3.1893   -1.8874   -2.4417 H   0  0  0  0  0  0  0  0  0  0  0  0
   -3.8338   -4.2188   -1.8395 H   0  0  0  0  0  0  0  0  0  0  0  0
   -2.1559   -4.1755   -2.5201 H   0  0  0  0  0  0  0  0  0  0  0  0
   -2.4056   -4.3551   -0.7344 H   0  0  0  0  0  0  0  0  0  0  0  0
   -2.4365   -0.0117   -0.4205 H   0  0  0  0  0  0  0  0  0  0  0  0
   -1.6714    0.2477   -2.0657 H   0  0  0  0  0  0  0  0  0  0  0  0
    0.0947   -0.3768    2.7476 H   0  0  0  0  0  0  0  0  0  0  0  0
    0.1144    1.3552    2.1219 H   0  0  0  0  0  0  0  0  0  0  0  0
   -2.1042    2.3297    1.0229 H   0  0  0  0  0  0  0  0  0  0  0  0
   -4.6582   -0.3130    3.1827 H   0  0  0  0  0  0  0  0  0  0  0  0
   -1.6853   -2.1804    0.9182 H   0  0  0  0  0  0  0  0  0  0  0  0
   -0.5583   -3.3524    0.0635 H   0  0  0  0  0  0  0  0  0  0  0  0
    2.9873   -1.5202    0.3389 H   0  0  0  0  0  0  0  0  0  0  0  0
    3.4322    3.9867    0.5657 H   0  0  0  0  0  0  0  0  0  0  0  0
    5.9378    3.8800    0.3863 H   0  0  0  0  0  0  0  0  0  0  0  0
    7.1084    1.7091    0.2058 H   0  0  0  0  0  0  0  0  0  0  0  0
    5.8457   -0.4468    0.1940 H   0  0  0  0  0  0  0  0  0  0  0  0
  1  2  1  0  0  0  0
  1 26  1  0  0  0  0
  1 27  1  0  0  0  0
  1 28  1  0  0  0  0
  2  3  1  0  0  0  0
  2 29  1  0  0  0  0
  2 30  1  0  0  0  0
  3  4  1  0  0  0  0
  3  6  1  0  0  0  0
  3 16  1  0  0  0  0
  4  5  1  0  0  0  0
  4 31  1  0  0  0  0
  4 32  1  0  0  0  0
  5 33  1  0  0  0  0
  5 34  1  0  0  0  0
  5 35  1  0  0  0  0
  6  7  1  0  0  0  0
  6 36  1  0  0  0  0
  6 37  1  0  0  0  0
  7  8  1  0  0  0  0
  8  9  1  0  0  0  0
  8 15  1  0  0  0  0
  8 17  1  0  0  0  0
  9 10  1  0  0  0  0
  9 38  1  0  0  0  0
  9 39  1  0  0  0  0
 10 11  1  0  0  0  0
 10 14  1  0  0  0  0
 11 12  2  0  0  0  0
 11 40  1  0  0  0  0
 12 13  1  0  0  0  0
 13 14  2  0  0  0  0
 13 41  1  0  0  0  0
 15 16  1  0  0  0  0
 16 42  1  0  0  0  0
 16 43  1  0  0  0  0
 17 18  2  0  0  0  0
 17 21  1  0  0  0  0
 18 19  1  0  0  0  0
 18 44  1  0  0  0  0
 19 20  2  0  0  0  0
 19 25  1  0  0  0  0
 20 21  1  0  0  0  0
 20 22  1  0  0  0  0
 22 23  2  0  0  0  0
 22 45  1  0  0  0  0
 23 24  1  0  0  0  0
 23 46  1  0  0  0  0
 24 25  2  0  0  0  0
 24 47  1  0  0  0  0
 25 48  1  0  0  0  0
M  END
