./098532-82-2.hin
 OpenBabel10051109203D

 45 48  0  0  0  0  0  0  0  0999 V2000
   -0.2647   -0.2106   -3.0363 N   0  0  0  0  0  0  0  0  0  0  0  0
   -0.9128    0.6166   -3.8805 N   0  0  0  0  0  0  0  0  0  0  0  0
   -1.4734   -0.2096   -4.8059 C   0  0  0  0  0  0  0  0  0  0  0  0
   -1.2094   -1.5722   -4.5623 N   0  0  0  0  0  0  0  0  0  0  0  0
   -0.4569   -1.5507   -3.4445 C   0  0  0  0  0  0  0  0  0  0  0  0
    0.4521    0.2158   -1.8610 C   0  0  0  0  0  0  0  0  0  0  0  0
   -0.0938   -0.3494   -0.5034 C   0  0  0  0  0  0  0  0  0  0  0  0
   -0.0215   -1.7592   -0.5999 O   0  0  0  0  0  0  0  0  0  0  0  0
   -0.7228   -2.5487    0.3813 C   0  0  0  0  0  0  0  0  0  0  0  0
   -2.1514   -2.0407    0.5675 C   0  0  0  0  0  0  0  0  0  0  0  0
   -2.1717   -0.5250    0.6874 C   0  0  0  0  0  0  0  0  0  0  0  0
   -1.4366    0.0579   -0.4009 O   0  0  0  0  0  0  0  0  0  0  0  0
    0.7962    0.1901    0.5778 C   0  0  0  0  0  0  0  0  0  0  0  0
    0.2052    1.0881    1.4906 O   0  0  0  0  0  0  0  0  0  0  0  0
    1.2389    1.4928    2.3383 C   0  0  0  0  0  0  0  0  0  0  0  0
    2.4639    0.8557    1.9676 C   0  0  0  0  0  0  0  0  0  0  0  0
    2.1402    0.0224    0.8247 C   0  0  0  0  0  0  0  0  0  0  0  0
    3.6172    1.1317    2.6986 C   0  0  0  0  0  0  0  0  0  0  0  0
    3.5248    2.0228    3.7647 C   0  0  0  0  0  0  0  0  0  0  0  0
    2.3105    2.6375    4.1089 C   0  0  0  0  0  0  0  0  0  0  0  0
    1.1373    2.3851    3.4010 C   0  0  0  0  0  0  0  0  0  0  0  0
   -3.5775    0.0317    0.5754 C   0  0  0  0  0  0  0  0  0  0  0  0
    0.0371   -2.5647    1.6994 C   0  0  0  0  0  0  0  0  0  0  0  0
   -0.7399   -3.9512   -0.2253 C   0  0  0  0  0  0  0  0  0  0  0  0
   -2.0680    0.1362   -5.6566 H   0  0  0  0  0  0  0  0  0  0  0  0
   -0.0509   -2.4019   -2.8849 H   0  0  0  0  0  0  0  0  0  0  0  0
    0.4220    1.3390   -1.7793 H   0  0  0  0  0  0  0  0  0  0  0  0
    1.5174   -0.1400   -1.9512 H   0  0  0  0  0  0  0  0  0  0  0  0
   -2.5969   -2.4996    1.4852 H   0  0  0  0  0  0  0  0  0  0  0  0
   -2.7695   -2.3487   -0.3161 H   0  0  0  0  0  0  0  0  0  0  0  0
   -1.6950   -0.1997    1.6552 H   0  0  0  0  0  0  0  0  0  0  0  0
    2.8363   -0.6142    0.2842 H   0  0  0  0  0  0  0  0  0  0  0  0
    4.5739    0.6581    2.4380 H   0  0  0  0  0  0  0  0  0  0  0  0
    4.4248    2.2547    4.3541 H   0  0  0  0  0  0  0  0  0  0  0  0
    2.2850    3.3371    4.9584 H   0  0  0  0  0  0  0  0  0  0  0  0
    0.1840    2.8626    3.6600 H   0  0  0  0  0  0  0  0  0  0  0  0
   -4.2077   -0.4012    1.3875 H   0  0  0  0  0  0  0  0  0  0  0  0
   -3.5558    1.1432    0.6742 H   0  0  0  0  0  0  0  0  0  0  0  0
   -4.0223   -0.2260   -0.4153 H   0  0  0  0  0  0  0  0  0  0  0  0
   -0.0077   -1.5638    2.1927 H   0  0  0  0  0  0  0  0  0  0  0  0
   -0.4115   -3.3256    2.3810 H   0  0  0  0  0  0  0  0  0  0  0  0
    1.1081   -2.8231    1.5190 H   0  0  0  0  0  0  0  0  0  0  0  0
    0.2985   -4.3537   -0.2878 H   0  0  0  0  0  0  0  0  0  0  0  0
   -1.3584   -4.6195    0.4182 H   0  0  0  0  0  0  0  0  0  0  0  0
   -1.1741   -3.9206   -1.2532 H   0  0  0  0  0  0  0  0  0  0  0  0
  1  2  1  0  0  0  0
  1  5  1  0  0  0  0
  1  6  1  0  0  0  0
  2  3  2  0  0  0  0
  3  4  1  0  0  0  0
  3 25  1  0  0  0  0
  4  5  2  0  0  0  0
  5 26  1  0  0  0  0
  6  7  1  0  0  0  0
  6 27  1  0  0  0  0
  6 28  1  0  0  0  0
  7  8  1  0  0  0  0
  7 12  1  0  0  0  0
  7 13  1  0  0  0  0
  8  9  1  0  0  0  0
  9 10  1  0  0  0  0
  9 23  1  0  0  0  0
  9 24  1  0  0  0  0
 10 11  1  0  0  0  0
 10 29  1  0  0  0  0
 10 30  1  0  0  0  0
 11 12  1  0  0  0  0
 11 22  1  0  0  0  0
 11 31  1  0  0  0  0
 13 14  1  0  0  0  0
 13 17  2  0  0  0  0
 14 15  1  0  0  0  0
 15 16  2  0  0  0  0
 15 21  1  0  0  0  0
 16 17  1  0  0  0  0
 16 18  1  0  0  0  0
 17 32  1  0  0  0  0
 18 19  2  0  0  0  0
 18 33  1  0  0  0  0
 19 20  1  0  0  0  0
 19 34  1  0  0  0  0
 20 21  2  0  0  0  0
 20 35  1  0  0  0  0
 21 36  1  0  0  0  0
 22 37  1  0  0  0  0
 22 38  1  0  0  0  0
 22 39  1  0  0  0  0
 23 40  1  0  0  0  0
 23 41  1  0  0  0  0
 23 42  1  0  0  0  0
 24 43  1  0  0  0  0
 24 44  1  0  0  0  0
 24 45  1  0  0  0  0
M  END
