./098532-83-3.hin
 OpenBabel10051109203D

 39 42  0  0  0  0  0  0  0  0999 V2000
    0.1867   -0.5761   -2.9857 N   0  0  0  0  0  0  0  0  0  0  0  0
   -0.5390    0.2452   -3.7707 N   0  0  0  0  0  0  0  0  0  0  0  0
   -1.0779   -0.5729   -4.7156 C   0  0  0  0  0  0  0  0  0  0  0  0
   -0.7236   -1.9262   -4.5426 N   0  0  0  0  0  0  0  0  0  0  0  0
    0.0616   -1.9072   -3.4481 C   0  0  0  0  0  0  0  0  0  0  0  0
    0.9022   -0.1641   -1.8051 C   0  0  0  0  0  0  0  0  0  0  0  0
    0.3591   -0.7503   -0.4573 C   0  0  0  0  0  0  0  0  0  0  0  0
    0.4104   -2.1611   -0.5782 O   0  0  0  0  0  0  0  0  0  0  0  0
   -0.2872   -2.9451    0.3965 C   0  0  0  0  0  0  0  0  0  0  0  0
   -1.7099   -2.4435    0.6006 C   0  0  0  0  0  0  0  0  0  0  0  0
   -1.7174   -0.9336    0.7261 C   0  0  0  0  0  0  0  0  0  0  0  0
   -0.9822   -0.3338   -0.3396 O   0  0  0  0  0  0  0  0  0  0  0  0
    1.2539   -0.2427    0.6341 C   0  0  0  0  0  0  0  0  0  0  0  0
    0.6616    0.6129    1.5859 O   0  0  0  0  0  0  0  0  0  0  0  0
    1.6981    0.9943    2.4410 C   0  0  0  0  0  0  0  0  0  0  0  0
    2.9259    0.3838    2.0365 C   0  0  0  0  0  0  0  0  0  0  0  0
    2.6011   -0.4071    0.8642 C   0  0  0  0  0  0  0  0  0  0  0  0
    4.0823    0.6417    2.7693 C   0  0  0  0  0  0  0  0  0  0  0  0
    3.9901    1.4896    3.8700 C   0  0  0  0  0  0  0  0  0  0  0  0
    2.7730    2.0792    4.2469 C   0  0  0  0  0  0  0  0  0  0  0  0
    1.5966    1.8437    3.5383 C   0  0  0  0  0  0  0  0  0  0  0  0
    0.4824   -3.0370    1.6983 C   0  0  0  0  0  0  0  0  0  0  0  0
   -1.7196   -0.2282   -5.5320 H   0  0  0  0  0  0  0  0  0  0  0  0
    0.5384   -2.7542   -2.9426 H   0  0  0  0  0  0  0  0  0  0  0  0
    0.8679    0.9577   -1.7072 H   0  0  0  0  0  0  0  0  0  0  0  0
    1.9685   -0.5148   -1.9022 H   0  0  0  0  0  0  0  0  0  0  0  0
   -0.3067   -3.9604   -0.1011 H   0  0  0  0  0  0  0  0  0  0  0  0
   -2.1495   -2.9066    1.5191 H   0  0  0  0  0  0  0  0  0  0  0  0
   -2.3348   -2.7461   -0.2797 H   0  0  0  0  0  0  0  0  0  0  0  0
   -1.2895   -0.6035    1.7097 H   0  0  0  0  0  0  0  0  0  0  0  0
   -2.7497   -0.5117    0.5955 H   0  0  0  0  0  0  0  0  0  0  0  0
    3.2996   -1.0150    0.2943 H   0  0  0  0  0  0  0  0  0  0  0  0
    5.0412    0.1874    2.4834 H   0  0  0  0  0  0  0  0  0  0  0  0
    4.8924    1.7065    4.4616 H   0  0  0  0  0  0  0  0  0  0  0  0
    2.7478    2.7450    5.1230 H   0  0  0  0  0  0  0  0  0  0  0  0
    0.6411    2.3020    3.8227 H   0  0  0  0  0  0  0  0  0  0  0  0
    0.4720   -2.0574    2.2354 H   0  0  0  0  0  0  0  0  0  0  0  0
    0.0186   -3.8130    2.3526 H   0  0  0  0  0  0  0  0  0  0  0  0
    1.5439   -3.3180    1.4969 H   0  0  0  0  0  0  0  0  0  0  0  0
  1  2  1  0  0  0  0
  1  5  1  0  0  0  0
  1  6  1  0  0  0  0
  2  3  2  0  0  0  0
  3  4  1  0  0  0  0
  3 23  1  0  0  0  0
  4  5  2  0  0  0  0
  5 24  1  0  0  0  0
  6  7  1  0  0  0  0
  6 25  1  0  0  0  0
  6 26  1  0  0  0  0
  7  8  1  0  0  0  0
  7 12  1  0  0  0  0
  7 13  1  0  0  0  0
  8  9  1  0  0  0  0
  9 10  1  0  0  0  0
  9 22  1  0  0  0  0
  9 27  1  0  0  0  0
 10 11  1  0  0  0  0
 10 28  1  0  0  0  0
 10 29  1  0  0  0  0
 11 12  1  0  0  0  0
 11 30  1  0  0  0  0
 11 31  1  0  0  0  0
 13 14  1  0  0  0  0
 13 17  2  0  0  0  0
 14 15  1  0  0  0  0
 15 16  2  0  0  0  0
 15 21  1  0  0  0  0
 16 17  1  0  0  0  0
 16 18  1  0  0  0  0
 17 32  1  0  0  0  0
 18 19  2  0  0  0  0
 18 33  1  0  0  0  0
 19 20  1  0  0  0  0
 19 34  1  0  0  0  0
 20 21  2  0  0  0  0
 20 35  1  0  0  0  0
 21 36  1  0  0  0  0
 22 37  1  0  0  0  0
 22 38  1  0  0  0  0
 22 39  1  0  0  0  0
M  END
