./098532-85-5.hin
 OpenBabel10051109203D

 51 54  0  0  0  0  0  0  0  0999 V2000
    1.3292   -0.5033    4.6642 C   0  0  0  0  0  0  0  0  0  0  0  0
    2.1728   -0.5315    3.4154 C   0  0  0  0  0  0  0  0  0  0  0  0
    1.9348   -1.7675    2.5742 C   0  0  0  0  0  0  0  0  0  0  0  0
    0.6146   -1.7090    1.8082 C   0  0  0  0  0  0  0  0  0  0  0  0
    0.2083   -3.0685    1.2458 C   0  0  0  0  0  0  0  0  0  0  0  0
   -0.9666   -2.8289    0.3076 C   0  0  0  0  0  0  0  0  0  0  0  0
   -0.6093   -1.9046   -0.7115 O   0  0  0  0  0  0  0  0  0  0  0  0
   -0.0828   -0.6562   -0.3065 C   0  0  0  0  0  0  0  0  0  0  0  0
    0.8478   -0.7610    0.7537 O   0  0  0  0  0  0  0  0  0  0  0  0
   -1.1993    0.4039   -0.0562 C   0  0  0  0  0  0  0  0  0  0  0  0
   -1.9034    0.3390    1.1999 N   0  0  0  0  0  0  0  0  0  0  0  0
   -1.4281    0.8577    2.4274 C   0  0  0  0  0  0  0  0  0  0  0  0
   -2.3893    0.7378    3.3656 N   0  0  0  0  0  0  0  0  0  0  0  0
   -3.4567    0.1428    2.6666 C   0  0  0  0  0  0  0  0  0  0  0  0
   -3.1685   -0.0958    1.3567 N   0  0  0  0  0  0  0  0  0  0  0  0
    0.7153   -0.1552   -1.4873 C   0  0  0  0  0  0  0  0  0  0  0  0
    2.0627   -0.0305   -1.7204 C   0  0  0  0  0  0  0  0  0  0  0  0
    2.2036    0.5116   -3.0603 C   0  0  0  0  0  0  0  0  0  0  0  0
    3.2736    0.8660   -3.8780 C   0  0  0  0  0  0  0  0  0  0  0  0
    2.9968    1.3650   -5.1487 C   0  0  0  0  0  0  0  0  0  0  0  0
    1.6802    1.5135   -5.6115 C   0  0  0  0  0  0  0  0  0  0  0  0
    0.5848    1.1700   -4.8213 C   0  0  0  0  0  0  0  0  0  0  0  0
    0.8708    0.6738   -3.5538 C   0  0  0  0  0  0  0  0  0  0  0  0
   -0.0570    0.2678   -2.5918 O   0  0  0  0  0  0  0  0  0  0  0  0
   -0.1340   -4.0996    2.3047 C   0  0  0  0  0  0  0  0  0  0  0  0
   -1.0306   -3.6002    3.4078 C   0  0  0  0  0  0  0  0  0  0  0  0
    1.6108    0.3706    5.3003 H   0  0  0  0  0  0  0  0  0  0  0  0
    0.2435   -0.4156    4.4120 H   0  0  0  0  0  0  0  0  0  0  0  0
    1.4745   -1.4354    5.2623 H   0  0  0  0  0  0  0  0  0  0  0  0
    1.9637    0.3809    2.7956 H   0  0  0  0  0  0  0  0  0  0  0  0
    3.2576   -0.4982    3.7027 H   0  0  0  0  0  0  0  0  0  0  0  0
    2.7727   -1.8829    1.8375 H   0  0  0  0  0  0  0  0  0  0  0  0
    1.9175   -2.6774    3.2293 H   0  0  0  0  0  0  0  0  0  0  0  0
   -0.2031   -1.3078    2.4697 H   0  0  0  0  0  0  0  0  0  0  0  0
    1.0694   -3.4635    0.6346 H   0  0  0  0  0  0  0  0  0  0  0  0
   -1.8677   -2.4657    0.8647 H   0  0  0  0  0  0  0  0  0  0  0  0
   -1.2270   -3.7564   -0.2713 H   0  0  0  0  0  0  0  0  0  0  0  0
   -0.7081    1.4175   -0.1129 H   0  0  0  0  0  0  0  0  0  0  0  0
   -1.9278    0.2974   -0.9128 H   0  0  0  0  0  0  0  0  0  0  0  0
   -0.4174    1.2621    2.5534 H   0  0  0  0  0  0  0  0  0  0  0  0
   -4.4156   -0.0955    3.1375 H   0  0  0  0  0  0  0  0  0  0  0  0
    2.8708   -0.2813   -1.0375 H   0  0  0  0  0  0  0  0  0  0  0  0
    4.3090    0.7528   -3.5279 H   0  0  0  0  0  0  0  0  0  0  0  0
    3.8291    1.6500   -5.8097 H   0  0  0  0  0  0  0  0  0  0  0  0
    1.5084    1.9098   -6.6237 H   0  0  0  0  0  0  0  0  0  0  0  0
   -0.4479    1.2797   -5.1750 H   0  0  0  0  0  0  0  0  0  0  0  0
   -0.6277   -4.9703    1.7932 H   0  0  0  0  0  0  0  0  0  0  0  0
    0.8199   -4.4856    2.7552 H   0  0  0  0  0  0  0  0  0  0  0  0
   -1.3312   -4.4506    4.0673 H   0  0  0  0  0  0  0  0  0  0  0  0
   -0.5029   -2.8410    4.0374 H   0  0  0  0  0  0  0  0  0  0  0  0
   -1.9565   -3.1333    2.9935 H   0  0  0  0  0  0  0  0  0  0  0  0
  1  2  1  0  0  0  0
  1 27  1  0  0  0  0
  1 28  1  0  0  0  0
  1 29  1  0  0  0  0
  2  3  1  0  0  0  0
  2 30  1  0  0  0  0
  2 31  1  0  0  0  0
  3  4  1  0  0  0  0
  3 32  1  0  0  0  0
  3 33  1  0  0  0  0
  4  5  1  0  0  0  0
  4  9  1  0  0  0  0
  4 34  1  0  0  0  0
  5  6  1  0  0  0  0
  5 25  1  0  0  0  0
  5 35  1  0  0  0  0
  6  7  1  0  0  0  0
  6 36  1  0  0  0  0
  6 37  1  0  0  0  0
  7  8  1  0  0  0  0
  8  9  1  0  0  0  0
  8 10  1  0  0  0  0
  8 16  1  0  0  0  0
 10 11  1  0  0  0  0
 10 38  1  0  0  0  0
 10 39  1  0  0  0  0
 11 12  1  0  0  0  0
 11 15  1  0  0  0  0
 12 13  2  0  0  0  0
 12 40  1  0  0  0  0
 13 14  1  0  0  0  0
 14 15  2  0  0  0  0
 14 41  1  0  0  0  0
 16 17  2  0  0  0  0
 16 24  1  0  0  0  0
 17 18  1  0  0  0  0
 17 42  1  0  0  0  0
 18 19  2  0  0  0  0
 18 23  1  0  0  0  0
 19 20  1  0  0  0  0
 19 43  1  0  0  0  0
 20 21  2  0  0  0  0
 20 44  1  0  0  0  0
 21 22  1  0  0  0  0
 21 45  1  0  0  0  0
 22 23  2  0  0  0  0
 22 46  1  0  0  0  0
 23 24  1  0  0  0  0
 25 26  1  0  0  0  0
 25 47  1  0  0  0  0
 25 48  1  0  0  0  0
 26 49  1  0  0  0  0
 26 50  1  0  0  0  0
 26 51  1  0  0  0  0
M  END
