./098967-40-9.hin
 OpenBabel10051109203D

 31 33  0  0  0  0  0  0  0  0999 V2000
   -3.0637    0.0517    2.0026 F   0  0  0  0  0  0  0  0  0  0  0  0
   -2.4461   -1.1069    1.6774 C   0  0  0  0  0  0  0  0  0  0  0  0
   -2.5398   -2.1950    2.5633 C   0  0  0  0  0  0  0  0  0  0  0  0
   -1.9305   -3.4036    2.2498 C   0  0  0  0  0  0  0  0  0  0  0  0
   -1.2258   -3.5536    1.0610 C   0  0  0  0  0  0  0  0  0  0  0  0
   -1.1141   -2.4735    0.1690 C   0  0  0  0  0  0  0  0  0  0  0  0
   -0.4318   -2.6492   -0.9864 F   0  0  0  0  0  0  0  0  0  0  0  0
   -1.7110   -1.2128    0.4615 C   0  0  0  0  0  0  0  0  0  0  0  0
   -1.6117   -0.1340   -0.4317 N   0  0  0  0  0  0  0  0  0  0  0  0
   -0.6445    1.1557   -0.2659 S   0  0  0  0  0  0  0  0  0  0  0  0
   -1.3120    2.3137   -0.6687 O   0  0  0  0  0  0  0  0  0  0  0  0
   -0.0176    1.1720    0.9814 O   0  0  0  0  0  0  0  0  0  0  0  0
    0.5572    0.8394   -1.4851 C   0  0  0  0  0  0  0  0  0  0  0  0
    0.1931    0.3816   -2.7589 N   0  0  0  0  0  0  0  0  0  0  0  0
    1.3787    0.3029   -3.4378 C   0  0  0  0  0  0  0  0  0  0  0  0
    1.6606   -0.0861   -4.7415 N   0  0  0  0  0  0  0  0  0  0  0  0
    2.9350   -0.0489   -5.1117 C   0  0  0  0  0  0  0  0  0  0  0  0
    3.3263   -0.4481   -6.4991 C   0  0  0  0  0  0  0  0  0  0  0  0
    4.0128    0.3664   -4.2373 C   0  0  0  0  0  0  0  0  0  0  0  0
    3.7513    0.7521   -2.9460 C   0  0  0  0  0  0  0  0  0  0  0  0
    2.4359    0.7326   -2.5067 N   0  0  0  0  0  0  0  0  0  0  0  0
    1.9034    1.0509   -1.3283 N   0  0  0  0  0  0  0  0  0  0  0  0
   -3.1029   -2.0718    3.5006 H   0  0  0  0  0  0  0  0  0  0  0  0
   -2.0086   -4.2515    2.9484 H   0  0  0  0  0  0  0  0  0  0  0  0
   -0.7480   -4.5108    0.8043 H   0  0  0  0  0  0  0  0  0  0  0  0
   -2.1339   -0.2811   -1.2696 H   0  0  0  0  0  0  0  0  0  0  0  0
    2.4496   -0.7630   -7.1169 H   0  0  0  0  0  0  0  0  0  0  0  0
    3.8248    0.4190   -6.9996 H   0  0  0  0  0  0  0  0  0  0  0  0
    4.0499   -1.2990   -6.4426 H   0  0  0  0  0  0  0  0  0  0  0  0
    5.0419    0.3697   -4.6208 H   0  0  0  0  0  0  0  0  0  0  0  0
    4.5255    1.0798   -2.2285 H   0  0  0  0  0  0  0  0  0  0  0  0
  1  2  1  0  0  0  0
  2  3  2  0  0  0  0
  2  8  1  0  0  0  0
  3  4  1  0  0  0  0
  3 23  1  0  0  0  0
  4  5  2  0  0  0  0
  4 24  1  0  0  0  0
  5  6  1  0  0  0  0
  5 25  1  0  0  0  0
  6  7  1  0  0  0  0
  6  8  2  0  0  0  0
  8  9  1  0  0  0  0
  9 10  1  0  0  0  0
  9 26  1  0  0  0  0
 10 11  2  0  0  0  0
 10 12  2  0  0  0  0
 10 13  1  0  0  0  0
 13 14  1  0  0  0  0
 13 22  2  0  0  0  0
 14 15  2  0  0  0  0
 15 16  1  0  0  0  0
 15 21  1  0  0  0  0
 16 17  2  0  0  0  0
 17 18  1  0  0  0  0
 17 19  1  0  0  0  0
 18 27  1  0  0  0  0
 18 28  1  0  0  0  0
 18 29  1  0  0  0  0
 19 20  2  0  0  0  0
 19 30  1  0  0  0  0
 20 21  1  0  0  0  0
 20 31  1  0  0  0  0
 21 22  1  0  0  0  0
M  END
