./099793-38-1.hin
 OpenBabel10051109203D

 32 34  0  0  0  0  0  0  0  0999 V2000
   -4.3568   -4.4318    0.0645 C   0  0  0  0  0  0  0  0  0  0  0  0
   -4.9281   -2.7804   -0.0139 S   0  0  0  0  0  0  0  0  0  0  0  0
   -3.5158   -1.8530   -0.0068 C   0  0  0  0  0  0  0  0  0  0  0  0
   -3.5166   -0.4815   -0.0305 N   0  0  0  0  0  0  0  0  0  0  0  0
   -2.2151   -0.1290   -0.0114 N   0  0  0  0  0  0  0  0  0  0  0  0
   -1.4002   -1.2947    0.0260 C   0  0  0  0  0  0  0  0  0  0  0  0
   -2.2067   -2.3850    0.0268 N   0  0  0  0  0  0  0  0  0  0  0  0
    0.0602   -1.3115    0.0960 C   0  0  0  0  0  0  0  0  0  0  0  0
    0.7775   -2.1537   -0.7636 C   0  0  0  0  0  0  0  0  0  0  0  0
    2.1674   -2.2100   -0.6842 C   0  0  0  0  0  0  0  0  0  0  0  0
    2.8390   -1.4282    0.2614 C   0  0  0  0  0  0  0  0  0  0  0  0
    2.1270   -0.5939    1.1300 C   0  0  0  0  0  0  0  0  0  0  0  0
    0.7377   -0.5384    1.0469 C   0  0  0  0  0  0  0  0  0  0  0  0
    4.5331   -1.4950    0.3594 Cl  0  0  0  0  0  0  0  0  0  0  0  0
   -1.7841    1.2255   -0.1052 C   0  0  0  0  0  0  0  0  0  0  0  0
   -0.7157    1.5746   -0.9561 C   0  0  0  0  0  0  0  0  0  0  0  0
   -0.3004    2.8992   -1.0440 C   0  0  0  0  0  0  0  0  0  0  0  0
   -0.9511    3.8872   -0.2988 C   0  0  0  0  0  0  0  0  0  0  0  0
   -2.0213    3.5524    0.5357 C   0  0  0  0  0  0  0  0  0  0  0  0
   -2.4411    2.2292    0.6356 C   0  0  0  0  0  0  0  0  0  0  0  0
   -0.4406    5.5025   -0.4118 Cl  0  0  0  0  0  0  0  0  0  0  0  0
   -3.7691   -4.6399    0.9863 H   0  0  0  0  0  0  0  0  0  0  0  0
   -3.7351   -4.7130   -0.8146 H   0  0  0  0  0  0  0  0  0  0  0  0
   -5.2839   -5.0533    0.0720 H   0  0  0  0  0  0  0  0  0  0  0  0
    0.2427   -2.7775   -1.4970 H   0  0  0  0  0  0  0  0  0  0  0  0
    2.7300   -2.8714   -1.3609 H   0  0  0  0  0  0  0  0  0  0  0  0
    2.6577    0.0140    1.8787 H   0  0  0  0  0  0  0  0  0  0  0  0
    0.1749    0.1124    1.7339 H   0  0  0  0  0  0  0  0  0  0  0  0
   -0.2000    0.8040   -1.5515 H   0  0  0  0  0  0  0  0  0  0  0  0
    0.5376    3.1636   -1.7079 H   0  0  0  0  0  0  0  0  0  0  0  0
   -2.5388    4.3320    1.1166 H   0  0  0  0  0  0  0  0  0  0  0  0
   -3.2930    1.9792    1.2887 H   0  0  0  0  0  0  0  0  0  0  0  0
  1  2  1  0  0  0  0
  1 22  1  0  0  0  0
  1 23  1  0  0  0  0
  1 24  1  0  0  0  0
  2  3  1  0  0  0  0
  3  4  2  0  0  0  0
  3  7  1  0  0  0  0
  4  5  1  0  0  0  0
  5  6  1  0  0  0  0
  5 15  1  0  0  0  0
  6  7  2  0  0  0  0
  6  8  1  0  0  0  0
  8  9  2  0  0  0  0
  8 13  1  0  0  0  0
  9 10  1  0  0  0  0
  9 25  1  0  0  0  0
 10 11  2  0  0  0  0
 10 26  1  0  0  0  0
 11 12  1  0  0  0  0
 11 14  1  0  0  0  0
 12 13  2  0  0  0  0
 12 27  1  0  0  0  0
 13 28  1  0  0  0  0
 15 16  2  0  0  0  0
 15 20  1  0  0  0  0
 16 17  1  0  0  0  0
 16 29  1  0  0  0  0
 17 18  2  0  0  0  0
 17 30  1  0  0  0  0
 18 19  1  0  0  0  0
 18 21  1  0  0  0  0
 19 20  2  0  0  0  0
 19 31  1  0  0  0  0
 20 32  1  0  0  0  0
M  END
