./099793-75-6.hin
 OpenBabel10051109203D

 34 36  0  0  0  0  0  0  0  0999 V2000
    0.2232    0.6129    0.2899 N   0  0  0  0  0  0  0  0  0  0  0  0
    0.2390    1.9389    0.4216 N   0  0  0  0  0  0  0  0  0  0  0  0
    1.5590    2.2972    0.4304 C   0  0  0  0  0  0  0  0  0  0  0  0
    2.4057    1.1774    0.3090 N   0  0  0  0  0  0  0  0  0  0  0  0
    1.5656    0.1197    0.2239 C   0  0  0  0  0  0  0  0  0  0  0  0
    2.2211    3.8677    0.6154 S   0  0  0  0  0  0  0  0  0  0  0  0
    3.2272    4.0645   -0.3254 O   0  0  0  0  0  0  0  0  0  0  0  0
    2.5268    4.0675    1.9587 O   0  0  0  0  0  0  0  0  0  0  0  0
    0.8815    4.8008    0.1986 C   0  0  0  0  0  0  0  0  0  0  0  0
    1.9472   -1.2849    0.1085 C   0  0  0  0  0  0  0  0  0  0  0  0
    2.9776   -1.6399   -0.7737 C   0  0  0  0  0  0  0  0  0  0  0  0
    3.3837   -2.9658   -0.8767 C   0  0  0  0  0  0  0  0  0  0  0  0
    2.7595   -3.9476   -0.0838 C   0  0  0  0  0  0  0  0  0  0  0  0
    1.7328   -3.5909    0.8117 C   0  0  0  0  0  0  0  0  0  0  0  0
    1.3356   -2.2619    0.9040 C   0  0  0  0  0  0  0  0  0  0  0  0
    3.1488   -5.2394   -0.1802 F   0  0  0  0  0  0  0  0  0  0  0  0
   -0.9840   -0.1468    0.1965 C   0  0  0  0  0  0  0  0  0  0  0  0
   -1.9960    0.0174    1.1624 C   0  0  0  0  0  0  0  0  0  0  0  0
   -3.1737   -0.7179    1.0612 C   0  0  0  0  0  0  0  0  0  0  0  0
   -3.3515   -1.6135    0.0022 C   0  0  0  0  0  0  0  0  0  0  0  0
   -2.3532   -1.7734   -0.9645 C   0  0  0  0  0  0  0  0  0  0  0  0
   -1.1740   -1.0403   -0.8759 C   0  0  0  0  0  0  0  0  0  0  0  0
   -4.7874   -2.5087   -0.1134 Cl  0  0  0  0  0  0  0  0  0  0  0  0
    0.4589    4.5576   -0.8074 H   0  0  0  0  0  0  0  0  0  0  0  0
    0.0349    4.7140    0.9245 H   0  0  0  0  0  0  0  0  0  0  0  0
    1.1487    5.8886    0.1643 H   0  0  0  0  0  0  0  0  0  0  0  0
    3.4749   -0.8661   -1.3813 H   0  0  0  0  0  0  0  0  0  0  0  0
    4.1916   -3.2535   -1.5656 H   0  0  0  0  0  0  0  0  0  0  0  0
    1.2590   -4.3639    1.4342 H   0  0  0  0  0  0  0  0  0  0  0  0
    0.5396   -1.9810    1.6116 H   0  0  0  0  0  0  0  0  0  0  0  0
   -1.8697    0.7275    1.9958 H   0  0  0  0  0  0  0  0  0  0  0  0
   -3.9629   -0.5876    1.8187 H   0  0  0  0  0  0  0  0  0  0  0  0
   -2.4967   -2.4741   -1.8024 H   0  0  0  0  0  0  0  0  0  0  0  0
   -0.3952   -1.1695   -1.6449 H   0  0  0  0  0  0  0  0  0  0  0  0
  1  2  1  0  0  0  0
  1  5  1  0  0  0  0
  1 17  1  0  0  0  0
  2  3  2  0  0  0  0
  3  4  1  0  0  0  0
  3  6  1  0  0  0  0
  4  5  2  0  0  0  0
  5 10  1  0  0  0  0
  6  7  2  0  0  0  0
  6  8  2  0  0  0  0
  6  9  1  0  0  0  0
  9 24  1  0  0  0  0
  9 25  1  0  0  0  0
  9 26  1  0  0  0  0
 10 11  2  0  0  0  0
 10 15  1  0  0  0  0
 11 12  1  0  0  0  0
 11 27  1  0  0  0  0
 12 13  2  0  0  0  0
 12 28  1  0  0  0  0
 13 14  1  0  0  0  0
 13 16  1  0  0  0  0
 14 15  2  0  0  0  0
 14 29  1  0  0  0  0
 15 30  1  0  0  0  0
 17 18  2  0  0  0  0
 17 22  1  0  0  0  0
 18 19  1  0  0  0  0
 18 31  1  0  0  0  0
 19 20  2  0  0  0  0
 19 32  1  0  0  0  0
 20 21  1  0  0  0  0
 20 23  1  0  0  0  0
 21 22  2  0  0  0  0
 21 33  1  0  0  0  0
 22 34  1  0  0  0  0
M  END
