./103112-35-2.hin
 OpenBabel10051109203D

 30 31  0  0  0  0  0  0  0  0999 V2000
    0.4171    0.2449   -0.1993 N   0  0  0  0  0  0  0  0  0  0  0  0
    0.3913    1.5486    0.0943 N   0  0  0  0  0  0  0  0  0  0  0  0
    1.5899    2.0365   -0.3658 C   0  0  0  0  0  0  0  0  0  0  0  0
    2.3883    1.0460   -0.9666 N   0  0  0  0  0  0  0  0  0  0  0  0
    1.6361   -0.0785   -0.8658 C   0  0  0  0  0  0  0  0  0  0  0  0
    1.9833    3.4574   -0.2608 C   0  0  0  0  0  0  0  0  0  0  0  0
    1.2988    4.4375   -0.5469 O   0  0  0  0  0  0  0  0  0  0  0  0
    3.2469    3.6234    0.2182 O   0  0  0  0  0  0  0  0  0  0  0  0
    2.0270   -1.4418   -1.3438 C   0  0  0  0  0  0  0  0  0  0  0  0
    3.4982   -1.3696   -2.3024 Cl  0  0  0  0  0  0  0  0  0  0  0  0
    0.7350   -2.1272   -2.3295 Cl  0  0  0  0  0  0  0  0  0  0  0  0
    2.3074   -2.4735    0.0656 Cl  0  0  0  0  0  0  0  0  0  0  0  0
   -0.6851   -0.6204    0.0888 C   0  0  0  0  0  0  0  0  0  0  0  0
   -1.8498   -0.5880   -0.7116 C   0  0  0  0  0  0  0  0  0  0  0  0
   -2.9256   -1.4280   -0.4098 C   0  0  0  0  0  0  0  0  0  0  0  0
   -2.8482   -2.2873    0.6889 C   0  0  0  0  0  0  0  0  0  0  0  0
   -1.7064   -2.3110    1.4962 C   0  0  0  0  0  0  0  0  0  0  0  0
   -0.6324   -1.4767    1.2042 C   0  0  0  0  0  0  0  0  0  0  0  0
   -4.1554   -3.3052    1.0477 Cl  0  0  0  0  0  0  0  0  0  0  0  0
   -1.9699    0.4529   -2.0399 Cl  0  0  0  0  0  0  0  0  0  0  0  0
    3.7102    4.9871    0.3143 C   0  0  0  0  0  0  0  0  0  0  0  0
    5.1330    4.9068    0.8095 C   0  0  0  0  0  0  0  0  0  0  0  0
   -3.8318   -1.4052   -1.0377 H   0  0  0  0  0  0  0  0  0  0  0  0
   -1.6534   -2.9834    2.3672 H   0  0  0  0  0  0  0  0  0  0  0  0
    0.2594   -1.4939    1.8528 H   0  0  0  0  0  0  0  0  0  0  0  0
    3.0440    5.5390    1.0273 H   0  0  0  0  0  0  0  0  0  0  0  0
    3.6418    5.4619   -0.6990 H   0  0  0  0  0  0  0  0  0  0  0  0
    5.5433    5.9409    0.9001 H   0  0  0  0  0  0  0  0  0  0  0  0
    5.1744    4.4067    1.8065 H   0  0  0  0  0  0  0  0  0  0  0  0
    5.7636    4.3223    0.0975 H   0  0  0  0  0  0  0  0  0  0  0  0
  1  2  1  0  0  0  0
  1  5  1  0  0  0  0
  1 13  1  0  0  0  0
  2  3  2  0  0  0  0
  3  4  1  0  0  0  0
  3  6  1  0  0  0  0
  4  5  2  0  0  0  0
  5  9  1  0  0  0  0
  6  7  2  0  0  0  0
  6  8  1  0  0  0  0
  8 21  1  0  0  0  0
  9 10  1  0  0  0  0
  9 11  1  0  0  0  0
  9 12  1  0  0  0  0
 13 14  2  0  0  0  0
 13 18  1  0  0  0  0
 14 15  1  0  0  0  0
 14 20  1  0  0  0  0
 15 16  2  0  0  0  0
 15 23  1  0  0  0  0
 16 17  1  0  0  0  0
 16 19  1  0  0  0  0
 17 18  2  0  0  0  0
 17 24  1  0  0  0  0
 18 25  1  0  0  0  0
 21 22  1  0  0  0  0
 21 26  1  0  0  0  0
 21 27  1  0  0  0  0
 22 28  1  0  0  0  0
 22 29  1  0  0  0  0
 22 30  1  0  0  0  0
M  END
