./103112-36-3.hin
 OpenBabel10051109203D

 24 25  0  0  0  0  0  0  0  0999 V2000
    0.1881    0.7117    0.0418 N   0  0  0  0  0  0  0  0  0  0  0  0
    0.1910    1.9792    0.4615 N   0  0  0  0  0  0  0  0  0  0  0  0
    1.4520    2.4436    0.1717 C   0  0  0  0  0  0  0  0  0  0  0  0
    2.2615    1.4727   -0.4468 N   0  0  0  0  0  0  0  0  0  0  0  0
    1.4531    0.3871   -0.5334 C   0  0  0  0  0  0  0  0  0  0  0  0
    1.8283   -0.9434   -1.1074 C   0  0  0  0  0  0  0  0  0  0  0  0
    3.3869   -0.8576   -1.9144 Cl  0  0  0  0  0  0  0  0  0  0  0  0
    0.6089   -1.4621   -2.2711 Cl  0  0  0  0  0  0  0  0  0  0  0  0
    1.9255   -2.1172    0.2123 Cl  0  0  0  0  0  0  0  0  0  0  0  0
   -0.9749   -0.1169    0.1361 C   0  0  0  0  0  0  0  0  0  0  0  0
   -2.0530    0.0578   -0.7611 C   0  0  0  0  0  0  0  0  0  0  0  0
   -3.1898   -0.7479   -0.6484 C   0  0  0  0  0  0  0  0  0  0  0  0
   -3.2586   -1.7142    0.3582 C   0  0  0  0  0  0  0  0  0  0  0  0
   -2.2031   -1.8796    1.2609 C   0  0  0  0  0  0  0  0  0  0  0  0
   -1.0693   -1.0804    1.1573 C   0  0  0  0  0  0  0  0  0  0  0  0
   -4.6388   -2.6895    0.4875 Cl  0  0  0  0  0  0  0  0  0  0  0  0
   -1.9957    1.2294   -1.9804 Cl  0  0  0  0  0  0  0  0  0  0  0  0
    1.8920    3.8206    0.4599 C   0  0  0  0  0  0  0  0  0  0  0  0
    1.2442    4.8593    0.3324 O   0  0  0  0  0  0  0  0  0  0  0  0
    3.1655    3.9113    0.9267 O   0  0  0  0  0  0  0  0  0  0  0  0
   -4.0285   -0.6138   -1.3516 H   0  0  0  0  0  0  0  0  0  0  0  0
   -2.2655   -2.6364    2.0590 H   0  0  0  0  0  0  0  0  0  0  0  0
   -0.2469   -1.2100    1.8805 H   0  0  0  0  0  0  0  0  0  0  0  0
    3.3829    4.8492    1.0688 H   0  0  0  0  0  0  0  0  0  0  0  0
  1  2  1  0  0  0  0
  1  5  1  0  0  0  0
  1 10  1  0  0  0  0
  2  3  2  0  0  0  0
  3  4  1  0  0  0  0
  3 18  1  0  0  0  0
  4  5  2  0  0  0  0
  5  6  1  0  0  0  0
  6  7  1  0  0  0  0
  6  8  1  0  0  0  0
  6  9  1  0  0  0  0
 10 11  2  0  0  0  0
 10 15  1  0  0  0  0
 11 12  1  0  0  0  0
 11 17  1  0  0  0  0
 12 13  2  0  0  0  0
 12 21  1  0  0  0  0
 13 14  1  0  0  0  0
 13 16  1  0  0  0  0
 14 15  2  0  0  0  0
 14 22  1  0  0  0  0
 15 23  1  0  0  0  0
 18 19  2  0  0  0  0
 18 20  1  0  0  0  0
 20 24  1  0  0  0  0
M  END
