./103922-48-1.hin
  ACCLDraw01311603203D

 53 55  0  0  0  0  0  0  0  0999 V2000
    9.2751  -18.1568    0.1957 N   0  0  0  0  0  0  0  0  0  0  0  0
    9.4051  -17.0375   -0.6770 C   0  0  0  0  0  0  0  0  0  0  0  0
   10.7253  -16.6690   -0.7450 N   0  0  0  0  0  0  0  0  0  0  0  0
   11.3738  -17.6253    0.0903 C   0  0  0  0  0  0  0  0  0  0  0  0
   10.4822  -18.5184    0.6689 N   0  0  3  0  0  0  0  0  0  0  0  0
   12.7746  -17.7173    0.2341 N   0  0  3  0  0  0  0  0  0  0  0  0
   13.5152  -16.4893   -0.0022 C   0  0  3  0  0  0  0  0  0  0  0  0
   14.9730  -16.6188    0.3079 C   0  0  0  0  0  0  0  0  0  0  0  0
   15.7990  -15.5705    0.3625 C   0  0  0  0  0  0  0  0  0  0  0  0
   15.3887  -14.1596    0.1186 C   0  0  3  0  0  0  0  0  0  0  0  0
   14.6972  -13.7206    1.3010 O   0  0  0  0  0  0  0  0  0  0  0  0
   14.3188  -12.3901    1.3032 C   0  0  0  0  0  0  0  0  0  0  0  0
   13.7452  -12.0150    2.4831 N   0  0  0  0  0  0  0  0  0  0  0  0
   13.3431  -10.7360    2.5647 C   0  0  0  0  0  0  0  0  0  0  0  0
   13.4765   -9.7894    1.5330 C   0  0  0  0  0  0  0  0  0  0  0  0
   14.0678  -10.1949    0.3334 C   0  0  0  0  0  0  0  0  0  0  0  0
   14.5005  -11.5198    0.2049 C   0  0  0  0  0  0  0  0  0  0  0  0
   14.1947   -9.2579   -0.8329 C   0  0  3  0  0  0  0  0  0  0  0  0
   14.7254   -7.9443   -0.4838 N   0  0  3  0  0  0  0  0  0  0  0  0
   14.5780   -6.9765   -1.5634 C   0  0  3  0  0  0  0  0  0  0  0  0
   15.6071   -7.0784   -2.6900 C   0  0  3  0  0  0  0  0  0  0  0  0
   17.0159   -7.0682   -2.1340 C   0  0  3  0  0  0  0  0  0  0  0  0
   17.1838   -8.1154   -1.0530 C   0  0  3  0  0  0  0  0  0  0  0  0
   16.0947   -7.9818    0.0124 C   0  0  3  0  0  0  0  0  0  0  0  0
    8.3235  -16.4947   -1.3963 N   0  0  3  0  0  0  0  0  0  0  0  0
   13.0302  -18.1618    1.0966 H   0  0  0  0  0  0  0  0  0  0  0  0
   13.4052  -16.2349   -1.0988 H   0  0  0  0  0  0  0  0  0  0  0  0
   13.0937  -15.6206    0.5881 H   0  0  0  0  0  0  0  0  0  0  0  0
   15.3646  -17.6378    0.4709 H   0  0  0  0  0  0  0  0  0  0  0  0
   16.8668  -15.7077    0.5953 H   0  0  0  0  0  0  0  0  0  0  0  0
   16.2865  -13.5082   -0.0529 H   0  0  0  0  0  0  0  0  0  0  0  0
   14.6920  -14.0864   -0.7606 H   0  0  0  0  0  0  0  0  0  0  0  0
   12.8816  -10.4552    3.5297 H   0  0  0  0  0  0  0  0  0  0  0  0
   13.1282   -8.7577    1.6721 H   0  0  0  0  0  0  0  0  0  0  0  0
   14.9627  -11.8633   -0.7284 H   0  0  0  0  0  0  0  0  0  0  0  0
   14.8129   -9.7554   -1.6389 H   0  0  0  0  0  0  0  0  0  0  0  0
   13.1557   -9.1069   -1.2512 H   0  0  0  0  0  0  0  0  0  0  0  0
   14.6668   -5.9586   -1.0865 H   0  0  0  0  0  0  0  0  0  0  0  0
   13.5440   -7.0638   -1.9979 H   0  0  0  0  0  0  0  0  0  0  0  0
   15.4654   -6.2153   -3.3893 H   0  0  0  0  0  0  0  0  0  0  0  0
   15.4384   -8.0202   -3.2743 H   0  0  0  0  0  0  0  0  0  0  0  0
   17.2394   -6.0546   -1.7074 H   0  0  0  0  0  0  0  0  0  0  0  0
   17.7505   -7.2543   -2.9597 H   0  0  0  0  0  0  0  0  0  0  0  0
   18.1842   -8.0019   -0.5626 H   0  0  0  0  0  0  0  0  0  0  0  0
   17.1449   -9.1385   -1.5098 H   0  0  0  0  0  0  0  0  0  0  0  0
   16.2563   -7.0169    0.5724 H   0  0  0  0  0  0  0  0  0  0  0  0
   16.1876   -8.8297    0.7464 H   0  0  0  0  0  0  0  0  0  0  0  0
    7.5312  -16.3211   -0.8103 H   0  0  0  0  0  0  0  0  0  0  0  0
    8.5917  -15.6812   -1.9142 H   0  0  0  0  0  0  0  0  0  0  0  0
   10.7507  -19.5205    1.3226 C   0  0  3  0  0  0  0  0  0  0  0  0
   11.5986  -19.7477    0.7695 H   0  0  0  0  0  0  0  0  0  0  0  0
   10.0171  -20.2542    2.1354 H   0  0  0  0  0  0  0  0  0  0  0  0
   10.8750  -20.1563    0.0000 H   0  0  0  0  0  0  0  0  0  0  0  0
  1  2  2  0  0  0  0
  1  5  1  0  0  0  0
  2  3  1  0  0  0  0
  2 25  1  0  0  0  0
  3  4  2  0  0  0  0
  4  5  1  0  0  0  0
  4  6  1  0  0  0  0
  6  7  1  0  0  0  0
  6 26  1  0  0  0  0
  7  8  1  0  0  0  0
  7 27  1  0  0  0  0
  7 28  1  0  0  0  0
  8  9  2  0  0  0  0
  8 29  1  0  0  0  0
  9 10  1  0  0  0  0
  9 30  1  0  0  0  0
 10 11  1  0  0  0  0
 10 31  1  0  0  0  0
 10 32  1  0  0  0  0
 11 12  1  0  0  0  0
 12 13  2  0  0  0  0
 12 17  1  0  0  0  0
 13 14  1  0  0  0  0
 14 15  2  0  0  0  0
 14 33  1  0  0  0  0
 15 16  1  0  0  0  0
 15 34  1  0  0  0  0
 16 17  2  0  0  0  0
 16 18  1  0  0  0  0
 17 35  1  0  0  0  0
 18 19  1  0  0  0  0
 18 36  1  0  0  0  0
 18 37  1  0  0  0  0
 19 20  1  0  0  0  0
 19 24  1  0  0  0  0
 20 21  1  0  0  0  0
 20 38  1  0  0  0  0
 20 39  1  0  0  0  0
 21 22  1  0  0  0  0
 21 40  1  0  0  0  0
 21 41  1  0  0  0  0
 22 23  1  0  0  0  0
 22 42  1  0  0  0  0
 22 43  1  0  0  0  0
 23 24  1  0  0  0  0
 23 44  1  0  0  0  0
 23 45  1  0  0  0  0
 24 46  1  0  0  0  0
 24 47  1  0  0  0  0
 25 48  1  0  0  0  0
 25 49  1  0  0  0  0
  5 50  1  0  0  0  0
 50 51  1  0  0  0  0
 50 52  1  0  0  0  0
 50 53  1  0  0  0  0
M  END
