./104958-85-2.hin
 OpenBabel10051109203D

 24 24  0  0  0  0  0  0  0  0999 V2000
   -4.3418   -2.5295    0.2722 O   0  0  0  0  0  0  0  0  0  0  0  0
   -3.2477   -2.6313   -0.6220 C   0  0  0  0  0  0  0  0  0  0  0  0
   -2.4346   -3.8433   -0.1289 C   0  0  0  0  0  0  0  0  0  0  0  0
   -1.2120   -4.0661   -0.8389 N   0  0  0  0  0  0  0  0  0  0  0  0
   -0.0242   -3.4117   -0.6101 C   0  0  0  0  0  0  0  0  0  0  0  0
    0.9553   -3.6454   -1.3467 O   0  0  0  0  0  0  0  0  0  0  0  0
    0.0969   -2.4834    0.6084 C   0  0  0  0  0  0  0  0  0  0  0  0
    1.0484   -1.4091    0.4085 N   0  0  0  0  0  0  0  0  0  0  0  0
    0.7967   -0.1327    0.7335 N   0  0  0  0  0  0  0  0  0  0  0  0
    1.9613    0.5228    0.4037 C   0  0  0  0  0  0  0  0  0  0  0  0
    2.1752    1.9897    0.5938 N   0  3  0  0  0  0  0  0  0  0  0  0
    1.9475    2.4526    1.6730 O   0  0  0  0  0  0  0  0  0  0  0  0
    2.5582    2.6281   -0.3402 O   0  5  0  0  0  0  0  0  0  0  0  0
    2.9584   -0.3321   -0.1354 N   0  0  0  0  0  0  0  0  0  0  0  0
    2.3579   -1.5364   -0.1203 C   0  0  0  0  0  0  0  0  0  0  0  0
   -4.8820   -1.7913   -0.0346 H   0  0  0  0  0  0  0  0  0  0  0  0
   -3.6131   -2.7961   -1.6700 H   0  0  0  0  0  0  0  0  0  0  0  0
   -2.6361   -1.6902   -0.5916 H   0  0  0  0  0  0  0  0  0  0  0  0
   -2.2288   -3.7127    0.9716 H   0  0  0  0  0  0  0  0  0  0  0  0
   -3.0779   -4.7636   -0.2407 H   0  0  0  0  0  0  0  0  0  0  0  0
   -1.2573   -4.6286   -1.6611 H   0  0  0  0  0  0  0  0  0  0  0  0
    0.4551   -3.1202    1.4704 H   0  0  0  0  0  0  0  0  0  0  0  0
   -0.9038   -2.0365    0.8791 H   0  0  0  0  0  0  0  0  0  0  0  0
    2.7616   -2.4919   -0.4893 H   0  0  0  0  0  0  0  0  0  0  0  0
  1  2  1  0  0  0  0
  1 16  1  0  0  0  0
  2  3  1  0  0  0  0
  2 17  1  0  0  0  0
  2 18  1  0  0  0  0
  3  4  1  0  0  0  0
  3 19  1  0  0  0  0
  3 20  1  0  0  0  0
  4  5  1  0  0  0  0
  4 21  1  0  0  0  0
  5  6  2  0  0  0  0
  5  7  1  0  0  0  0
  7  8  1  0  0  0  0
  7 22  1  0  0  0  0
  7 23  1  0  0  0  0
  8  9  1  0  0  0  0
  8 15  1  0  0  0  0
  9 10  2  0  0  0  0
 10 11  1  0  0  0  0
 10 14  1  0  0  0  0
 11 12  2  0  0  0  0
 11 13  1  0  0  0  0
 14 15  2  0  0  0  0
 15 24  1  0  0  0  0
M  CHG  2  11   1  13  -1
M  END
