./106325-08-0.hin
 OpenBabel10051109203D

 36 39  0  0  0  0  0  0  0  0999 V2000
    1.9808    3.3759   -1.4322 C   0  0  0  0  0  0  0  0  0  0  0  0
    0.9957    3.5930   -0.4713 C   0  0  0  0  0  0  0  0  0  0  0  0
   -0.1087    2.7374   -0.4038 C   0  0  0  0  0  0  0  0  0  0  0  0
   -0.2298    1.6580   -1.2935 C   0  0  0  0  0  0  0  0  0  0  0  0
    0.7689    1.4560   -2.2543 C   0  0  0  0  0  0  0  0  0  0  0  0
    1.8671    2.3092   -2.3239 C   0  0  0  0  0  0  0  0  0  0  0  0
   -1.2986    3.0315    0.7786 Cl  0  0  0  0  0  0  0  0  0  0  0  0
   -1.4095    0.7778   -1.2368 C   0  0  0  0  0  0  0  0  0  0  0  0
   -1.3767   -0.6172   -0.6842 C   0  0  0  0  0  0  0  0  0  0  0  0
   -1.4311   -0.3669   -2.1052 O   0  0  0  0  0  0  0  0  0  0  0  0
   -0.0759   -1.2956   -0.2721 C   0  0  0  0  0  0  0  0  0  0  0  0
    0.4640   -0.8411    0.9896 N   0  0  0  0  0  0  0  0  0  0  0  0
    1.7109   -0.3554    1.1506 N   0  0  0  0  0  0  0  0  0  0  0  0
    0.6319   -0.4003    3.1929 N   0  0  0  0  0  0  0  0  0  0  0  0
   -0.1970   -0.8684    2.2384 C   0  0  0  0  0  0  0  0  0  0  0  0
   -2.5997   -1.1983   -0.0872 C   0  0  0  0  0  0  0  0  0  0  0  0
   -3.2863   -0.5100    0.9202 C   0  0  0  0  0  0  0  0  0  0  0  0
   -4.4281   -1.0564    1.4961 C   0  0  0  0  0  0  0  0  0  0  0  0
   -3.0721   -2.4405   -0.5265 C   0  0  0  0  0  0  0  0  0  0  0  0
   -4.2127   -3.0025    0.0370 C   0  0  0  0  0  0  0  0  0  0  0  0
   -4.8946   -2.3096    1.0550 C   0  0  0  0  0  0  0  0  0  0  0  0
    1.8084   -0.0924    2.4831 C   0  0  0  0  0  0  0  0  0  0  0  0
   -6.0044   -2.8492    1.6105 F   0  0  0  0  0  0  0  0  0  0  0  0
    2.8500    4.0485   -1.4838 H   0  0  0  0  0  0  0  0  0  0  0  0
    1.0851    4.4338    0.2337 H   0  0  0  0  0  0  0  0  0  0  0  0
    0.6708    0.6117   -2.9560 H   0  0  0  0  0  0  0  0  0  0  0  0
    2.6462    2.1392   -3.0817 H   0  0  0  0  0  0  0  0  0  0  0  0
   -2.3789    1.3260   -1.2068 H   0  0  0  0  0  0  0  0  0  0  0  0
   -0.2725   -2.4043   -0.1881 H   0  0  0  0  0  0  0  0  0  0  0  0
    0.6853   -1.1253   -1.0903 H   0  0  0  0  0  0  0  0  0  0  0  0
   -1.2293   -1.2139    2.3602 H   0  0  0  0  0  0  0  0  0  0  0  0
   -2.9225    0.4757    1.2544 H   0  0  0  0  0  0  0  0  0  0  0  0
   -4.9712   -0.5201    2.2879 H   0  0  0  0  0  0  0  0  0  0  0  0
   -2.5400   -2.9694   -1.3332 H   0  0  0  0  0  0  0  0  0  0  0  0
   -4.5890   -3.9776   -0.3050 H   0  0  0  0  0  0  0  0  0  0  0  0
    2.7024    0.3164    2.9642 H   0  0  0  0  0  0  0  0  0  0  0  0
  1  2  2  0  0  0  0
  1  6  1  0  0  0  0
  1 24  1  0  0  0  0
  2  3  1  0  0  0  0
  2 25  1  0  0  0  0
  3  4  2  0  0  0  0
  3  7  1  0  0  0  0
  4  5  1  0  0  0  0
  4  8  1  0  0  0  0
  5  6  2  0  0  0  0
  5 26  1  0  0  0  0
  6 27  1  0  0  0  0
  8  9  1  0  0  0  0
  8 10  1  0  0  0  0
  8 28  1  0  0  0  0
  9 10  1  0  0  0  0
  9 11  1  0  0  0  0
  9 16  1  0  0  0  0
 11 12  1  0  0  0  0
 11 29  1  0  0  0  0
 11 30  1  0  0  0  0
 12 13  1  0  0  0  0
 12 15  1  0  0  0  0
 13 22  2  0  0  0  0
 14 15  2  0  0  0  0
 14 22  1  0  0  0  0
 15 31  1  0  0  0  0
 16 17  2  0  0  0  0
 16 19  1  0  0  0  0
 17 18  1  0  0  0  0
 17 32  1  0  0  0  0
 18 21  2  0  0  0  0
 18 33  1  0  0  0  0
 19 20  2  0  0  0  0
 19 34  1  0  0  0  0
 20 21  1  0  0  0  0
 20 35  1  0  0  0  0
 21 23  1  0  0  0  0
 22 36  1  0  0  0  0
M  END
