./112281-77-3.hin
 OpenBabel10051109203D

 34 35  0  0  0  0  0  0  0  0999 V2000
    0.7771    0.2927   -0.2914 C   0  0  0  0  0  0  0  0  0  0  0  0
    0.8656    1.6909   -0.2117 C   0  0  0  0  0  0  0  0  0  0  0  0
    2.1078    2.3364   -0.1875 C   0  0  0  0  0  0  0  0  0  0  0  0
    3.2793    1.5798   -0.2377 C   0  0  0  0  0  0  0  0  0  0  0  0
    3.2151    0.1848   -0.3128 C   0  0  0  0  0  0  0  0  0  0  0  0
    1.9739   -0.4413   -0.3383 C   0  0  0  0  0  0  0  0  0  0  0  0
    4.7862    2.3595   -0.2069 Cl  0  0  0  0  0  0  0  0  0  0  0  0
   -0.5143    2.6899   -0.1380 Cl  0  0  0  0  0  0  0  0  0  0  0  0
   -0.5024   -0.4777   -0.3396 C   0  0  0  0  0  0  0  0  0  0  0  0
   -1.3842   -0.1830    0.8750 C   0  0  0  0  0  0  0  0  0  0  0  0
   -2.1989   -1.3522    1.0458 O   0  0  0  0  0  0  0  0  0  0  0  0
   -3.1858   -1.2648    2.0438 C   0  0  0  0  0  0  0  0  0  0  0  0
   -3.8160   -2.4680    1.9485 F   0  0  0  0  0  0  0  0  0  0  0  0
   -2.6030   -0.9478    3.4942 C   0  0  0  0  0  0  0  0  0  0  0  0
   -3.4420   -1.4043    4.4752 F   0  0  0  0  0  0  0  0  0  0  0  0
   -1.4325   -1.6222    3.7198 F   0  0  0  0  0  0  0  0  0  0  0  0
   -4.1007   -0.3264    1.6512 F   0  0  0  0  0  0  0  0  0  0  0  0
   -1.3147   -0.2269   -1.6242 C   0  0  0  0  0  0  0  0  0  0  0  0
   -0.7074   -0.7549   -2.8255 N   0  0  0  0  0  0  0  0  0  0  0  0
    0.1424   -0.0824   -3.6238 N   0  0  0  0  0  0  0  0  0  0  0  0
    0.5029   -0.9833   -4.5797 C   0  0  0  0  0  0  0  0  0  0  0  0
   -0.0977   -2.2448   -4.4019 N   0  0  0  0  0  0  0  0  0  0  0  0
   -0.8464   -2.0827   -3.2929 C   0  0  0  0  0  0  0  0  0  0  0  0
    2.1579    3.4360   -0.1331 H   0  0  0  0  0  0  0  0  0  0  0  0
    4.1375   -0.4149   -0.3552 H   0  0  0  0  0  0  0  0  0  0  0  0
    1.9329   -1.5410   -0.4023 H   0  0  0  0  0  0  0  0  0  0  0  0
   -0.2565   -1.5827   -0.2954 H   0  0  0  0  0  0  0  0  0  0  0  0
   -0.7564   -0.0425    1.7944 H   0  0  0  0  0  0  0  0  0  0  0  0
   -2.0459    0.7075    0.7120 H   0  0  0  0  0  0  0  0  0  0  0  0
   -2.4536    0.1695    3.5727 H   0  0  0  0  0  0  0  0  0  0  0  0
   -2.3131   -0.7396   -1.5032 H   0  0  0  0  0  0  0  0  0  0  0  0
   -1.4858    0.8794   -1.7542 H   0  0  0  0  0  0  0  0  0  0  0  0
    1.1828   -0.7610   -5.4081 H   0  0  0  0  0  0  0  0  0  0  0  0
   -1.4882   -2.8271   -2.8113 H   0  0  0  0  0  0  0  0  0  0  0  0
  1  2  2  0  0  0  0
  1  6  1  0  0  0  0
  1  9  1  0  0  0  0
  2  3  1  0  0  0  0
  2  8  1  0  0  0  0
  3  4  2  0  0  0  0
  3 24  1  0  0  0  0
  4  5  1  0  0  0  0
  4  7  1  0  0  0  0
  5  6  2  0  0  0  0
  5 25  1  0  0  0  0
  6 26  1  0  0  0  0
  9 10  1  0  0  0  0
  9 18  1  0  0  0  0
  9 27  1  0  0  0  0
 10 11  1  0  0  0  0
 10 28  1  0  0  0  0
 10 29  1  0  0  0  0
 11 12  1  0  0  0  0
 12 13  1  0  0  0  0
 12 14  1  0  0  0  0
 12 17  1  0  0  0  0
 14 15  1  0  0  0  0
 14 16  1  0  0  0  0
 14 30  1  0  0  0  0
 18 19  1  0  0  0  0
 18 31  1  0  0  0  0
 18 32  1  0  0  0  0
 19 20  1  0  0  0  0
 19 23  1  0  0  0  0
 20 21  2  0  0  0  0
 21 22  1  0  0  0  0
 21 33  1  0  0  0  0
 22 23  2  0  0  0  0
 23 34  1  0  0  0  0
M  END
