./113518-46-0.hin
 OpenBabel10051109203D

 45 48  0  0  0  0  0  0  0  0999 V2000
   -0.4668   -3.0455    0.1028 C   0  0  0  0  0  0  0  0  0  0  0  0
   -0.6033   -1.3371    0.5423 S   0  0  0  0  0  0  0  0  0  0  0  0
    0.9014   -0.7184    0.0945 C   0  0  0  0  0  0  0  0  0  0  0  0
    1.9446   -1.3795   -0.5127 N   0  0  0  0  0  0  0  0  0  0  0  0
    2.9471   -0.5577   -0.6881 N   0  0  0  0  0  0  0  0  0  0  0  0
    2.6162    0.6873   -0.2093 C   0  0  0  0  0  0  0  0  0  0  0  0
    1.2984    0.6158    0.3006 N   0  0  0  0  0  0  0  0  0  0  0  0
    0.5384    1.6212    0.9462 C   0  0  0  0  0  0  0  0  0  0  0  0
    0.7212    1.8773    2.3204 C   0  0  0  0  0  0  0  0  0  0  0  0
   -0.0409    2.8615    2.9462 C   0  0  0  0  0  0  0  0  0  0  0  0
   -0.9838    3.5928    2.2258 C   0  0  0  0  0  0  0  0  0  0  0  0
   -1.1672    3.3419    0.8663 C   0  0  0  0  0  0  0  0  0  0  0  0
   -0.4149    2.3650    0.2194 C   0  0  0  0  0  0  0  0  0  0  0  0
    3.4661    1.8707   -0.2298 C   0  0  0  0  0  0  0  0  0  0  0  0
    2.9406    3.1556   -0.4205 C   0  0  0  0  0  0  0  0  0  0  0  0
    3.8299    4.2443   -0.4491 C   0  0  0  0  0  0  0  0  0  0  0  0
    5.1638    4.1237   -0.3069 N   0  0  0  0  0  0  0  0  0  0  0  0
    5.6537    2.8814   -0.1311 C   0  0  0  0  0  0  0  0  0  0  0  0
    4.8543    1.7251   -0.0849 C   0  0  0  0  0  0  0  0  0  0  0  0
   -1.8289   -3.7032    0.2302 C   0  0  0  0  0  0  0  0  0  0  0  0
   -2.8725   -3.0730   -0.4277 N   0  0  0  0  0  0  0  0  0  0  0  0
   -2.6686   -2.2019   -0.8709 H   0  0  0  0  0  0  0  0  0  0  0  0
   -1.9469   -4.7631    0.8682 O   0  0  0  0  0  0  0  0  0  0  0  0
   -4.2190   -3.4760   -0.4708 C   0  0  0  0  0  0  0  0  0  0  0  0
   -5.1642   -2.5882   -1.0424 C   0  0  0  0  0  0  0  0  0  0  0  0
   -6.5044   -2.9468   -1.1212 C   0  0  0  0  0  0  0  0  0  0  0  0
   -6.9390   -4.1809   -0.6394 C   0  0  0  0  0  0  0  0  0  0  0  0
   -6.0164   -5.0590   -0.0760 C   0  0  0  0  0  0  0  0  0  0  0  0
   -4.6677   -4.7229    0.0124 C   0  0  0  0  0  0  0  0  0  0  0  0
   -0.0887   -3.1778   -0.9429 H   0  0  0  0  0  0  0  0  0  0  0  0
    0.2453   -3.5766    0.7852 H   0  0  0  0  0  0  0  0  0  0  0  0
    1.4607    1.3057    2.9035 H   0  0  0  0  0  0  0  0  0  0  0  0
    0.1060    3.0573    4.0197 H   0  0  0  0  0  0  0  0  0  0  0  0
   -1.5834    4.3665    2.7290 H   0  0  0  0  0  0  0  0  0  0  0  0
   -1.9120    3.9177    0.2956 H   0  0  0  0  0  0  0  0  0  0  0  0
   -0.5705    2.1773   -0.8547 H   0  0  0  0  0  0  0  0  0  0  0  0
    1.8615    3.3182   -0.5486 H   0  0  0  0  0  0  0  0  0  0  0  0
    3.4531    5.2724   -0.5968 H   0  0  0  0  0  0  0  0  0  0  0  0
    6.7512    2.8084   -0.0219 H   0  0  0  0  0  0  0  0  0  0  0  0
    5.3114    0.7353    0.0540 H   0  0  0  0  0  0  0  0  0  0  0  0
   -4.8476   -1.6081   -1.4302 H   0  0  0  0  0  0  0  0  0  0  0  0
   -7.2259   -2.2462   -1.5681 H   0  0  0  0  0  0  0  0  0  0  0  0
   -8.0007   -4.4573   -0.7044 H   0  0  0  0  0  0  0  0  0  0  0  0
   -6.3502   -6.0357    0.3068 H   0  0  0  0  0  0  0  0  0  0  0  0
   -3.9624   -5.4394    0.4647 H   0  0  0  0  0  0  0  0  0  0  0  0
  1  2  1  0  0  0  0
  1 20  1  0  0  0  0
  1 30  1  0  0  0  0
  1 31  1  0  0  0  0
  2  3  1  0  0  0  0
  3  4  2  0  0  0  0
  3  7  1  0  0  0  0
  4  5  1  0  0  0  0
  5  6  2  0  0  0  0
  6  7  1  0  0  0  0
  6 14  1  0  0  0  0
  7  8  1  0  0  0  0
  8  9  2  0  0  0  0
  8 13  1  0  0  0  0
  9 10  1  0  0  0  0
  9 32  1  0  0  0  0
 10 11  2  0  0  0  0
 10 33  1  0  0  0  0
 11 12  1  0  0  0  0
 11 34  1  0  0  0  0
 12 13  2  0  0  0  0
 12 35  1  0  0  0  0
 13 36  1  0  0  0  0
 14 15  2  0  0  0  0
 14 19  1  0  0  0  0
 15 16  1  0  0  0  0
 15 37  1  0  0  0  0
 16 17  2  0  0  0  0
 16 38  1  0  0  0  0
 17 18  1  0  0  0  0
 18 19  2  0  0  0  0
 18 39  1  0  0  0  0
 19 40  1  0  0  0  0
 20 21  1  0  0  0  0
 20 23  2  0  0  0  0
 21 22  1  0  0  0  0
 21 24  1  0  0  0  0
 24 25  2  0  0  0  0
 24 29  1  0  0  0  0
 25 26  1  0  0  0  0
 25 41  1  0  0  0  0
 26 27  2  0  0  0  0
 26 42  1  0  0  0  0
 27 28  1  0  0  0  0
 27 43  1  0  0  0  0
 28 29  2  0  0  0  0
 28 44  1  0  0  0  0
 29 45  1  0  0  0  0
M  END
