./114369-43-6.hin
 OpenBabel10051109203D

 41 43  0  0  0  0  0  0  0  0999 V2000
    1.7933   -1.6326    2.3096 C   0  0  0  0  0  0  0  0  0  0  0  0
    2.4836   -1.7142    3.5174 C   0  0  0  0  0  0  0  0  0  0  0  0
    1.9575   -1.0952    4.6550 C   0  0  0  0  0  0  0  0  0  0  0  0
    2.7955   -1.1906    6.1315 Cl  0  0  0  0  0  0  0  0  0  0  0  0
    0.7462   -0.3989    4.5879 C   0  0  0  0  0  0  0  0  0  0  0  0
    0.0638   -0.3249    3.3763 C   0  0  0  0  0  0  0  0  0  0  0  0
    0.5812   -0.9387    2.2288 C   0  0  0  0  0  0  0  0  0  0  0  0
   -0.1637   -0.8624    0.9416 C   0  0  0  0  0  0  0  0  0  0  0  0
   -0.0604    0.5236    0.3334 C   0  0  0  0  0  0  0  0  0  0  0  0
   -0.5128    0.5775   -1.1356 C   0  0  0  0  0  0  0  0  0  0  0  0
   -0.4815    1.9765   -1.5682 C   0  0  0  0  0  0  0  0  0  0  0  0
   -0.4678    3.0873   -1.9091 N   0  0  0  0  0  0  0  0  0  0  0  0
    0.4461   -0.2176   -1.9923 C   0  0  0  0  0  0  0  0  0  0  0  0
    0.1469   -1.4995   -2.4648 C   0  0  0  0  0  0  0  0  0  0  0  0
    1.0734   -2.1994   -3.2390 C   0  0  0  0  0  0  0  0  0  0  0  0
    2.3075   -1.6304   -3.5465 C   0  0  0  0  0  0  0  0  0  0  0  0
    2.6163   -0.3552   -3.0725 C   0  0  0  0  0  0  0  0  0  0  0  0
    1.6938    0.3458   -2.2996 C   0  0  0  0  0  0  0  0  0  0  0  0
   -1.9601    0.0460   -1.3185 C   0  0  0  0  0  0  0  0  0  0  0  0
   -2.9998    0.8546   -0.7238 N   0  0  0  0  0  0  0  0  0  0  0  0
   -3.3903    0.7824    0.5643 N   0  0  0  0  0  0  0  0  0  0  0  0
   -4.3956    1.6940    0.6715 C   0  0  0  0  0  0  0  0  0  0  0  0
   -4.6620    2.3644   -0.5385 N   0  0  0  0  0  0  0  0  0  0  0  0
   -3.7748    1.8277   -1.3985 C   0  0  0  0  0  0  0  0  0  0  0  0
    2.2079   -2.1203    1.4142 H   0  0  0  0  0  0  0  0  0  0  0  0
    3.4359   -2.2629    3.5724 H   0  0  0  0  0  0  0  0  0  0  0  0
    0.3333    0.0869    5.4848 H   0  0  0  0  0  0  0  0  0  0  0  0
   -0.8917    0.2194    3.3183 H   0  0  0  0  0  0  0  0  0  0  0  0
    0.2377   -1.6221    0.2172 H   0  0  0  0  0  0  0  0  0  0  0  0
   -1.2433   -1.1118    1.1327 H   0  0  0  0  0  0  0  0  0  0  0  0
   -0.6734    1.2415    0.9390 H   0  0  0  0  0  0  0  0  0  0  0  0
    1.0069    0.8715    0.3755 H   0  0  0  0  0  0  0  0  0  0  0  0
   -0.8144   -1.9820   -2.2349 H   0  0  0  0  0  0  0  0  0  0  0  0
    0.8241   -3.2062   -3.6063 H   0  0  0  0  0  0  0  0  0  0  0  0
    3.0347   -2.1835   -4.1590 H   0  0  0  0  0  0  0  0  0  0  0  0
    3.5896    0.1006   -3.3089 H   0  0  0  0  0  0  0  0  0  0  0  0
    1.9494    1.3505   -1.9268 H   0  0  0  0  0  0  0  0  0  0  0  0
   -2.1781   -0.0138   -2.4231 H   0  0  0  0  0  0  0  0  0  0  0  0
   -2.0118   -0.9896   -0.8742 H   0  0  0  0  0  0  0  0  0  0  0  0
   -4.9490    1.8946    1.5945 H   0  0  0  0  0  0  0  0  0  0  0  0
   -3.6436    2.0782   -2.4561 H   0  0  0  0  0  0  0  0  0  0  0  0
  1  2  2  0  0  0  0
  1  7  1  0  0  0  0
  1 25  1  0  0  0  0
  2  3  1  0  0  0  0
  2 26  1  0  0  0  0
  3  4  1  0  0  0  0
  3  5  2  0  0  0  0
  5  6  1  0  0  0  0
  5 27  1  0  0  0  0
  6  7  2  0  0  0  0
  6 28  1  0  0  0  0
  7  8  1  0  0  0  0
  8  9  1  0  0  0  0
  8 29  1  0  0  0  0
  8 30  1  0  0  0  0
  9 10  1  0  0  0  0
  9 31  1  0  0  0  0
  9 32  1  0  0  0  0
 10 11  1  0  0  0  0
 10 13  1  0  0  0  0
 10 19  1  0  0  0  0
 11 12  3  0  0  0  0
 13 14  2  0  0  0  0
 13 18  1  0  0  0  0
 14 15  1  0  0  0  0
 14 33  1  0  0  0  0
 15 16  2  0  0  0  0
 15 34  1  0  0  0  0
 16 17  1  0  0  0  0
 16 35  1  0  0  0  0
 17 18  2  0  0  0  0
 17 36  1  0  0  0  0
 18 37  1  0  0  0  0
 19 20  1  0  0  0  0
 19 38  1  0  0  0  0
 19 39  1  0  0  0  0
 20 21  1  0  0  0  0
 20 24  1  0  0  0  0
 21 22  2  0  0  0  0
 22 23  1  0  0  0  0
 22 40  1  0  0  0  0
 23 24  2  0  0  0  0
 24 41  1  0  0  0  0
M  END
