./116255-48-2.hin
 OpenBabel10051109203D

 32 34  0  0  0  0  0  0  0  0999 V2000
   -0.9016   -0.9240   -1.9486 C   0  0  0  0  0  0  0  0  0  0  0  0
   -1.9648   -1.3859   -2.7182 C   0  0  0  0  0  0  0  0  0  0  0  0
   -3.2746   -1.1945   -2.2690 C   0  0  0  0  0  0  0  0  0  0  0  0
   -4.5822   -1.7475   -3.1985 Cl  0  0  0  0  0  0  0  0  0  0  0  0
   -3.5144   -0.5502   -1.0540 C   0  0  0  0  0  0  0  0  0  0  0  0
   -2.4354   -0.0931   -0.2890 C   0  0  0  0  0  0  0  0  0  0  0  0
   -2.8188    0.6705    1.1878 Cl  0  0  0  0  0  0  0  0  0  0  0  0
   -1.1122   -0.2666   -0.7269 C   0  0  0  0  0  0  0  0  0  0  0  0
    0.0789    0.2156    0.0572 C   0  0  0  0  0  0  0  0  0  0  0  0
    0.2893   -0.6033    1.3607 C   0  0  0  0  0  0  0  0  0  0  0  0
    0.4849   -2.0215    1.1771 N   0  0  0  0  0  0  0  0  0  0  0  0
    1.6496   -2.5976    0.8250 N   0  0  0  0  0  0  0  0  0  0  0  0
    1.3612   -3.9251    0.7267 C   0  0  0  0  0  0  0  0  0  0  0  0
    0.0119   -4.2180    1.0049 N   0  0  0  0  0  0  0  0  0  0  0  0
   -0.5213   -3.0110    1.2785 C   0  0  0  0  0  0  0  0  0  0  0  0
   -0.0071    1.7171    0.4114 C   0  0  0  0  0  0  0  0  0  0  0  0
    1.3207    2.3282   -0.0209 C   0  0  0  0  0  0  0  0  0  0  0  0
    2.2344    3.2788    1.3942 Br  0  0  0  0  0  0  0  0  0  0  0  0
    2.1372    1.1655   -0.5840 C   0  0  0  0  0  0  0  0  0  0  0  0
    1.2540    0.0552   -0.7625 O   0  0  0  0  0  0  0  0  0  0  0  0
    0.1313   -1.0814   -2.3058 H   0  0  0  0  0  0  0  0  0  0  0  0
   -1.7711   -1.9007   -3.6720 H   0  0  0  0  0  0  0  0  0  0  0  0
   -4.5467   -0.4022   -0.6977 H   0  0  0  0  0  0  0  0  0  0  0  0
    1.1972   -0.1764    1.8779 H   0  0  0  0  0  0  0  0  0  0  0  0
   -0.6132   -0.4701    2.0203 H   0  0  0  0  0  0  0  0  0  0  0  0
    2.0931   -4.6949    0.4638 H   0  0  0  0  0  0  0  0  0  0  0  0
   -1.5577   -2.7921    1.5518 H   0  0  0  0  0  0  0  0  0  0  0  0
   -0.2059    1.8565    1.5031 H   0  0  0  0  0  0  0  0  0  0  0  0
   -0.8473    2.1988   -0.1506 H   0  0  0  0  0  0  0  0  0  0  0  0
    1.1546    3.1043   -0.8074 H   0  0  0  0  0  0  0  0  0  0  0  0
    2.9631    0.8417    0.1016 H   0  0  0  0  0  0  0  0  0  0  0  0
    2.5501    1.3903   -1.6013 H   0  0  0  0  0  0  0  0  0  0  0  0
  1  2  2  0  0  0  0
  1  8  1  0  0  0  0
  1 21  1  0  0  0  0
  2  3  1  0  0  0  0
  2 22  1  0  0  0  0
  3  4  1  0  0  0  0
  3  5  2  0  0  0  0
  5  6  1  0  0  0  0
  5 23  1  0  0  0  0
  6  7  1  0  0  0  0
  6  8  2  0  0  0  0
  8  9  1  0  0  0  0
  9 10  1  0  0  0  0
  9 16  1  0  0  0  0
  9 20  1  0  0  0  0
 10 11  1  0  0  0  0
 10 24  1  0  0  0  0
 10 25  1  0  0  0  0
 11 12  1  0  0  0  0
 11 15  1  0  0  0  0
 12 13  2  0  0  0  0
 13 14  1  0  0  0  0
 13 26  1  0  0  0  0
 14 15  2  0  0  0  0
 15 27  1  0  0  0  0
 16 17  1  0  0  0  0
 16 28  1  0  0  0  0
 16 29  1  0  0  0  0
 17 18  1  0  0  0  0
 17 19  1  0  0  0  0
 17 30  1  0  0  0  0
 19 20  1  0  0  0  0
 19 31  1  0  0  0  0
 19 32  1  0  0  0  0
M  END
