./119126-15-7.hin
 OpenBabel10051109203D

 45 47  0  0  0  0  0  0  0  0999 V2000
   -3.2677   -1.2682   -1.6969 N   0  0  0  0  0  0  0  0  0  0  0  0
   -4.3810   -1.6528   -0.9999 C   0  0  0  0  0  0  0  0  0  0  0  0
   -5.4410   -2.5493   -1.5586 C   0  0  0  0  0  0  0  0  0  0  0  0
   -5.6792   -2.5897   -2.7794 O   0  0  0  0  0  0  0  0  0  0  0  0
   -6.1211   -3.3381   -0.6680 N   0  0  0  0  0  0  0  0  0  0  0  0
   -4.4410   -1.0814    0.2899 N   0  0  0  0  0  0  0  0  0  0  0  0
   -3.3250   -0.3179    0.3636 C   0  0  0  0  0  0  0  0  0  0  0  0
   -2.9308    0.5291    1.4888 C   0  0  0  0  0  0  0  0  0  0  0  0
   -2.7770    1.9100    1.3149 C   0  0  0  0  0  0  0  0  0  0  0  0
   -2.4454    2.7105    2.4069 C   0  0  0  0  0  0  0  0  0  0  0  0
   -2.2717    2.1397    3.6682 C   0  0  0  0  0  0  0  0  0  0  0  0
   -2.4324    0.7648    3.8412 C   0  0  0  0  0  0  0  0  0  0  0  0
   -2.7654   -0.0445    2.7557 C   0  0  0  0  0  0  0  0  0  0  0  0
   -2.6071   -0.4468   -0.8649 N   0  0  0  0  0  0  0  0  0  0  0  0
   -1.3479    0.1359   -1.1947 C   0  0  0  0  0  0  0  0  0  0  0  0
   -0.3279    0.2112   -0.2287 C   0  0  0  0  0  0  0  0  0  0  0  0
    0.9051    0.7880   -0.5447 C   0  0  0  0  0  0  0  0  0  0  0  0
    1.9438    0.8783    0.5272 C   0  0  0  0  0  0  0  0  0  0  0  0
    2.7231   -0.3243    0.4615 O   0  0  0  0  0  0  0  0  0  0  0  0
    3.8483   -0.2723    1.3217 C   0  0  0  0  0  0  0  0  0  0  0  0
    4.5183   -1.6736    1.2481 C   0  0  0  0  0  0  0  0  0  0  0  0
    5.5695   -1.7586    2.1312 F   0  0  0  0  0  0  0  0  0  0  0  0
    3.6891   -2.6883    1.6505 F   0  0  0  0  0  0  0  0  0  0  0  0
    5.0499   -1.9599   -0.2475 C   0  0  0  0  0  0  0  0  0  0  0  0
    5.9511   -2.9870   -0.2929 F   0  0  0  0  0  0  0  0  0  0  0  0
    4.0562   -2.2959   -1.1177 F   0  0  0  0  0  0  0  0  0  0  0  0
    5.6933   -0.8841   -0.7935 F   0  0  0  0  0  0  0  0  0  0  0  0
    1.1305    1.2659   -1.8434 C   0  0  0  0  0  0  0  0  0  0  0  0
    2.6154    1.9613   -2.2861 Cl  0  0  0  0  0  0  0  0  0  0  0  0
    0.1233    1.1761   -2.8110 C   0  0  0  0  0  0  0  0  0  0  0  0
   -1.1107    0.6178   -2.4985 C   0  0  0  0  0  0  0  0  0  0  0  0
   -6.8686   -3.8946   -1.0026 H   0  0  0  0  0  0  0  0  0  0  0  0
   -6.0039   -3.2334    0.3072 H   0  0  0  0  0  0  0  0  0  0  0  0
   -2.9254    2.3623    0.3226 H   0  0  0  0  0  0  0  0  0  0  0  0
   -2.3282    3.7961    2.2721 H   0  0  0  0  0  0  0  0  0  0  0  0
   -2.0145    2.7758    4.5285 H   0  0  0  0  0  0  0  0  0  0  0  0
   -2.3039    0.3157    4.8374 H   0  0  0  0  0  0  0  0  0  0  0  0
   -2.9076   -1.1274    2.8927 H   0  0  0  0  0  0  0  0  0  0  0  0
   -0.4914   -0.1832    0.7886 H   0  0  0  0  0  0  0  0  0  0  0  0
    2.6091    1.7708    0.3772 H   0  0  0  0  0  0  0  0  0  0  0  0
    1.4653    0.9400    1.5429 H   0  0  0  0  0  0  0  0  0  0  0  0
    4.5807    0.5019    0.9730 H   0  0  0  0  0  0  0  0  0  0  0  0
    3.5364   -0.0736    2.3802 H   0  0  0  0  0  0  0  0  0  0  0  0
    0.3069    1.5450   -3.8333 H   0  0  0  0  0  0  0  0  0  0  0  0
   -1.8877    0.5463   -3.2780 H   0  0  0  0  0  0  0  0  0  0  0  0
  1  2  2  0  0  0  0
  1 14  1  0  0  0  0
  2  3  1  0  0  0  0
  2  6  1  0  0  0  0
  3  4  2  0  0  0  0
  3  5  1  0  0  0  0
  5 32  1  0  0  0  0
  5 33  1  0  0  0  0
  6  7  2  0  0  0  0
  7  8  1  0  0  0  0
  7 14  1  0  0  0  0
  8  9  2  0  0  0  0
  8 13  1  0  0  0  0
  9 10  1  0  0  0  0
  9 34  1  0  0  0  0
 10 11  2  0  0  0  0
 10 35  1  0  0  0  0
 11 12  1  0  0  0  0
 11 36  1  0  0  0  0
 12 13  2  0  0  0  0
 12 37  1  0  0  0  0
 13 38  1  0  0  0  0
 14 15  1  0  0  0  0
 15 16  2  0  0  0  0
 15 31  1  0  0  0  0
 16 17  1  0  0  0  0
 16 39  1  0  0  0  0
 17 18  1  0  0  0  0
 17 28  2  0  0  0  0
 18 19  1  0  0  0  0
 18 40  1  0  0  0  0
 18 41  1  0  0  0  0
 19 20  1  0  0  0  0
 20 21  1  0  0  0  0
 20 42  1  0  0  0  0
 20 43  1  0  0  0  0
 21 22  1  0  0  0  0
 21 23  1  0  0  0  0
 21 24  1  0  0  0  0
 24 25  1  0  0  0  0
 24 26  1  0  0  0  0
 24 27  1  0  0  0  0
 28 29  1  0  0  0  0
 28 30  1  0  0  0  0
 30 31  2  0  0  0  0
 30 44  1  0  0  0  0
 31 45  1  0  0  0  0
M  END
