./119446-68-3.hin
 OpenBabel10051109203D

 44 47  0  0  0  0  0  0  0  0999 V2000
   -2.0690   -3.3981    0.6589 O   0  0  0  0  0  0  0  0  0  0  0  0
   -2.3612   -3.8455   -0.6697 C   0  0  0  0  0  0  0  0  0  0  0  0
   -2.8368   -2.5987   -1.4210 C   0  0  0  0  0  0  0  0  0  0  0  0
   -4.2577   -2.6906   -1.9246 C   0  0  0  0  0  0  0  0  0  0  0  0
   -2.7623   -1.5402   -0.4459 O   0  0  0  0  0  0  0  0  0  0  0  0
   -2.0450   -1.9724    0.7098 C   0  0  0  0  0  0  0  0  0  0  0  0
   -2.7863   -1.4710    1.9805 C   0  0  0  0  0  0  0  0  0  0  0  0
   -4.1276   -1.9763    2.1429 N   0  0  0  0  0  0  0  0  0  0  0  0
   -5.2500   -1.2407    2.0292 N   0  0  0  0  0  0  0  0  0  0  0  0
   -6.2631   -2.1300    2.2238 C   0  0  0  0  0  0  0  0  0  0  0  0
   -5.8087   -3.4441    2.4497 N   0  0  0  0  0  0  0  0  0  0  0  0
   -4.4671   -3.3265    2.3892 C   0  0  0  0  0  0  0  0  0  0  0  0
   -0.6357   -1.4173    0.7130 C   0  0  0  0  0  0  0  0  0  0  0  0
    0.3803   -1.8878    1.5600 C   0  0  0  0  0  0  0  0  0  0  0  0
    0.1333   -3.1451    2.6790 Cl  0  0  0  0  0  0  0  0  0  0  0  0
    1.6609   -1.3263    1.5238 C   0  0  0  0  0  0  0  0  0  0  0  0
    1.9180   -0.2687    0.6405 C   0  0  0  0  0  0  0  0  0  0  0  0
    3.1908    0.2785    0.7372 O   0  0  0  0  0  0  0  0  0  0  0  0
    0.9162    0.2230   -0.2040 C   0  0  0  0  0  0  0  0  0  0  0  0
   -0.3461   -0.3572   -0.1582 C   0  0  0  0  0  0  0  0  0  0  0  0
    3.6634    0.9740   -0.3742 C   0  0  0  0  0  0  0  0  0  0  0  0
    4.3312    2.1781   -0.1076 C   0  0  0  0  0  0  0  0  0  0  0  0
    4.9366    2.8622   -1.1583 C   0  0  0  0  0  0  0  0  0  0  0  0
    4.8634    2.3490   -2.4582 C   0  0  0  0  0  0  0  0  0  0  0  0
    4.1923    1.1489   -2.7174 C   0  0  0  0  0  0  0  0  0  0  0  0
    3.5890    0.4544   -1.6720 C   0  0  0  0  0  0  0  0  0  0  0  0
    5.5979    3.1931   -3.7368 Cl  0  0  0  0  0  0  0  0  0  0  0  0
   -3.1523   -4.6303   -0.5702 H   0  0  0  0  0  0  0  0  0  0  0  0
   -1.4265   -4.2785   -1.1048 H   0  0  0  0  0  0  0  0  0  0  0  0
   -2.1328   -2.3255   -2.2530 H   0  0  0  0  0  0  0  0  0  0  0  0
   -4.9544   -2.9601   -1.0950 H   0  0  0  0  0  0  0  0  0  0  0  0
   -4.5765   -1.7064   -2.3448 H   0  0  0  0  0  0  0  0  0  0  0  0
   -4.3185   -3.4679   -2.7228 H   0  0  0  0  0  0  0  0  0  0  0  0
   -2.1849   -1.8015    2.8743 H   0  0  0  0  0  0  0  0  0  0  0  0
   -2.8067   -0.3457    1.9268 H   0  0  0  0  0  0  0  0  0  0  0  0
   -7.3241   -1.8631    2.2134 H   0  0  0  0  0  0  0  0  0  0  0  0
   -3.7139   -4.1157    2.4909 H   0  0  0  0  0  0  0  0  0  0  0  0
    2.4628   -1.6928    2.1828 H   0  0  0  0  0  0  0  0  0  0  0  0
    1.1253    1.0573   -0.8899 H   0  0  0  0  0  0  0  0  0  0  0  0
   -1.1434    0.0250   -0.8194 H   0  0  0  0  0  0  0  0  0  0  0  0
    4.3813    2.5616    0.9218 H   0  0  0  0  0  0  0  0  0  0  0  0
    5.4682    3.8062   -0.9622 H   0  0  0  0  0  0  0  0  0  0  0  0
    4.1429    0.7491   -3.7419 H   0  0  0  0  0  0  0  0  0  0  0  0
    3.0598   -0.4917   -1.8584 H   0  0  0  0  0  0  0  0  0  0  0  0
  1  2  1  0  0  0  0
  1  6  1  0  0  0  0
  2  3  1  0  0  0  0
  2 28  1  0  0  0  0
  2 29  1  0  0  0  0
  3  4  1  0  0  0  0
  3  5  1  0  0  0  0
  3 30  1  0  0  0  0
  4 31  1  0  0  0  0
  4 32  1  0  0  0  0
  4 33  1  0  0  0  0
  5  6  1  0  0  0  0
  6  7  1  0  0  0  0
  6 13  1  0  0  0  0
  7  8  1  0  0  0  0
  7 34  1  0  0  0  0
  7 35  1  0  0  0  0
  8  9  1  0  0  0  0
  8 12  1  0  0  0  0
  9 10  2  0  0  0  0
 10 11  1  0  0  0  0
 10 36  1  0  0  0  0
 11 12  2  0  0  0  0
 12 37  1  0  0  0  0
 13 14  2  0  0  0  0
 13 20  1  0  0  0  0
 14 15  1  0  0  0  0
 14 16  1  0  0  0  0
 16 17  2  0  0  0  0
 16 38  1  0  0  0  0
 17 18  1  0  0  0  0
 17 19  1  0  0  0  0
 18 21  1  0  0  0  0
 19 20  2  0  0  0  0
 19 39  1  0  0  0  0
 20 40  1  0  0  0  0
 21 22  2  0  0  0  0
 21 26  1  0  0  0  0
 22 23  1  0  0  0  0
 22 41  1  0  0  0  0
 23 24  2  0  0  0  0
 23 42  1  0  0  0  0
 24 25  1  0  0  0  0
 24 27  1  0  0  0  0
 25 26  2  0  0  0  0
 25 43  1  0  0  0  0
 26 44  1  0  0  0  0
M  END
