./122836-35-5.hin
 OpenBabel10051109203D

 33 34  0  0  0  0  0  0  0  0999 V2000
    2.1187   -4.2599   -0.6120 Cl  0  0  0  0  0  0  0  0  0  0  0  0
    0.7464   -3.7499    0.2375 C   0  0  0  0  0  0  0  0  0  0  0  0
   -0.1088   -4.7192    0.7656 C   0  0  0  0  0  0  0  0  0  0  0  0
   -1.2742   -4.3580    1.4368 C   0  0  0  0  0  0  0  0  0  0  0  0
   -2.2861   -5.5893    2.0302 Cl  0  0  0  0  0  0  0  0  0  0  0  0
   -1.6095   -2.9928    1.6221 C   0  0  0  0  0  0  0  0  0  0  0  0
   -2.7917   -2.6143    2.2603 N   0  0  0  0  0  0  0  0  0  0  0  0
   -3.4615   -1.1162    2.3457 S   0  0  0  0  0  0  0  0  0  0  0  0
   -4.6667   -1.2494    3.0598 O   0  0  0  0  0  0  0  0  0  0  0  0
   -2.5369   -0.1742    2.8245 O   0  0  0  0  0  0  0  0  0  0  0  0
   -3.8038   -0.7456    0.7316 C   0  0  0  0  0  0  0  0  0  0  0  0
   -0.7136   -2.0195    1.1338 C   0  0  0  0  0  0  0  0  0  0  0  0
    0.4379   -2.3826    0.4163 C   0  0  0  0  0  0  0  0  0  0  0  0
    1.2494   -1.3738   -0.1801 N   0  0  0  0  0  0  0  0  0  0  0  0
    2.5985   -1.3046    0.0559 N   0  0  0  0  0  0  0  0  0  0  0  0
    2.9915   -0.0404   -0.1661 C   0  0  0  0  0  0  0  0  0  0  0  0
    4.3800    0.4813   -0.0895 C   0  0  0  0  0  0  0  0  0  0  0  0
    1.8775    0.7839   -0.5132 N   0  0  0  0  0  0  0  0  0  0  0  0
    1.8147    2.2326   -0.6417 C   0  0  0  0  0  0  0  0  0  0  0  0
    2.2813    2.9083    0.4705 F   0  0  0  0  0  0  0  0  0  0  0  0
    2.6534    2.7173   -1.6263 F   0  0  0  0  0  0  0  0  0  0  0  0
    0.7202   -0.0515   -0.4535 C   0  0  0  0  0  0  0  0  0  0  0  0
   -0.4466    0.2862   -0.6995 O   0  0  0  0  0  0  0  0  0  0  0  0
    0.1375   -5.7877    0.6377 H   0  0  0  0  0  0  0  0  0  0  0  0
   -3.2702   -3.3753    2.6993 H   0  0  0  0  0  0  0  0  0  0  0  0
   -4.4207    0.1883    0.6683 H   0  0  0  0  0  0  0  0  0  0  0  0
   -2.8876   -0.5453    0.1150 H   0  0  0  0  0  0  0  0  0  0  0  0
   -4.3844   -1.5307    0.1886 H   0  0  0  0  0  0  0  0  0  0  0  0
   -0.9182   -0.9464    1.3148 H   0  0  0  0  0  0  0  0  0  0  0  0
    4.6970    0.8487   -1.0985 H   0  0  0  0  0  0  0  0  0  0  0  0
    4.4190    1.3360    0.6332 H   0  0  0  0  0  0  0  0  0  0  0  0
    5.0840   -0.3188    0.2479 H   0  0  0  0  0  0  0  0  0  0  0  0
    0.7303    2.5065   -0.8588 H   0  0  0  0  0  0  0  0  0  0  0  0
  1  2  1  0  0  0  0
  2  3  2  0  0  0  0
  2 13  1  0  0  0  0
  3  4  1  0  0  0  0
  3 24  1  0  0  0  0
  4  5  1  0  0  0  0
  4  6  2  0  0  0  0
  6  7  1  0  0  0  0
  6 12  1  0  0  0  0
  7  8  1  0  0  0  0
  7 25  1  0  0  0  0
  8  9  2  0  0  0  0
  8 10  2  0  0  0  0
  8 11  1  0  0  0  0
 11 26  1  0  0  0  0
 11 27  1  0  0  0  0
 11 28  1  0  0  0  0
 12 13  2  0  0  0  0
 12 29  1  0  0  0  0
 13 14  1  0  0  0  0
 14 15  1  0  0  0  0
 14 22  1  0  0  0  0
 15 16  2  0  0  0  0
 16 17  1  0  0  0  0
 16 18  1  0  0  0  0
 17 30  1  0  0  0  0
 17 31  1  0  0  0  0
 17 32  1  0  0  0  0
 18 19  1  0  0  0  0
 18 22  1  0  0  0  0
 19 20  1  0  0  0  0
 19 21  1  0  0  0  0
 19 33  1  0  0  0  0
 22 23  2  0  0  0  0
M  END
