./125304-04-3.hin
 OpenBabel10051109203D

 64 66  0  0  0  0  0  0  0  0999 V2000
    1.3983    0.5782   -0.5286 C   0  0  0  0  0  0  0  0  0  0  0  0
    2.3420    1.4687    0.0308 C   0  0  0  0  0  0  0  0  0  0  0  0
    3.4405    0.9638    0.7536 C   0  0  0  0  0  0  0  0  0  0  0  0
    3.5940   -0.4092    0.9280 C   0  0  0  0  0  0  0  0  0  0  0  0
    2.6443   -1.2869    0.3881 C   0  0  0  0  0  0  0  0  0  0  0  0
    1.5533   -0.8167   -0.3343 C   0  0  0  0  0  0  0  0  0  0  0  0
    4.7575   -0.9447    1.6726 C   0  0  0  0  0  0  0  0  0  0  0  0
    0.5584   -1.7629   -0.9107 C   0  0  0  0  0  0  0  0  0  0  0  0
   -0.7212   -1.7966   -0.0955 C   0  0  0  0  0  0  0  0  0  0  0  0
   -1.7161   -2.7716   -0.6873 C   0  0  0  0  0  0  0  0  0  0  0  0
   -3.0217   -2.7506    0.0785 C   0  0  0  0  0  0  0  0  0  0  0  0
   -4.0156   -3.7343   -0.5011 C   0  0  0  0  0  0  0  0  0  0  0  0
   -5.3438   -3.6619    0.2212 C   0  0  0  0  0  0  0  0  0  0  0  0
   -6.3343   -4.6554   -0.3472 C   0  0  0  0  0  0  0  0  0  0  0  0
   -7.6796   -4.5424    0.3374 C   0  0  0  0  0  0  0  0  0  0  0  0
   -8.6667   -5.5451   -0.2205 C   0  0  0  0  0  0  0  0  0  0  0  0
  -10.0228   -5.4054    0.4370 C   0  0  0  0  0  0  0  0  0  0  0  0
  -11.0084   -6.4153   -0.1115 C   0  0  0  0  0  0  0  0  0  0  0  0
  -12.3651   -6.2675    0.5272 C   0  0  0  0  0  0  0  0  0  0  0  0
    1.0721    3.5487    0.1949 N   0  0  0  0  0  0  0  0  0  0  0  0
    2.2104    2.9009   -0.1230 N   0  0  0  0  0  0  0  0  0  0  0  0
    3.2491    3.6673   -0.5045 N   0  0  0  0  0  0  0  0  0  0  0  0
    2.7676    4.9504   -0.4541 C   0  0  0  0  0  0  0  0  0  0  0  0
    1.3618    4.8737   -0.0048 C   0  0  0  0  0  0  0  0  0  0  0  0
    3.3470    6.2166   -0.7424 C   0  0  0  0  0  0  0  0  0  0  0  0
    2.5686    7.3302   -0.5877 C   0  0  0  0  0  0  0  0  0  0  0  0
    1.2098    7.2558   -0.1521 C   0  0  0  0  0  0  0  0  0  0  0  0
    0.6004    6.0662    0.1369 C   0  0  0  0  0  0  0  0  0  0  0  0
    0.2953    0.9427   -1.2573 O   0  0  0  0  0  0  0  0  0  0  0  0
    4.1861    1.6526    1.1838 H   0  0  0  0  0  0  0  0  0  0  0  0
    2.7667   -2.3718    0.5375 H   0  0  0  0  0  0  0  0  0  0  0  0
    4.4498   -1.8009    2.3226 H   0  0  0  0  0  0  0  0  0  0  0  0
    5.5342   -1.3114    0.9548 H   0  0  0  0  0  0  0  0  0  0  0  0
    5.2210   -0.1594    2.3189 H   0  0  0  0  0  0  0  0  0  0  0  0
    0.9992   -2.7940   -0.9623 H   0  0  0  0  0  0  0  0  0  0  0  0
    0.3162   -1.4436   -1.9613 H   0  0  0  0  0  0  0  0  0  0  0  0
   -0.4902   -2.0879    0.9622 H   0  0  0  0  0  0  0  0  0  0  0  0
   -1.1654   -0.7657   -0.0721 H   0  0  0  0  0  0  0  0  0  0  0  0
   -1.9071   -2.5091   -1.7614 H   0  0  0  0  0  0  0  0  0  0  0  0
   -1.2860   -3.8076   -0.6713 H   0  0  0  0  0  0  0  0  0  0  0  0
   -2.8310   -2.9991    1.1558 H   0  0  0  0  0  0  0  0  0  0  0  0
   -3.4557   -1.7162    0.0499 H   0  0  0  0  0  0  0  0  0  0  0  0
   -4.1689   -3.5162   -1.5911 H   0  0  0  0  0  0  0  0  0  0  0  0
   -3.6024   -4.7747   -0.4274 H   0  0  0  0  0  0  0  0  0  0  0  0
   -5.1903   -3.8667    1.3135 H   0  0  0  0  0  0  0  0  0  0  0  0
   -5.7612   -2.6239    0.1354 H   0  0  0  0  0  0  0  0  0  0  0  0
   -6.4572   -4.4763   -1.4480 H   0  0  0  0  0  0  0  0  0  0  0  0
   -5.9352   -5.6967   -0.2246 H   0  0  0  0  0  0  0  0  0  0  0  0
   -7.5562   -4.7095    1.4400 H   0  0  0  0  0  0  0  0  0  0  0  0
   -8.0826   -3.5038    0.2040 H   0  0  0  0  0  0  0  0  0  0  0  0
   -8.7690   -5.3961   -1.3279 H   0  0  0  0  0  0  0  0  0  0  0  0
   -8.2766   -6.5850   -0.0620 H   0  0  0  0  0  0  0  0  0  0  0  0
   -9.9201   -5.5452    1.5455 H   0  0  0  0  0  0  0  0  0  0  0  0
  -10.4165   -4.3681    0.2702 H   0  0  0  0  0  0  0  0  0  0  0  0
  -11.0985   -6.2839   -1.2223 H   0  0  0  0  0  0  0  0  0  0  0  0
  -10.6185   -7.4523    0.0669 H   0  0  0  0  0  0  0  0  0  0  0  0
  -13.0743   -7.0237    0.1122 H   0  0  0  0  0  0  0  0  0  0  0  0
  -12.2990   -6.4149    1.6324 H   0  0  0  0  0  0  0  0  0  0  0  0
  -12.7827   -5.2495    0.3349 H   0  0  0  0  0  0  0  0  0  0  0  0
    4.3924    6.2725   -1.0773 H   0  0  0  0  0  0  0  0  0  0  0  0
    2.9850    8.3271   -0.8007 H   0  0  0  0  0  0  0  0  0  0  0  0
    0.6510    8.1993   -0.0516 H   0  0  0  0  0  0  0  0  0  0  0  0
   -0.4442    6.0077    0.4737 H   0  0  0  0  0  0  0  0  0  0  0  0
    0.3445    1.8781   -1.4965 H   0  0  0  0  0  0  0  0  0  0  0  0
  1  2  2  0  0  0  0
  1  6  1  0  0  0  0
  1 29  1  0  0  0  0
  2  3  1  0  0  0  0
  2 21  1  0  0  0  0
  3  4  2  0  0  0  0
  3 30  1  0  0  0  0
  4  5  1  0  0  0  0
  4  7  1  0  0  0  0
  5  6  2  0  0  0  0
  5 31  1  0  0  0  0
  6  8  1  0  0  0  0
  7 32  1  0  0  0  0
  7 33  1  0  0  0  0
  7 34  1  0  0  0  0
  8  9  1  0  0  0  0
  8 35  1  0  0  0  0
  8 36  1  0  0  0  0
  9 10  1  0  0  0  0
  9 37  1  0  0  0  0
  9 38  1  0  0  0  0
 10 11  1  0  0  0  0
 10 39  1  0  0  0  0
 10 40  1  0  0  0  0
 11 12  1  0  0  0  0
 11 41  1  0  0  0  0
 11 42  1  0  0  0  0
 12 13  1  0  0  0  0
 12 43  1  0  0  0  0
 12 44  1  0  0  0  0
 13 14  1  0  0  0  0
 13 45  1  0  0  0  0
 13 46  1  0  0  0  0
 14 15  1  0  0  0  0
 14 47  1  0  0  0  0
 14 48  1  0  0  0  0
 15 16  1  0  0  0  0
 15 49  1  0  0  0  0
 15 50  1  0  0  0  0
 16 17  1  0  0  0  0
 16 51  1  0  0  0  0
 16 52  1  0  0  0  0
 17 18  1  0  0  0  0
 17 53  1  0  0  0  0
 17 54  1  0  0  0  0
 18 19  1  0  0  0  0
 18 55  1  0  0  0  0
 18 56  1  0  0  0  0
 19 57  1  0  0  0  0
 19 58  1  0  0  0  0
 19 59  1  0  0  0  0
 20 21  1  0  0  0  0
 20 24  2  0  0  0  0
 21 22  1  0  0  0  0
 22 23  2  0  0  0  0
 23 24  1  0  0  0  0
 23 25  1  0  0  0  0
 24 28  1  0  0  0  0
 25 26  2  0  0  0  0
 25 60  1  0  0  0  0
 26 27  1  0  0  0  0
 26 61  1  0  0  0  0
 27 28  2  0  0  0  0
 27 62  1  0  0  0  0
 28 63  1  0  0  0  0
 29 64  1  0  0  0  0
M  END
