./127519-17-9.hin
 OpenBabel10051109203D

 67 69  0  0  0  0  0  0  0  0999 V2000
   -2.9713   -2.4972    0.0177 C   0  0  0  0  0  0  0  0  0  0  0  0
   -1.8452   -1.5663   -0.3108 C   0  0  0  0  0  0  0  0  0  0  0  0
   -1.4753   -0.7334    0.9038 C   0  0  0  0  0  0  0  0  0  0  0  0
   -4.0688   -2.2368    0.5147 O   0  0  0  0  0  0  0  0  0  0  0  0
   -2.6946   -3.7956   -0.3073 O   0  0  0  0  0  0  0  0  0  0  0  0
   -0.3734    0.2174    0.5898 C   0  0  0  0  0  0  0  0  0  0  0  0
   -0.6241    1.5828    0.5186 C   0  0  0  0  0  0  0  0  0  0  0  0
    0.4313    2.4701    0.2373 C   0  0  0  0  0  0  0  0  0  0  0  0
    1.7378    1.9766    0.0112 C   0  0  0  0  0  0  0  0  0  0  0  0
    1.9951    0.5807    0.0966 C   0  0  0  0  0  0  0  0  0  0  0  0
    0.9272   -0.2645    0.3877 C   0  0  0  0  0  0  0  0  0  0  0  0
    2.8141    2.7759   -0.2760 O   0  0  0  0  0  0  0  0  0  0  0  0
    3.3840    0.0326   -0.1212 C   0  0  0  0  0  0  0  0  0  0  0  0
    3.4322   -1.4872    0.0214 C   0  0  0  0  0  0  0  0  0  0  0  0
    3.8657    0.3768   -1.5284 C   0  0  0  0  0  0  0  0  0  0  0  0
    4.3429    0.6211    0.9108 C   0  0  0  0  0  0  0  0  0  0  0  0
   -0.8649    4.3713   -0.5676 N   0  0  0  0  0  0  0  0  0  0  0  0
    0.1422    3.8871    0.1833 N   0  0  0  0  0  0  0  0  0  0  0  0
    0.7951    4.7764    0.9580 N   0  0  0  0  0  0  0  0  0  0  0  0
    0.1859    5.9752    0.6939 C   0  0  0  0  0  0  0  0  0  0  0  0
   -0.8870    5.7134   -0.2891 C   0  0  0  0  0  0  0  0  0  0  0  0
    0.4011    7.2991    1.1670 C   0  0  0  0  0  0  0  0  0  0  0  0
   -0.4069    8.2922    0.6873 C   0  0  0  0  0  0  0  0  0  0  0  0
   -1.4435    8.0395   -0.2635 C   0  0  0  0  0  0  0  0  0  0  0  0
   -1.6945    6.7881   -0.7537 C   0  0  0  0  0  0  0  0  0  0  0  0
   -3.7258   -4.7623   -0.0399 C   0  0  0  0  0  0  0  0  0  0  0  0
   -3.1225   -6.1172   -0.3606 C   0  0  0  0  0  0  0  0  0  0  0  0
   -4.1453   -7.2079   -0.1274 C   0  0  0  0  0  0  0  0  0  0  0  0
   -3.5512   -8.5994   -0.3031 C   0  0  0  0  0  0  0  0  0  0  0  0
   -4.5162   -9.6431    0.2464 C   0  0  0  0  0  0  0  0  0  0  0  0
   -3.8560  -10.9789    0.4716 C   0  0  0  0  0  0  0  0  0  0  0  0
   -3.2309   -8.8733   -1.7577 C   0  0  0  0  0  0  0  0  0  0  0  0
   -0.9574   -2.1510   -0.6694 H   0  0  0  0  0  0  0  0  0  0  0  0
   -2.1871   -0.9020   -1.1491 H   0  0  0  0  0  0  0  0  0  0  0  0
   -2.3855   -0.1794    1.2607 H   0  0  0  0  0  0  0  0  0  0  0  0
   -1.1514   -1.4133    1.7378 H   0  0  0  0  0  0  0  0  0  0  0  0
   -1.6454    1.9644    0.6830 H   0  0  0  0  0  0  0  0  0  0  0  0
    1.0810   -1.3534    0.4665 H   0  0  0  0  0  0  0  0  0  0  0  0
    2.5250    3.6754   -0.4805 H   0  0  0  0  0  0  0  0  0  0  0  0
    2.7738   -1.9788   -0.7338 H   0  0  0  0  0  0  0  0  0  0  0  0
    4.4786   -1.8418   -0.1467 H   0  0  0  0  0  0  0  0  0  0  0  0
    3.1202   -1.8003    1.0463 H   0  0  0  0  0  0  0  0  0  0  0  0
    3.9457    1.4819   -1.6620 H   0  0  0  0  0  0  0  0  0  0  0  0
    4.8731   -0.0731   -1.7014 H   0  0  0  0  0  0  0  0  0  0  0  0
    3.1571   -0.0285   -2.2891 H   0  0  0  0  0  0  0  0  0  0  0  0
    4.4236    1.7282    0.7947 H   0  0  0  0  0  0  0  0  0  0  0  0
    3.9859    0.3928    1.9431 H   0  0  0  0  0  0  0  0  0  0  0  0
    5.3587    0.1771    0.7762 H   0  0  0  0  0  0  0  0  0  0  0  0
    1.1975    7.4917    1.8997 H   0  0  0  0  0  0  0  0  0  0  0  0
   -0.2701    9.3287    1.0335 H   0  0  0  0  0  0  0  0  0  0  0  0
   -2.0502    8.8948   -0.5999 H   0  0  0  0  0  0  0  0  0  0  0  0
   -2.4920    6.5922   -1.4843 H   0  0  0  0  0  0  0  0  0  0  0  0
   -4.6085   -4.5315   -0.6907 H   0  0  0  0  0  0  0  0  0  0  0  0
   -4.0311   -4.6842    1.0360 H   0  0  0  0  0  0  0  0  0  0  0  0
   -2.7755   -6.1256   -1.4266 H   0  0  0  0  0  0  0  0  0  0  0  0
   -2.2207   -6.2851    0.2840 H   0  0  0  0  0  0  0  0  0  0  0  0
   -4.5525   -7.1096    0.9146 H   0  0  0  0  0  0  0  0  0  0  0  0
   -5.0059   -7.0776   -0.8347 H   0  0  0  0  0  0  0  0  0  0  0  0
   -2.5947   -8.6543    0.2905 H   0  0  0  0  0  0  0  0  0  0  0  0
   -4.9381   -9.2786    1.2211 H   0  0  0  0  0  0  0  0  0  0  0  0
   -5.3770   -9.7605   -0.4634 H   0  0  0  0  0  0  0  0  0  0  0  0
   -4.5860  -11.6972    0.9179 H   0  0  0  0  0  0  0  0  0  0  0  0
   -3.4844  -11.4100   -0.4891 H   0  0  0  0  0  0  0  0  0  0  0  0
   -2.9892  -10.8793    1.1690 H   0  0  0  0  0  0  0  0  0  0  0  0
   -2.8099   -9.9008   -1.8767 H   0  0  0  0  0  0  0  0  0  0  0  0
   -4.1509   -8.7937   -2.3857 H   0  0  0  0  0  0  0  0  0  0  0  0
   -2.4787   -8.1405   -2.1373 H   0  0  0  0  0  0  0  0  0  0  0  0
  1  2  1  0  0  0  0
  1  4  2  0  0  0  0
  1  5  1  0  0  0  0
  2  3  1  0  0  0  0
  2 33  1  0  0  0  0
  2 34  1  0  0  0  0
  3  6  1  0  0  0  0
  3 35  1  0  0  0  0
  3 36  1  0  0  0  0
  5 26  1  0  0  0  0
  6  7  2  0  0  0  0
  6 11  1  0  0  0  0
  7  8  1  0  0  0  0
  7 37  1  0  0  0  0
  8  9  2  0  0  0  0
  8 18  1  0  0  0  0
  9 10  1  0  0  0  0
  9 12  1  0  0  0  0
 10 11  2  0  0  0  0
 10 13  1  0  0  0  0
 11 38  1  0  0  0  0
 12 39  1  0  0  0  0
 13 14  1  0  0  0  0
 13 15  1  0  0  0  0
 13 16  1  0  0  0  0
 14 40  1  0  0  0  0
 14 41  1  0  0  0  0
 14 42  1  0  0  0  0
 15 43  1  0  0  0  0
 15 44  1  0  0  0  0
 15 45  1  0  0  0  0
 16 46  1  0  0  0  0
 16 47  1  0  0  0  0
 16 48  1  0  0  0  0
 17 18  1  0  0  0  0
 17 21  2  0  0  0  0
 18 19  1  0  0  0  0
 19 20  2  0  0  0  0
 20 21  1  0  0  0  0
 20 22  1  0  0  0  0
 21 25  1  0  0  0  0
 22 23  2  0  0  0  0
 22 49  1  0  0  0  0
 23 24  1  0  0  0  0
 23 50  1  0  0  0  0
 24 25  2  0  0  0  0
 24 51  1  0  0  0  0
 25 52  1  0  0  0  0
 26 27  1  0  0  0  0
 26 53  1  0  0  0  0
 26 54  1  0  0  0  0
 27 28  1  0  0  0  0
 27 55  1  0  0  0  0
 27 56  1  0  0  0  0
 28 29  1  0  0  0  0
 28 57  1  0  0  0  0
 28 58  1  0  0  0  0
 29 30  1  0  0  0  0
 29 32  1  0  0  0  0
 29 59  1  0  0  0  0
 30 31  1  0  0  0  0
 30 60  1  0  0  0  0
 30 61  1  0  0  0  0
 31 62  1  0  0  0  0
 31 63  1  0  0  0  0
 31 64  1  0  0  0  0
 32 65  1  0  0  0  0
 32 66  1  0  0  0  0
 32 67  1  0  0  0  0
M  END
