./128625-52-5.hin
 OpenBabel10051109203D

 55 59  0  0  0  0  0  0  0  0999 V2000
    0.4769    0.7372    0.8374 P   0  0  0  0  0  0  0  0  0  0  0  0
    0.1634    1.7057    2.0652 N   0  0  0  0  0  0  0  0  0  0  0  0
   -1.1789    1.9560    2.5334 C   0  0  0  0  0  0  0  0  0  0  0  0
   -1.1073    2.2716    4.0410 C   0  0  0  0  0  0  0  0  0  0  0  0
    0.3778    2.3610    4.3785 C   0  0  0  0  0  0  0  0  0  0  0  0
    1.1224    2.1413    3.0453 C   0  0  0  0  0  0  0  0  0  0  0  0
    1.3897    1.4871   -0.1812 N   0  0  0  0  0  0  0  0  0  0  0  0
    0.9043    2.0115   -1.4411 C   0  0  0  0  0  0  0  0  0  0  0  0
    1.8489    3.1551   -1.8558 C   0  0  0  0  0  0  0  0  0  0  0  0
    3.0559    3.0587   -0.9257 C   0  0  0  0  0  0  0  0  0  0  0  0
    2.7466    1.9047    0.0497 C   0  0  0  0  0  0  0  0  0  0  0  0
    1.1384   -0.5633    1.4287 N   0  0  0  0  0  0  0  0  0  0  0  0
    2.1091   -1.3640    0.7143 C   0  0  0  0  0  0  0  0  0  0  0  0
    1.8029   -2.8478    0.9956 C   0  0  0  0  0  0  0  0  0  0  0  0
    0.7511   -2.8576    2.1002 C   0  0  0  0  0  0  0  0  0  0  0  0
    0.4306   -1.3791    2.3900 C   0  0  0  0  0  0  0  0  0  0  0  0
   -0.0121   -0.7173   -1.0507 O   0  0  0  0  0  0  0  0  0  0  0  0
   -0.9358   -0.8741   -1.8918 N   0  0  0  0  0  0  0  0  0  0  0  0
   -1.7694    0.1158   -2.2942 N   0  0  0  0  0  0  0  0  0  0  0  0
   -2.6709   -0.3196   -3.1002 N   0  0  0  0  0  0  0  0  0  0  0  0
   -2.5046   -1.7012   -3.2706 C   0  0  0  0  0  0  0  0  0  0  0  0
   -1.3586   -2.0905   -2.4623 C   0  0  0  0  0  0  0  0  0  0  0  0
   -3.1806   -2.6803   -4.0253 C   0  0  0  0  0  0  0  0  0  0  0  0
   -2.7241   -3.9788   -3.9614 C   0  0  0  0  0  0  0  0  0  0  0  0
   -1.6050   -4.3460   -3.1710 C   0  0  0  0  0  0  0  0  0  0  0  0
   -0.9100   -3.4227   -2.4207 C   0  0  0  0  0  0  0  0  0  0  0  0
   -0.7435    0.6241    0.4845 H   0  0  0  0  0  0  0  0  0  0  0  0
   -1.8183    1.0512    2.3385 H   0  0  0  0  0  0  0  0  0  0  0  0
   -1.6382    2.8341    1.9940 H   0  0  0  0  0  0  0  0  0  0  0  0
   -1.6071    1.4674    4.6335 H   0  0  0  0  0  0  0  0  0  0  0  0
   -1.6303    3.2341    4.2585 H   0  0  0  0  0  0  0  0  0  0  0  0
    0.6682    1.5785    5.1210 H   0  0  0  0  0  0  0  0  0  0  0  0
    0.6381    3.3578    4.8086 H   0  0  0  0  0  0  0  0  0  0  0  0
    1.9306    1.3681    3.1582 H   0  0  0  0  0  0  0  0  0  0  0  0
    1.6040    3.1162    2.7386 H   0  0  0  0  0  0  0  0  0  0  0  0
   -0.1535    2.3640   -1.3043 H   0  0  0  0  0  0  0  0  0  0  0  0
    0.9103    1.2076   -2.2341 H   0  0  0  0  0  0  0  0  0  0  0  0
    1.3400    4.1436   -1.7486 H   0  0  0  0  0  0  0  0  0  0  0  0
    2.1492    3.0361   -2.9248 H   0  0  0  0  0  0  0  0  0  0  0  0
    3.2091    4.0123   -0.3651 H   0  0  0  0  0  0  0  0  0  0  0  0
    3.9901    2.8389   -1.4966 H   0  0  0  0  0  0  0  0  0  0  0  0
    2.8599    2.2346    1.1193 H   0  0  0  0  0  0  0  0  0  0  0  0
    3.4698    1.0570   -0.1364 H   0  0  0  0  0  0  0  0  0  0  0  0
    3.1508   -1.1245    1.0779 H   0  0  0  0  0  0  0  0  0  0  0  0
    2.0447   -1.1506   -0.3897 H   0  0  0  0  0  0  0  0  0  0  0  0
    2.7294   -3.3852    1.3089 H   0  0  0  0  0  0  0  0  0  0  0  0
    1.4076   -3.3349    0.0692 H   0  0  0  0  0  0  0  0  0  0  0  0
    1.1344   -3.3571    3.0223 H   0  0  0  0  0  0  0  0  0  0  0  0
   -0.1702   -3.3964    1.7694 H   0  0  0  0  0  0  0  0  0  0  0  0
    0.7580   -1.1265    3.4402 H   0  0  0  0  0  0  0  0  0  0  0  0
   -0.6742   -1.1809    2.3030 H   0  0  0  0  0  0  0  0  0  0  0  0
   -4.0446   -2.4003   -4.6431 H   0  0  0  0  0  0  0  0  0  0  0  0
   -3.2331   -4.7650   -4.5379 H   0  0  0  0  0  0  0  0  0  0  0  0
   -1.2925   -5.4003   -3.1664 H   0  0  0  0  0  0  0  0  0  0  0  0
   -0.0396   -3.6966   -1.8106 H   0  0  0  0  0  0  0  0  0  0  0  0
  1  2  1  0  0  0  0
  1  7  1  0  0  0  0
  1 12  1  0  0  0  0
  1 17  1  0  0  0  0
  1 27  1  0  0  0  0
  2  3  1  0  0  0  0
  2  6  1  0  0  0  0
  3  4  1  0  0  0  0
  3 28  1  0  0  0  0
  3 29  1  0  0  0  0
  4  5  1  0  0  0  0
  4 30  1  0  0  0  0
  4 31  1  0  0  0  0
  5  6  1  0  0  0  0
  5 32  1  0  0  0  0
  5 33  1  0  0  0  0
  6 34  1  0  0  0  0
  6 35  1  0  0  0  0
  7  8  1  0  0  0  0
  7 11  1  0  0  0  0
  8  9  1  0  0  0  0
  8 36  1  0  0  0  0
  8 37  1  0  0  0  0
  9 10  1  0  0  0  0
  9 38  1  0  0  0  0
  9 39  1  0  0  0  0
 10 11  1  0  0  0  0
 10 40  1  0  0  0  0
 10 41  1  0  0  0  0
 11 42  1  0  0  0  0
 11 43  1  0  0  0  0
 12 13  1  0  0  0  0
 12 16  1  0  0  0  0
 13 14  1  0  0  0  0
 13 44  1  0  0  0  0
 13 45  1  0  0  0  0
 14 15  1  0  0  0  0
 14 46  1  0  0  0  0
 14 47  1  0  0  0  0
 15 16  1  0  0  0  0
 15 48  1  0  0  0  0
 15 49  1  0  0  0  0
 16 50  1  0  0  0  0
 16 51  1  0  0  0  0
 17 18  1  0  0  0  0
 18 19  1  0  0  0  0
 18 22  1  0  0  0  0
 19 20  2  0  0  0  0
 20 21  1  0  0  0  0
 21 22  2  0  0  0  0
 21 23  1  0  0  0  0
 22 26  1  0  0  0  0
 23 24  2  0  0  0  0
 23 52  1  0  0  0  0
 24 25  1  0  0  0  0
 24 53  1  0  0  0  0
 25 26  2  0  0  0  0
 25 54  1  0  0  0  0
 26 55  1  0  0  0  0
M  END
