./128639-02-1.hin
 OpenBabel10051109203D

 40 41  0  0  0  0  0  0  0  0999 V2000
   -4.0643    4.1460   -0.3219 C   0  0  0  0  0  0  0  0  0  0  0  0
   -3.5140    2.7389   -0.2821 C   0  0  0  0  0  0  0  0  0  0  0  0
   -4.4173    1.9860    0.5399 O   0  0  0  0  0  0  0  0  0  0  0  0
   -4.2368    0.6360    0.6526 C   0  0  0  0  0  0  0  0  0  0  0  0
   -5.0683    0.1082    1.3913 O   0  0  0  0  0  0  0  0  0  0  0  0
   -3.1112   -0.0779   -0.0555 C   0  0  0  0  0  0  0  0  0  0  0  0
   -2.7558   -1.3567    0.6928 C   0  0  0  0  0  0  0  0  0  0  0  0
   -1.4585   -1.9240    0.2322 C   0  0  0  0  0  0  0  0  0  0  0  0
   -0.2875   -1.2317    0.5489 C   0  0  0  0  0  0  0  0  0  0  0  0
    0.9806   -1.6903    0.1433 C   0  0  0  0  0  0  0  0  0  0  0  0
    1.0547   -2.8925   -0.6134 C   0  0  0  0  0  0  0  0  0  0  0  0
   -0.1226   -3.6044   -0.9031 C   0  0  0  0  0  0  0  0  0  0  0  0
   -1.3644   -3.1250   -0.4871 C   0  0  0  0  0  0  0  0  0  0  0  0
   -2.7396   -4.0370   -0.8853 Cl  0  0  0  0  0  0  0  0  0  0  0  0
    2.2279   -3.3795   -1.0738 F   0  0  0  0  0  0  0  0  0  0  0  0
    2.1181   -0.9333    0.5406 N   0  0  0  0  0  0  0  0  0  0  0  0
    2.1924    0.4862    0.2631 C   0  0  0  0  0  0  0  0  0  0  0  0
    1.2693    1.2992    0.1103 O   0  0  0  0  0  0  0  0  0  0  0  0
    3.5870    0.7862    0.3427 N   0  0  0  0  0  0  0  0  0  0  0  0
    4.2569   -0.4559    0.5658 C   0  0  0  0  0  0  0  0  0  0  0  0
    3.3735   -1.4632    0.6584 N   0  0  0  0  0  0  0  0  0  0  0  0
    5.7327   -0.5586    0.6945 C   0  0  0  0  0  0  0  0  0  0  0  0
    4.1505    2.0777   -0.0213 C   0  0  0  0  0  0  0  0  0  0  0  0
    5.0529    2.5492    0.9117 F   0  0  0  0  0  0  0  0  0  0  0  0
    4.9316    2.0406   -1.1618 F   0  0  0  0  0  0  0  0  0  0  0  0
   -3.6083   -0.4155   -1.7120 Cl  0  0  0  0  0  0  0  0  0  0  0  0
   -3.3836    4.7852   -0.9328 H   0  0  0  0  0  0  0  0  0  0  0  0
   -5.0839    4.1533   -0.7762 H   0  0  0  0  0  0  0  0  0  0  0  0
   -4.1372    4.5657    0.7099 H   0  0  0  0  0  0  0  0  0  0  0  0
   -3.4733    2.2909   -1.3093 H   0  0  0  0  0  0  0  0  0  0  0  0
   -2.4939    2.7186    0.1851 H   0  0  0  0  0  0  0  0  0  0  0  0
   -2.2078    0.5843   -0.1335 H   0  0  0  0  0  0  0  0  0  0  0  0
   -2.6816   -1.1094    1.7892 H   0  0  0  0  0  0  0  0  0  0  0  0
   -3.5933   -2.0981    0.5872 H   0  0  0  0  0  0  0  0  0  0  0  0
   -0.3637   -0.2892    1.1208 H   0  0  0  0  0  0  0  0  0  0  0  0
   -0.0443   -4.5434   -1.4749 H   0  0  0  0  0  0  0  0  0  0  0  0
    6.0672   -0.0044    1.6082 H   0  0  0  0  0  0  0  0  0  0  0  0
    6.0478   -1.6280    0.7777 H   0  0  0  0  0  0  0  0  0  0  0  0
    6.2198   -0.0990   -0.2031 H   0  0  0  0  0  0  0  0  0  0  0  0
    3.2804    2.8021   -0.1489 H   0  0  0  0  0  0  0  0  0  0  0  0
  1  2  1  0  0  0  0
  1 27  1  0  0  0  0
  1 28  1  0  0  0  0
  1 29  1  0  0  0  0
  2  3  1  0  0  0  0
  2 30  1  0  0  0  0
  2 31  1  0  0  0  0
  3  4  1  0  0  0  0
  4  5  2  0  0  0  0
  4  6  1  0  0  0  0
  6  7  1  0  0  0  0
  6 26  1  0  0  0  0
  6 32  1  0  0  0  0
  7  8  1  0  0  0  0
  7 33  1  0  0  0  0
  7 34  1  0  0  0  0
  8  9  2  0  0  0  0
  8 13  1  0  0  0  0
  9 10  1  0  0  0  0
  9 35  1  0  0  0  0
 10 11  2  0  0  0  0
 10 16  1  0  0  0  0
 11 12  1  0  0  0  0
 11 15  1  0  0  0  0
 12 13  2  0  0  0  0
 12 36  1  0  0  0  0
 13 14  1  0  0  0  0
 16 17  1  0  0  0  0
 16 21  1  0  0  0  0
 17 18  2  0  0  0  0
 17 19  1  0  0  0  0
 19 20  1  0  0  0  0
 19 23  1  0  0  0  0
 20 21  2  0  0  0  0
 20 22  1  0  0  0  0
 22 37  1  0  0  0  0
 22 38  1  0  0  0  0
 22 39  1  0  0  0  0
 23 24  1  0  0  0  0
 23 25  1  0  0  0  0
 23 40  1  0  0  0  0
M  END
