./129586-32-9.hin
 OpenBabel10051109203D

 38 40  0  0  0  0  0  0  0  0999 V2000
   -0.6651   -0.7725    0.3106 C   0  0  0  0  0  0  0  0  0  0  0  0
   -0.7217    0.7397    0.3200 C   0  0  0  0  0  0  0  0  0  0  0  0
    0.6915    1.3484    0.0423 C   0  0  0  0  0  0  0  0  0  0  0  0
    0.6527    2.8754   -0.1397 C   0  0  0  0  0  0  0  0  0  0  0  0
   -0.0217    3.6209    0.9890 C   0  0  0  0  0  0  0  0  0  0  0  0
    0.2906    3.0818    2.3657 C   0  0  0  0  0  0  0  0  0  0  0  0
   -0.3299    1.7353    2.6891 C   0  0  0  0  0  0  0  0  0  0  0  0
   -1.3092    1.2028    1.6703 C   0  0  0  0  0  0  0  0  0  0  0  0
    1.3359    0.7182   -1.1096 N   0  0  0  0  0  0  0  0  0  0  0  0
    2.6449    0.4015   -1.1516 N   0  0  0  0  0  0  0  0  0  0  0  0
    2.8514   -0.0367   -2.4247 C   0  0  0  0  0  0  0  0  0  0  0  0
    1.6890    0.0061   -3.2175 N   0  0  0  0  0  0  0  0  0  0  0  0
    0.7528    0.4909   -2.3763 C   0  0  0  0  0  0  0  0  0  0  0  0
   -1.6095    1.1275   -0.7323 O   0  0  0  0  0  0  0  0  0  0  0  0
   -1.5338   -1.5181   -0.4942 C   0  0  0  0  0  0  0  0  0  0  0  0
   -1.4958   -2.9112   -0.4759 C   0  0  0  0  0  0  0  0  0  0  0  0
   -0.5830   -3.5666    0.3549 C   0  0  0  0  0  0  0  0  0  0  0  0
   -0.5329   -5.2654    0.3836 Cl  0  0  0  0  0  0  0  0  0  0  0  0
    0.2906   -2.8326    1.1635 C   0  0  0  0  0  0  0  0  0  0  0  0
    0.2451   -1.4409    1.1388 C   0  0  0  0  0  0  0  0  0  0  0  0
    1.3361    1.1219    0.9455 H   0  0  0  0  0  0  0  0  0  0  0  0
    0.1383    3.1315   -1.1047 H   0  0  0  0  0  0  0  0  0  0  0  0
    1.7143    3.2361   -0.2266 H   0  0  0  0  0  0  0  0  0  0  0  0
   -1.1322    3.6391    0.8280 H   0  0  0  0  0  0  0  0  0  0  0  0
    0.3190    4.6923    0.9427 H   0  0  0  0  0  0  0  0  0  0  0  0
   -0.0670    3.8339    3.1204 H   0  0  0  0  0  0  0  0  0  0  0  0
    1.4052    3.0119    2.4843 H   0  0  0  0  0  0  0  0  0  0  0  0
   -0.8795    1.8242    3.6670 H   0  0  0  0  0  0  0  0  0  0  0  0
    0.4811    0.9767    2.8584 H   0  0  0  0  0  0  0  0  0  0  0  0
   -2.1035    1.9725    1.4750 H   0  0  0  0  0  0  0  0  0  0  0  0
   -1.8393    0.3222    2.1280 H   0  0  0  0  0  0  0  0  0  0  0  0
    3.8144   -0.3933   -2.8021 H   0  0  0  0  0  0  0  0  0  0  0  0
   -0.3123    0.6610   -2.5771 H   0  0  0  0  0  0  0  0  0  0  0  0
   -1.7435    2.0803   -0.6535 H   0  0  0  0  0  0  0  0  0  0  0  0
   -2.2526   -1.0022   -1.1515 H   0  0  0  0  0  0  0  0  0  0  0  0
   -2.1805   -3.4878   -1.1163 H   0  0  0  0  0  0  0  0  0  0  0  0
    1.0135   -3.3479    1.8137 H   0  0  0  0  0  0  0  0  0  0  0  0
    0.9387   -0.8709    1.7756 H   0  0  0  0  0  0  0  0  0  0  0  0
  1  2  1  0  0  0  0
  1 15  2  0  0  0  0
  1 20  1  0  0  0  0
  2  3  1  0  0  0  0
  2  8  1  0  0  0  0
  2 14  1  0  0  0  0
  3  4  1  0  0  0  0
  3  9  1  0  0  0  0
  3 21  1  0  0  0  0
  4  5  1  0  0  0  0
  4 22  1  0  0  0  0
  4 23  1  0  0  0  0
  5  6  1  0  0  0  0
  5 24  1  0  0  0  0
  5 25  1  0  0  0  0
  6  7  1  0  0  0  0
  6 26  1  0  0  0  0
  6 27  1  0  0  0  0
  7  8  1  0  0  0  0
  7 28  1  0  0  0  0
  7 29  1  0  0  0  0
  8 30  1  0  0  0  0
  8 31  1  0  0  0  0
  9 10  1  0  0  0  0
  9 13  1  0  0  0  0
 10 11  2  0  0  0  0
 11 12  1  0  0  0  0
 11 32  1  0  0  0  0
 12 13  2  0  0  0  0
 13 33  1  0  0  0  0
 14 34  1  0  0  0  0
 15 16  1  0  0  0  0
 15 35  1  0  0  0  0
 16 17  2  0  0  0  0
 16 36  1  0  0  0  0
 17 18  1  0  0  0  0
 17 19  1  0  0  0  0
 19 20  2  0  0  0  0
 19 37  1  0  0  0  0
 20 38  1  0  0  0  0
M  END
