./129909-90-6.hin
 OpenBabel10051109203D

 36 36  0  0  0  0  0  0  0  0999 V2000
   -4.2685   -1.0819    1.6585 C   0  0  0  0  0  0  0  0  0  0  0  0
   -3.4517   -1.4768    0.4427 C   0  0  0  0  0  0  0  0  0  0  0  0
   -3.1211   -2.9557    0.4748 C   0  0  0  0  0  0  0  0  0  0  0  0
   -2.2090   -0.6386    0.3743 C   0  0  0  0  0  0  0  0  0  0  0  0
   -0.9677   -1.0175    0.7058 N   0  0  0  0  0  0  0  0  0  0  0  0
   -0.1316    0.0480    0.5186 N   0  0  0  0  0  0  0  0  0  0  0  0
   -0.8511    1.1745    0.0113 C   0  0  0  0  0  0  0  0  0  0  0  0
   -0.4290    2.3025   -0.2966 O   0  0  0  0  0  0  0  0  0  0  0  0
   -2.2452    0.7664    0.0118 N   0  0  0  0  0  0  0  0  0  0  0  0
   -3.1986    1.2939   -0.7969 N   0  0  0  0  0  0  0  0  0  0  0  0
    1.3181   -0.0731    0.5771 C   0  0  0  0  0  0  0  0  0  0  0  0
    1.8292   -1.2062    0.6396 O   0  0  0  0  0  0  0  0  0  0  0  0
    2.0353    1.1114    0.6256 N   0  0  0  0  0  0  0  0  0  0  0  0
    3.4965    1.1162    0.5007 C   0  0  0  0  0  0  0  0  0  0  0  0
    3.9969    2.5726    0.4912 C   0  0  0  0  0  0  0  0  0  0  0  0
    4.1635    0.3958    1.6837 C   0  0  0  0  0  0  0  0  0  0  0  0
    3.9740    0.4464   -0.7984 C   0  0  0  0  0  0  0  0  0  0  0  0
   -4.5519   -0.0034    1.6091 H   0  0  0  0  0  0  0  0  0  0  0  0
   -5.2012   -1.6953    1.6952 H   0  0  0  0  0  0  0  0  0  0  0  0
   -3.6897   -1.2585    2.5968 H   0  0  0  0  0  0  0  0  0  0  0  0
   -4.0578   -1.2673   -0.4870 H   0  0  0  0  0  0  0  0  0  0  0  0
   -4.0691   -3.5459    0.4444 H   0  0  0  0  0  0  0  0  0  0  0  0
   -2.4942   -3.2397   -0.4039 H   0  0  0  0  0  0  0  0  0  0  0  0
   -2.5672   -3.2225    1.4070 H   0  0  0  0  0  0  0  0  0  0  0  0
   -2.7985    1.5485   -1.6947 H   0  0  0  0  0  0  0  0  0  0  0  0
   -3.5239    2.1507   -0.3583 H   0  0  0  0  0  0  0  0  0  0  0  0
    1.5797    1.9788    0.4363 H   0  0  0  0  0  0  0  0  0  0  0  0
    5.1101    2.5651    0.4125 H   0  0  0  0  0  0  0  0  0  0  0  0
    3.5828    3.1333   -0.3806 H   0  0  0  0  0  0  0  0  0  0  0  0
    3.7099    3.0992    1.4324 H   0  0  0  0  0  0  0  0  0  0  0  0
    5.2712    0.4464    1.5594 H   0  0  0  0  0  0  0  0  0  0  0  0
    3.8872    0.8824    2.6487 H   0  0  0  0  0  0  0  0  0  0  0  0
    3.8513   -0.6765    1.7147 H   0  0  0  0  0  0  0  0  0  0  0  0
    5.0879    0.4905   -0.8436 H   0  0  0  0  0  0  0  0  0  0  0  0
    3.6564   -0.6246   -0.8232 H   0  0  0  0  0  0  0  0  0  0  0  0
    3.5594    0.9714   -1.6912 H   0  0  0  0  0  0  0  0  0  0  0  0
  1  2  1  0  0  0  0
  1 18  1  0  0  0  0
  1 19  1  0  0  0  0
  1 20  1  0  0  0  0
  2  3  1  0  0  0  0
  2  4  1  0  0  0  0
  2 21  1  0  0  0  0
  3 22  1  0  0  0  0
  3 23  1  0  0  0  0
  3 24  1  0  0  0  0
  4  5  2  0  0  0  0
  4  9  1  0  0  0  0
  5  6  1  0  0  0  0
  6  7  1  0  0  0  0
  6 11  1  0  0  0  0
  7  8  2  0  0  0  0
  7  9  1  0  0  0  0
  9 10  1  0  0  0  0
 10 25  1  0  0  0  0
 10 26  1  0  0  0  0
 11 12  2  0  0  0  0
 11 13  1  0  0  0  0
 13 14  1  0  0  0  0
 13 27  1  0  0  0  0
 14 15  1  0  0  0  0
 14 16  1  0  0  0  0
 14 17  1  0  0  0  0
 15 28  1  0  0  0  0
 15 29  1  0  0  0  0
 15 30  1  0  0  0  0
 16 31  1  0  0  0  0
 16 32  1  0  0  0  0
 16 33  1  0  0  0  0
 17 34  1  0  0  0  0
 17 35  1  0  0  0  0
 17 36  1  0  0  0  0
M  END
