./136426-54-5.hin
 OpenBabel10051109203D

 33 36  0  0  0  0  0  0  0  0999 V2000
    2.6530   -0.4740    0.0000 C   0  0  0  0  0  0  0  0  0  0  0  0
    3.8494   -1.1757    0.0000 C   0  0  0  0  0  0  0  0  0  0  0  0
    3.8224   -2.5639   -0.0000 C   0  0  0  0  0  0  0  0  0  0  0  0
    2.5739   -3.1649   -0.0000 C   0  0  0  0  0  0  0  0  0  0  0  0
    1.3588   -2.4450   -0.0000 C   0  0  0  0  0  0  0  0  0  0  0  0
    1.3435   -1.0056    0.0000 C   0  0  0  0  0  0  0  0  0  0  0  0
    0.1487   -3.6634   -0.0000 Cl  0  0  0  0  0  0  0  0  0  0  0  0
    5.2429   -3.4838   -0.0000 Cl  0  0  0  0  0  0  0  0  0  0  0  0
    0.2065   -0.0901   -0.0000 N   0  0  0  0  0  0  0  0  0  0  0  0
   -1.1219   -0.6662    0.0000 C   0  0  0  0  0  0  0  0  0  0  0  0
   -2.3515    0.1549   -0.0000 C   0  0  0  0  0  0  0  0  0  0  0  0
   -2.2211    1.5485   -0.0000 C   0  0  0  0  0  0  0  0  0  0  0  0
   -0.9542    2.0831   -0.0000 N   0  0  0  0  0  0  0  0  0  0  0  0
    0.1663    1.3628   -0.0000 C   0  0  0  0  0  0  0  0  0  0  0  0
   -1.2939   -1.8869    0.0000 O   0  0  0  0  0  0  0  0  0  0  0  0
   -3.3829    2.3620   -0.0000 C   0  0  0  0  0  0  0  0  0  0  0  0
   -4.6294    1.7649    0.0000 C   0  0  0  0  0  0  0  0  0  0  0  0
   -4.7499    0.3540    0.0000 C   0  0  0  0  0  0  0  0  0  0  0  0
   -3.6097   -0.4585   -0.0000 C   0  0  0  0  0  0  0  0  0  0  0  0
   -5.9819   -0.2076   -0.0000 F   0  0  0  0  0  0  0  0  0  0  0  0
    1.2224    2.3595   -0.0000 N   0  0  0  0  0  0  0  0  0  0  0  0
    2.5646    2.2370   -0.0001 N   0  0  0  0  0  0  0  0  0  0  0  0
    3.0762    3.4872   -0.0000 C   0  0  0  0  0  0  0  0  0  0  0  0
    2.0747    4.4809    0.0000 N   0  0  0  0  0  0  0  0  0  0  0  0
    0.9351    3.7844    0.0000 C   0  0  0  0  0  0  0  0  0  0  0  0
    2.8544    0.5998    0.0001 H   0  0  0  0  0  0  0  0  0  0  0  0
    4.8012   -0.6220    0.0000 H   0  0  0  0  0  0  0  0  0  0  0  0
    2.5290   -4.2708   -0.0000 H   0  0  0  0  0  0  0  0  0  0  0  0
   -3.2893    3.4584    0.0000 H   0  0  0  0  0  0  0  0  0  0  0  0
   -5.5441    2.3783    0.0000 H   0  0  0  0  0  0  0  0  0  0  0  0
   -3.6939   -1.5579    0.0000 H   0  0  0  0  0  0  0  0  0  0  0  0
    4.1489    3.7140   -0.0000 H   0  0  0  0  0  0  0  0  0  0  0  0
   -0.0769    4.2129    0.0000 H   0  0  0  0  0  0  0  0  0  0  0  0
  1  2  2  0  0  0  0
  1  6  1  0  0  0  0
  1 26  1  0  0  0  0
  2  3  1  0  0  0  0
  2 27  1  0  0  0  0
  3  4  2  0  0  0  0
  3  8  1  0  0  0  0
  4  5  1  0  0  0  0
  4 28  1  0  0  0  0
  5  6  2  0  0  0  0
  5  7  1  0  0  0  0
  6  9  1  0  0  0  0
  9 10  1  0  0  0  0
  9 14  1  0  0  0  0
 10 11  1  0  0  0  0
 10 15  2  0  0  0  0
 11 12  2  0  0  0  0
 11 19  1  0  0  0  0
 12 13  1  0  0  0  0
 12 16  1  0  0  0  0
 13 14  2  0  0  0  0
 14 21  1  0  0  0  0
 16 17  2  0  0  0  0
 16 29  1  0  0  0  0
 17 18  1  0  0  0  0
 17 30  1  0  0  0  0
 18 19  2  0  0  0  0
 18 20  1  0  0  0  0
 19 31  1  0  0  0  0
 21 22  1  0  0  0  0
 21 25  1  0  0  0  0
 22 23  2  0  0  0  0
 23 24  1  0  0  0  0
 23 32  1  0  0  0  0
 24 25  2  0  0  0  0
 25 33  1  0  0  0  0
M  END
