./139158-24-0.hin
 OpenBabel10051109203D

 36 39  0  0  0  0  0  0  0  0999 V2000
   -2.4678   -1.5458   -2.0052 C   0  0  0  0  0  0  0  0  0  0  0  0
   -2.4005   -0.0278   -1.8892 C   0  0  0  0  0  0  0  0  0  0  0  0
   -1.6572    0.5427   -3.0926 C   0  0  0  0  0  0  0  0  0  0  0  0
   -0.2435   -0.0278   -3.1345 C   0  0  0  0  0  0  0  0  0  0  0  0
   -0.3103   -1.5458   -3.2509 C   0  0  0  0  0  0  0  0  0  0  0  0
   -1.0517   -2.1077   -2.0437 C   0  0  0  0  0  0  0  0  0  0  0  0
   -0.3131   -1.7220   -0.7645 C   0  0  0  0  0  0  0  0  0  0  0  0
   -0.2352   -0.2018   -0.6295 C   0  0  0  0  0  0  0  0  0  0  0  0
    0.5007    0.3584   -1.8612 C   0  0  0  0  0  0  0  0  0  0  0  0
    0.4806    0.2857    0.6102 C   0  0  0  0  0  0  0  0  0  0  0  0
    0.6208    1.6137    0.8530 N   0  0  0  0  0  0  0  0  0  0  0  0
    1.2879    1.7403    2.0085 N   0  0  0  0  0  0  0  0  0  0  0  0
    1.6218    0.5037    2.5868 C   0  0  0  0  0  0  0  0  0  0  0  0
    1.0910   -0.4417    1.6675 N   0  0  0  0  0  0  0  0  0  0  0  0
    1.2484   -1.8356    1.9397 C   0  0  0  0  0  0  0  0  0  0  0  0
    2.4026    0.2394    3.9392 S   0  0  0  0  0  0  0  0  0  0  0  0
   -1.6697    0.3585   -0.6081 C   0  0  0  0  0  0  0  0  0  0  0  0
   -3.0166   -1.8333   -2.9380 H   0  0  0  0  0  0  0  0  0  0  0  0
   -3.0243   -1.9715   -1.1315 H   0  0  0  0  0  0  0  0  0  0  0  0
   -3.4411    0.3928   -1.8574 H   0  0  0  0  0  0  0  0  0  0  0  0
   -1.6146    1.6594   -3.0187 H   0  0  0  0  0  0  0  0  0  0  0  0
   -2.2013    0.2783   -4.0349 H   0  0  0  0  0  0  0  0  0  0  0  0
    0.3044    0.3928   -4.0199 H   0  0  0  0  0  0  0  0  0  0  0  0
    0.7245   -1.9715   -3.2960 H   0  0  0  0  0  0  0  0  0  0  0  0
   -0.8437   -1.8334   -4.1925 H   0  0  0  0  0  0  0  0  0  0  0  0
   -1.0934   -3.2275   -2.1159 H   0  0  0  0  0  0  0  0  0  0  0  0
    0.7210   -2.1524   -0.8055 H   0  0  0  0  0  0  0  0  0  0  0  0
   -0.8660   -2.1523    0.1106 H   0  0  0  0  0  0  0  0  0  0  0  0
    1.5429   -0.0498   -1.8893 H   0  0  0  0  0  0  0  0  0  0  0  0
    0.5633    1.4750   -1.7985 H   0  0  0  0  0  0  0  0  0  0  0  0
    1.5040    2.6366    2.3825 H   0  0  0  0  0  0  0  0  0  0  0  0
    0.7685   -2.0723    2.9312 H   0  0  0  0  0  0  0  0  0  0  0  0
    0.7919   -2.4780    1.1514 H   0  0  0  0  0  0  0  0  0  0  0  0
    2.3471   -2.0726    2.0173 H   0  0  0  0  0  0  0  0  0  0  0  0
   -1.6468    1.4750   -0.5225 H   0  0  0  0  0  0  0  0  0  0  0  0
   -2.2152   -0.0497    0.2805 H   0  0  0  0  0  0  0  0  0  0  0  0
  1  2  1  0  0  0  0
  1  6  1  0  0  0  0
  1 18  1  0  0  0  0
  1 19  1  0  0  0  0
  2  3  1  0  0  0  0
  2 17  1  0  0  0  0
  2 20  1  0  0  0  0
  3  4  1  0  0  0  0
  3 21  1  0  0  0  0
  3 22  1  0  0  0  0
  4  5  1  0  0  0  0
  4  9  1  0  0  0  0
  4 23  1  0  0  0  0
  5  6  1  0  0  0  0
  5 24  1  0  0  0  0
  5 25  1  0  0  0  0
  6  7  1  0  0  0  0
  6 26  1  0  0  0  0
  7  8  1  0  0  0  0
  7 27  1  0  0  0  0
  7 28  1  0  0  0  0
  8  9  1  0  0  0  0
  8 10  1  0  0  0  0
  8 17  1  0  0  0  0
  9 29  1  0  0  0  0
  9 30  1  0  0  0  0
 10 11  2  0  0  0  0
 10 14  1  0  0  0  0
 11 12  1  0  0  0  0
 12 13  1  0  0  0  0
 12 31  1  0  0  0  0
 13 14  1  0  0  0  0
 13 16  2  0  0  0  0
 14 15  1  0  0  0  0
 15 32  1  0  0  0  0
 15 33  1  0  0  0  0
 15 34  1  0  0  0  0
 17 35  1  0  0  0  0
 17 36  1  0  0  0  0
M  END
