./139158-25-1.hin
 OpenBabel10051109203D

 39 42  0  0  0  0  0  0  0  0999 V2000
   -2.1065   -2.2019    0.7824 C   0  0  0  0  0  0  0  0  0  0  0  0
   -1.8742   -0.7057    0.6004 C   0  0  0  0  0  0  0  0  0  0  0  0
   -1.7017   -0.0524    1.9673 C   0  0  0  0  0  0  0  0  0  0  0  0
   -0.5032   -0.6737    2.6776 C   0  0  0  0  0  0  0  0  0  0  0  0
    0.7517   -0.4423    1.8400 C   0  0  0  0  0  0  0  0  0  0  0  0
    0.5979   -1.0916    0.4631 C   0  0  0  0  0  0  0  0  0  0  0  0
    1.8048   -0.9152   -0.4293 C   0  0  0  0  0  0  0  0  0  0  0  0
    2.0393   -1.7258   -1.4900 N   0  0  0  0  0  0  0  0  0  0  0  0
    3.1701   -1.2991   -2.0722 N   0  0  0  0  0  0  0  0  0  0  0  0
    3.7365   -0.1870   -1.4259 C   0  0  0  0  0  0  0  0  0  0  0  0
    2.8441    0.0532   -0.3476 N   0  0  0  0  0  0  0  0  0  0  0  0
    3.0099    1.2028    0.5011 C   0  0  0  0  0  0  0  0  0  0  0  0
    2.1057    2.3842    0.1854 C   0  0  0  0  0  0  0  0  0  0  0  0
    5.0718    0.5792   -1.8070 S   0  0  0  0  0  0  0  0  0  0  0  0
   -0.6231   -0.4795   -0.2421 C   0  0  0  0  0  0  0  0  0  0  0  0
    0.3477   -2.5993    0.6641 C   0  0  0  0  0  0  0  0  0  0  0  0
   -0.9089   -2.8180    1.4982 C   0  0  0  0  0  0  0  0  0  0  0  0
   -0.7364   -2.1670    2.8645 C   0  0  0  0  0  0  0  0  0  0  0  0
   -2.2450   -2.6899   -0.2160 H   0  0  0  0  0  0  0  0  0  0  0  0
   -3.0366   -2.3711    1.3827 H   0  0  0  0  0  0  0  0  0  0  0  0
   -2.7559   -0.2501    0.0753 H   0  0  0  0  0  0  0  0  0  0  0  0
   -2.6266   -0.2037    2.5802 H   0  0  0  0  0  0  0  0  0  0  0  0
   -1.5439    1.0497    1.8462 H   0  0  0  0  0  0  0  0  0  0  0  0
   -0.3668   -0.1866    3.6801 H   0  0  0  0  0  0  0  0  0  0  0  0
    1.6442   -0.8691    2.3642 H   0  0  0  0  0  0  0  0  0  0  0  0
    0.8871    0.6647    1.7315 H   0  0  0  0  0  0  0  0  0  0  0  0
    3.5364   -1.7539   -2.8779 H   0  0  0  0  0  0  0  0  0  0  0  0
    2.8754    0.8784    1.5713 H   0  0  0  0  0  0  0  0  0  0  0  0
    4.0887    1.5391    0.3774 H   0  0  0  0  0  0  0  0  0  0  0  0
    2.2793    3.1727    0.9573 H   0  0  0  0  0  0  0  0  0  0  0  0
    2.3453    2.8098   -0.8191 H   0  0  0  0  0  0  0  0  0  0  0  0
    1.0255    2.1026    0.1986 H   0  0  0  0  0  0  0  0  0  0  0  0
   -0.7545   -0.9551   -1.2477 H   0  0  0  0  0  0  0  0  0  0  0  0
   -0.4608    0.6182   -0.3935 H   0  0  0  0  0  0  0  0  0  0  0  0
    1.2321   -3.0566    1.1759 H   0  0  0  0  0  0  0  0  0  0  0  0
    0.2129   -3.1069   -0.3255 H   0  0  0  0  0  0  0  0  0  0  0  0
   -1.0758   -3.9211    1.6260 H   0  0  0  0  0  0  0  0  0  0  0  0
    0.1343   -2.6257    3.3988 H   0  0  0  0  0  0  0  0  0  0  0  0
   -1.6520   -2.3350    3.4870 H   0  0  0  0  0  0  0  0  0  0  0  0
  1  2  1  0  0  0  0
  1 17  1  0  0  0  0
  1 19  1  0  0  0  0
  1 20  1  0  0  0  0
  2  3  1  0  0  0  0
  2 15  1  0  0  0  0
  2 21  1  0  0  0  0
  3  4  1  0  0  0  0
  3 22  1  0  0  0  0
  3 23  1  0  0  0  0
  4  5  1  0  0  0  0
  4 18  1  0  0  0  0
  4 24  1  0  0  0  0
  5  6  1  0  0  0  0
  5 25  1  0  0  0  0
  5 26  1  0  0  0  0
  6  7  1  0  0  0  0
  6 15  1  0  0  0  0
  6 16  1  0  0  0  0
  7  8  2  0  0  0  0
  7 11  1  0  0  0  0
  8  9  1  0  0  0  0
  9 10  1  0  0  0  0
  9 27  1  0  0  0  0
 10 11  1  0  0  0  0
 10 14  2  0  0  0  0
 11 12  1  0  0  0  0
 12 13  1  0  0  0  0
 12 28  1  0  0  0  0
 12 29  1  0  0  0  0
 13 30  1  0  0  0  0
 13 31  1  0  0  0  0
 13 32  1  0  0  0  0
 15 33  1  0  0  0  0
 15 34  1  0  0  0  0
 16 17  1  0  0  0  0
 16 35  1  0  0  0  0
 16 36  1  0  0  0  0
 17 18  1  0  0  0  0
 17 37  1  0  0  0  0
 18 38  1  0  0  0  0
 18 39  1  0  0  0  0
M  END
