./139528-85-1.hin
 OpenBabel10191111203D

 39 41  0  0  0  0  0  0  0  0999 V2000
   -0.3694   -4.2142   -3.2316 C   0  0  0  0  0  0  0  0  0  0  0  0
    0.5611   -3.4355   -2.3804 C   0  0  0  0  0  0  0  0  0  0  0  0
    0.7136   -2.0508   -2.5579 C   0  0  0  0  0  0  0  0  0  0  0  0
    1.5811   -1.2990   -1.7283 C   0  0  0  0  0  0  0  0  0  0  0  0
    2.3480   -2.0018   -0.7641 C   0  0  0  0  0  0  0  0  0  0  0  0
    2.2020   -3.3794   -0.5990 C   0  0  0  0  0  0  0  0  0  0  0  0
    1.3072   -4.0860   -1.3936 C   0  0  0  0  0  0  0  0  0  0  0  0
    3.4792   -1.1813    0.1998 Cl  0  0  0  0  0  0  0  0  0  0  0  0
    1.7372    0.0898   -1.8739 N   0  0  0  0  0  0  0  0  0  0  0  0
    0.7144    1.3072   -1.5323 S   0  0  0  0  0  0  0  0  0  0  0  0
    1.4847    2.4281   -1.1985 O   0  0  0  0  0  0  0  0  0  0  0  0
   -0.2472    1.5074   -2.5182 O   0  0  0  0  0  0  0  0  0  0  0  0
   -0.0966    0.7598   -0.1009 C   0  0  0  0  0  0  0  0  0  0  0  0
   -1.4239    0.9620    0.1581 N   0  0  0  0  0  0  0  0  0  0  0  0
   -1.6138    0.4524    1.3781 N   0  0  0  0  0  0  0  0  0  0  0  0
   -2.7546    0.3728    2.1785 C   0  0  0  0  0  0  0  0  0  0  0  0
   -2.6631   -0.2184    3.4257 C   0  0  0  0  0  0  0  0  0  0  0  0
   -1.3816   -0.7318    3.8548 C   0  0  0  0  0  0  0  0  0  0  0  0
   -0.2479   -0.6896    3.1476 N   0  0  0  0  0  0  0  0  0  0  0  0
   -0.3403   -0.0956    1.9007 C   0  0  0  0  0  0  0  0  0  0  0  0
    0.6022    0.1168    0.9381 N   0  0  0  0  0  0  0  0  0  0  0  0
   -1.4291   -1.2934    5.1064 O   0  0  0  0  0  0  0  0  0  0  0  0
   -0.2161   -1.8306    5.6463 C   0  0  0  0  0  0  0  0  0  0  0  0
   -3.8906    0.9066    1.6240 O   0  0  0  0  0  0  0  0  0  0  0  0
   -5.0588    0.8623    2.4487 C   0  0  0  0  0  0  0  0  0  0  0  0
   -0.1527   -1.2774   -3.7943 Cl  0  0  0  0  0  0  0  0  0  0  0  0
   -0.0645   -4.1432   -4.3063 H   0  0  0  0  0  0  0  0  0  0  0  0
   -0.3778   -5.2922   -2.9372 H   0  0  0  0  0  0  0  0  0  0  0  0
   -1.4103   -3.8133   -3.1379 H   0  0  0  0  0  0  0  0  0  0  0  0
    2.7964   -3.9057    0.1647 H   0  0  0  0  0  0  0  0  0  0  0  0
    1.1909   -5.1714   -1.2499 H   0  0  0  0  0  0  0  0  0  0  0  0
    2.7000    0.3320   -2.0114 H   0  0  0  0  0  0  0  0  0  0  0  0
   -3.5240   -0.3093    4.0972 H   0  0  0  0  0  0  0  0  0  0  0  0
   -0.5409   -2.2063    6.6500 H   0  0  0  0  0  0  0  0  0  0  0  0
    0.1595   -2.6645    5.0068 H   0  0  0  0  0  0  0  0  0  0  0  0
    0.5550   -1.0300    5.7464 H   0  0  0  0  0  0  0  0  0  0  0  0
   -5.8296    1.3585    1.8040 H   0  0  0  0  0  0  0  0  0  0  0  0
   -5.3399   -0.1960    2.6680 H   0  0  0  0  0  0  0  0  0  0  0  0
   -4.8932    1.4374    3.3914 H   0  0  0  0  0  0  0  0  0  0  0  0
  1  2  1  0  0  0  0
  1 27  1  0  0  0  0
  1 28  1  0  0  0  0
  1 29  1  0  0  0  0
  2  3  2  0  0  0  0
  2  7  1  0  0  0  0
  3  4  1  0  0  0  0
  3 26  1  0  0  0  0
  4  5  2  0  0  0  0
  4  9  1  0  0  0  0
  5  6  1  0  0  0  0
  5  8  1  0  0  0  0
  6  7  2  0  0  0  0
  6 30  1  0  0  0  0
  7 31  1  0  0  0  0
  9 10  1  0  0  0  0
  9 32  1  0  0  0  0
 10 11  2  0  0  0  0
 10 12  2  0  0  0  0
 10 13  1  0  0  0  0
 13 14  2  0  0  0  0
 13 21  1  0  0  0  0
 14 15  1  0  0  0  0
 15 16  1  0  0  0  0
 15 20  1  0  0  0  0
 16 17  2  0  0  0  0
 16 24  1  0  0  0  0
 17 18  1  0  0  0  0
 17 33  1  0  0  0  0
 18 19  2  0  0  0  0
 18 22  1  0  0  0  0
 19 20  1  0  0  0  0
 20 21  2  0  0  0  0
 22 23  1  0  0  0  0
 23 34  1  0  0  0  0
 23 35  1  0  0  0  0
 23 36  1  0  0  0  0
 24 25  1  0  0  0  0
 25 37  1  0  0  0  0
 25 38  1  0  0  0  0
 25 39  1  0  0  0  0
M  END
