./141078-91-3.hin
 OpenBabel10051109203D

 48 51  0  0  0  0  0  0  0  0999 V2000
   -3.0313   -5.5162   -0.0938 C   0  0  0  0  0  0  0  0  0  0  0  0
   -2.2205   -4.3080    0.1797 C   0  0  0  0  0  0  0  0  0  0  0  0
   -1.9070   -3.9501    1.4964 C   0  0  0  0  0  0  0  0  0  0  0  0
   -1.1340   -2.8262    1.7656 C   0  0  0  0  0  0  0  0  0  0  0  0
   -0.6573   -2.0290    0.7036 C   0  0  0  0  0  0  0  0  0  0  0  0
   -0.9757   -2.3839   -0.6224 C   0  0  0  0  0  0  0  0  0  0  0  0
   -1.7480   -3.5148   -0.8709 C   0  0  0  0  0  0  0  0  0  0  0  0
    0.1216   -0.8786    0.9726 N   0  0  0  0  0  0  0  0  0  0  0  0
   -0.3452    0.3723    1.4263 C   0  0  0  0  0  0  0  0  0  0  0  0
   -1.7695    0.6940    1.7451 C   0  0  0  0  0  0  0  0  0  0  0  0
   -2.6019    0.6342    0.5931 O   0  0  0  0  0  0  0  0  0  0  0  0
   -2.7299    1.7822   -0.1730 C   0  0  0  0  0  0  0  0  0  0  0  0
   -1.9328    2.9247   -0.0510 C   0  0  0  0  0  0  0  0  0  0  0  0
   -2.1682    4.0072   -0.8998 C   0  0  0  0  0  0  0  0  0  0  0  0
   -3.1795    3.9531   -1.8562 C   0  0  0  0  0  0  0  0  0  0  0  0
   -3.9674    2.8058   -1.9730 C   0  0  0  0  0  0  0  0  0  0  0  0
   -3.7539    1.7156   -1.1372 C   0  0  0  0  0  0  0  0  0  0  0  0
    0.7347    1.2072    1.5469 N   0  0  0  0  0  0  0  0  0  0  0  0
    1.8277    0.5715    1.2038 N   0  0  0  0  0  0  0  0  0  0  0  0
    1.5176   -0.7192    0.8393 C   0  0  0  0  0  0  0  0  0  0  0  0
    2.4623   -1.7403    0.4026 C   0  0  0  0  0  0  0  0  0  0  0  0
    2.3125   -3.0793    0.7844 C   0  0  0  0  0  0  0  0  0  0  0  0
    3.2441   -4.0299    0.3765 C   0  0  0  0  0  0  0  0  0  0  0  0
    4.3384   -3.6602   -0.4145 C   0  0  0  0  0  0  0  0  0  0  0  0
    5.3196   -4.6763   -0.8584 C   0  0  0  0  0  0  0  0  0  0  0  0
    4.4876   -2.3193   -0.7882 C   0  0  0  0  0  0  0  0  0  0  0  0
    3.5600   -1.3627   -0.3843 C   0  0  0  0  0  0  0  0  0  0  0  0
   -3.5634   -5.4303   -1.0731 H   0  0  0  0  0  0  0  0  0  0  0  0
   -3.7921   -5.6764    0.7097 H   0  0  0  0  0  0  0  0  0  0  0  0
   -2.3685   -6.4178   -0.1329 H   0  0  0  0  0  0  0  0  0  0  0  0
   -2.2778   -4.5647    2.3311 H   0  0  0  0  0  0  0  0  0  0  0  0
   -0.9001   -2.5636    2.8092 H   0  0  0  0  0  0  0  0  0  0  0  0
   -0.6207   -1.7700   -1.4656 H   0  0  0  0  0  0  0  0  0  0  0  0
   -1.9922   -3.7830   -1.9106 H   0  0  0  0  0  0  0  0  0  0  0  0
   -1.8362    1.6909    2.2554 H   0  0  0  0  0  0  0  0  0  0  0  0
   -2.1980   -0.1110    2.4089 H   0  0  0  0  0  0  0  0  0  0  0  0
   -1.1203    2.9789    0.6875 H   0  0  0  0  0  0  0  0  0  0  0  0
   -1.5424    4.9079   -0.8093 H   0  0  0  0  0  0  0  0  0  0  0  0
   -3.3571    4.8110   -2.5200 H   0  0  0  0  0  0  0  0  0  0  0  0
   -4.7649    2.7621   -2.7296 H   0  0  0  0  0  0  0  0  0  0  0  0
   -4.3652    0.8062   -1.2161 H   0  0  0  0  0  0  0  0  0  0  0  0
    1.4591   -3.3834    1.4107 H   0  0  0  0  0  0  0  0  0  0  0  0
    3.1211   -5.0797    0.6820 H   0  0  0  0  0  0  0  0  0  0  0  0
    4.9947   -5.1177   -1.8346 H   0  0  0  0  0  0  0  0  0  0  0  0
    5.4048   -5.5040   -0.1118 H   0  0  0  0  0  0  0  0  0  0  0  0
    6.3310   -4.2218   -0.9999 H   0  0  0  0  0  0  0  0  0  0  0  0
    5.3480   -2.0170   -1.4042 H   0  0  0  0  0  0  0  0  0  0  0  0
    3.6921   -0.3093   -0.6772 H   0  0  0  0  0  0  0  0  0  0  0  0
  1  2  1  0  0  0  0
  1 28  1  0  0  0  0
  1 29  1  0  0  0  0
  1 30  1  0  0  0  0
  2  3  2  0  0  0  0
  2  7  1  0  0  0  0
  3  4  1  0  0  0  0
  3 31  1  0  0  0  0
  4  5  2  0  0  0  0
  4 32  1  0  0  0  0
  5  6  1  0  0  0  0
  5  8  1  0  0  0  0
  6  7  2  0  0  0  0
  6 33  1  0  0  0  0
  7 34  1  0  0  0  0
  8  9  1  0  0  0  0
  8 20  1  0  0  0  0
  9 10  1  0  0  0  0
  9 18  2  0  0  0  0
 10 11  1  0  0  0  0
 10 35  1  0  0  0  0
 10 36  1  0  0  0  0
 11 12  1  0  0  0  0
 12 13  2  0  0  0  0
 12 17  1  0  0  0  0
 13 14  1  0  0  0  0
 13 37  1  0  0  0  0
 14 15  2  0  0  0  0
 14 38  1  0  0  0  0
 15 16  1  0  0  0  0
 15 39  1  0  0  0  0
 16 17  2  0  0  0  0
 16 40  1  0  0  0  0
 17 41  1  0  0  0  0
 18 19  1  0  0  0  0
 19 20  2  0  0  0  0
 20 21  1  0  0  0  0
 21 22  2  0  0  0  0
 21 27  1  0  0  0  0
 22 23  1  0  0  0  0
 22 42  1  0  0  0  0
 23 24  2  0  0  0  0
 23 43  1  0  0  0  0
 24 25  1  0  0  0  0
 24 26  1  0  0  0  0
 25 44  1  0  0  0  0
 25 45  1  0  0  0  0
 25 46  1  0  0  0  0
 26 27  2  0  0  0  0
 26 47  1  0  0  0  0
 27 48  1  0  0  0  0
M  END
