./141078-92-4.hin
 OpenBabel10051109203D

 49 52  0  0  0  0  0  0  0  0999 V2000
   -4.8505   -6.1121    0.6665 C   0  0  0  0  0  0  0  0  0  0  0  0
   -3.5542   -6.2927    0.1077 O   0  0  0  0  0  0  0  0  0  0  0  0
   -2.6596   -5.2586    0.2932 C   0  0  0  0  0  0  0  0  0  0  0  0
   -1.3747   -5.4858   -0.2373 C   0  0  0  0  0  0  0  0  0  0  0  0
   -0.4009   -4.5056   -0.1078 C   0  0  0  0  0  0  0  0  0  0  0  0
   -0.6939   -3.2947    0.5431 C   0  0  0  0  0  0  0  0  0  0  0  0
   -1.9715   -3.0829    1.0708 C   0  0  0  0  0  0  0  0  0  0  0  0
   -2.9592   -4.0582    0.9484 C   0  0  0  0  0  0  0  0  0  0  0  0
    0.3591   -2.2978    0.6857 C   0  0  0  0  0  0  0  0  0  0  0  0
    1.6929   -2.5508    0.9134 N   0  0  0  0  0  0  0  0  0  0  0  0
    2.3510   -1.4198    0.9935 N   0  0  0  0  0  0  0  0  0  0  0  0
    1.4863   -0.3711    0.8280 C   0  0  0  0  0  0  0  0  0  0  0  0
    1.8290    1.0818    0.8395 C   0  0  0  0  0  0  0  0  0  0  0  0
    1.9327    1.5047   -0.5272 O   0  0  0  0  0  0  0  0  0  0  0  0
    2.9892    2.3594   -0.7991 C   0  0  0  0  0  0  0  0  0  0  0  0
    3.5924    2.2109   -2.0588 C   0  0  0  0  0  0  0  0  0  0  0  0
    4.6004    3.0956   -2.4310 C   0  0  0  0  0  0  0  0  0  0  0  0
    5.0123    4.1071   -1.5612 C   0  0  0  0  0  0  0  0  0  0  0  0
    4.4093    4.2429   -0.3116 C   0  0  0  0  0  0  0  0  0  0  0  0
    3.3914    3.3738    0.0789 C   0  0  0  0  0  0  0  0  0  0  0  0
    0.1935   -0.8976    0.6235 N   0  0  0  0  0  0  0  0  0  0  0  0
   -0.9902   -0.1596    0.3891 C   0  0  0  0  0  0  0  0  0  0  0  0
   -1.6625    0.4630    1.4619 C   0  0  0  0  0  0  0  0  0  0  0  0
   -2.8186    1.1981    1.2238 C   0  0  0  0  0  0  0  0  0  0  0  0
   -3.3320    1.3299   -0.0719 C   0  0  0  0  0  0  0  0  0  0  0  0
   -4.5722    2.1025   -0.3107 C   0  0  0  0  0  0  0  0  0  0  0  0
   -2.6626    0.7132   -1.1340 C   0  0  0  0  0  0  0  0  0  0  0  0
   -1.5023   -0.0242   -0.9169 C   0  0  0  0  0  0  0  0  0  0  0  0
   -5.3783   -7.0658    0.4106 H   0  0  0  0  0  0  0  0  0  0  0  0
   -4.7885   -5.9804    1.7740 H   0  0  0  0  0  0  0  0  0  0  0  0
   -5.3639   -5.2389    0.1957 H   0  0  0  0  0  0  0  0  0  0  0  0
   -1.1594   -6.4373   -0.7440 H   0  0  0  0  0  0  0  0  0  0  0  0
    0.6088   -4.6812   -0.5128 H   0  0  0  0  0  0  0  0  0  0  0  0
   -2.2060   -2.1400    1.5905 H   0  0  0  0  0  0  0  0  0  0  0  0
   -3.9570   -3.8749    1.3695 H   0  0  0  0  0  0  0  0  0  0  0  0
    1.0011    1.6806    1.3081 H   0  0  0  0  0  0  0  0  0  0  0  0
    2.7894    1.2377    1.3988 H   0  0  0  0  0  0  0  0  0  0  0  0
    3.2593    1.4068   -2.7298 H   0  0  0  0  0  0  0  0  0  0  0  0
    5.0792    2.9899   -3.4160 H   0  0  0  0  0  0  0  0  0  0  0  0
    5.8143    4.7964   -1.8621 H   0  0  0  0  0  0  0  0  0  0  0  0
    4.7337    5.0412    0.3722 H   0  0  0  0  0  0  0  0  0  0  0  0
    2.9086    3.4869    1.0593 H   0  0  0  0  0  0  0  0  0  0  0  0
   -1.2769    0.3728    2.4896 H   0  0  0  0  0  0  0  0  0  0  0  0
   -3.3347    1.6834    2.0665 H   0  0  0  0  0  0  0  0  0  0  0  0
   -4.6609    2.9498    0.4133 H   0  0  0  0  0  0  0  0  0  0  0  0
   -4.5922    2.5193   -1.3477 H   0  0  0  0  0  0  0  0  0  0  0  0
   -5.4643    1.4382   -0.1829 H   0  0  0  0  0  0  0  0  0  0  0  0
   -3.0534    0.8143   -2.1584 H   0  0  0  0  0  0  0  0  0  0  0  0
   -0.9872   -0.4946   -1.7698 H   0  0  0  0  0  0  0  0  0  0  0  0
  1  2  1  0  0  0  0
  1 29  1  0  0  0  0
  1 30  1  0  0  0  0
  1 31  1  0  0  0  0
  2  3  1  0  0  0  0
  3  4  2  0  0  0  0
  3  8  1  0  0  0  0
  4  5  1  0  0  0  0
  4 32  1  0  0  0  0
  5  6  2  0  0  0  0
  5 33  1  0  0  0  0
  6  7  1  0  0  0  0
  6  9  1  0  0  0  0
  7  8  2  0  0  0  0
  7 34  1  0  0  0  0
  8 35  1  0  0  0  0
  9 10  2  0  0  0  0
  9 21  1  0  0  0  0
 10 11  1  0  0  0  0
 11 12  2  0  0  0  0
 12 13  1  0  0  0  0
 12 21  1  0  0  0  0
 13 14  1  0  0  0  0
 13 36  1  0  0  0  0
 13 37  1  0  0  0  0
 14 15  1  0  0  0  0
 15 16  2  0  0  0  0
 15 20  1  0  0  0  0
 16 17  1  0  0  0  0
 16 38  1  0  0  0  0
 17 18  2  0  0  0  0
 17 39  1  0  0  0  0
 18 19  1  0  0  0  0
 18 40  1  0  0  0  0
 19 20  2  0  0  0  0
 19 41  1  0  0  0  0
 20 42  1  0  0  0  0
 21 22  1  0  0  0  0
 22 23  2  0  0  0  0
 22 28  1  0  0  0  0
 23 24  1  0  0  0  0
 23 43  1  0  0  0  0
 24 25  2  0  0  0  0
 24 44  1  0  0  0  0
 25 26  1  0  0  0  0
 25 27  1  0  0  0  0
 26 45  1  0  0  0  0
 26 46  1  0  0  0  0
 26 47  1  0  0  0  0
 27 28  2  0  0  0  0
 27 48  1  0  0  0  0
 28 49  1  0  0  0  0
M  END
