./141078-99-1.hin
 OpenBabel10051109203D

 51 54  0  0  0  0  0  0  0  0999 V2000
   -4.6938   -7.2046    1.3298 C   0  0  0  0  0  0  0  0  0  0  0  0
   -3.7205   -6.1228    1.0567 C   0  0  0  0  0  0  0  0  0  0  0  0
   -3.4509   -5.7165   -0.2526 C   0  0  0  0  0  0  0  0  0  0  0  0
   -2.5290   -4.7025   -0.5118 C   0  0  0  0  0  0  0  0  0  0  0  0
   -1.8677   -4.0924    0.5591 C   0  0  0  0  0  0  0  0  0  0  0  0
   -0.9698   -3.0469    0.4302 O   0  0  0  0  0  0  0  0  0  0  0  0
   -0.4443   -2.8508   -0.8914 C   0  0  0  0  0  0  0  0  0  0  0  0
    0.7245   -1.9353   -0.7495 C   0  0  0  0  0  0  0  0  0  0  0  0
    2.0461   -2.2956   -0.7645 N   0  0  0  0  0  0  0  0  0  0  0  0
    2.7949   -1.2296   -0.6232 N   0  0  0  0  0  0  0  0  0  0  0  0
    1.9973   -0.1145   -0.5011 C   0  0  0  0  0  0  0  0  0  0  0  0
    0.6518   -0.5359   -0.5789 N   0  0  0  0  0  0  0  0  0  0  0  0
   -0.5166    0.2586   -0.5779 C   0  0  0  0  0  0  0  0  0  0  0  0
   -1.5639   -0.0174    0.3253 C   0  0  0  0  0  0  0  0  0  0  0  0
   -2.7155    0.7628    0.3120 C   0  0  0  0  0  0  0  0  0  0  0  0
   -2.8538    1.8263   -0.5863 C   0  0  0  0  0  0  0  0  0  0  0  0
   -4.0756    2.6624   -0.5813 C   0  0  0  0  0  0  0  0  0  0  0  0
   -1.8143    2.0964   -1.4839 C   0  0  0  0  0  0  0  0  0  0  0  0
   -0.6566    1.3265   -1.4894 C   0  0  0  0  0  0  0  0  0  0  0  0
    2.4598    1.2534   -0.2993 C   0  0  0  0  0  0  0  0  0  0  0  0
    3.6013    1.6978   -0.9815 C   0  0  0  0  0  0  0  0  0  0  0  0
    4.0737    2.9914   -0.7759 C   0  0  0  0  0  0  0  0  0  0  0  0
    3.4229    3.8554    0.1127 C   0  0  0  0  0  0  0  0  0  0  0  0
    3.9398    5.2239    0.3415 C   0  0  0  0  0  0  0  0  0  0  0  0
    2.2877    3.4033    0.7962 C   0  0  0  0  0  0  0  0  0  0  0  0
    1.8087    2.1117    0.5958 C   0  0  0  0  0  0  0  0  0  0  0  0
   -2.1228   -4.4927    1.8839 C   0  0  0  0  0  0  0  0  0  0  0  0
   -3.0487   -5.5003    2.1190 C   0  0  0  0  0  0  0  0  0  0  0  0
   -4.1545   -8.1435    1.6136 H   0  0  0  0  0  0  0  0  0  0  0  0
   -5.3696   -6.9223    2.1749 H   0  0  0  0  0  0  0  0  0  0  0  0
   -5.3232   -7.4201    0.4318 H   0  0  0  0  0  0  0  0  0  0  0  0
   -3.9716   -6.1989   -1.0938 H   0  0  0  0  0  0  0  0  0  0  0  0
   -2.3355   -4.3956   -1.5487 H   0  0  0  0  0  0  0  0  0  0  0  0
   -1.2406   -2.3829   -1.5310 H   0  0  0  0  0  0  0  0  0  0  0  0
   -0.1135   -3.8310   -1.3286 H   0  0  0  0  0  0  0  0  0  0  0  0
   -1.4795   -0.8618    1.0319 H   0  0  0  0  0  0  0  0  0  0  0  0
   -3.5277    0.5357    1.0200 H   0  0  0  0  0  0  0  0  0  0  0  0
   -3.9188    3.5603    0.0690 H   0  0  0  0  0  0  0  0  0  0  0  0
   -4.3210    3.0169   -1.6128 H   0  0  0  0  0  0  0  0  0  0  0  0
   -4.9515    2.0922   -0.1848 H   0  0  0  0  0  0  0  0  0  0  0  0
   -1.9132    2.9281   -2.1985 H   0  0  0  0  0  0  0  0  0  0  0  0
    0.1508    1.5605   -2.2016 H   0  0  0  0  0  0  0  0  0  0  0  0
    4.1279    1.0215   -1.6728 H   0  0  0  0  0  0  0  0  0  0  0  0
    4.9694    3.3359   -1.3146 H   0  0  0  0  0  0  0  0  0  0  0  0
    3.1143    5.9228    0.6240 H   0  0  0  0  0  0  0  0  0  0  0  0
    4.6885    5.2123    1.1740 H   0  0  0  0  0  0  0  0  0  0  0  0
    4.4425    5.6209   -0.5746 H   0  0  0  0  0  0  0  0  0  0  0  0
    1.7718    4.0727    1.5007 H   0  0  0  0  0  0  0  0  0  0  0  0
    0.9193    1.7656    1.1447 H   0  0  0  0  0  0  0  0  0  0  0  0
   -1.5877   -4.0037    2.7100 H   0  0  0  0  0  0  0  0  0  0  0  0
   -3.2560   -5.8182    3.1522 H   0  0  0  0  0  0  0  0  0  0  0  0
  1  2  1  0  0  0  0
  1 29  1  0  0  0  0
  1 30  1  0  0  0  0
  1 31  1  0  0  0  0
  2  3  2  0  0  0  0
  2 28  1  0  0  0  0
  3  4  1  0  0  0  0
  3 32  1  0  0  0  0
  4  5  2  0  0  0  0
  4 33  1  0  0  0  0
  5  6  1  0  0  0  0
  5 27  1  0  0  0  0
  6  7  1  0  0  0  0
  7  8  1  0  0  0  0
  7 34  1  0  0  0  0
  7 35  1  0  0  0  0
  8  9  2  0  0  0  0
  8 12  1  0  0  0  0
  9 10  1  0  0  0  0
 10 11  2  0  0  0  0
 11 12  1  0  0  0  0
 11 20  1  0  0  0  0
 12 13  1  0  0  0  0
 13 14  2  0  0  0  0
 13 19  1  0  0  0  0
 14 15  1  0  0  0  0
 14 36  1  0  0  0  0
 15 16  2  0  0  0  0
 15 37  1  0  0  0  0
 16 17  1  0  0  0  0
 16 18  1  0  0  0  0
 17 38  1  0  0  0  0
 17 39  1  0  0  0  0
 17 40  1  0  0  0  0
 18 19  2  0  0  0  0
 18 41  1  0  0  0  0
 19 42  1  0  0  0  0
 20 21  2  0  0  0  0
 20 26  1  0  0  0  0
 21 22  1  0  0  0  0
 21 43  1  0  0  0  0
 22 23  2  0  0  0  0
 22 44  1  0  0  0  0
 23 24  1  0  0  0  0
 23 25  1  0  0  0  0
 24 45  1  0  0  0  0
 24 46  1  0  0  0  0
 24 47  1  0  0  0  0
 25 26  2  0  0  0  0
 25 48  1  0  0  0  0
 26 49  1  0  0  0  0
 27 28  2  0  0  0  0
 27 50  1  0  0  0  0
 28 51  1  0  0  0  0
M  END
