./141079-00-7.hin
 OpenBabel10051109203D

 52 55  0  0  0  0  0  0  0  0999 V2000
   -4.7706   -6.4437    0.6102 C   0  0  0  0  0  0  0  0  0  0  0  0
   -3.4625   -6.6033    0.0728 O   0  0  0  0  0  0  0  0  0  0  0  0
   -2.5830   -5.5618    0.2863 C   0  0  0  0  0  0  0  0  0  0  0  0
   -1.2865   -5.7685   -0.2240 C   0  0  0  0  0  0  0  0  0  0  0  0
   -0.3261   -4.7793   -0.0659 C   0  0  0  0  0  0  0  0  0  0  0  0
   -0.6440   -3.5796    0.5941 C   0  0  0  0  0  0  0  0  0  0  0  0
   -1.9328   -3.3881    1.1014 C   0  0  0  0  0  0  0  0  0  0  0  0
   -2.9073   -4.3727    0.9502 C   0  0  0  0  0  0  0  0  0  0  0  0
    0.3958   -2.5734    0.7660 C   0  0  0  0  0  0  0  0  0  0  0  0
    1.7278   -2.8159    1.0156 N   0  0  0  0  0  0  0  0  0  0  0  0
    2.3740   -1.6798    1.1149 N   0  0  0  0  0  0  0  0  0  0  0  0
    1.5026   -0.6379    0.9414 C   0  0  0  0  0  0  0  0  0  0  0  0
    1.8336    0.8170    0.9686 C   0  0  0  0  0  0  0  0  0  0  0  0
    1.9558    1.2390   -0.3975 O   0  0  0  0  0  0  0  0  0  0  0  0
    2.8672    2.2593   -0.6138 C   0  0  0  0  0  0  0  0  0  0  0  0
    3.4808    2.2702   -1.8777 C   0  0  0  0  0  0  0  0  0  0  0  0
    4.3532    3.3044   -2.1962 C   0  0  0  0  0  0  0  0  0  0  0  0
    4.6310    4.3207   -1.2719 C   0  0  0  0  0  0  0  0  0  0  0  0
    5.5832    5.4019   -1.6136 C   0  0  0  0  0  0  0  0  0  0  0  0
    4.0113    4.2937   -0.0184 C   0  0  0  0  0  0  0  0  0  0  0  0
    3.1273    3.2707    0.3184 C   0  0  0  0  0  0  0  0  0  0  0  0
    0.2183   -1.1744    0.7110 N   0  0  0  0  0  0  0  0  0  0  0  0
   -0.9693   -0.4459    0.4662 C   0  0  0  0  0  0  0  0  0  0  0  0
   -1.6770    0.1383    1.5378 C   0  0  0  0  0  0  0  0  0  0  0  0
   -2.8378    0.8627    1.2903 C   0  0  0  0  0  0  0  0  0  0  0  0
   -3.3210    1.0216   -0.0139 C   0  0  0  0  0  0  0  0  0  0  0  0
   -4.5667    1.7817   -0.2639 C   0  0  0  0  0  0  0  0  0  0  0  0
   -2.6162    0.4433   -1.0748 C   0  0  0  0  0  0  0  0  0  0  0  0
   -1.4507   -0.2828   -0.8482 C   0  0  0  0  0  0  0  0  0  0  0  0
   -5.2830   -7.4000    0.3337 H   0  0  0  0  0  0  0  0  0  0  0  0
   -4.7299   -6.3244    1.7200 H   0  0  0  0  0  0  0  0  0  0  0  0
   -5.2852   -5.5707    0.1403 H   0  0  0  0  0  0  0  0  0  0  0  0
   -1.0517   -6.7114   -0.7382 H   0  0  0  0  0  0  0  0  0  0  0  0
    0.6924   -4.9389   -0.4553 H   0  0  0  0  0  0  0  0  0  0  0  0
   -2.1869   -2.4539    1.6276 H   0  0  0  0  0  0  0  0  0  0  0  0
   -3.9142   -4.2054    1.3558 H   0  0  0  0  0  0  0  0  0  0  0  0
    0.9993    1.4065    1.4369 H   0  0  0  0  0  0  0  0  0  0  0  0
    2.7907    0.9774    1.5330 H   0  0  0  0  0  0  0  0  0  0  0  0
    3.2608    1.4669   -2.5949 H   0  0  0  0  0  0  0  0  0  0  0  0
    4.8366    3.3212   -3.1850 H   0  0  0  0  0  0  0  0  0  0  0  0
    5.3141    6.3526   -1.0908 H   0  0  0  0  0  0  0  0  0  0  0  0
    6.6183    5.1120   -1.3007 H   0  0  0  0  0  0  0  0  0  0  0  0
    5.5928    5.5947   -2.7146 H   0  0  0  0  0  0  0  0  0  0  0  0
    4.2210    5.0906    0.7111 H   0  0  0  0  0  0  0  0  0  0  0  0
    2.6392    3.2645    1.3027 H   0  0  0  0  0  0  0  0  0  0  0  0
   -1.3156    0.0262    2.5722 H   0  0  0  0  0  0  0  0  0  0  0  0
   -3.3819    1.3176    2.1324 H   0  0  0  0  0  0  0  0  0  0  0  0
   -4.6986    2.5942    0.4925 H   0  0  0  0  0  0  0  0  0  0  0  0
   -4.5571    2.2437   -1.2818 H   0  0  0  0  0  0  0  0  0  0  0  0
   -5.4496    1.0961   -0.1989 H   0  0  0  0  0  0  0  0  0  0  0  0
   -2.9833    0.5661   -2.1056 H   0  0  0  0  0  0  0  0  0  0  0  0
   -0.9074   -0.7226   -1.7001 H   0  0  0  0  0  0  0  0  0  0  0  0
  1  2  1  0  0  0  0
  1 30  1  0  0  0  0
  1 31  1  0  0  0  0
  1 32  1  0  0  0  0
  2  3  1  0  0  0  0
  3  4  2  0  0  0  0
  3  8  1  0  0  0  0
  4  5  1  0  0  0  0
  4 33  1  0  0  0  0
  5  6  2  0  0  0  0
  5 34  1  0  0  0  0
  6  7  1  0  0  0  0
  6  9  1  0  0  0  0
  7  8  2  0  0  0  0
  7 35  1  0  0  0  0
  8 36  1  0  0  0  0
  9 10  2  0  0  0  0
  9 22  1  0  0  0  0
 10 11  1  0  0  0  0
 11 12  2  0  0  0  0
 12 13  1  0  0  0  0
 12 22  1  0  0  0  0
 13 14  1  0  0  0  0
 13 37  1  0  0  0  0
 13 38  1  0  0  0  0
 14 15  1  0  0  0  0
 15 16  2  0  0  0  0
 15 21  1  0  0  0  0
 16 17  1  0  0  0  0
 16 39  1  0  0  0  0
 17 18  2  0  0  0  0
 17 40  1  0  0  0  0
 18 19  1  0  0  0  0
 18 20  1  0  0  0  0
 19 41  1  0  0  0  0
 19 42  1  0  0  0  0
 19 43  1  0  0  0  0
 20 21  2  0  0  0  0
 20 44  1  0  0  0  0
 21 45  1  0  0  0  0
 22 23  1  0  0  0  0
 23 24  2  0  0  0  0
 23 29  1  0  0  0  0
 24 25  1  0  0  0  0
 24 46  1  0  0  0  0
 25 26  2  0  0  0  0
 25 47  1  0  0  0  0
 26 27  1  0  0  0  0
 26 28  1  0  0  0  0
 27 48  1  0  0  0  0
 27 49  1  0  0  0  0
 27 50  1  0  0  0  0
 28 29  2  0  0  0  0
 28 51  1  0  0  0  0
 29 52  1  0  0  0  0
M  END
