./141079-01-8.hin
 OpenBabel10051109203D

 48 51  0  0  0  0  0  0  0  0999 V2000
   -5.4942   -6.8552    1.3969 C   0  0  0  0  0  0  0  0  0  0  0  0
   -4.3211   -6.0009    1.1033 C   0  0  0  0  0  0  0  0  0  0  0  0
   -3.7047   -5.2566    2.1183 C   0  0  0  0  0  0  0  0  0  0  0  0
   -2.6098   -4.4472    1.8434 C   0  0  0  0  0  0  0  0  0  0  0  0
   -2.1184   -4.3805    0.5263 C   0  0  0  0  0  0  0  0  0  0  0  0
   -1.0234   -3.5508    0.3633 O   0  0  0  0  0  0  0  0  0  0  0  0
   -0.5745   -3.3859   -0.9886 C   0  0  0  0  0  0  0  0  0  0  0  0
    0.5301   -2.3840   -0.9483 C   0  0  0  0  0  0  0  0  0  0  0  0
    1.8648   -2.6296   -1.1395 N   0  0  0  0  0  0  0  0  0  0  0  0
    2.5358   -1.5085   -1.0471 N   0  0  0  0  0  0  0  0  0  0  0  0
    1.6713   -0.4691   -0.7847 C   0  0  0  0  0  0  0  0  0  0  0  0
    0.3669   -1.0029   -0.7158 N   0  0  0  0  0  0  0  0  0  0  0  0
   -0.8451   -0.3288   -0.4344 C   0  0  0  0  0  0  0  0  0  0  0  0
   -1.1709    0.0345    0.8878 C   0  0  0  0  0  0  0  0  0  0  0  0
   -2.3717    0.6865    1.1513 C   0  0  0  0  0  0  0  0  0  0  0  0
   -3.2697    0.9843    0.1206 C   0  0  0  0  0  0  0  0  0  0  0  0
   -4.5542    1.6583    0.4165 C   0  0  0  0  0  0  0  0  0  0  0  0
   -2.9436    0.6216   -1.1915 C   0  0  0  0  0  0  0  0  0  0  0  0
   -1.7470   -0.0272   -1.4762 C   0  0  0  0  0  0  0  0  0  0  0  0
    2.0384    0.9323   -0.6212 C   0  0  0  0  0  0  0  0  0  0  0  0
    3.2579    1.2489   -0.0046 C   0  0  0  0  0  0  0  0  0  0  0  0
    3.6420    2.5796    0.1432 C   0  0  0  0  0  0  0  0  0  0  0  0
    2.8075    3.5983   -0.3277 C   0  0  0  0  0  0  0  0  0  0  0  0
    3.2726    5.2225   -0.1453 Cl  0  0  0  0  0  0  0  0  0  0  0  0
    1.5934    3.2908   -0.9499 C   0  0  0  0  0  0  0  0  0  0  0  0
    1.2130    1.9592   -1.0968 C   0  0  0  0  0  0  0  0  0  0  0  0
   -2.7188   -5.1216   -0.4976 C   0  0  0  0  0  0  0  0  0  0  0  0
   -3.8171   -5.9262   -0.1987 C   0  0  0  0  0  0  0  0  0  0  0  0
   -6.4085   -6.4374    0.9052 H   0  0  0  0  0  0  0  0  0  0  0  0
   -5.3317   -7.8909    1.0068 H   0  0  0  0  0  0  0  0  0  0  0  0
   -5.6853   -6.9191    2.4960 H   0  0  0  0  0  0  0  0  0  0  0  0
   -4.0910   -5.3129    3.1476 H   0  0  0  0  0  0  0  0  0  0  0  0
   -2.1188   -3.8629    2.6341 H   0  0  0  0  0  0  0  0  0  0  0  0
   -1.4192   -3.0095   -1.6271 H   0  0  0  0  0  0  0  0  0  0  0  0
   -0.1918   -4.3670   -1.3798 H   0  0  0  0  0  0  0  0  0  0  0  0
   -0.4831   -0.1985    1.7164 H   0  0  0  0  0  0  0  0  0  0  0  0
   -2.6173    0.9674    2.1873 H   0  0  0  0  0  0  0  0  0  0  0  0
   -5.3338    0.8945    0.6670 H   0  0  0  0  0  0  0  0  0  0  0  0
   -4.4510    2.3510    1.2879 H   0  0  0  0  0  0  0  0  0  0  0  0
   -4.9114    2.2470   -0.4641 H   0  0  0  0  0  0  0  0  0  0  0  0
   -3.6426    0.8514   -2.0106 H   0  0  0  0  0  0  0  0  0  0  0  0
   -1.5120   -0.3037   -2.5161 H   0  0  0  0  0  0  0  0  0  0  0  0
    3.9183    0.4454    0.3592 H   0  0  0  0  0  0  0  0  0  0  0  0
    4.6000    2.8238    0.6272 H   0  0  0  0  0  0  0  0  0  0  0  0
    0.9408    4.0934   -1.3253 H   0  0  0  0  0  0  0  0  0  0  0  0
    0.2585    1.7190   -1.5918 H   0  0  0  0  0  0  0  0  0  0  0  0
   -2.3385   -5.0857   -1.5273 H   0  0  0  0  0  0  0  0  0  0  0  0
   -4.2920   -6.5125   -1.0000 H   0  0  0  0  0  0  0  0  0  0  0  0
  1  2  1  0  0  0  0
  1 29  1  0  0  0  0
  1 30  1  0  0  0  0
  1 31  1  0  0  0  0
  2  3  2  0  0  0  0
  2 28  1  0  0  0  0
  3  4  1  0  0  0  0
  3 32  1  0  0  0  0
  4  5  2  0  0  0  0
  4 33  1  0  0  0  0
  5  6  1  0  0  0  0
  5 27  1  0  0  0  0
  6  7  1  0  0  0  0
  7  8  1  0  0  0  0
  7 34  1  0  0  0  0
  7 35  1  0  0  0  0
  8  9  2  0  0  0  0
  8 12  1  0  0  0  0
  9 10  1  0  0  0  0
 10 11  2  0  0  0  0
 11 12  1  0  0  0  0
 11 20  1  0  0  0  0
 12 13  1  0  0  0  0
 13 14  2  0  0  0  0
 13 19  1  0  0  0  0
 14 15  1  0  0  0  0
 14 36  1  0  0  0  0
 15 16  2  0  0  0  0
 15 37  1  0  0  0  0
 16 17  1  0  0  0  0
 16 18  1  0  0  0  0
 17 38  1  0  0  0  0
 17 39  1  0  0  0  0
 17 40  1  0  0  0  0
 18 19  2  0  0  0  0
 18 41  1  0  0  0  0
 19 42  1  0  0  0  0
 20 21  2  0  0  0  0
 20 26  1  0  0  0  0
 21 22  1  0  0  0  0
 21 43  1  0  0  0  0
 22 23  2  0  0  0  0
 22 44  1  0  0  0  0
 23 24  1  0  0  0  0
 23 25  1  0  0  0  0
 25 26  2  0  0  0  0
 25 45  1  0  0  0  0
 26 46  1  0  0  0  0
 27 28  2  0  0  0  0
 27 47  1  0  0  0  0
 28 48  1  0  0  0  0
M  END
