./141079-03-0.hin
 OpenBabel10051109203D

 48 51  0  0  0  0  0  0  0  0999 V2000
   -5.5290   -7.1365    1.5442 C   0  0  0  0  0  0  0  0  0  0  0  0
   -4.3887   -6.2549    1.2060 C   0  0  0  0  0  0  0  0  0  0  0  0
   -3.7674   -5.4982    2.2109 C   0  0  0  0  0  0  0  0  0  0  0  0
   -2.7039   -4.6571    1.9149 C   0  0  0  0  0  0  0  0  0  0  0  0
   -2.2480   -4.5693    0.5852 C   0  0  0  0  0  0  0  0  0  0  0  0
   -1.1826   -3.7062    0.4010 O   0  0  0  0  0  0  0  0  0  0  0  0
   -0.7524   -3.5432   -0.9571 C   0  0  0  0  0  0  0  0  0  0  0  0
    0.3462   -2.5338   -0.9309 C   0  0  0  0  0  0  0  0  0  0  0  0
    1.6835   -2.7781   -1.1101 N   0  0  0  0  0  0  0  0  0  0  0  0
    2.3529   -1.6547   -1.0204 N   0  0  0  0  0  0  0  0  0  0  0  0
    1.4825   -0.6202   -0.7736 C   0  0  0  0  0  0  0  0  0  0  0  0
    0.1779   -1.1520   -0.7097 N   0  0  0  0  0  0  0  0  0  0  0  0
   -1.0318   -0.4673   -0.4472 C   0  0  0  0  0  0  0  0  0  0  0  0
   -1.2440    0.1555    0.7991 C   0  0  0  0  0  0  0  0  0  0  0  0
   -2.4404    0.8209    1.0475 C   0  0  0  0  0  0  0  0  0  0  0  0
   -3.4459    0.8784    0.0767 C   0  0  0  0  0  0  0  0  0  0  0  0
   -4.7122    1.5971    0.3448 C   0  0  0  0  0  0  0  0  0  0  0  0
   -3.2341    0.2555   -1.1587 C   0  0  0  0  0  0  0  0  0  0  0  0
   -2.0436   -0.4107   -1.4281 C   0  0  0  0  0  0  0  0  0  0  0  0
    1.8384    0.7858   -0.6022 C   0  0  0  0  0  0  0  0  0  0  0  0
    1.5355    1.7495   -1.5762 C   0  0  0  0  0  0  0  0  0  0  0  0
    0.7299    1.3240   -3.0083 Cl  0  0  0  0  0  0  0  0  0  0  0  0
    1.9074    3.0852   -1.3886 C   0  0  0  0  0  0  0  0  0  0  0  0
    2.5931    3.4488   -0.2270 C   0  0  0  0  0  0  0  0  0  0  0  0
    3.0428    5.0696    0.0048 Cl  0  0  0  0  0  0  0  0  0  0  0  0
    2.9164    2.4929    0.7418 C   0  0  0  0  0  0  0  0  0  0  0  0
    2.5397    1.1667    0.5491 C   0  0  0  0  0  0  0  0  0  0  0  0
   -2.8532   -5.3201   -0.4274 C   0  0  0  0  0  0  0  0  0  0  0  0
   -3.9215   -6.1582   -0.1065 C   0  0  0  0  0  0  0  0  0  0  0  0
   -5.2899   -7.7612    2.4407 H   0  0  0  0  0  0  0  0  0  0  0  0
   -6.4341   -6.5217    1.7796 H   0  0  0  0  0  0  0  0  0  0  0  0
   -5.7799   -7.8193    0.6959 H   0  0  0  0  0  0  0  0  0  0  0  0
   -4.1287   -5.5741    3.2479 H   0  0  0  0  0  0  0  0  0  0  0  0
   -2.2097   -4.0626    2.6959 H   0  0  0  0  0  0  0  0  0  0  0  0
   -1.6084   -3.1738   -1.5846 H   0  0  0  0  0  0  0  0  0  0  0  0
   -0.3677   -4.5221   -1.3518 H   0  0  0  0  0  0  0  0  0  0  0  0
   -0.4695    0.1174    1.5813 H   0  0  0  0  0  0  0  0  0  0  0  0
   -2.5961    1.3039    2.0246 H   0  0  0  0  0  0  0  0  0  0  0  0
   -5.5720    1.0916   -0.1604 H   0  0  0  0  0  0  0  0  0  0  0  0
   -4.9238    1.6442    1.4414 H   0  0  0  0  0  0  0  0  0  0  0  0
   -4.6442    2.6447   -0.0446 H   0  0  0  0  0  0  0  0  0  0  0  0
   -4.0192    0.2931   -1.9297 H   0  0  0  0  0  0  0  0  0  0  0  0
   -1.8971   -0.8875   -2.4100 H   0  0  0  0  0  0  0  0  0  0  0  0
    1.6659    3.8399   -2.1540 H   0  0  0  0  0  0  0  0  0  0  0  0
    3.4685    2.7830    1.6489 H   0  0  0  0  0  0  0  0  0  0  0  0
    2.8016    0.4050    1.3009 H   0  0  0  0  0  0  0  0  0  0  0  0
   -2.5017   -5.2670   -1.4665 H   0  0  0  0  0  0  0  0  0  0  0  0
   -4.3977   -6.7510   -0.9024 H   0  0  0  0  0  0  0  0  0  0  0  0
  1  2  1  0  0  0  0
  1 30  1  0  0  0  0
  1 31  1  0  0  0  0
  1 32  1  0  0  0  0
  2  3  2  0  0  0  0
  2 29  1  0  0  0  0
  3  4  1  0  0  0  0
  3 33  1  0  0  0  0
  4  5  2  0  0  0  0
  4 34  1  0  0  0  0
  5  6  1  0  0  0  0
  5 28  1  0  0  0  0
  6  7  1  0  0  0  0
  7  8  1  0  0  0  0
  7 35  1  0  0  0  0
  7 36  1  0  0  0  0
  8  9  2  0  0  0  0
  8 12  1  0  0  0  0
  9 10  1  0  0  0  0
 10 11  2  0  0  0  0
 11 12  1  0  0  0  0
 11 20  1  0  0  0  0
 12 13  1  0  0  0  0
 13 14  2  0  0  0  0
 13 19  1  0  0  0  0
 14 15  1  0  0  0  0
 14 37  1  0  0  0  0
 15 16  2  0  0  0  0
 15 38  1  0  0  0  0
 16 17  1  0  0  0  0
 16 18  1  0  0  0  0
 17 39  1  0  0  0  0
 17 40  1  0  0  0  0
 17 41  1  0  0  0  0
 18 19  2  0  0  0  0
 18 42  1  0  0  0  0
 19 43  1  0  0  0  0
 20 21  2  0  0  0  0
 20 27  1  0  0  0  0
 21 22  1  0  0  0  0
 21 23  1  0  0  0  0
 23 24  2  0  0  0  0
 23 44  1  0  0  0  0
 24 25  1  0  0  0  0
 24 26  1  0  0  0  0
 26 27  2  0  0  0  0
 26 45  1  0  0  0  0
 27 46  1  0  0  0  0
 28 29  2  0  0  0  0
 28 47  1  0  0  0  0
 29 48  1  0  0  0  0
M  END
