./141079-07-4.hin
 OpenBabel10051109203D

 48 51  0  0  0  0  0  0  0  0999 V2000
   -3.5057   -3.9495   -0.4117 C   0  0  0  0  0  0  0  0  0  0  0  0
   -2.2462   -3.1718   -0.4340 C   0  0  0  0  0  0  0  0  0  0  0  0
   -1.5101   -2.9880    0.7418 C   0  0  0  0  0  0  0  0  0  0  0  0
   -0.3345   -2.2440    0.7411 C   0  0  0  0  0  0  0  0  0  0  0  0
    0.1313   -1.6692   -0.4588 C   0  0  0  0  0  0  0  0  0  0  0  0
   -0.6067   -1.8552   -1.6462 C   0  0  0  0  0  0  0  0  0  0  0  0
   -1.7817   -2.5991   -1.6235 C   0  0  0  0  0  0  0  0  0  0  0  0
    1.3191   -0.9002   -0.4724 N   0  0  0  0  0  0  0  0  0  0  0  0
    1.4134    0.5065   -0.4975 C   0  0  0  0  0  0  0  0  0  0  0  0
    0.2569    1.4454   -0.5686 C   0  0  0  0  0  0  0  0  0  0  0  0
   -0.3803    1.4018    0.7164 O   0  0  0  0  0  0  0  0  0  0  0  0
   -1.5238    2.1677    0.8398 C   0  0  0  0  0  0  0  0  0  0  0  0
   -2.1744    2.0456    2.0829 C   0  0  0  0  0  0  0  0  0  0  0  0
   -3.3326    2.7740    2.3123 C   0  0  0  0  0  0  0  0  0  0  0  0
   -3.8450    3.6178    1.3184 C   0  0  0  0  0  0  0  0  0  0  0  0
   -5.2718    4.4872    1.6452 Cl  0  0  0  0  0  0  0  0  0  0  0  0
   -3.1982    3.7463    0.0813 C   0  0  0  0  0  0  0  0  0  0  0  0
   -2.0282    3.0117   -0.1532 C   0  0  0  0  0  0  0  0  0  0  0  0
    2.7406    0.8462   -0.4583 N   0  0  0  0  0  0  0  0  0  0  0  0
    3.4711   -0.2400   -0.4159 N   0  0  0  0  0  0  0  0  0  0  0  0
    2.6554   -1.3498   -0.4199 C   0  0  0  0  0  0  0  0  0  0  0  0
    3.0963   -2.7392   -0.3899 C   0  0  0  0  0  0  0  0  0  0  0  0
    4.2404   -3.0743    0.3493 C   0  0  0  0  0  0  0  0  0  0  0  0
    4.6952   -4.3906    0.3752 C   0  0  0  0  0  0  0  0  0  0  0  0
    4.0077   -5.3758   -0.3407 C   0  0  0  0  0  0  0  0  0  0  0  0
    4.5591   -6.9826   -0.3078 Cl  0  0  0  0  0  0  0  0  0  0  0  0
    2.8703   -5.0485   -1.0857 C   0  0  0  0  0  0  0  0  0  0  0  0
    2.4188   -3.7313   -1.1100 C   0  0  0  0  0  0  0  0  0  0  0  0
   -3.7267    4.6415   -0.9740 C   0  0  0  0  0  0  0  0  0  0  0  0
   -4.3407   -3.3088   -0.0294 H   0  0  0  0  0  0  0  0  0  0  0  0
   -3.7788   -4.3074   -1.4347 H   0  0  0  0  0  0  0  0  0  0  0  0
   -3.4113   -4.8377    0.2611 H   0  0  0  0  0  0  0  0  0  0  0  0
   -1.8662   -3.4350    1.6831 H   0  0  0  0  0  0  0  0  0  0  0  0
    0.2244   -2.1052    1.6805 H   0  0  0  0  0  0  0  0  0  0  0  0
   -0.2606   -1.4139   -2.5942 H   0  0  0  0  0  0  0  0  0  0  0  0
   -2.3519   -2.7371   -2.5553 H   0  0  0  0  0  0  0  0  0  0  0  0
    0.6188    2.4888   -0.7743 H   0  0  0  0  0  0  0  0  0  0  0  0
   -0.4675    1.1145   -1.3615 H   0  0  0  0  0  0  0  0  0  0  0  0
   -1.7561    1.3812    2.8520 H   0  0  0  0  0  0  0  0  0  0  0  0
   -3.8494    2.6869    3.2810 H   0  0  0  0  0  0  0  0  0  0  0  0
   -1.5192    3.1170   -1.1218 H   0  0  0  0  0  0  0  0  0  0  0  0
    4.7861   -2.2960    0.9066 H   0  0  0  0  0  0  0  0  0  0  0  0
    5.5938   -4.6493    0.9560 H   0  0  0  0  0  0  0  0  0  0  0  0
    2.3341   -5.8239   -1.6535 H   0  0  0  0  0  0  0  0  0  0  0  0
    1.5255   -3.4748   -1.7017 H   0  0  0  0  0  0  0  0  0  0  0  0
   -3.0819    4.6205   -1.8862 H   0  0  0  0  0  0  0  0  0  0  0  0
   -4.7617    4.3288   -1.2637 H   0  0  0  0  0  0  0  0  0  0  0  0
   -3.7743    5.6949   -0.5981 H   0  0  0  0  0  0  0  0  0  0  0  0
  1  2  1  0  0  0  0
  1 30  1  0  0  0  0
  1 31  1  0  0  0  0
  1 32  1  0  0  0  0
  2  3  2  0  0  0  0
  2  7  1  0  0  0  0
  3  4  1  0  0  0  0
  3 33  1  0  0  0  0
  4  5  2  0  0  0  0
  4 34  1  0  0  0  0
  5  6  1  0  0  0  0
  5  8  1  0  0  0  0
  6  7  2  0  0  0  0
  6 35  1  0  0  0  0
  7 36  1  0  0  0  0
  8  9  1  0  0  0  0
  8 21  1  0  0  0  0
  9 10  1  0  0  0  0
  9 19  2  0  0  0  0
 10 11  1  0  0  0  0
 10 37  1  0  0  0  0
 10 38  1  0  0  0  0
 11 12  1  0  0  0  0
 12 13  2  0  0  0  0
 12 18  1  0  0  0  0
 13 14  1  0  0  0  0
 13 39  1  0  0  0  0
 14 15  2  0  0  0  0
 14 40  1  0  0  0  0
 15 16  1  0  0  0  0
 15 17  1  0  0  0  0
 17 18  2  0  0  0  0
 17 29  1  0  0  0  0
 18 41  1  0  0  0  0
 19 20  1  0  0  0  0
 20 21  2  0  0  0  0
 21 22  1  0  0  0  0
 22 23  2  0  0  0  0
 22 28  1  0  0  0  0
 23 24  1  0  0  0  0
 23 42  1  0  0  0  0
 24 25  2  0  0  0  0
 24 43  1  0  0  0  0
 25 26  1  0  0  0  0
 25 27  1  0  0  0  0
 27 28  2  0  0  0  0
 27 44  1  0  0  0  0
 28 45  1  0  0  0  0
 29 46  1  0  0  0  0
 29 47  1  0  0  0  0
 29 48  1  0  0  0  0
M  END
