./141079-12-1.hin
 OpenBabel10051109203D

 45 48  0  0  0  0  0  0  0  0999 V2000
   -4.0474   -5.8463    0.1835 C   0  0  0  0  0  0  0  0  0  0  0  0
   -2.8298   -5.0120    0.3008 C   0  0  0  0  0  0  0  0  0  0  0  0
   -1.6241   -5.4304   -0.2745 C   0  0  0  0  0  0  0  0  0  0  0  0
   -0.4808   -4.6413   -0.1797 C   0  0  0  0  0  0  0  0  0  0  0  0
   -0.5325   -3.4132    0.4953 C   0  0  0  0  0  0  0  0  0  0  0  0
   -1.7342   -2.9944    1.0801 C   0  0  0  0  0  0  0  0  0  0  0  0
   -2.8728   -3.7886    0.9808 C   0  0  0  0  0  0  0  0  0  0  0  0
    0.6809   -2.6126    0.6046 C   0  0  0  0  0  0  0  0  0  0  0  0
    1.9580   -3.0883    0.7867 N   0  0  0  0  0  0  0  0  0  0  0  0
    2.8017   -2.0855    0.8444 N   0  0  0  0  0  0  0  0  0  0  0  0
    2.1237   -0.9043    0.7096 C   0  0  0  0  0  0  0  0  0  0  0  0
    2.7122    0.4662    0.7415 C   0  0  0  0  0  0  0  0  0  0  0  0
    2.5241    1.0237   -0.5656 O   0  0  0  0  0  0  0  0  0  0  0  0
    3.0441    2.2930   -0.7502 C   0  0  0  0  0  0  0  0  0  0  0  0
    2.8722    2.8077   -2.0496 C   0  0  0  0  0  0  0  0  0  0  0  0
    3.3498    4.0802   -2.3397 C   0  0  0  0  0  0  0  0  0  0  0  0
    3.9926    4.8382   -1.3574 C   0  0  0  0  0  0  0  0  0  0  0  0
    4.1593    4.3184   -0.0765 C   0  0  0  0  0  0  0  0  0  0  0  0
    3.6876    3.0432    0.2400 C   0  0  0  0  0  0  0  0  0  0  0  0
    0.7526   -1.2022    0.5531 N   0  0  0  0  0  0  0  0  0  0  0  0
   -0.2973   -0.2813    0.3356 C   0  0  0  0  0  0  0  0  0  0  0  0
   -0.8098   -0.0821   -0.9602 C   0  0  0  0  0  0  0  0  0  0  0  0
   -1.8436    0.8318   -1.1761 C   0  0  0  0  0  0  0  0  0  0  0  0
   -2.4336    1.0364   -2.7522 Cl  0  0  0  0  0  0  0  0  0  0  0  0
   -2.3740    1.5660   -0.0932 C   0  0  0  0  0  0  0  0  0  0  0  0
   -3.3724    2.4596   -0.2684 F   0  0  0  0  0  0  0  0  0  0  0  0
   -1.8538    1.3654    1.2004 C   0  0  0  0  0  0  0  0  0  0  0  0
   -0.8310    0.4539    1.4155 C   0  0  0  0  0  0  0  0  0  0  0  0
   -4.6263   -5.5476   -0.7271 H   0  0  0  0  0  0  0  0  0  0  0  0
   -3.7845   -6.9289    0.0911 H   0  0  0  0  0  0  0  0  0  0  0  0
   -4.7085   -5.7172    1.0757 H   0  0  0  0  0  0  0  0  0  0  0  0
   -1.5775   -6.3940   -0.8045 H   0  0  0  0  0  0  0  0  0  0  0  0
    0.4645   -4.9844   -0.6288 H   0  0  0  0  0  0  0  0  0  0  0  0
   -1.7808   -2.0383    1.6242 H   0  0  0  0  0  0  0  0  0  0  0  0
   -3.8135   -3.4543    1.4436 H   0  0  0  0  0  0  0  0  0  0  0  0
    2.1795    1.1011    1.5005 H   0  0  0  0  0  0  0  0  0  0  0  0
    3.8091    0.4087    0.9781 H   0  0  0  0  0  0  0  0  0  0  0  0
    2.3671    2.1976   -2.8112 H   0  0  0  0  0  0  0  0  0  0  0  0
    3.2202    4.4910   -3.3523 H   0  0  0  0  0  0  0  0  0  0  0  0
    4.3670    5.8435   -1.5978 H   0  0  0  0  0  0  0  0  0  0  0  0
    4.6676    4.9129    0.6974 H   0  0  0  0  0  0  0  0  0  0  0  0
    3.8307    2.6487    1.2547 H   0  0  0  0  0  0  0  0  0  0  0  0
   -0.3955   -0.6436   -1.8158 H   0  0  0  0  0  0  0  0  0  0  0  0
   -2.2711    1.9437    2.0393 H   0  0  0  0  0  0  0  0  0  0  0  0
   -0.4396    0.3117    2.4361 H   0  0  0  0  0  0  0  0  0  0  0  0
  1  2  1  0  0  0  0
  1 29  1  0  0  0  0
  1 30  1  0  0  0  0
  1 31  1  0  0  0  0
  2  3  2  0  0  0  0
  2  7  1  0  0  0  0
  3  4  1  0  0  0  0
  3 32  1  0  0  0  0
  4  5  2  0  0  0  0
  4 33  1  0  0  0  0
  5  6  1  0  0  0  0
  5  8  1  0  0  0  0
  6  7  2  0  0  0  0
  6 34  1  0  0  0  0
  7 35  1  0  0  0  0
  8  9  2  0  0  0  0
  8 20  1  0  0  0  0
  9 10  1  0  0  0  0
 10 11  2  0  0  0  0
 11 12  1  0  0  0  0
 11 20  1  0  0  0  0
 12 13  1  0  0  0  0
 12 36  1  0  0  0  0
 12 37  1  0  0  0  0
 13 14  1  0  0  0  0
 14 15  2  0  0  0  0
 14 19  1  0  0  0  0
 15 16  1  0  0  0  0
 15 38  1  0  0  0  0
 16 17  2  0  0  0  0
 16 39  1  0  0  0  0
 17 18  1  0  0  0  0
 17 40  1  0  0  0  0
 18 19  2  0  0  0  0
 18 41  1  0  0  0  0
 19 42  1  0  0  0  0
 20 21  1  0  0  0  0
 21 22  2  0  0  0  0
 21 28  1  0  0  0  0
 22 23  1  0  0  0  0
 22 43  1  0  0  0  0
 23 24  1  0  0  0  0
 23 25  2  0  0  0  0
 25 26  1  0  0  0  0
 25 27  1  0  0  0  0
 27 28  2  0  0  0  0
 27 44  1  0  0  0  0
 28 45  1  0  0  0  0
M  END
