./141079-15-4.hin
 OpenBabel10051109203D

 42 45  0  0  0  0  0  0  0  0999 V2000
   -3.8042   -2.9854   -1.7796 F   0  0  0  0  0  0  0  0  0  0  0  0
   -2.7793   -2.1838   -1.4148 C   0  0  0  0  0  0  0  0  0  0  0  0
   -1.5001   -2.3124   -1.9986 C   0  0  0  0  0  0  0  0  0  0  0  0
   -1.1857   -3.4803   -3.1869 Cl  0  0  0  0  0  0  0  0  0  0  0  0
   -0.4638   -1.4667   -1.6008 C   0  0  0  0  0  0  0  0  0  0  0  0
   -0.6835   -0.4851   -0.6145 C   0  0  0  0  0  0  0  0  0  0  0  0
   -1.9627   -0.3623   -0.0310 C   0  0  0  0  0  0  0  0  0  0  0  0
   -2.9935   -1.1994   -0.4311 C   0  0  0  0  0  0  0  0  0  0  0  0
    0.3695    0.3662   -0.2171 N   0  0  0  0  0  0  0  0  0  0  0  0
    0.3515    1.7756   -0.1338 C   0  0  0  0  0  0  0  0  0  0  0  0
   -0.8312    2.6470   -0.3977 C   0  0  0  0  0  0  0  0  0  0  0  0
   -1.6456    2.6038    0.7831 O   0  0  0  0  0  0  0  0  0  0  0  0
   -2.4896    3.6899    0.9542 C   0  0  0  0  0  0  0  0  0  0  0  0
   -2.8818    3.9410    2.2805 C   0  0  0  0  0  0  0  0  0  0  0  0
   -3.7841    4.9697    2.5317 C   0  0  0  0  0  0  0  0  0  0  0  0
   -4.2836    5.7464    1.4838 C   0  0  0  0  0  0  0  0  0  0  0  0
   -3.8828    5.4919    0.1738 C   0  0  0  0  0  0  0  0  0  0  0  0
   -2.9850    4.4607   -0.1038 C   0  0  0  0  0  0  0  0  0  0  0  0
    1.6056    2.1969    0.2208 N   0  0  0  0  0  0  0  0  0  0  0  0
    2.4001    1.1616    0.3551 N   0  0  0  0  0  0  0  0  0  0  0  0
    1.6993    0.0091    0.1007 C   0  0  0  0  0  0  0  0  0  0  0  0
    2.2279   -1.3514    0.1515 C   0  0  0  0  0  0  0  0  0  0  0  0
    1.8457   -2.2544    1.1559 C   0  0  0  0  0  0  0  0  0  0  0  0
    0.7270   -1.8102    2.3509 Cl  0  0  0  0  0  0  0  0  0  0  0  0
    2.3937   -3.5414    1.1934 C   0  0  0  0  0  0  0  0  0  0  0  0
    3.3318   -3.9160    0.2282 C   0  0  0  0  0  0  0  0  0  0  0  0
    3.9960   -5.4771    0.2703 Cl  0  0  0  0  0  0  0  0  0  0  0  0
    3.7315   -3.0177   -0.7674 C   0  0  0  0  0  0  0  0  0  0  0  0
    3.1800   -1.7401   -0.7999 C   0  0  0  0  0  0  0  0  0  0  0  0
    0.5342   -1.5806   -2.0588 H   0  0  0  0  0  0  0  0  0  0  0  0
   -2.1510    0.4044    0.7429 H   0  0  0  0  0  0  0  0  0  0  0  0
   -3.9927   -1.1046    0.0225 H   0  0  0  0  0  0  0  0  0  0  0  0
   -0.4910    3.6961   -0.6103 H   0  0  0  0  0  0  0  0  0  0  0  0
   -1.4358    2.2486   -1.2569 H   0  0  0  0  0  0  0  0  0  0  0  0
   -2.4745    3.3245    3.0940 H   0  0  0  0  0  0  0  0  0  0  0  0
   -4.1001    5.1743    3.5658 H   0  0  0  0  0  0  0  0  0  0  0  0
   -4.9924    6.5603    1.6940 H   0  0  0  0  0  0  0  0  0  0  0  0
   -4.2759    6.1043   -0.6515 H   0  0  0  0  0  0  0  0  0  0  0  0
   -2.6787    4.2614   -1.1397 H   0  0  0  0  0  0  0  0  0  0  0  0
    2.0905   -4.2490    1.9817 H   0  0  0  0  0  0  0  0  0  0  0  0
    4.4799   -3.3145   -1.5183 H   0  0  0  0  0  0  0  0  0  0  0  0
    3.5008   -1.0219   -1.5713 H   0  0  0  0  0  0  0  0  0  0  0  0
  1  2  1  0  0  0  0
  2  3  2  0  0  0  0
  2  8  1  0  0  0  0
  3  4  1  0  0  0  0
  3  5  1  0  0  0  0
  5  6  2  0  0  0  0
  5 30  1  0  0  0  0
  6  7  1  0  0  0  0
  6  9  1  0  0  0  0
  7  8  2  0  0  0  0
  7 31  1  0  0  0  0
  8 32  1  0  0  0  0
  9 10  1  0  0  0  0
  9 21  1  0  0  0  0
 10 11  1  0  0  0  0
 10 19  2  0  0  0  0
 11 12  1  0  0  0  0
 11 33  1  0  0  0  0
 11 34  1  0  0  0  0
 12 13  1  0  0  0  0
 13 14  2  0  0  0  0
 13 18  1  0  0  0  0
 14 15  1  0  0  0  0
 14 35  1  0  0  0  0
 15 16  2  0  0  0  0
 15 36  1  0  0  0  0
 16 17  1  0  0  0  0
 16 37  1  0  0  0  0
 17 18  2  0  0  0  0
 17 38  1  0  0  0  0
 18 39  1  0  0  0  0
 19 20  1  0  0  0  0
 20 21  2  0  0  0  0
 21 22  1  0  0  0  0
 22 23  2  0  0  0  0
 22 29  1  0  0  0  0
 23 24  1  0  0  0  0
 23 25  1  0  0  0  0
 25 26  2  0  0  0  0
 25 40  1  0  0  0  0
 26 27  1  0  0  0  0
 26 28  1  0  0  0  0
 28 29  2  0  0  0  0
 28 41  1  0  0  0  0
 29 42  1  0  0  0  0
M  END
