./141079-16-5.hin
 OpenBabel10051109203D

 48 51  0  0  0  0  0  0  0  0999 V2000
   -4.5619   -6.6121   -0.4597 C   0  0  0  0  0  0  0  0  0  0  0  0
   -3.4475   -5.6831   -0.1642 C   0  0  0  0  0  0  0  0  0  0  0  0
   -2.4924   -6.0085    0.8064 C   0  0  0  0  0  0  0  0  0  0  0  0
   -1.4332   -5.1460    1.0764 C   0  0  0  0  0  0  0  0  0  0  0  0
   -1.3219   -3.9360    0.3772 C   0  0  0  0  0  0  0  0  0  0  0  0
   -2.2702   -3.6087   -0.6003 C   0  0  0  0  0  0  0  0  0  0  0  0
   -3.3256   -4.4769   -0.8649 C   0  0  0  0  0  0  0  0  0  0  0  0
   -0.1895   -3.0586    0.6491 C   0  0  0  0  0  0  0  0  0  0  0  0
    1.1131   -3.4502    0.8477 N   0  0  0  0  0  0  0  0  0  0  0  0
    1.8687   -2.3952    1.0383 N   0  0  0  0  0  0  0  0  0  0  0  0
    1.1028   -1.2623    0.9819 C   0  0  0  0  0  0  0  0  0  0  0  0
    1.5830    0.1387    1.1592 C   0  0  0  0  0  0  0  0  0  0  0  0
    1.5929    0.7336   -0.1475 O   0  0  0  0  0  0  0  0  0  0  0  0
    2.3182    1.9073   -0.2578 C   0  0  0  0  0  0  0  0  0  0  0  0
    2.6130    2.2948   -1.5756 C   0  0  0  0  0  0  0  0  0  0  0  0
    3.2956    3.4887   -1.8137 C   0  0  0  0  0  0  0  0  0  0  0  0
    3.6014    3.8984   -3.2039 C   0  0  0  0  0  0  0  0  0  0  0  0
    3.6843    4.2803   -0.7178 C   0  0  0  0  0  0  0  0  0  0  0  0
    4.5224    5.7414   -0.9626 Cl  0  0  0  0  0  0  0  0  0  0  0  0
    3.3929    3.8862    0.5898 C   0  0  0  0  0  0  0  0  0  0  0  0
    2.7056    2.6982    0.8295 C   0  0  0  0  0  0  0  0  0  0  0  0
   -0.2328   -1.6477    0.7300 N   0  0  0  0  0  0  0  0  0  0  0  0
   -1.3659   -0.8083    0.6662 C   0  0  0  0  0  0  0  0  0  0  0  0
   -1.4134    0.2484   -0.2634 C   0  0  0  0  0  0  0  0  0  0  0  0
   -2.5311    1.0831   -0.3255 C   0  0  0  0  0  0  0  0  0  0  0  0
   -2.5436    2.3428   -1.4596 Cl  0  0  0  0  0  0  0  0  0  0  0  0
   -3.6220    0.8685    0.5446 C   0  0  0  0  0  0  0  0  0  0  0  0
   -4.7193    1.6563    0.5079 F   0  0  0  0  0  0  0  0  0  0  0  0
   -3.5679   -0.1887    1.4737 C   0  0  0  0  0  0  0  0  0  0  0  0
   -2.4566   -1.0154    1.5385 C   0  0  0  0  0  0  0  0  0  0  0  0
   -5.4595   -6.0581   -0.8296 H   0  0  0  0  0  0  0  0  0  0  0  0
   -4.2490   -7.3397   -1.2513 H   0  0  0  0  0  0  0  0  0  0  0  0
   -4.8529   -7.1912    0.4512 H   0  0  0  0  0  0  0  0  0  0  0  0
   -2.5765   -6.9570    1.3582 H   0  0  0  0  0  0  0  0  0  0  0  0
   -0.6790   -5.4172    1.8317 H   0  0  0  0  0  0  0  0  0  0  0  0
   -2.1793   -2.6686   -1.1655 H   0  0  0  0  0  0  0  0  0  0  0  0
   -4.0672   -4.2149   -1.6346 H   0  0  0  0  0  0  0  0  0  0  0  0
    0.8805    0.7211    1.8144 H   0  0  0  0  0  0  0  0  0  0  0  0
    2.6176    0.1360    1.5967 H   0  0  0  0  0  0  0  0  0  0  0  0
    2.2999    1.6503   -2.4102 H   0  0  0  0  0  0  0  0  0  0  0  0
    3.1308    4.8892   -3.4269 H   0  0  0  0  0  0  0  0  0  0  0  0
    4.7075    3.9992   -3.3425 H   0  0  0  0  0  0  0  0  0  0  0  0
    3.2187    3.1501   -3.9404 H   0  0  0  0  0  0  0  0  0  0  0  0
    3.7035    4.5147    1.4392 H   0  0  0  0  0  0  0  0  0  0  0  0
    2.4762    2.4022    1.8622 H   0  0  0  0  0  0  0  0  0  0  0  0
   -0.5558    0.4332   -0.9379 H   0  0  0  0  0  0  0  0  0  0  0  0
   -4.4213   -0.3496    2.1507 H   0  0  0  0  0  0  0  0  0  0  0  0
   -2.4369   -1.8400    2.2702 H   0  0  0  0  0  0  0  0  0  0  0  0
  1  2  1  0  0  0  0
  1 31  1  0  0  0  0
  1 32  1  0  0  0  0
  1 33  1  0  0  0  0
  2  3  2  0  0  0  0
  2  7  1  0  0  0  0
  3  4  1  0  0  0  0
  3 34  1  0  0  0  0
  4  5  2  0  0  0  0
  4 35  1  0  0  0  0
  5  6  1  0  0  0  0
  5  8  1  0  0  0  0
  6  7  2  0  0  0  0
  6 36  1  0  0  0  0
  7 37  1  0  0  0  0
  8  9  2  0  0  0  0
  8 22  1  0  0  0  0
  9 10  1  0  0  0  0
 10 11  2  0  0  0  0
 11 12  1  0  0  0  0
 11 22  1  0  0  0  0
 12 13  1  0  0  0  0
 12 38  1  0  0  0  0
 12 39  1  0  0  0  0
 13 14  1  0  0  0  0
 14 15  2  0  0  0  0
 14 21  1  0  0  0  0
 15 16  1  0  0  0  0
 15 40  1  0  0  0  0
 16 17  1  0  0  0  0
 16 18  2  0  0  0  0
 17 41  1  0  0  0  0
 17 42  1  0  0  0  0
 17 43  1  0  0  0  0
 18 19  1  0  0  0  0
 18 20  1  0  0  0  0
 20 21  2  0  0  0  0
 20 44  1  0  0  0  0
 21 45  1  0  0  0  0
 22 23  1  0  0  0  0
 23 24  2  0  0  0  0
 23 30  1  0  0  0  0
 24 25  1  0  0  0  0
 24 46  1  0  0  0  0
 25 26  1  0  0  0  0
 25 27  2  0  0  0  0
 27 28  1  0  0  0  0
 27 29  1  0  0  0  0
 29 30  2  0  0  0  0
 29 47  1  0  0  0  0
 30 48  1  0  0  0  0
M  END
