./141079-17-6.hin
 OpenBabel10051109203D

 49 52  0  0  0  0  0  0  0  0999 V2000
   -5.7683   -5.8421   -0.1414 C   0  0  0  0  0  0  0  0  0  0  0  0
   -4.4396   -6.2521   -0.4469 O   0  0  0  0  0  0  0  0  0  0  0  0
   -3.4325   -5.3841   -0.0818 C   0  0  0  0  0  0  0  0  0  0  0  0
   -2.1299   -5.8282   -0.3838 C   0  0  0  0  0  0  0  0  0  0  0  0
   -1.0443   -5.0267   -0.0608 C   0  0  0  0  0  0  0  0  0  0  0  0
   -1.2415   -3.7802    0.5584 C   0  0  0  0  0  0  0  0  0  0  0  0
   -2.5384   -3.3535    0.8610 C   0  0  0  0  0  0  0  0  0  0  0  0
   -3.6379   -4.1475    0.5424 C   0  0  0  0  0  0  0  0  0  0  0  0
   -0.0787   -2.9741    0.9060 C   0  0  0  0  0  0  0  0  0  0  0  0
    1.1294   -3.4420    1.3672 N   0  0  0  0  0  0  0  0  0  0  0  0
    1.9444   -2.4359    1.5781 N   0  0  0  0  0  0  0  0  0  0  0  0
    1.3137   -1.2602    1.2743 C   0  0  0  0  0  0  0  0  0  0  0  0
    1.8855    0.1116    1.3972 C   0  0  0  0  0  0  0  0  0  0  0  0
    2.0014    0.6269    0.0634 O   0  0  0  0  0  0  0  0  0  0  0  0
    2.5582    1.8886   -0.0392 C   0  0  0  0  0  0  0  0  0  0  0  0
    2.6870    2.3598   -1.3579 C   0  0  0  0  0  0  0  0  0  0  0  0
    3.2248    3.6246   -1.5966 C   0  0  0  0  0  0  0  0  0  0  0  0
    3.3580    4.1189   -2.9866 C   0  0  0  0  0  0  0  0  0  0  0  0
    3.6324    4.4086   -0.5016 C   0  0  0  0  0  0  0  0  0  0  0  0
    4.2926    5.9582   -0.7475 Cl  0  0  0  0  0  0  0  0  0  0  0  0
    3.5053    3.9336    0.8047 C   0  0  0  0  0  0  0  0  0  0  0  0
    2.9669    2.6710    1.0461 C   0  0  0  0  0  0  0  0  0  0  0  0
    0.0062   -1.5653    0.8364 N   0  0  0  0  0  0  0  0  0  0  0  0
   -0.9709   -0.6514    0.3811 C   0  0  0  0  0  0  0  0  0  0  0  0
   -1.1804   -0.4653   -0.9984 C   0  0  0  0  0  0  0  0  0  0  0  0
   -2.1418    0.4423   -1.4489 C   0  0  0  0  0  0  0  0  0  0  0  0
   -2.3633    0.6317   -3.1188 Cl  0  0  0  0  0  0  0  0  0  0  0  0
   -2.9038    1.1825   -0.5191 C   0  0  0  0  0  0  0  0  0  0  0  0
   -3.8402    2.0695   -0.9218 F   0  0  0  0  0  0  0  0  0  0  0  0
   -2.6864    0.9949    0.8599 C   0  0  0  0  0  0  0  0  0  0  0  0
   -1.7353    0.0902    1.3072 C   0  0  0  0  0  0  0  0  0  0  0  0
   -6.3938   -6.6914   -0.5172 H   0  0  0  0  0  0  0  0  0  0  0  0
   -5.8978   -5.7141    0.9607 H   0  0  0  0  0  0  0  0  0  0  0  0
   -6.0222   -4.8968   -0.6795 H   0  0  0  0  0  0  0  0  0  0  0  0
   -1.9909   -6.8050   -0.8688 H   0  0  0  0  0  0  0  0  0  0  0  0
   -0.0226   -5.3727   -0.2866 H   0  0  0  0  0  0  0  0  0  0  0  0
   -2.7001   -2.3842    1.3587 H   0  0  0  0  0  0  0  0  0  0  0  0
   -4.6497   -3.7964    0.7871 H   0  0  0  0  0  0  0  0  0  0  0  0
    1.1979    0.7701    1.9942 H   0  0  0  0  0  0  0  0  0  0  0  0
    2.9002    0.0645    1.8774 H   0  0  0  0  0  0  0  0  0  0  0  0
    2.3616    1.7206   -2.1918 H   0  0  0  0  0  0  0  0  0  0  0  0
    2.7719    5.0633   -3.1185 H   0  0  0  0  0  0  0  0  0  0  0  0
    4.4308    4.3397   -3.2168 H   0  0  0  0  0  0  0  0  0  0  0  0
    2.9855    3.3647   -3.7223 H   0  0  0  0  0  0  0  0  0  0  0  0
    3.8312    4.5553    1.6535 H   0  0  0  0  0  0  0  0  0  0  0  0
    2.8764    2.3122    2.0802 H   0  0  0  0  0  0  0  0  0  0  0  0
   -0.5834   -1.0321   -1.7341 H   0  0  0  0  0  0  0  0  0  0  0  0
   -3.2827    1.5783    1.5786 H   0  0  0  0  0  0  0  0  0  0  0  0
   -1.5824   -0.0418    2.3907 H   0  0  0  0  0  0  0  0  0  0  0  0
  1  2  1  0  0  0  0
  1 32  1  0  0  0  0
  1 33  1  0  0  0  0
  1 34  1  0  0  0  0
  2  3  1  0  0  0  0
  3  4  2  0  0  0  0
  3  8  1  0  0  0  0
  4  5  1  0  0  0  0
  4 35  1  0  0  0  0
  5  6  2  0  0  0  0
  5 36  1  0  0  0  0
  6  7  1  0  0  0  0
  6  9  1  0  0  0  0
  7  8  2  0  0  0  0
  7 37  1  0  0  0  0
  8 38  1  0  0  0  0
  9 10  2  0  0  0  0
  9 23  1  0  0  0  0
 10 11  1  0  0  0  0
 11 12  2  0  0  0  0
 12 13  1  0  0  0  0
 12 23  1  0  0  0  0
 13 14  1  0  0  0  0
 13 39  1  0  0  0  0
 13 40  1  0  0  0  0
 14 15  1  0  0  0  0
 15 16  2  0  0  0  0
 15 22  1  0  0  0  0
 16 17  1  0  0  0  0
 16 41  1  0  0  0  0
 17 18  1  0  0  0  0
 17 19  2  0  0  0  0
 18 42  1  0  0  0  0
 18 43  1  0  0  0  0
 18 44  1  0  0  0  0
 19 20  1  0  0  0  0
 19 21  1  0  0  0  0
 21 22  2  0  0  0  0
 21 45  1  0  0  0  0
 22 46  1  0  0  0  0
 23 24  1  0  0  0  0
 24 25  2  0  0  0  0
 24 31  1  0  0  0  0
 25 26  1  0  0  0  0
 25 47  1  0  0  0  0
 26 27  1  0  0  0  0
 26 28  2  0  0  0  0
 28 29  1  0  0  0  0
 28 30  1  0  0  0  0
 30 31  2  0  0  0  0
 30 48  1  0  0  0  0
 31 49  1  0  0  0  0
M  END
