./141079-18-7.hin
 OpenBabel10051109203D

 45 48  0  0  0  0  0  0  0  0999 V2000
   -2.6206   -5.3388   -0.4144 C   0  0  0  0  0  0  0  0  0  0  0  0
   -2.9443   -5.5646    0.9246 C   0  0  0  0  0  0  0  0  0  0  0  0
   -4.1776   -6.6789    1.2910 Cl  0  0  0  0  0  0  0  0  0  0  0  0
   -2.2660   -4.8868    1.9542 C   0  0  0  0  0  0  0  0  0  0  0  0
   -1.2616   -3.9792    1.6173 C   0  0  0  0  0  0  0  0  0  0  0  0
   -0.9435   -3.7532    0.2665 C   0  0  0  0  0  0  0  0  0  0  0  0
    0.0620   -2.8247    0.0654 O   0  0  0  0  0  0  0  0  0  0  0  0
    0.4060   -2.5778   -1.3051 C   0  0  0  0  0  0  0  0  0  0  0  0
    1.5058   -1.5700   -1.2913 C   0  0  0  0  0  0  0  0  0  0  0  0
    2.8020   -1.7726   -1.6833 N   0  0  0  0  0  0  0  0  0  0  0  0
    3.4813   -0.6586   -1.5550 N   0  0  0  0  0  0  0  0  0  0  0  0
    2.6623    0.3321   -1.0656 C   0  0  0  0  0  0  0  0  0  0  0  0
    1.3762   -0.2243   -0.8858 N   0  0  0  0  0  0  0  0  0  0  0  0
    0.2214    0.3963   -0.3571 C   0  0  0  0  0  0  0  0  0  0  0  0
    0.0809    0.5767    1.0349 C   0  0  0  0  0  0  0  0  0  0  0  0
   -1.0592    1.1792    1.5470 C   0  0  0  0  0  0  0  0  0  0  0  0
   -2.0888    1.6115    0.6892 C   0  0  0  0  0  0  0  0  0  0  0  0
   -3.1875    2.1918    1.2193 F   0  0  0  0  0  0  0  0  0  0  0  0
   -1.9529    1.4301   -0.7050 C   0  0  0  0  0  0  0  0  0  0  0  0
   -0.8039    0.8277   -1.2206 C   0  0  0  0  0  0  0  0  0  0  0  0
    3.0468    1.7117   -0.7924 C   0  0  0  0  0  0  0  0  0  0  0  0
    4.3258    1.9720   -0.2790 C   0  0  0  0  0  0  0  0  0  0  0  0
    4.7249    3.2831   -0.0301 C   0  0  0  0  0  0  0  0  0  0  0  0
    3.8465    4.3382   -0.2974 C   0  0  0  0  0  0  0  0  0  0  0  0
    4.3303    5.9371    0.0084 Cl  0  0  0  0  0  0  0  0  0  0  0  0
    2.5725    4.0868   -0.8177 C   0  0  0  0  0  0  0  0  0  0  0  0
    2.1770    2.7748   -1.0657 C   0  0  0  0  0  0  0  0  0  0  0  0
   -1.6186   -4.4315   -0.7538 C   0  0  0  0  0  0  0  0  0  0  0  0
   -2.6009   -5.1214    3.3780 C   0  0  0  0  0  0  0  0  0  0  0  0
   -3.1624    1.9308   -1.7820 Cl  0  0  0  0  0  0  0  0  0  0  0  0
   -3.1564   -5.8779   -1.2115 H   0  0  0  0  0  0  0  0  0  0  0  0
   -0.7093   -3.4366    2.3984 H   0  0  0  0  0  0  0  0  0  0  0  0
   -0.4888   -2.1716   -1.8501 H   0  0  0  0  0  0  0  0  0  0  0  0
    0.7615   -3.5293   -1.7855 H   0  0  0  0  0  0  0  0  0  0  0  0
    0.8711    0.2366    1.7248 H   0  0  0  0  0  0  0  0  0  0  0  0
   -1.1728    1.3225    2.6331 H   0  0  0  0  0  0  0  0  0  0  0  0
   -0.7092    0.6919   -2.3117 H   0  0  0  0  0  0  0  0  0  0  0  0
    5.0205    1.1407   -0.0776 H   0  0  0  0  0  0  0  0  0  0  0  0
    5.7297    3.4837    0.3728 H   0  0  0  0  0  0  0  0  0  0  0  0
    1.8853    4.9187   -1.0347 H   0  0  0  0  0  0  0  0  0  0  0  0
    1.1766    2.5798   -1.4834 H   0  0  0  0  0  0  0  0  0  0  0  0
   -1.3754   -4.2682   -1.8124 H   0  0  0  0  0  0  0  0  0  0  0  0
   -1.9620   -4.5002    4.0523 H   0  0  0  0  0  0  0  0  0  0  0  0
   -3.6736   -4.8655    3.5696 H   0  0  0  0  0  0  0  0  0  0  0  0
   -2.4482   -6.1993    3.6381 H   0  0  0  0  0  0  0  0  0  0  0  0
  1  2  2  0  0  0  0
  1 28  1  0  0  0  0
  1 31  1  0  0  0  0
  2  3  1  0  0  0  0
  2  4  1  0  0  0  0
  4  5  2  0  0  0  0
  4 29  1  0  0  0  0
  5  6  1  0  0  0  0
  5 32  1  0  0  0  0
  6  7  1  0  0  0  0
  6 28  2  0  0  0  0
  7  8  1  0  0  0  0
  8  9  1  0  0  0  0
  8 33  1  0  0  0  0
  8 34  1  0  0  0  0
  9 10  2  0  0  0  0
  9 13  1  0  0  0  0
 10 11  1  0  0  0  0
 11 12  2  0  0  0  0
 12 13  1  0  0  0  0
 12 21  1  0  0  0  0
 13 14  1  0  0  0  0
 14 15  2  0  0  0  0
 14 20  1  0  0  0  0
 15 16  1  0  0  0  0
 15 35  1  0  0  0  0
 16 17  2  0  0  0  0
 16 36  1  0  0  0  0
 17 18  1  0  0  0  0
 17 19  1  0  0  0  0
 19 20  2  0  0  0  0
 19 30  1  0  0  0  0
 20 37  1  0  0  0  0
 21 22  2  0  0  0  0
 21 27  1  0  0  0  0
 22 23  1  0  0  0  0
 22 38  1  0  0  0  0
 23 24  2  0  0  0  0
 23 39  1  0  0  0  0
 24 25  1  0  0  0  0
 24 26  1  0  0  0  0
 26 27  2  0  0  0  0
 26 40  1  0  0  0  0
 27 41  1  0  0  0  0
 28 42  1  0  0  0  0
 29 43  1  0  0  0  0
 29 44  1  0  0  0  0
 29 45  1  0  0  0  0
M  END
