./141079-19-8.hin
 OpenBabel10051109203D

 45 48  0  0  0  0  0  0  0  0999 V2000
   -2.2746   -5.0437   -0.3967 C   0  0  0  0  0  0  0  0  0  0  0  0
   -2.5967   -5.2755    0.9417 C   0  0  0  0  0  0  0  0  0  0  0  0
   -3.8224   -6.3990    1.3049 Cl  0  0  0  0  0  0  0  0  0  0  0  0
   -1.9229   -4.5961    1.9732 C   0  0  0  0  0  0  0  0  0  0  0  0
   -0.9245   -3.6809    1.6388 C   0  0  0  0  0  0  0  0  0  0  0  0
   -0.6081   -3.4487    0.2887 C   0  0  0  0  0  0  0  0  0  0  0  0
    0.3897   -2.5116    0.0900 O   0  0  0  0  0  0  0  0  0  0  0  0
    0.7442   -2.2712   -1.2790 C   0  0  0  0  0  0  0  0  0  0  0  0
    1.8439   -1.2634   -1.2613 C   0  0  0  0  0  0  0  0  0  0  0  0
    3.1445   -1.4690   -1.6364 N   0  0  0  0  0  0  0  0  0  0  0  0
    3.8222   -0.3538   -1.5093 N   0  0  0  0  0  0  0  0  0  0  0  0
    2.9977    0.6408   -1.0373 C   0  0  0  0  0  0  0  0  0  0  0  0
    1.7097    0.0856   -0.8679 N   0  0  0  0  0  0  0  0  0  0  0  0
    0.5481    0.7104   -0.3595 C   0  0  0  0  0  0  0  0  0  0  0  0
    0.3861    0.8957    1.0294 C   0  0  0  0  0  0  0  0  0  0  0  0
   -0.7606    1.5021    1.5216 C   0  0  0  0  0  0  0  0  0  0  0  0
   -1.7758    1.9338    0.6464 C   0  0  0  0  0  0  0  0  0  0  0  0
   -2.8812    2.5183    1.1573 F   0  0  0  0  0  0  0  0  0  0  0  0
   -1.6184    1.7473   -0.7449 C   0  0  0  0  0  0  0  0  0  0  0  0
   -0.4628    1.1409   -1.2404 C   0  0  0  0  0  0  0  0  0  0  0  0
    3.3792    2.0218   -0.7697 C   0  0  0  0  0  0  0  0  0  0  0  0
    4.6520    2.2847   -0.2410 C   0  0  0  0  0  0  0  0  0  0  0  0
    5.0536    3.5932    0.0035 C   0  0  0  0  0  0  0  0  0  0  0  0
    4.1769    4.6558   -0.2861 C   0  0  0  0  0  0  0  0  0  0  0  0
    4.5607    5.9314   -0.0481 F   0  0  0  0  0  0  0  0  0  0  0  0
    2.9023    4.3966   -0.8246 C   0  0  0  0  0  0  0  0  0  0  0  0
    2.5144    3.0834   -1.0645 C   0  0  0  0  0  0  0  0  0  0  0  0
   -1.2788   -4.1286   -0.7335 C   0  0  0  0  0  0  0  0  0  0  0  0
   -2.2558   -4.8372    3.3963 C   0  0  0  0  0  0  0  0  0  0  0  0
   -2.8099    2.2467   -1.8424 Cl  0  0  0  0  0  0  0  0  0  0  0  0
   -2.8068   -5.5841   -1.1953 H   0  0  0  0  0  0  0  0  0  0  0  0
   -0.3759   -3.1368    2.4215 H   0  0  0  0  0  0  0  0  0  0  0  0
   -0.1467   -1.8677   -1.8323 H   0  0  0  0  0  0  0  0  0  0  0  0
    1.1032   -3.2249   -1.7526 H   0  0  0  0  0  0  0  0  0  0  0  0
    1.1646    0.5561    1.7327 H   0  0  0  0  0  0  0  0  0  0  0  0
   -0.8912    1.6489    2.6053 H   0  0  0  0  0  0  0  0  0  0  0  0
   -0.3514    1.0011   -2.3294 H   0  0  0  0  0  0  0  0  0  0  0  0
    5.3414    1.4527   -0.0233 H   0  0  0  0  0  0  0  0  0  0  0  0
    6.0501    3.8062    0.4174 H   0  0  0  0  0  0  0  0  0  0  0  0
    2.2270    5.2334   -1.0549 H   0  0  0  0  0  0  0  0  0  0  0  0
    1.5197    2.8838   -1.4944 H   0  0  0  0  0  0  0  0  0  0  0  0
   -1.0371   -3.9602   -1.7916 H   0  0  0  0  0  0  0  0  0  0  0  0
   -1.6209   -4.2138    4.0723 H   0  0  0  0  0  0  0  0  0  0  0  0
   -3.3301   -4.5891    3.5891 H   0  0  0  0  0  0  0  0  0  0  0  0
   -2.0958   -5.9148    3.6532 H   0  0  0  0  0  0  0  0  0  0  0  0
  1  2  2  0  0  0  0
  1 28  1  0  0  0  0
  1 31  1  0  0  0  0
  2  3  1  0  0  0  0
  2  4  1  0  0  0  0
  4  5  2  0  0  0  0
  4 29  1  0  0  0  0
  5  6  1  0  0  0  0
  5 32  1  0  0  0  0
  6  7  1  0  0  0  0
  6 28  2  0  0  0  0
  7  8  1  0  0  0  0
  8  9  1  0  0  0  0
  8 33  1  0  0  0  0
  8 34  1  0  0  0  0
  9 10  2  0  0  0  0
  9 13  1  0  0  0  0
 10 11  1  0  0  0  0
 11 12  2  0  0  0  0
 12 13  1  0  0  0  0
 12 21  1  0  0  0  0
 13 14  1  0  0  0  0
 14 15  2  0  0  0  0
 14 20  1  0  0  0  0
 15 16  1  0  0  0  0
 15 35  1  0  0  0  0
 16 17  2  0  0  0  0
 16 36  1  0  0  0  0
 17 18  1  0  0  0  0
 17 19  1  0  0  0  0
 19 20  2  0  0  0  0
 19 30  1  0  0  0  0
 20 37  1  0  0  0  0
 21 22  2  0  0  0  0
 21 27  1  0  0  0  0
 22 23  1  0  0  0  0
 22 38  1  0  0  0  0
 23 24  2  0  0  0  0
 23 39  1  0  0  0  0
 24 25  1  0  0  0  0
 24 26  1  0  0  0  0
 26 27  2  0  0  0  0
 26 40  1  0  0  0  0
 27 41  1  0  0  0  0
 28 42  1  0  0  0  0
 29 43  1  0  0  0  0
 29 44  1  0  0  0  0
 29 45  1  0  0  0  0
M  END
