./141079-20-1.hin
 OpenBabel10051109203D

 45 48  0  0  0  0  0  0  0  0999 V2000
   -2.9583   -5.4327   -0.0692 C   0  0  0  0  0  0  0  0  0  0  0  0
   -2.9227   -5.9285    1.2363 C   0  0  0  0  0  0  0  0  0  0  0  0
   -3.8996   -7.2662    1.6279 Cl  0  0  0  0  0  0  0  0  0  0  0  0
   -2.0974   -5.3387    2.2105 C   0  0  0  0  0  0  0  0  0  0  0  0
   -1.3057   -4.2456    1.8529 C   0  0  0  0  0  0  0  0  0  0  0  0
   -1.3495   -3.7503    0.5398 C   0  0  0  0  0  0  0  0  0  0  0  0
   -0.5739   -2.6267    0.3095 O   0  0  0  0  0  0  0  0  0  0  0  0
   -0.1973   -2.4201   -1.0598 C   0  0  0  0  0  0  0  0  0  0  0  0
    1.0139   -1.5482   -1.0341 C   0  0  0  0  0  0  0  0  0  0  0  0
    2.3132   -1.9477   -1.2010 N   0  0  0  0  0  0  0  0  0  0  0  0
    3.1115   -0.9115   -1.0982 N   0  0  0  0  0  0  0  0  0  0  0  0
    2.3700    0.2180   -0.8548 C   0  0  0  0  0  0  0  0  0  0  0  0
    1.0096   -0.1559   -0.8052 N   0  0  0  0  0  0  0  0  0  0  0  0
   -0.1137    0.6654   -0.5602 C   0  0  0  0  0  0  0  0  0  0  0  0
   -0.2833    1.2893    0.6934 C   0  0  0  0  0  0  0  0  0  0  0  0
   -1.3901    2.0920    0.9279 C   0  0  0  0  0  0  0  0  0  0  0  0
   -2.3591    2.2884   -0.0749 C   0  0  0  0  0  0  0  0  0  0  0  0
   -3.4269    3.0738    0.1860 F   0  0  0  0  0  0  0  0  0  0  0  0
   -2.1953    1.6616   -1.3297 C   0  0  0  0  0  0  0  0  0  0  0  0
   -1.0785    0.8586   -1.5676 C   0  0  0  0  0  0  0  0  0  0  0  0
    2.8880    1.5711   -0.6715 C   0  0  0  0  0  0  0  0  0  0  0  0
    2.7025    2.5717   -1.6376 C   0  0  0  0  0  0  0  0  0  0  0  0
    1.8523    2.2564   -3.0723 Cl  0  0  0  0  0  0  0  0  0  0  0  0
    3.2315    3.8517   -1.4397 C   0  0  0  0  0  0  0  0  0  0  0  0
    3.9554    4.1218   -0.2755 C   0  0  0  0  0  0  0  0  0  0  0  0
    4.5957    5.6744   -0.0313 Cl  0  0  0  0  0  0  0  0  0  0  0  0
    4.1616    3.1261    0.6855 C   0  0  0  0  0  0  0  0  0  0  0  0
    3.6297    1.8559    0.4824 C   0  0  0  0  0  0  0  0  0  0  0  0
   -2.1734   -4.3389   -0.4263 C   0  0  0  0  0  0  0  0  0  0  0  0
   -2.0507   -5.8607    3.5959 C   0  0  0  0  0  0  0  0  0  0  0  0
   -3.3314    1.8633   -2.5718 Cl  0  0  0  0  0  0  0  0  0  0  0  0
   -3.6098   -5.9037   -0.8219 H   0  0  0  0  0  0  0  0  0  0  0  0
   -0.6472   -3.7630    2.5900 H   0  0  0  0  0  0  0  0  0  0  0  0
   -1.0454   -1.9058   -1.5883 H   0  0  0  0  0  0  0  0  0  0  0  0
    0.0438   -3.3958   -1.5607 H   0  0  0  0  0  0  0  0  0  0  0  0
    0.4587    1.1430    1.4953 H   0  0  0  0  0  0  0  0  0  0  0  0
   -1.5253    2.5820    1.9048 H   0  0  0  0  0  0  0  0  0  0  0  0
   -0.9569    0.3823   -2.5555 H   0  0  0  0  0  0  0  0  0  0  0  0
    3.0828    4.6358   -2.1995 H   0  0  0  0  0  0  0  0  0  0  0  0
    4.7446    3.3408    1.5945 H   0  0  0  0  0  0  0  0  0  0  0  0
    3.8005    1.0621    1.2272 H   0  0  0  0  0  0  0  0  0  0  0  0
   -2.2124   -3.9497   -1.4528 H   0  0  0  0  0  0  0  0  0  0  0  0
   -1.3433   -5.2699    4.2278 H   0  0  0  0  0  0  0  0  0  0  0  0
   -3.0675   -5.8134    4.0614 H   0  0  0  0  0  0  0  0  0  0  0  0
   -1.7177   -6.9294    3.5948 H   0  0  0  0  0  0  0  0  0  0  0  0
  1  2  2  0  0  0  0
  1 29  1  0  0  0  0
  1 32  1  0  0  0  0
  2  3  1  0  0  0  0
  2  4  1  0  0  0  0
  4  5  2  0  0  0  0
  4 30  1  0  0  0  0
  5  6  1  0  0  0  0
  5 33  1  0  0  0  0
  6  7  1  0  0  0  0
  6 29  2  0  0  0  0
  7  8  1  0  0  0  0
  8  9  1  0  0  0  0
  8 34  1  0  0  0  0
  8 35  1  0  0  0  0
  9 10  2  0  0  0  0
  9 13  1  0  0  0  0
 10 11  1  0  0  0  0
 11 12  2  0  0  0  0
 12 13  1  0  0  0  0
 12 21  1  0  0  0  0
 13 14  1  0  0  0  0
 14 15  2  0  0  0  0
 14 20  1  0  0  0  0
 15 16  1  0  0  0  0
 15 36  1  0  0  0  0
 16 17  2  0  0  0  0
 16 37  1  0  0  0  0
 17 18  1  0  0  0  0
 17 19  1  0  0  0  0
 19 20  2  0  0  0  0
 19 31  1  0  0  0  0
 20 38  1  0  0  0  0
 21 22  2  0  0  0  0
 21 28  1  0  0  0  0
 22 23  1  0  0  0  0
 22 24  1  0  0  0  0
 24 25  2  0  0  0  0
 24 39  1  0  0  0  0
 25 26  1  0  0  0  0
 25 27  1  0  0  0  0
 27 28  2  0  0  0  0
 27 40  1  0  0  0  0
 28 41  1  0  0  0  0
 29 42  1  0  0  0  0
 30 43  1  0  0  0  0
 30 44  1  0  0  0  0
 30 45  1  0  0  0  0
M  END
