./145701-21-9.hin
 OpenBabel10051109203D

 35 37  0  0  0  0  0  0  0  0999 V2000
   -1.1581   -6.2751   -0.5249 C   0  0  0  0  0  0  0  0  0  0  0  0
    0.2543   -5.7769   -0.3327 C   0  0  0  0  0  0  0  0  0  0  0  0
    0.1493   -4.3316   -0.4209 O   0  0  0  0  0  0  0  0  0  0  0  0
    1.3165   -3.6224   -0.3291 C   0  0  0  0  0  0  0  0  0  0  0  0
    2.5025   -4.1894   -0.0948 N   0  0  0  0  0  0  0  0  0  0  0  0
    3.6234   -3.3585   -0.0306 C   0  0  0  0  0  0  0  0  0  0  0  0
    3.5956   -1.9809   -0.1946 C   0  0  0  0  0  0  0  0  0  0  0  0
    2.3239   -1.3779   -0.4479 C   0  0  0  0  0  0  0  0  0  0  0  0
    1.9228   -0.1057   -0.6714 N   0  0  0  0  0  0  0  0  0  0  0  0
    0.5286   -0.2080   -0.8528 C   0  0  0  0  0  0  0  0  0  0  0  0
    0.0581   -1.4871   -0.7517 N   0  0  0  0  0  0  0  0  0  0  0  0
    1.1445   -2.2295   -0.5036 N   0  0  0  0  0  0  0  0  0  0  0  0
   -0.4777    1.1605   -1.2691 S   0  0  0  0  0  0  0  0  0  0  0  0
   -0.4713    1.2024   -2.6635 O   0  0  0  0  0  0  0  0  0  0  0  0
   -1.7063    1.0044   -0.6289 O   0  0  0  0  0  0  0  0  0  0  0  0
    0.3729    2.3944   -0.6555 N   0  0  0  0  0  0  0  0  0  0  0  0
   -0.0880    3.3541    0.2616 C   0  0  0  0  0  0  0  0  0  0  0  0
   -1.0639    4.3135   -0.1047 C   0  0  0  0  0  0  0  0  0  0  0  0
   -1.4996    5.2781    0.8062 C   0  0  0  0  0  0  0  0  0  0  0  0
   -0.9617    5.3209    2.0895 C   0  0  0  0  0  0  0  0  0  0  0  0
    0.0108    4.4011    2.4727 C   0  0  0  0  0  0  0  0  0  0  0  0
    0.4446    3.4261    1.5721 C   0  0  0  0  0  0  0  0  0  0  0  0
    1.6409    2.3269    2.0674 Cl  0  0  0  0  0  0  0  0  0  0  0  0
   -1.7264    4.3048   -1.6678 Cl  0  0  0  0  0  0  0  0  0  0  0  0
    4.7944   -3.9931    0.2089 F   0  0  0  0  0  0  0  0  0  0  0  0
   -1.1516   -7.3908   -0.4783 H   0  0  0  0  0  0  0  0  0  0  0  0
   -1.8295   -5.8775    0.2735 H   0  0  0  0  0  0  0  0  0  0  0  0
   -1.5592   -5.9510   -1.5152 H   0  0  0  0  0  0  0  0  0  0  0  0
    0.6617   -6.0490    0.6748 H   0  0  0  0  0  0  0  0  0  0  0  0
    0.9388   -6.1438   -1.1402 H   0  0  0  0  0  0  0  0  0  0  0  0
    4.4949   -1.3552   -0.1429 H   0  0  0  0  0  0  0  0  0  0  0  0
    1.3472    2.5003   -0.8483 H   0  0  0  0  0  0  0  0  0  0  0  0
   -2.2671    6.0087    0.5041 H   0  0  0  0  0  0  0  0  0  0  0  0
   -1.3049    6.0856    2.8029 H   0  0  0  0  0  0  0  0  0  0  0  0
    0.4382    4.4399    3.4871 H   0  0  0  0  0  0  0  0  0  0  0  0
  1  2  1  0  0  0  0
  1 26  1  0  0  0  0
  1 27  1  0  0  0  0
  1 28  1  0  0  0  0
  2  3  1  0  0  0  0
  2 29  1  0  0  0  0
  2 30  1  0  0  0  0
  3  4  1  0  0  0  0
  4  5  2  0  0  0  0
  4 12  1  0  0  0  0
  5  6  1  0  0  0  0
  6  7  2  0  0  0  0
  6 25  1  0  0  0  0
  7  8  1  0  0  0  0
  7 31  1  0  0  0  0
  8  9  2  0  0  0  0
  8 12  1  0  0  0  0
  9 10  1  0  0  0  0
 10 11  2  0  0  0  0
 10 13  1  0  0  0  0
 11 12  1  0  0  0  0
 13 14  2  0  0  0  0
 13 15  2  0  0  0  0
 13 16  1  0  0  0  0
 16 17  1  0  0  0  0
 16 32  1  0  0  0  0
 17 18  2  0  0  0  0
 17 22  1  0  0  0  0
 18 19  1  0  0  0  0
 18 24  1  0  0  0  0
 19 20  2  0  0  0  0
 19 33  1  0  0  0  0
 20 21  1  0  0  0  0
 20 34  1  0  0  0  0
 21 22  2  0  0  0  0
 21 35  1  0  0  0  0
 22 23  1  0  0  0  0
M  END
