./145701-23-1.hin
 OpenBabel10051109203D

 32 34  0  0  0  0  0  0  0  0999 V2000
   -0.2615   -5.4237    1.2579 C   0  0  0  0  0  0  0  0  0  0  0  0
   -0.3281   -4.1543    0.5922 O   0  0  0  0  0  0  0  0  0  0  0  0
    0.8445   -3.6854    0.0475 C   0  0  0  0  0  0  0  0  0  0  0  0
    2.0120   -4.3276    0.1232 N   0  0  0  0  0  0  0  0  0  0  0  0
    3.1221   -3.7665   -0.4575 C   0  0  0  0  0  0  0  0  0  0  0  0
    3.1200   -2.5543   -1.1321 C   0  0  0  0  0  0  0  0  0  0  0  0
    1.8641   -1.8383   -1.2275 C   0  0  0  0  0  0  0  0  0  0  0  0
    1.4906   -0.6661   -1.7913 N   0  0  0  0  0  0  0  0  0  0  0  0
    0.1158   -0.5793   -1.5078 C   0  0  0  0  0  0  0  0  0  0  0  0
   -0.3633   -1.6486   -0.7955 N   0  0  0  0  0  0  0  0  0  0  0  0
    0.6948   -2.4380   -0.6100 N   0  0  0  0  0  0  0  0  0  0  0  0
   -0.8718    0.7405   -2.0711 S   0  0  0  0  0  0  0  0  0  0  0  0
   -0.0589    1.8355   -2.3522 O   0  0  0  0  0  0  0  0  0  0  0  0
   -1.6599    0.2190   -3.1009 O   0  0  0  0  0  0  0  0  0  0  0  0
   -1.8048    1.0040   -0.7703 N   0  0  0  0  0  0  0  0  0  0  0  0
   -1.5853    1.9701    0.2250 C   0  0  0  0  0  0  0  0  0  0  0  0
   -1.9301    3.3377    0.0231 C   0  0  0  0  0  0  0  0  0  0  0  0
   -1.6978    4.2969    1.0251 C   0  0  0  0  0  0  0  0  0  0  0  0
   -1.1485    3.9145    2.2425 C   0  0  0  0  0  0  0  0  0  0  0  0
   -0.8268    2.5843    2.4878 C   0  0  0  0  0  0  0  0  0  0  0  0
   -1.0435    1.6147    1.4943 C   0  0  0  0  0  0  0  0  0  0  0  0
   -0.7335    0.3245    1.7621 F   0  0  0  0  0  0  0  0  0  0  0  0
   -2.4847    3.7362   -1.1438 F   0  0  0  0  0  0  0  0  0  0  0  0
    4.2245   -2.0306   -1.6909 F   0  0  0  0  0  0  0  0  0  0  0  0
   -1.3216   -5.5678    1.5916 H   0  0  0  0  0  0  0  0  0  0  0  0
    0.0504   -6.2226    0.5442 H   0  0  0  0  0  0  0  0  0  0  0  0
    0.4337   -5.3707    2.1291 H   0  0  0  0  0  0  0  0  0  0  0  0
    4.0451   -4.3653   -0.3478 H   0  0  0  0  0  0  0  0  0  0  0  0
   -2.5730    0.4037   -0.5605 H   0  0  0  0  0  0  0  0  0  0  0  0
   -1.9593    5.3475    0.8276 H   0  0  0  0  0  0  0  0  0  0  0  0
   -0.9686    4.6716    3.0220 H   0  0  0  0  0  0  0  0  0  0  0  0
   -0.3998    2.2752    3.4534 H   0  0  0  0  0  0  0  0  0  0  0  0
  1  2  1  0  0  0  0
  1 25  1  0  0  0  0
  1 26  1  0  0  0  0
  1 27  1  0  0  0  0
  2  3  1  0  0  0  0
  3  4  2  0  0  0  0
  3 11  1  0  0  0  0
  4  5  1  0  0  0  0
  5  6  2  0  0  0  0
  5 28  1  0  0  0  0
  6  7  1  0  0  0  0
  6 24  1  0  0  0  0
  7  8  2  0  0  0  0
  7 11  1  0  0  0  0
  8  9  1  0  0  0  0
  9 10  2  0  0  0  0
  9 12  1  0  0  0  0
 10 11  1  0  0  0  0
 12 13  2  0  0  0  0
 12 14  2  0  0  0  0
 12 15  1  0  0  0  0
 15 16  1  0  0  0  0
 15 29  1  0  0  0  0
 16 17  2  0  0  0  0
 16 21  1  0  0  0  0
 17 18  1  0  0  0  0
 17 23  1  0  0  0  0
 18 19  2  0  0  0  0
 18 30  1  0  0  0  0
 19 20  1  0  0  0  0
 19 31  1  0  0  0  0
 20 21  2  0  0  0  0
 20 32  1  0  0  0  0
 21 22  1  0  0  0  0
M  END
