./147150-35-4.hin
 OpenBabel10051109203D

 41 43  0  0  0  0  0  0  0  0999 V2000
   -1.3561   -1.2992    1.4295 C   0  0  0  0  0  0  0  0  0  0  0  0
   -2.8286   -2.2128    1.5149 S   0  0  0  0  0  0  0  0  0  0  0  0
   -2.7880   -2.9843    0.0817 N   0  0  0  0  0  0  0  0  0  0  0  0
   -2.6876   -3.1865    2.5122 O   0  0  0  0  0  0  0  0  0  0  0  0
   -3.8921   -1.3311    1.6530 O   0  0  0  0  0  0  0  0  0  0  0  0
   -1.3337    0.0461    1.0217 N   0  0  0  0  0  0  0  0  0  0  0  0
   -0.0240    0.3912    1.0995 C   0  0  0  0  0  0  0  0  0  0  0  0
    0.6906    1.6003    0.8317 C   0  0  0  0  0  0  0  0  0  0  0  0
    2.0675    1.5732    1.0017 C   0  0  0  0  0  0  0  0  0  0  0  0
    2.8062    2.6800    0.7546 F   0  0  0  0  0  0  0  0  0  0  0  0
    2.7980    0.4536    1.4183 N   0  0  0  0  0  0  0  0  0  0  0  0
    2.1287   -0.6581    1.7034 C   0  0  0  0  0  0  0  0  0  0  0  0
    0.7189   -0.7715    1.5540 N   0  0  0  0  0  0  0  0  0  0  0  0
   -0.1154   -1.7932    1.7434 N   0  0  0  0  0  0  0  0  0  0  0  0
    2.8338   -1.6968    2.2579 O   0  0  0  0  0  0  0  0  0  0  0  0
    2.6936   -2.9844    1.6038 C   0  0  0  0  0  0  0  0  0  0  0  0
    4.0533   -3.6356    1.6924 C   0  0  0  0  0  0  0  0  0  0  0  0
   -1.4140   -2.6228   -1.9118 C   0  0  0  0  0  0  0  0  0  0  0  0
   -0.2908   -3.3829   -1.3307 C   0  0  0  0  0  0  0  0  0  0  0  0
    0.8884   -3.0354   -1.2239 O   0  0  0  0  0  0  0  0  0  0  0  0
   -0.6332   -4.6317   -0.8864 O   0  0  0  0  0  0  0  0  0  0  0  0
    0.4173   -5.4292   -0.3348 C   0  0  0  0  0  0  0  0  0  0  0  0
   -1.2307   -2.0666   -3.1794 C   0  0  0  0  0  0  0  0  0  0  0  0
   -2.2652   -1.3613   -3.7897 C   0  0  0  0  0  0  0  0  0  0  0  0
   -3.6873   -1.7779   -1.8727 C   0  0  0  0  0  0  0  0  0  0  0  0
   -5.2142   -1.6275   -1.1575 Cl  0  0  0  0  0  0  0  0  0  0  0  0
   -3.4892   -1.2254   -3.1431 C   0  0  0  0  0  0  0  0  0  0  0  0
   -2.6362   -2.4575   -1.2112 C   0  0  0  0  0  0  0  0  0  0  0  0
   -2.6788   -3.9817    0.0840 H   0  0  0  0  0  0  0  0  0  0  0  0
    0.1451    2.4959    0.5083 H   0  0  0  0  0  0  0  0  0  0  0  0
    1.9240   -3.5541    2.1896 H   0  0  0  0  0  0  0  0  0  0  0  0
    2.3622   -2.8653    0.5399 H   0  0  0  0  0  0  0  0  0  0  0  0
    3.9809   -4.6748    1.2913 H   0  0  0  0  0  0  0  0  0  0  0  0
    4.8042   -3.0632    1.0971 H   0  0  0  0  0  0  0  0  0  0  0  0
    4.4012   -3.6749    2.7527 H   0  0  0  0  0  0  0  0  0  0  0  0
   -0.1098   -6.3520    0.0124 H   0  0  0  0  0  0  0  0  0  0  0  0
    1.1700   -5.6583   -1.1268 H   0  0  0  0  0  0  0  0  0  0  0  0
    0.9035   -4.8888    0.5142 H   0  0  0  0  0  0  0  0  0  0  0  0
   -0.2609   -2.1882   -3.6887 H   0  0  0  0  0  0  0  0  0  0  0  0
   -2.1158   -0.9173   -4.7857 H   0  0  0  0  0  0  0  0  0  0  0  0
   -4.3145   -0.6837   -3.6341 H   0  0  0  0  0  0  0  0  0  0  0  0
  1  2  1  0  0  0  0
  1  6  1  0  0  0  0
  1 14  2  0  0  0  0
  2  3  1  0  0  0  0
  2  4  2  0  0  0  0
  2  5  2  0  0  0  0
  3 28  1  0  0  0  0
  3 29  1  0  0  0  0
  6  7  2  0  0  0  0
  7  8  1  0  0  0  0
  7 13  1  0  0  0  0
  8  9  2  0  0  0  0
  8 30  1  0  0  0  0
  9 10  1  0  0  0  0
  9 11  1  0  0  0  0
 11 12  2  0  0  0  0
 12 13  1  0  0  0  0
 12 15  1  0  0  0  0
 13 14  1  0  0  0  0
 15 16  1  0  0  0  0
 16 17  1  0  0  0  0
 16 31  1  0  0  0  0
 16 32  1  0  0  0  0
 17 33  1  0  0  0  0
 17 34  1  0  0  0  0
 17 35  1  0  0  0  0
 18 19  1  0  0  0  0
 18 23  2  0  0  0  0
 18 28  1  0  0  0  0
 19 20  2  0  0  0  0
 19 21  1  0  0  0  0
 21 22  1  0  0  0  0
 22 36  1  0  0  0  0
 22 37  1  0  0  0  0
 22 38  1  0  0  0  0
 23 24  1  0  0  0  0
 23 39  1  0  0  0  0
 24 27  2  0  0  0  0
 24 40  1  0  0  0  0
 25 26  1  0  0  0  0
 25 27  1  0  0  0  0
 25 28  2  0  0  0  0
 27 41  1  0  0  0  0
M  END
