./173980-17-1.hin
 OpenBabel10051109203D

 40 41  0  0  0  0  0  0  0  0999 V2000
    6.7195  -15.0961    0.8019 C   0  0  0  0  0  0  0  0  0  0  0  0
    6.9810  -14.2369   -0.6663 S   0  0  0  0  0  0  0  0  0  0  0  0
    8.4436  -14.7922   -1.1314 N   0  0  0  0  0  0  0  0  0  0  0  0
    9.7099  -14.2846   -0.8225 C   0  0  0  0  0  0  0  0  0  0  0  0
    9.9259  -12.8893   -0.7725 C   0  0  0  0  0  0  0  0  0  0  0  0
   11.1892  -12.3524   -0.4915 C   0  0  0  0  0  0  0  0  0  0  0  0
   12.2854  -13.2331   -0.2678 C   0  0  0  0  0  0  0  0  0  0  0  0
   12.0688  -14.6173   -0.3097 C   0  0  0  0  0  0  0  0  0  0  0  0
   10.8051  -15.1512   -0.5691 C   0  0  0  0  0  0  0  0  0  0  0  0
   10.6606  -16.6294   -0.5953 C   0  0  0  0  0  0  0  0  0  0  0  0
    9.9591  -17.3783   -1.8177 S   0  0  0  0  0  0  0  0  0  0  0  0
   11.1697  -17.2934    0.4750 N   0  0  0  0  0  0  0  0  0  0  0  0
   13.5298  -12.7714   -0.0153 F   0  0  0  0  0  0  0  0  0  0  0  0
   11.3945  -10.9427   -0.4844 N   0  0  0  0  0  0  0  0  0  0  0  0
   11.9600  -10.3226    0.5843 N   0  0  0  0  0  0  0  0  0  0  0  0
   11.5902   -9.0333    0.5334 C   0  0  0  0  0  0  0  0  0  0  0  0
   10.7593   -8.7407   -0.5834 N   0  0  0  0  0  0  0  0  0  0  0  0
   10.5272  -10.0136   -1.2124 C   0  0  0  0  0  0  0  0  0  0  0  0
    9.8720  -10.2393   -2.2319 O   0  0  0  0  0  0  0  0  0  0  0  0
    9.8012   -7.6783   -0.6174 C   0  0  0  0  0  0  0  0  0  0  0  0
   12.0463   -7.9426    1.5057 C   0  0  0  0  0  0  0  0  0  0  0  0
   12.6722   -6.8940    0.8840 F   0  0  0  0  0  0  0  0  0  0  0  0
   10.9993   -7.3740    2.1869 F   0  0  0  0  0  0  0  0  0  0  0  0
   12.9168   -8.3629    2.4715 F   0  0  0  0  0  0  0  0  0  0  0  0
    6.0231  -14.6577   -1.6051 O   0  0  0  0  0  0  0  0  0  0  0  0
    7.0314  -12.8618   -0.3662 O   0  0  0  0  0  0  0  0  0  0  0  0
    5.3703  -14.7536    1.3793 C   0  0  0  0  0  0  0  0  0  0  0  0
    6.7659  -16.2066    0.6489 H   0  0  0  0  0  0  0  0  0  0  0  0
    7.5029  -14.8619    1.5688 H   0  0  0  0  0  0  0  0  0  0  0  0
    8.5013  -15.6032   -1.7341 H   0  0  0  0  0  0  0  0  0  0  0  0
    9.0810  -12.1992   -0.9770 H   0  0  0  0  0  0  0  0  0  0  0  0
   12.9363  -15.2797   -0.1540 H   0  0  0  0  0  0  0  0  0  0  0  0
   11.1369  -18.2873    0.4890 H   0  0  0  0  0  0  0  0  0  0  0  0
   11.6366  -16.8178    1.2090 H   0  0  0  0  0  0  0  0  0  0  0  0
   10.3373   -6.7158   -0.3958 H   0  0  0  0  0  0  0  0  0  0  0  0
    9.3551   -7.6430   -1.6479 H   0  0  0  0  0  0  0  0  0  0  0  0
    8.9832   -7.8245    0.1392 H   0  0  0  0  0  0  0  0  0  0  0  0
    5.2001  -15.3129    2.3305 H   0  0  0  0  0  0  0  0  0  0  0  0
    5.3054  -13.6589    1.5998 H   0  0  0  0  0  0  0  0  0  0  0  0
    4.5568  -15.0272    0.6616 H   0  0  0  0  0  0  0  0  0  0  0  0
  1  2  1  0  0  0  0
  1 27  1  0  0  0  0
  1 28  1  0  0  0  0
  1 29  1  0  0  0  0
  2  3  1  0  0  0  0
  2 25  2  0  0  0  0
  2 26  2  0  0  0  0
  3  4  1  0  0  0  0
  3 30  1  0  0  0  0
  4  5  2  0  0  0  0
  4  9  1  0  0  0  0
  5  6  1  0  0  0  0
  5 31  1  0  0  0  0
  6  7  2  0  0  0  0
  6 14  1  0  0  0  0
  7  8  1  0  0  0  0
  7 13  1  0  0  0  0
  8  9  2  0  0  0  0
  8 32  1  0  0  0  0
  9 10  1  0  0  0  0
 10 11  2  0  0  0  0
 10 12  1  0  0  0  0
 12 33  1  0  0  0  0
 12 34  1  0  0  0  0
 14 15  1  0  0  0  0
 14 18  1  0  0  0  0
 15 16  2  0  0  0  0
 16 17  1  0  0  0  0
 16 21  1  0  0  0  0
 17 18  1  0  0  0  0
 17 20  1  0  0  0  0
 18 19  2  0  0  0  0
 20 35  1  0  0  0  0
 20 36  1  0  0  0  0
 20 37  1  0  0  0  0
 21 22  1  0  0  0  0
 21 23  1  0  0  0  0
 21 24  1  0  0  0  0
 27 38  1  0  0  0  0
 27 39  1  0  0  0  0
 27 40  1  0  0  0  0
M  END
