./178928-70-6.hin
 OpenBabel10051109203D

 36 38  0  0  0  0  0  0  0  0999 V2000
    1.2284   -1.2891   -2.2045 C   0  0  0  0  0  0  0  0  0  0  0  0
    1.9600   -0.0756   -2.6881 C   0  0  0  0  0  0  0  0  0  0  0  0
    0.4965    0.0284   -2.3138 C   0  0  0  0  0  0  0  0  0  0  0  0
    0.0384    0.8200   -1.0937 C   0  0  0  0  0  0  0  0  0  0  0  0
    1.1398    0.8675   -0.0203 C   0  0  0  0  0  0  0  0  0  0  0  0
   -1.3204    0.2976   -0.5526 C   0  0  0  0  0  0  0  0  0  0  0  0
    0.7411    1.3919    1.3155 C   0  0  0  0  0  0  0  0  0  0  0  0
    0.0134    2.5865    1.4215 C   0  0  0  0  0  0  0  0  0  0  0  0
   -0.3197    3.1204    2.6629 C   0  0  0  0  0  0  0  0  0  0  0  0
    0.0753    2.4706    3.8321 C   0  0  0  0  0  0  0  0  0  0  0  0
    0.8067    1.2892    3.7531 C   0  0  0  0  0  0  0  0  0  0  0  0
    1.1427    0.7560    2.5026 C   0  0  0  0  0  0  0  0  0  0  0  0
    2.0672   -0.6774    2.4875 Cl  0  0  0  0  0  0  0  0  0  0  0  0
   -0.6110    0.1630   -3.6496 Cl  0  0  0  0  0  0  0  0  0  0  0  0
   -0.2748    2.1660   -1.4733 O   0  0  0  0  0  0  0  0  0  0  0  0
   -1.3709   -1.1167   -0.2505 N   0  0  0  0  0  0  0  0  0  0  0  0
   -2.3914   -1.9776   -0.7509 C   0  0  0  0  0  0  0  0  0  0  0  0
   -1.0908   -2.9667    0.8348 C   0  0  0  0  0  0  0  0  0  0  0  0
   -0.6231   -1.7166    0.7100 N   0  0  0  0  0  0  0  0  0  0  0  0
   -2.1705   -3.1776   -0.0423 N   0  0  0  0  0  0  0  0  0  0  0  0
   -2.7100   -3.9979   -0.1434 H   0  0  0  0  0  0  0  0  0  0  0  0
   -3.5041   -1.6961   -1.8352 S   0  0  0  0  0  0  0  0  0  0  0  0
    0.3694    2.4350   -2.1391 H   0  0  0  0  0  0  0  0  0  0  0  0
    1.4555   -1.7054   -1.2067 H   0  0  0  0  0  0  0  0  0  0  0  0
    0.9785   -2.0874   -2.9291 H   0  0  0  0  0  0  0  0  0  0  0  0
    2.2389   -0.0061   -3.7562 H   0  0  0  0  0  0  0  0  0  0  0  0
    2.7178    0.3964   -2.0373 H   0  0  0  0  0  0  0  0  0  0  0  0
    1.5703   -0.1627    0.0923 H   0  0  0  0  0  0  0  0  0  0  0  0
    1.9584    1.5388   -0.4064 H   0  0  0  0  0  0  0  0  0  0  0  0
   -1.5641    0.8886    0.3775 H   0  0  0  0  0  0  0  0  0  0  0  0
   -2.1143    0.4951   -1.3363 H   0  0  0  0  0  0  0  0  0  0  0  0
   -0.3000    3.1068    0.5001 H   0  0  0  0  0  0  0  0  0  0  0  0
   -0.8928    4.0577    2.7197 H   0  0  0  0  0  0  0  0  0  0  0  0
   -0.1869    2.8887    4.8151 H   0  0  0  0  0  0  0  0  0  0  0  0
    1.1250    0.7758    4.6734 H   0  0  0  0  0  0  0  0  0  0  0  0
   -0.7037   -3.7310    1.5178 H   0  0  0  0  0  0  0  0  0  0  0  0
  1  2  1  0  0  0  0
  1  3  1  0  0  0  0
  1 24  1  0  0  0  0
  1 25  1  0  0  0  0
  2  3  1  0  0  0  0
  2 26  1  0  0  0  0
  2 27  1  0  0  0  0
  3  4  1  0  0  0  0
  3 14  1  0  0  0  0
  4  5  1  0  0  0  0
  4  6  1  0  0  0  0
  4 15  1  0  0  0  0
  5  7  1  0  0  0  0
  5 28  1  0  0  0  0
  5 29  1  0  0  0  0
  6 16  1  0  0  0  0
  6 30  1  0  0  0  0
  6 31  1  0  0  0  0
  7  8  2  0  0  0  0
  7 12  1  0  0  0  0
  8  9  1  0  0  0  0
  8 32  1  0  0  0  0
  9 10  2  0  0  0  0
  9 33  1  0  0  0  0
 10 11  1  0  0  0  0
 10 34  1  0  0  0  0
 11 12  2  0  0  0  0
 11 35  1  0  0  0  0
 12 13  1  0  0  0  0
 15 23  1  0  0  0  0
 16 17  1  0  0  0  0
 16 19  1  0  0  0  0
 17 20  1  0  0  0  0
 17 22  2  0  0  0  0
 18 19  2  0  0  0  0
 18 20  1  0  0  0  0
 18 36  1  0  0  0  0
 20 21  1  0  0  0  0
M  END
