./317815-83-1.hin
 OpenBabel10051109203D

 39 40  0  0  0  0  0  0  0  0999 V2000
    0.5022   -1.5832   -1.9603 C   0  0  0  0  0  0  0  0  0  0  0  0
    0.2630   -0.1356   -1.9353 C   0  0  0  0  0  0  0  0  0  0  0  0
   -0.0456    0.6577   -0.8313 C   0  0  0  0  0  0  0  0  0  0  0  0
   -0.2443    2.0209   -1.2526 C   0  0  0  0  0  0  0  0  0  0  0  0
   -0.0721    2.1805   -2.6143 C   0  0  0  0  0  0  0  0  0  0  0  0
    0.3127    0.7503   -3.3472 S   0  0  0  0  0  0  0  0  0  0  0  0
   -0.5977    3.1410   -0.3776 C   0  0  0  0  0  0  0  0  0  0  0  0
   -0.3804    3.2784    0.8307 O   0  0  0  0  0  0  0  0  0  0  0  0
   -1.2272    4.1627   -1.0331 O   0  0  0  0  0  0  0  0  0  0  0  0
   -1.6162    5.2853   -0.2343 C   0  0  0  0  0  0  0  0  0  0  0  0
   -0.2471    0.0698    0.7362 S   0  0  0  0  0  0  0  0  0  0  0  0
    0.0093   -1.3214    0.7425 O   0  0  0  0  0  0  0  0  0  0  0  0
   -1.5113    0.4556    1.1990 O   0  0  0  0  0  0  0  0  0  0  0  0
    0.9201    0.8356    1.5896 N   0  0  0  0  0  0  0  0  0  0  0  0
    2.1746    0.4418    2.0863 C   0  0  0  0  0  0  0  0  0  0  0  0
    2.9304    1.2732    2.5990 O   0  0  0  0  0  0  0  0  0  0  0  0
    2.6009   -0.9537    2.0326 N   0  0  0  0  0  0  0  0  0  0  0  0
    1.7788   -1.9805    2.6989 C   0  0  0  0  0  0  0  0  0  0  0  0
    1.1867   -1.8626    3.7724 O   0  0  0  0  0  0  0  0  0  0  0  0
    1.9879   -3.2027    1.9426 N   0  0  0  0  0  0  0  0  0  0  0  0
    2.7161   -2.7451    0.7920 C   0  0  0  0  0  0  0  0  0  0  0  0
    3.0660   -1.4400    0.8390 N   0  0  0  0  0  0  0  0  0  0  0  0
    3.0018   -3.6578   -0.1928 O   0  0  0  0  0  0  0  0  0  0  0  0
    4.0566   -3.2737   -1.0856 C   0  0  0  0  0  0  0  0  0  0  0  0
    0.9219   -4.1553    1.8074 C   0  0  0  0  0  0  0  0  0  0  0  0
   -0.3653   -2.1337   -1.5087 H   0  0  0  0  0  0  0  0  0  0  0  0
    0.6522   -1.9460   -3.0080 H   0  0  0  0  0  0  0  0  0  0  0  0
    1.4098   -1.8499   -1.3558 H   0  0  0  0  0  0  0  0  0  0  0  0
   -0.1907    3.1324   -3.1384 H   0  0  0  0  0  0  0  0  0  0  0  0
   -2.1229    5.9597   -0.9678 H   0  0  0  0  0  0  0  0  0  0  0  0
   -2.3137    4.9540    0.5721 H   0  0  0  0  0  0  0  0  0  0  0  0
   -0.7114    5.7643    0.2108 H   0  0  0  0  0  0  0  0  0  0  0  0
    0.7461    1.8024    1.8297 H   0  0  0  0  0  0  0  0  0  0  0  0
    4.1879   -4.1883   -1.7178 H   0  0  0  0  0  0  0  0  0  0  0  0
    3.7359   -2.3998   -1.7021 H   0  0  0  0  0  0  0  0  0  0  0  0
    4.9878   -3.0380   -0.5178 H   0  0  0  0  0  0  0  0  0  0  0  0
    0.0486   -3.7300    1.2404 H   0  0  0  0  0  0  0  0  0  0  0  0
    1.3220   -5.0523    1.2654 H   0  0  0  0  0  0  0  0  0  0  0  0
    0.5892   -4.4432    2.8403 H   0  0  0  0  0  0  0  0  0  0  0  0
  1  2  1  0  0  0  0
  1 26  1  0  0  0  0
  1 27  1  0  0  0  0
  1 28  1  0  0  0  0
  2  3  2  0  0  0  0
  2  6  1  0  0  0  0
  3  4  1  0  0  0  0
  3 11  1  0  0  0  0
  4  5  2  0  0  0  0
  4  7  1  0  0  0  0
  5  6  1  0  0  0  0
  5 29  1  0  0  0  0
  7  8  2  0  0  0  0
  7  9  1  0  0  0  0
  9 10  1  0  0  0  0
 10 30  1  0  0  0  0
 10 31  1  0  0  0  0
 10 32  1  0  0  0  0
 11 12  2  0  0  0  0
 11 13  2  0  0  0  0
 11 14  1  0  0  0  0
 14 15  1  0  0  0  0
 14 33  1  0  0  0  0
 15 16  2  0  0  0  0
 15 17  1  0  0  0  0
 17 18  1  0  0  0  0
 17 22  1  0  0  0  0
 18 19  2  0  0  0  0
 18 20  1  0  0  0  0
 20 21  1  0  0  0  0
 20 25  1  0  0  0  0
 21 22  2  0  0  0  0
 21 23  1  0  0  0  0
 23 24  1  0  0  0  0
 24 34  1  0  0  0  0
 24 35  1  0  0  0  0
 24 36  1  0  0  0  0
 25 37  1  0  0  0  0
 25 38  1  0  0  0  0
 25 39  1  0  0  0  0
M  END
