./xxx002.hin
 OpenBabel10051109203D

 43 45  0  0  0  0  0  0  0  0999 V2000
    6.8751  -10.4481   -1.9993 F   0  0  0  0  0  0  0  0  0  0  0  0
    7.9662  -10.6018   -0.0981 F   0  0  0  0  0  0  0  0  0  0  0  0
    5.8763  -11.1133   -0.2053 F   0  0  0  0  0  0  0  0  0  0  0  0
    7.0586  -11.2421   -0.9003 C   0  0  0  0  0  0  0  0  0  0  0  0
   15.5101  -11.0207    1.7912 O   0  0  0  0  0  0  0  0  0  0  0  0
   13.6300   -8.6495   -3.8700 C   0  0  0  0  0  0  0  0  0  0  0  0
   14.3340   -8.1021   -2.7511 O   0  0  0  0  0  0  0  0  0  0  0  0
   10.9990  -12.2641   -1.0118 N   0  0  0  0  0  0  0  0  0  0  0  0
    9.3984  -10.6980   -2.1842 O   0  0  0  0  0  0  0  0  0  0  0  0
   10.4151  -12.4300   -3.4556 O   0  0  0  0  0  0  0  0  0  0  0  0
    9.9256  -11.9833   -2.2262 S   0  0  0  0  0  0  0  0  0  0  0  0
   12.6432  -15.7414   -3.9527 F   0  0  0  0  0  0  0  0  0  0  0  0
   10.1990  -14.8183   -2.2380 O   0  0  0  0  0  0  0  0  0  0  0  0
   10.3380  -15.8708   -3.1995 C   0  0  0  0  0  0  0  0  0  0  0  0
   11.1397  -15.9663   -5.4744 F   0  0  0  0  0  0  0  0  0  0  0  0
   11.3590  -15.3552   -4.2597 C   0  0  0  0  0  0  0  0  0  0  0  0
    8.6819  -13.0776   -1.7276 C   0  0  0  0  0  0  0  0  0  0  0  0
    7.4223  -12.7066   -1.2254 C   0  0  0  0  0  0  0  0  0  0  0  0
    8.9056  -14.4597   -1.9074 C   0  0  0  0  0  0  0  0  0  0  0  0
    6.4287  -13.6563   -0.9932 C   0  0  0  0  0  0  0  0  0  0  0  0
    7.9159  -15.4265   -1.6782 C   0  0  0  0  0  0  0  0  0  0  0  0
    6.6702  -15.0126   -1.2284 C   0  0  0  0  0  0  0  0  0  0  0  0
   12.1562  -11.5082   -0.8482 C   0  0  0  0  0  0  0  0  0  0  0  0
   12.5057  -10.4837   -1.7794 N   0  0  0  0  0  0  0  0  0  0  0  0
   13.0700  -11.6478    0.1932 N   0  0  0  0  0  0  0  0  0  0  0  0
   13.6654   -9.9854   -1.2783 C   0  0  0  0  0  0  0  0  0  0  0  0
   13.9992  -10.7107   -0.0759 N   0  0  0  0  0  0  0  0  0  0  0  0
   14.5724   -8.9515   -1.7017 C   0  0  0  0  0  0  0  0  0  0  0  0
   15.7199   -8.7443   -0.9442 C   0  0  0  0  0  0  0  0  0  0  0  0
   16.0335   -9.4374    0.1942 N   0  0  0  0  0  0  0  0  0  0  0  0
   15.1898  -10.3869    0.6157 C   0  0  0  0  0  0  0  0  0  0  0  0
   14.9631  -11.8171    1.9034 H   0  0  0  0  0  0  0  0  0  0  0  0
   13.8858   -7.9424   -4.7003 H   0  0  0  0  0  0  0  0  0  0  0  0
   13.9773   -9.6819   -4.1070 H   0  0  0  0  0  0  0  0  0  0  0  0
   12.5324   -8.6324   -3.6634 H   0  0  0  0  0  0  0  0  0  0  0  0
   10.9084  -13.0214   -0.3711 H   0  0  0  0  0  0  0  0  0  0  0  0
    9.3716  -16.1181   -3.7038 H   0  0  0  0  0  0  0  0  0  0  0  0
   10.7460  -16.7582   -2.6507 H   0  0  0  0  0  0  0  0  0  0  0  0
   11.2892  -14.2263   -4.3539 H   0  0  0  0  0  0  0  0  0  0  0  0
    5.4405  -13.3419   -0.6153 H   0  0  0  0  0  0  0  0  0  0  0  0
    8.1342  -16.4925   -1.8411 H   0  0  0  0  0  0  0  0  0  0  0  0
    5.8732  -15.7507   -1.0435 H   0  0  0  0  0  0  0  0  0  0  0  0
   16.4557   -7.9684   -1.2265 H   0  0  0  0  0  0  0  0  0  0  0  0
  1  4  1  0  0  0  0
  2  4  1  0  0  0  0
  3  4  1  0  0  0  0
  4 18  1  0  0  0  0
  5 31  1  0  0  0  0
  5 32  1  0  0  0  0
  6  7  1  0  0  0  0
  6 33  1  0  0  0  0
  6 34  1  0  0  0  0
  6 35  1  0  0  0  0
  7 28  1  0  0  0  0
  8 11  1  0  0  0  0
  8 23  1  0  0  0  0
  8 36  1  0  0  0  0
  9 11  2  0  0  0  0
 10 11  2  0  0  0  0
 11 17  1  0  0  0  0
 12 16  1  0  0  0  0
 13 14  1  0  0  0  0
 13 19  1  0  0  0  0
 14 16  1  0  0  0  0
 14 37  1  0  0  0  0
 14 38  1  0  0  0  0
 15 16  1  0  0  0  0
 16 39  1  0  0  0  0
 17 18  2  0  0  0  0
 17 19  1  0  0  0  0
 18 20  1  0  0  0  0
 19 21  2  0  0  0  0
 20 22  2  0  0  0  0
 20 40  1  0  0  0  0
 21 22  1  0  0  0  0
 21 41  1  0  0  0  0
 22 42  1  0  0  0  0
 23 24  1  0  0  0  0
 23 25  2  0  0  0  0
 24 26  2  0  0  0  0
 25 27  1  0  0  0  0
 26 27  1  0  0  0  0
 26 28  1  0  0  0  0
 27 31  1  0  0  0  0
 28 29  2  0  0  0  0
 29 30  1  0  0  0  0
 29 43  1  0  0  0  0
 30 31  2  0  0  0  0
M  END
