./xxx003.hin
 OpenBabel10051109203D

 43 45  0  0  0  0  0  0  0  0999 V2000
   19.3606   -8.7919   -3.0835 O   0  0  0  0  0  0  0  0  0  0  0  0
   16.5878  -10.7948   -1.7233 C   0  0  0  0  0  0  0  0  0  0  0  0
   20.9746  -14.9966    3.3562 Cl  0  0  0  0  0  0  0  0  0  0  0  0
   20.2258  -11.5280    0.6066 C   0  0  0  0  0  0  0  0  0  0  0  0
   20.6512   -9.3172   -0.1220 O   0  0  0  0  0  0  0  0  0  0  0  0
   20.0045  -10.3571   -0.2782 C   0  0  0  0  0  0  0  0  0  0  0  0
   16.1188   -8.6370   -2.9480 C   0  0  0  0  0  0  0  0  0  0  0  0
   17.3781  -10.4270   -4.0600 C   0  0  0  0  0  0  0  0  0  0  0  0
   17.1168   -9.7524   -2.7172 C   0  0  0  0  0  0  0  0  0  0  0  0
   18.4634   -9.2727   -2.0862 C   0  0  0  0  0  0  0  0  0  0  0  0
   18.3420   -8.0253   -1.1728 C   0  0  0  0  0  0  0  0  0  0  0  0
   17.5621   -8.1607    0.0370 N   0  0  0  0  0  0  0  0  0  0  0  0
   16.4089   -7.3973    0.3347 C   0  0  0  0  0  0  0  0  0  0  0  0
   17.8864   -8.9100    1.1037 N   0  0  0  0  0  0  0  0  0  0  0  0
   15.9944   -7.6788    1.5879 N   0  0  0  0  0  0  0  0  0  0  0  0
   16.9333   -8.6231    2.0367 C   0  0  0  0  0  0  0  0  0  0  0  0
   19.0141  -10.5486   -1.3976 C   0  0  0  0  0  0  0  0  0  0  0  0
   20.5830  -12.3915    2.8432 C   0  0  0  0  0  0  0  0  0  0  0  0
   20.6940  -13.6821    2.3166 C   0  0  0  0  0  0  0  0  0  0  0  0
   20.3568  -11.3173    1.9850 C   0  0  0  0  0  0  0  0  0  0  0  0
   20.5788  -13.9012    0.9396 C   0  0  0  0  0  0  0  0  0  0  0  0
   20.3417  -12.8231    0.0901 C   0  0  0  0  0  0  0  0  0  0  0  0
   17.7935  -11.3814   -1.0034 C   0  0  0  0  0  0  0  0  0  0  0  0
   19.6359   -9.5433   -3.6218 H   0  0  0  0  0  0  0  0  0  0  0  0
   16.0105  -11.5916   -2.2545 H   0  0  0  0  0  0  0  0  0  0  0  0
   15.8940  -10.3121   -0.9892 H   0  0  0  0  0  0  0  0  0  0  0  0
   16.5911   -7.8165   -3.5413 H   0  0  0  0  0  0  0  0  0  0  0  0
   15.2421   -9.0286   -3.5206 H   0  0  0  0  0  0  0  0  0  0  0  0
   15.7362   -8.2194   -1.9868 H   0  0  0  0  0  0  0  0  0  0  0  0
   18.1270  -11.2476   -3.9488 H   0  0  0  0  0  0  0  0  0  0  0  0
   16.4309  -10.8671   -4.4556 H   0  0  0  0  0  0  0  0  0  0  0  0
   17.7567   -9.6834   -4.8026 H   0  0  0  0  0  0  0  0  0  0  0  0
   19.3947   -7.7115   -0.8991 H   0  0  0  0  0  0  0  0  0  0  0  0
   17.8744   -7.1999   -1.7818 H   0  0  0  0  0  0  0  0  0  0  0  0
   15.9531   -6.6900   -0.3647 H   0  0  0  0  0  0  0  0  0  0  0  0
   16.8955   -9.0725    3.0336 H   0  0  0  0  0  0  0  0  0  0  0  0
   19.5914  -11.1194   -2.1870 H   0  0  0  0  0  0  0  0  0  0  0  0
   20.6790  -12.2210    3.9263 H   0  0  0  0  0  0  0  0  0  0  0  0
   20.2801  -10.2920    2.3828 H   0  0  0  0  0  0  0  0  0  0  0  0
   20.6750  -14.9172    0.5280 H   0  0  0  0  0  0  0  0  0  0  0  0
   20.2517  -12.9963   -0.9931 H   0  0  0  0  0  0  0  0  0  0  0  0
   17.6382  -11.3743    0.1043 H   0  0  0  0  0  0  0  0  0  0  0  0
   17.9525  -12.4485   -1.3045 H   0  0  0  0  0  0  0  0  0  0  0  0
  1 10  1  0  0  0  0
  1 24  1  0  0  0  0
  2  9  1  0  0  0  0
  2 23  1  0  0  0  0
  2 25  1  0  0  0  0
  2 26  1  0  0  0  0
  3 19  1  0  0  0  0
  4  6  1  0  0  0  0
  4 20  2  0  0  0  0
  4 22  1  0  0  0  0
  5  6  2  0  0  0  0
  6 17  1  0  0  0  0
  7  9  1  0  0  0  0
  7 27  1  0  0  0  0
  7 28  1  0  0  0  0
  7 29  1  0  0  0  0
  8  9  1  0  0  0  0
  8 30  1  0  0  0  0
  8 31  1  0  0  0  0
  8 32  1  0  0  0  0
  9 10  1  0  0  0  0
 10 11  1  0  0  0  0
 10 17  1  0  0  0  0
 11 12  1  0  0  0  0
 11 33  1  0  0  0  0
 11 34  1  0  0  0  0
 12 13  1  0  0  0  0
 12 14  1  0  0  0  0
 13 15  2  0  0  0  0
 13 35  1  0  0  0  0
 14 16  2  0  0  0  0
 15 16  1  0  0  0  0
 16 36  1  0  0  0  0
 17 23  1  0  0  0  0
 17 37  1  0  0  0  0
 18 19  2  0  0  0  0
 18 20  1  0  0  0  0
 18 38  1  0  0  0  0
 19 21  1  0  0  0  0
 20 39  1  0  0  0  0
 21 22  2  0  0  0  0
 21 40  1  0  0  0  0
 22 41  1  0  0  0  0
 23 42  1  0  0  0  0
 23 43  1  0  0  0  0
M  END
