./xxx004.hin
 OpenBabel10051109203D

 36 37  0  0  0  0  0  0  0  0999 V2000
   14.5074   -5.3761    1.0625 O   0  0  0  0  0  0  0  0  0  0  0  0
   14.0907   -5.4362   -1.1254 O   0  0  0  0  0  0  0  0  0  0  0  0
   13.9749   -5.9644    0.1154 C   0  0  0  0  0  0  0  0  0  0  0  0
   11.2561  -10.0091   -0.7002 N   0  0  0  0  0  0  0  0  0  0  0  0
    9.5752   -8.3544   -1.5638 O   0  0  0  0  0  0  0  0  0  0  0  0
   10.0035  -10.3448   -2.8183 O   0  0  0  0  0  0  0  0  0  0  0  0
    9.9143   -9.7092   -1.5767 S   0  0  0  0  0  0  0  0  0  0  0  0
    8.3459   -7.6745    0.5037 F   0  0  0  0  0  0  0  0  0  0  0  0
    7.1371   -7.9105   -1.3181 F   0  0  0  0  0  0  0  0  0  0  0  0
    6.2271   -8.0312    0.6307 F   0  0  0  0  0  0  0  0  0  0  0  0
    7.3500   -8.4219   -0.0666 C   0  0  0  0  0  0  0  0  0  0  0  0
    9.9224  -12.4974   -1.1333 O   0  0  0  0  0  0  0  0  0  0  0  0
   12.6065  -13.0657   -0.6241 F   0  0  0  0  0  0  0  0  0  0  0  0
   10.3011  -13.8151   -0.7364 C   0  0  0  0  0  0  0  0  0  0  0  0
   12.2827  -15.1796   -0.9238 F   0  0  0  0  0  0  0  0  0  0  0  0
   11.7633  -13.9510   -1.2565 C   0  0  0  0  0  0  0  0  0  0  0  0
    8.7104  -10.5457   -0.6427 C   0  0  0  0  0  0  0  0  0  0  0  0
    7.5978   -9.9455   -0.0313 C   0  0  0  0  0  0  0  0  0  0  0  0
    8.8183  -11.9487   -0.5082 C   0  0  0  0  0  0  0  0  0  0  0  0
    6.6470  -10.7059    0.6512 C   0  0  0  0  0  0  0  0  0  0  0  0
    7.8712  -12.7264    0.1698 C   0  0  0  0  0  0  0  0  0  0  0  0
    6.7801  -12.0915    0.7485 C   0  0  0  0  0  0  0  0  0  0  0  0
   12.0184   -9.0180   -0.0758 C   0  0  0  0  0  0  0  0  0  0  0  0
   12.5830   -7.9139   -0.7765 N   0  0  0  0  0  0  0  0  0  0  0  0
   12.3172   -8.9786    1.2883 N   0  0  0  0  0  0  0  0  0  0  0  0
   13.2118   -7.2187    0.2024 C   0  0  0  0  0  0  0  0  0  0  0  0
   14.5969   -4.6055   -1.0678 H   0  0  0  0  0  0  0  0  0  0  0  0
   11.6198  -10.9307   -0.5729 H   0  0  0  0  0  0  0  0  0  0  0  0
    9.6463  -14.5670   -1.2440 H   0  0  0  0  0  0  0  0  0  0  0  0
   10.2650  -13.9316    0.3758 H   0  0  0  0  0  0  0  0  0  0  0  0
   11.7934  -13.7888   -2.3752 H   0  0  0  0  0  0  0  0  0  0  0  0
    5.7780  -10.2140    1.1205 H   0  0  0  0  0  0  0  0  0  0  0  0
    7.9794  -13.8184    0.2371 H   0  0  0  0  0  0  0  0  0  0  0  0
    6.0181  -12.6796    1.2843 H   0  0  0  0  0  0  0  0  0  0  0  0
   13.0479   -7.8909    1.4365 N   0  0  0  0  0  0  0  0  0  0  0  0
   13.3883   -7.6009    2.3282 H   0  0  0  0  0  0  0  0  0  0  0  0
  1  3  2  0  0  0  0
  2  3  1  0  0  0  0
  2 27  1  0  0  0  0
  3 26  1  0  0  0  0
  4  7  1  0  0  0  0
  4 23  1  0  0  0  0
  4 28  1  0  0  0  0
  5  7  2  0  0  0  0
  6  7  2  0  0  0  0
  7 17  1  0  0  0  0
  8 11  1  0  0  0  0
  9 11  1  0  0  0  0
 10 11  1  0  0  0  0
 11 18  1  0  0  0  0
 12 14  1  0  0  0  0
 12 19  1  0  0  0  0
 13 16  1  0  0  0  0
 14 16  1  0  0  0  0
 14 29  1  0  0  0  0
 14 30  1  0  0  0  0
 15 16  1  0  0  0  0
 16 31  1  0  0  0  0
 17 18  2  0  0  0  0
 17 19  1  0  0  0  0
 18 20  1  0  0  0  0
 19 21  2  0  0  0  0
 20 22  2  0  0  0  0
 20 32  1  0  0  0  0
 21 22  1  0  0  0  0
 21 33  1  0  0  0  0
 22 34  1  0  0  0  0
 23 24  1  0  0  0  0
 23 25  2  0  0  0  0
 24 26  2  0  0  0  0
 25 35  1  0  0  0  0
 26 35  1  0  0  0  0
 35 36  1  0  0  0  0
M  END
