./xxx006.hin
 OpenBabel10051109203D

 28 29  0  0  0  0  0  0  0  0999 V2000
   10.5482   -8.9004    1.2473 C   0  0  0  0  0  0  0  0  0  0  0  0
   11.9852   -9.0473   -1.6046 O   0  0  0  0  0  0  0  0  0  0  0  0
   11.1803  -10.0139   -0.9512 C   0  0  0  0  0  0  0  0  0  0  0  0
   10.0998   -9.2471   -0.1849 C   0  0  0  0  0  0  0  0  0  0  0  0
    7.3961   -7.8560   -0.7709 Cl  0  0  0  0  0  0  0  0  0  0  0  0
    5.1164  -12.5710    0.1812 Cl  0  0  0  0  0  0  0  0  0  0  0  0
    7.5788   -9.4934   -0.3541 C   0  0  0  0  0  0  0  0  0  0  0  0
    8.8413  -10.0517   -0.0983 C   0  0  0  0  0  0  0  0  0  0  0  0
    6.4192  -10.2740   -0.2698 C   0  0  0  0  0  0  0  0  0  0  0  0
    8.9120  -11.4074    0.2530 C   0  0  0  0  0  0  0  0  0  0  0  0
    6.5200  -11.6219    0.0780 C   0  0  0  0  0  0  0  0  0  0  0  0
    7.7689  -12.1941    0.3427 C   0  0  0  0  0  0  0  0  0  0  0  0
   11.7094   -8.0419    1.3285 N   0  0  0  0  0  0  0  0  0  0  0  0
   11.7247   -6.7398    0.9907 N   0  0  0  0  0  0  0  0  0  0  0  0
   13.0155   -8.4568    1.6747 C   0  0  0  0  0  0  0  0  0  0  0  0
   13.0227   -6.3573    1.1507 C   0  0  0  0  0  0  0  0  0  0  0  0
   13.8569   -7.4075    1.5791 N   0  0  0  0  0  0  0  0  0  0  0  0
   10.7976   -9.8503    1.7997 H   0  0  0  0  0  0  0  0  0  0  0  0
    9.6884   -8.3903    1.7710 H   0  0  0  0  0  0  0  0  0  0  0  0
   12.6642   -9.5331   -2.0876 H   0  0  0  0  0  0  0  0  0  0  0  0
   11.8091  -10.6292   -0.2520 H   0  0  0  0  0  0  0  0  0  0  0  0
   10.7103  -10.6949   -1.7114 H   0  0  0  0  0  0  0  0  0  0  0  0
    9.9112   -8.2845   -0.7461 H   0  0  0  0  0  0  0  0  0  0  0  0
    5.4344   -9.8245   -0.4767 H   0  0  0  0  0  0  0  0  0  0  0  0
    9.8955  -11.8583    0.4604 H   0  0  0  0  0  0  0  0  0  0  0  0
    7.8478  -13.2567    0.6190 H   0  0  0  0  0  0  0  0  0  0  0  0
   13.2631   -9.4754    1.9846 H   0  0  0  0  0  0  0  0  0  0  0  0
   13.3905   -5.3430    0.9689 H   0  0  0  0  0  0  0  0  0  0  0  0
  1  4  1  0  0  0  0
  1 13  1  0  0  0  0
  1 18  1  0  0  0  0
  1 19  1  0  0  0  0
  2  3  1  0  0  0  0
  2 20  1  0  0  0  0
  3  4  1  0  0  0  0
  3 21  1  0  0  0  0
  3 22  1  0  0  0  0
  4  8  1  0  0  0  0
  4 23  1  0  0  0  0
  5  7  1  0  0  0  0
  6 11  1  0  0  0  0
  7  8  2  0  0  0  0
  7  9  1  0  0  0  0
  8 10  1  0  0  0  0
  9 11  2  0  0  0  0
  9 24  1  0  0  0  0
 10 12  2  0  0  0  0
 10 25  1  0  0  0  0
 11 12  1  0  0  0  0
 12 26  1  0  0  0  0
 13 14  1  0  0  0  0
 13 15  1  0  0  0  0
 14 16  2  0  0  0  0
 15 17  2  0  0  0  0
 15 27  1  0  0  0  0
 16 17  1  0  0  0  0
 16 28  1  0  0  0  0
M  END
