./xxx007.hin
 OpenBabel10051109203D

 42 43  0  0  0  0  0  0  0  0999 V2000
   13.5850   -8.4855   -1.4670 C   0  0  0  0  0  0  0  0  0  0  0  0
   15.0798  -10.2900   -0.6576 C   0  0  0  0  0  0  0  0  0  0  0  0
   13.6228   -9.8627   -0.8288 C   0  0  0  0  0  0  0  0  0  0  0  0
   12.7747  -11.1408    1.0854 O   0  0  0  0  0  0  0  0  0  0  0  0
   12.9923   -9.8380    0.5763 C   0  0  0  0  0  0  0  0  0  0  0  0
   11.6467   -9.0600    0.7940 C   0  0  0  0  0  0  0  0  0  0  0  0
   10.8227   -9.3106   -0.3536 O   0  0  0  0  0  0  0  0  0  0  0  0
    7.3844   -8.2608   -0.9992 C   0  0  0  0  0  0  0  0  0  0  0  0
    6.6822   -8.9799   -0.0244 C   0  0  0  0  0  0  0  0  0  0  0  0
    8.7712   -8.3444   -1.0695 C   0  0  0  0  0  0  0  0  0  0  0  0
    7.3764   -9.7798    0.8924 C   0  0  0  0  0  0  0  0  0  0  0  0
    9.4548   -9.1633   -0.1567 C   0  0  0  0  0  0  0  0  0  0  0  0
    8.7636   -9.8832    0.8262 C   0  0  0  0  0  0  0  0  0  0  0  0
    5.2142   -8.8970    0.0848 C   0  0  0  0  0  0  0  0  0  0  0  0
    4.5463   -9.0001    1.1144 O   0  0  0  0  0  0  0  0  0  0  0  0
    4.4552   -8.6974   -1.0355 O   0  0  0  0  0  0  0  0  0  0  0  0
   11.7927   -7.6480    1.0520 N   0  0  0  0  0  0  0  0  0  0  0  0
   11.6269   -6.5715    0.1740 C   0  0  0  0  0  0  0  0  0  0  0  0
   12.1664   -7.0963    2.2942 C   0  0  0  0  0  0  0  0  0  0  0  0
   11.9016   -5.4119    0.9196 C   0  0  0  0  0  0  0  0  0  0  0  0
   12.2375   -5.7531    2.2310 N   0  0  0  0  0  0  0  0  0  0  0  0
   12.9357  -10.8596   -1.7515 C   0  0  0  0  0  0  0  0  0  0  0  0
   14.2141   -8.4785   -2.3901 H   0  0  0  0  0  0  0  0  0  0  0  0
   12.5367   -8.2237   -1.7508 H   0  0  0  0  0  0  0  0  0  0  0  0
   13.9770   -7.7107   -0.7656 H   0  0  0  0  0  0  0  0  0  0  0  0
   15.5502  -10.4504   -1.6568 H   0  0  0  0  0  0  0  0  0  0  0  0
   15.6561   -9.5032   -0.1147 H   0  0  0  0  0  0  0  0  0  0  0  0
   15.1321  -11.2417   -0.0754 H   0  0  0  0  0  0  0  0  0  0  0  0
   12.2089  -11.6121    0.4601 H   0  0  0  0  0  0  0  0  0  0  0  0
   13.7435   -9.3917    1.2958 H   0  0  0  0  0  0  0  0  0  0  0  0
   11.1637   -9.5137    1.7179 H   0  0  0  0  0  0  0  0  0  0  0  0
    6.8471   -7.6051   -1.7028 H   0  0  0  0  0  0  0  0  0  0  0  0
    9.3355   -7.7846   -1.8296 H   0  0  0  0  0  0  0  0  0  0  0  0
    6.8130  -10.3250    1.6684 H   0  0  0  0  0  0  0  0  0  0  0  0
    9.3032  -10.5269    1.5362 H   0  0  0  0  0  0  0  0  0  0  0  0
    5.0140   -8.7022   -1.8242 H   0  0  0  0  0  0  0  0  0  0  0  0
   11.3212   -6.7103   -0.8609 H   0  0  0  0  0  0  0  0  0  0  0  0
   12.3633   -7.7124    3.1771 H   0  0  0  0  0  0  0  0  0  0  0  0
   11.8746   -4.3739    0.5914 H   0  0  0  0  0  0  0  0  0  0  0  0
   13.3372  -10.7490   -2.7880 H   0  0  0  0  0  0  0  0  0  0  0  0
   13.1305  -11.9071   -1.4154 H   0  0  0  0  0  0  0  0  0  0  0  0
   11.8338  -10.6839   -1.7793 H   0  0  0  0  0  0  0  0  0  0  0  0
  1  3  1  0  0  0  0
  1 23  1  0  0  0  0
  1 24  1  0  0  0  0
  1 25  1  0  0  0  0
  2  3  1  0  0  0  0
  2 26  1  0  0  0  0
  2 27  1  0  0  0  0
  2 28  1  0  0  0  0
  3  5  1  0  0  0  0
  3 22  1  0  0  0  0
  4  5  1  0  0  0  0
  4 29  1  0  0  0  0
  5  6  1  0  0  0  0
  5 30  1  0  0  0  0
  6  7  1  0  0  0  0
  6 17  1  0  0  0  0
  6 31  1  0  0  0  0
  7 12  1  0  0  0  0
  8  9  2  0  0  0  0
  8 10  1  0  0  0  0
  8 32  1  0  0  0  0
  9 11  1  0  0  0  0
  9 14  1  0  0  0  0
 10 12  2  0  0  0  0
 10 33  1  0  0  0  0
 11 13  2  0  0  0  0
 11 34  1  0  0  0  0
 12 13  1  0  0  0  0
 13 35  1  0  0  0  0
 14 15  2  0  0  0  0
 14 16  1  0  0  0  0
 16 36  1  0  0  0  0
 17 18  1  0  0  0  0
 17 19  1  0  0  0  0
 18 20  2  0  0  0  0
 18 37  1  0  0  0  0
 19 21  2  0  0  0  0
 19 38  1  0  0  0  0
 20 21  1  0  0  0  0
 20 39  1  0  0  0  0
 22 40  1  0  0  0  0
 22 41  1  0  0  0  0
 22 42  1  0  0  0  0
M  END
