./xxx008.hin
 OpenBabel10051109203D

 39 41  0  0  0  0  0  0  0  0999 V2000
    8.6446   -6.5050    0.9821 O   0  0  0  0  0  0  0  0  0  0  0  0
   11.3250   -5.9295    2.2965 Cl  0  0  0  0  0  0  0  0  0  0  0  0
   11.4726   -5.8895   -0.4423 C   0  0  0  0  0  0  0  0  0  0  0  0
   10.9870   -6.6746    0.7549 C   0  0  0  0  0  0  0  0  0  0  0  0
    9.0541  -13.2210    1.5071 C   0  0  0  0  0  0  0  0  0  0  0  0
    8.8138  -11.4847    1.5229 S   0  0  0  0  0  0  0  0  0  0  0  0
   10.3595  -10.8671    1.8198 C   0  0  0  0  0  0  0  0  0  0  0  0
   11.9367   -9.2997    2.2298 N   0  0  0  0  0  0  0  0  0  0  0  0
   10.6257   -9.4829    2.0009 N   0  0  0  0  0  0  0  0  0  0  0  0
   12.4766  -10.5503    2.1961 C   0  0  0  0  0  0  0  0  0  0  0  0
   11.5284  -11.5517    1.9432 N   0  0  0  0  0  0  0  0  0  0  0  0
    9.6276   -8.4404    1.9713 C   0  0  0  0  0  0  0  0  0  0  0  0
    9.6861   -7.4558    0.7526 C   0  0  0  0  0  0  0  0  0  0  0  0
    9.4060   -8.2794   -0.5162 C   0  0  0  0  0  0  0  0  0  0  0  0
   10.9010   -9.3999   -2.9589 Cl  0  0  0  0  0  0  0  0  0  0  0  0
    9.8569   -8.0517   -2.9850 C   0  0  0  0  0  0  0  0  0  0  0  0
    9.2346   -7.5746   -1.8164 C   0  0  0  0  0  0  0  0  0  0  0  0
    9.6375   -7.4349   -4.2221 C   0  0  0  0  0  0  0  0  0  0  0  0
    8.3822   -6.4675   -1.9339 C   0  0  0  0  0  0  0  0  0  0  0  0
    8.7899   -6.3343   -4.3105 C   0  0  0  0  0  0  0  0  0  0  0  0
    8.1630   -5.8509   -3.1629 C   0  0  0  0  0  0  0  0  0  0  0  0
   12.1903   -7.1384   -0.0332 C   0  0  0  0  0  0  0  0  0  0  0  0
    7.8138   -6.9974    1.0060 H   0  0  0  0  0  0  0  0  0  0  0  0
   11.9525   -4.9088   -0.2671 H   0  0  0  0  0  0  0  0  0  0  0  0
   10.8611   -5.8855   -1.3628 H   0  0  0  0  0  0  0  0  0  0  0  0
    8.0405  -13.6483    1.3209 H   0  0  0  0  0  0  0  0  0  0  0  0
    9.7474  -13.5435    0.6983 H   0  0  0  0  0  0  0  0  0  0  0  0
    9.4457  -13.6021    2.4766 H   0  0  0  0  0  0  0  0  0  0  0  0
   13.5389  -10.7645    2.3508 H   0  0  0  0  0  0  0  0  0  0  0  0
    8.6187   -8.9474    1.9638 H   0  0  0  0  0  0  0  0  0  0  0  0
    9.7103   -7.8230    2.9131 H   0  0  0  0  0  0  0  0  0  0  0  0
    8.4515   -8.8530   -0.3331 H   0  0  0  0  0  0  0  0  0  0  0  0
   10.2290   -9.0403   -0.6079 H   0  0  0  0  0  0  0  0  0  0  0  0
   10.1348   -7.8216   -5.1252 H   0  0  0  0  0  0  0  0  0  0  0  0
    7.8886   -6.0634   -1.0356 H   0  0  0  0  0  0  0  0  0  0  0  0
    8.6177   -5.8508   -5.2834 H   0  0  0  0  0  0  0  0  0  0  0  0
    7.4931   -4.9803   -3.2254 H   0  0  0  0  0  0  0  0  0  0  0  0
   13.1870   -7.0635    0.4399 H   0  0  0  0  0  0  0  0  0  0  0  0
   12.1037   -8.0436   -0.6617 H   0  0  0  0  0  0  0  0  0  0  0  0
  1 13  1  0  0  0  0
  1 23  1  0  0  0  0
  2  4  1  0  0  0  0
  3  4  1  0  0  0  0
  3 22  1  0  0  0  0
  3 24  1  0  0  0  0
  3 25  1  0  0  0  0
  4 13  1  0  0  0  0
  4 22  1  0  0  0  0
  5  6  1  0  0  0  0
  5 26  1  0  0  0  0
  5 27  1  0  0  0  0
  5 28  1  0  0  0  0
  6  7  1  0  0  0  0
  7  9  1  0  0  0  0
  7 11  2  0  0  0  0
  8  9  1  0  0  0  0
  8 10  2  0  0  0  0
  9 12  1  0  0  0  0
 10 11  1  0  0  0  0
 10 29  1  0  0  0  0
 12 13  1  0  0  0  0
 12 30  1  0  0  0  0
 12 31  1  0  0  0  0
 13 14  1  0  0  0  0
 14 17  1  0  0  0  0
 14 32  1  0  0  0  0
 14 33  1  0  0  0  0
 15 16  1  0  0  0  0
 16 17  2  0  0  0  0
 16 18  1  0  0  0  0
 17 19  1  0  0  0  0
 18 20  2  0  0  0  0
 18 34  1  0  0  0  0
 19 21  2  0  0  0  0
 19 35  1  0  0  0  0
 20 21  1  0  0  0  0
 20 36  1  0  0  0  0
 21 37  1  0  0  0  0
 22 38  1  0  0  0  0
 22 39  1  0  0  0  0
M  END
