./xxx009.hin
 OpenBabel10051109203D

 35 37  0  0  0  0  0  0  0  0999 V2000
    8.2954   -8.5290   -1.2054 O   0  0  0  0  0  0  0  0  0  0  0  0
   10.3030   -6.7641    0.0510 Cl  0  0  0  0  0  0  0  0  0  0  0  0
   11.4920   -9.1487    0.7172 C   0  0  0  0  0  0  0  0  0  0  0  0
   11.5011   -9.1006   -0.7775 C   0  0  0  0  0  0  0  0  0  0  0  0
   10.3351   -8.5065   -0.0180 C   0  0  0  0  0  0  0  0  0  0  0  0
    8.0724   -8.6887    1.1325 C   0  0  0  0  0  0  0  0  0  0  0  0
    8.9436   -9.1229   -0.0696 C   0  0  0  0  0  0  0  0  0  0  0  0
    8.9442  -10.6564   -0.1910 C   0  0  0  0  0  0  0  0  0  0  0  0
    8.4125  -13.6056   -0.2859 Cl  0  0  0  0  0  0  0  0  0  0  0  0
    8.7961  -12.6666   -1.6548 C   0  0  0  0  0  0  0  0  0  0  0  0
    9.0390  -11.2822   -1.5417 C   0  0  0  0  0  0  0  0  0  0  0  0
    8.8681  -13.3156   -2.8907 C   0  0  0  0  0  0  0  0  0  0  0  0
    9.3720  -10.5816   -2.7068 C   0  0  0  0  0  0  0  0  0  0  0  0
    9.1898  -12.5920   -4.0367 C   0  0  0  0  0  0  0  0  0  0  0  0
    9.4435  -11.2257   -3.9410 C   0  0  0  0  0  0  0  0  0  0  0  0
    8.5783  -10.5473    2.8639 N   0  0  0  0  0  0  0  0  0  0  0  0
    9.7202   -8.4552    3.0866 N   0  0  0  0  0  0  0  0  0  0  0  0
    8.4578   -9.0459    2.5594 C   0  0  0  0  0  0  0  0  0  0  0  0
   10.3650   -9.4659    3.6075 C   0  0  0  0  0  0  0  0  0  0  0  0
    9.6273  -10.7603    3.4530 N   0  0  0  0  0  0  0  0  0  0  0  0
    7.5250   -9.0753   -1.4049 H   0  0  0  0  0  0  0  0  0  0  0  0
   11.3530  -10.1171    1.2302 H   0  0  0  0  0  0  0  0  0  0  0  0
   12.1783   -8.4897    1.2824 H   0  0  0  0  0  0  0  0  0  0  0  0
   12.2004   -8.4187   -1.2950 H   0  0  0  0  0  0  0  0  0  0  0  0
   11.3475  -10.0397   -1.3413 H   0  0  0  0  0  0  0  0  0  0  0  0
    7.0431   -9.1090    0.9603 H   0  0  0  0  0  0  0  0  0  0  0  0
    7.9888   -7.5665    1.0845 H   0  0  0  0  0  0  0  0  0  0  0  0
    7.9813  -11.0241    0.2696 H   0  0  0  0  0  0  0  0  0  0  0  0
    9.7826  -11.0724    0.4314 H   0  0  0  0  0  0  0  0  0  0  0  0
    8.6725  -14.3970   -2.9576 H   0  0  0  0  0  0  0  0  0  0  0  0
    9.5850   -9.4991   -2.6556 H   0  0  0  0  0  0  0  0  0  0  0  0
    9.2445  -13.1016   -5.0099 H   0  0  0  0  0  0  0  0  0  0  0  0
    9.7030  -10.6481   -4.8409 H   0  0  0  0  0  0  0  0  0  0  0  0
    7.6161   -8.6659    3.2227 H   0  0  0  0  0  0  0  0  0  0  0  0
   11.3303   -9.4481    4.1279 H   0  0  0  0  0  0  0  0  0  0  0  0
  1  7  1  0  0  0  0
  1 21  1  0  0  0  0
  2  5  1  0  0  0  0
  3  4  1  0  0  0  0
  3  5  1  0  0  0  0
  3 22  1  0  0  0  0
  3 23  1  0  0  0  0
  4  5  1  0  0  0  0
  4 24  1  0  0  0  0
  4 25  1  0  0  0  0
  5  7  1  0  0  0  0
  6  7  1  0  0  0  0
  6 18  1  0  0  0  0
  6 26  1  0  0  0  0
  6 27  1  0  0  0  0
  7  8  1  0  0  0  0
  8 11  1  0  0  0  0
  8 28  1  0  0  0  0
  8 29  1  0  0  0  0
  9 10  1  0  0  0  0
 10 11  2  0  0  0  0
 10 12  1  0  0  0  0
 11 13  1  0  0  0  0
 12 14  2  0  0  0  0
 12 30  1  0  0  0  0
 13 15  2  0  0  0  0
 13 31  1  0  0  0  0
 14 15  1  0  0  0  0
 14 32  1  0  0  0  0
 15 33  1  0  0  0  0
 16 18  1  0  0  0  0
 16 20  2  0  0  0  0
 17 18  1  0  0  0  0
 17 19  2  0  0  0  0
 18 34  1  0  0  0  0
 19 20  1  0  0  0  0
 19 35  1  0  0  0  0
M  END
