./xxx012.hin
 OpenBabel10051109203D

 43 45  0  0  0  0  0  0  0  0999 V2000
    9.7554   -4.3470   -0.0537 Cl  0  0  0  0  0  0  0  0  0  0  0  0
   12.0359   -8.2242   -0.0449 C   0  0  0  0  0  0  0  0  0  0  0  0
   12.8430   -9.4353   -0.0356 C   0  0  0  0  0  0  0  0  0  0  0  0
   13.0752  -12.8939   -2.4991 O   0  0  0  0  0  0  0  0  0  0  0  0
   10.9857  -13.4758    0.4585 C   0  0  0  0  0  0  0  0  0  0  0  0
   11.3207  -12.7867   -0.8525 C   0  0  0  0  0  0  0  0  0  0  0  0
   11.1532  -11.2294   -0.7988 C   0  0  0  0  0  0  0  0  0  0  0  0
   12.8422  -12.9682   -1.0989 C   0  0  0  0  0  0  0  0  0  0  0  0
   12.4937  -10.6886   -0.3485 C   0  0  0  0  0  0  0  0  0  0  0  0
   13.5047  -11.7951   -0.3617 C   0  0  0  0  0  0  0  0  0  0  0  0
    9.9317  -10.7288    0.0045 C   0  0  0  0  0  0  0  0  0  0  0  0
    9.0368  -11.4627    2.2518 C   0  0  0  0  0  0  0  0  0  0  0  0
    9.3613  -11.3079    3.5521 N   0  0  0  0  0  0  0  0  0  0  0  0
    9.9991  -10.8086    1.4465 N   0  0  0  0  0  0  0  0  0  0  0  0
   10.5424  -10.5468    3.5043 C   0  0  0  0  0  0  0  0  0  0  0  0
   10.9298  -10.2423    2.2318 N   0  0  0  0  0  0  0  0  0  0  0  0
   10.8671  -10.7461   -2.1165 O   0  0  0  0  0  0  0  0  0  0  0  0
   10.4789  -13.4033   -1.9529 C   0  0  0  0  0  0  0  0  0  0  0  0
   11.3732   -6.1711    1.0712 C   0  0  0  0  0  0  0  0  0  0  0  0
   10.6166   -5.8137   -0.0496 C   0  0  0  0  0  0  0  0  0  0  0  0
   12.0832   -7.3683    1.0668 C   0  0  0  0  0  0  0  0  0  0  0  0
   10.5636   -6.6532   -1.1657 C   0  0  0  0  0  0  0  0  0  0  0  0
   11.2697   -7.8543   -1.1584 C   0  0  0  0  0  0  0  0  0  0  0  0
   13.8881   -9.2551    0.2888 H   0  0  0  0  0  0  0  0  0  0  0  0
   14.0302  -12.9443   -2.6246 H   0  0  0  0  0  0  0  0  0  0  0  0
    9.8943  -13.3923    0.6790 H   0  0  0  0  0  0  0  0  0  0  0  0
   11.2363  -14.5634    0.3867 H   0  0  0  0  0  0  0  0  0  0  0  0
   11.5707  -13.0377    1.3020 H   0  0  0  0  0  0  0  0  0  0  0  0
   13.2049  -13.9580   -0.7146 H   0  0  0  0  0  0  0  0  0  0  0  0
   14.4470  -11.4778   -0.8747 H   0  0  0  0  0  0  0  0  0  0  0  0
   13.7614  -12.0992    0.6854 H   0  0  0  0  0  0  0  0  0  0  0  0
    9.7721   -9.6463   -0.2855 H   0  0  0  0  0  0  0  0  0  0  0  0
    9.0374  -11.3309   -0.3238 H   0  0  0  0  0  0  0  0  0  0  0  0
    8.1716  -11.9955    1.8467 H   0  0  0  0  0  0  0  0  0  0  0  0
   11.0842  -10.2340    4.4017 H   0  0  0  0  0  0  0  0  0  0  0  0
   11.5752  -11.0746   -2.6893 H   0  0  0  0  0  0  0  0  0  0  0  0
   10.8204  -13.0683   -2.9622 H   0  0  0  0  0  0  0  0  0  0  0  0
   10.5562  -14.5164   -1.9118 H   0  0  0  0  0  0  0  0  0  0  0  0
    9.4106  -13.1053   -1.8234 H   0  0  0  0  0  0  0  0  0  0  0  0
   11.4092   -5.5116    1.9513 H   0  0  0  0  0  0  0  0  0  0  0  0
   12.6757   -7.6558    1.9487 H   0  0  0  0  0  0  0  0  0  0  0  0
    9.9688   -6.3709   -2.0474 H   0  0  0  0  0  0  0  0  0  0  0  0
   11.2210   -8.5244   -2.0334 H   0  0  0  0  0  0  0  0  0  0  0  0
  1 20  1  0  0  0  0
  2  3  1  0  0  0  0
  2 21  2  0  0  0  0
  2 23  1  0  0  0  0
  3  9  2  0  0  0  0
  3 24  1  0  0  0  0
  4  8  1  0  0  0  0
  4 25  1  0  0  0  0
  5  6  1  0  0  0  0
  5 26  1  0  0  0  0
  5 27  1  0  0  0  0
  5 28  1  0  0  0  0
  6  7  1  0  0  0  0
  6  8  1  0  0  0  0
  6 18  1  0  0  0  0
  7  9  1  0  0  0  0
  7 11  1  0  0  0  0
  7 17  1  0  0  0  0
  8 10  1  0  0  0  0
  8 29  1  0  0  0  0
  9 10  1  0  0  0  0
 10 30  1  0  0  0  0
 10 31  1  0  0  0  0
 11 14  1  0  0  0  0
 11 32  1  0  0  0  0
 11 33  1  0  0  0  0
 12 13  2  0  0  0  0
 12 14  1  0  0  0  0
 12 34  1  0  0  0  0
 13 15  1  0  0  0  0
 14 16  1  0  0  0  0
 15 16  2  0  0  0  0
 15 35  1  0  0  0  0
 17 36  1  0  0  0  0
 18 37  1  0  0  0  0
 18 38  1  0  0  0  0
 18 39  1  0  0  0  0
 19 20  2  0  0  0  0
 19 21  1  0  0  0  0
 19 40  1  0  0  0  0
 20 22  1  0  0  0  0
 21 41  1  0  0  0  0
 22 23  2  0  0  0  0
 22 42  1  0  0  0  0
 23 43  1  0  0  0  0
M  END
