./xxx013.hin
 OpenBabel10051109203D

 37 39  0  0  0  0  0  0  0  0999 V2000
    5.7092  -10.8537   -4.4016 O   0  0  0  0  0  0  0  0  0  0  0  0
    3.8965   -8.6612   -3.5917 Cl  0  0  0  0  0  0  0  0  0  0  0  0
    7.6405   -9.8611   -1.4309 C   0  0  0  0  0  0  0  0  0  0  0  0
    8.7520  -10.3544   -0.7523 O   0  0  0  0  0  0  0  0  0  0  0  0
   12.0124   -9.6760    2.9658 Cl  0  0  0  0  0  0  0  0  0  0  0  0
   10.7277   -7.3168   -0.0007 C   0  0  0  0  0  0  0  0  0  0  0  0
    9.8057   -8.1355   -0.6419 C   0  0  0  0  0  0  0  0  0  0  0  0
   11.4358   -7.7505    1.1308 C   0  0  0  0  0  0  0  0  0  0  0  0
    9.5796   -9.4221   -0.1384 C   0  0  0  0  0  0  0  0  0  0  0  0
   11.1976   -9.0473    1.6128 C   0  0  0  0  0  0  0  0  0  0  0  0
   10.2667   -9.8862    0.9909 C   0  0  0  0  0  0  0  0  0  0  0  0
   12.2822   -6.6513    3.1484 O   0  0  0  0  0  0  0  0  0  0  0  0
   12.4118   -6.7833    1.7401 C   0  0  0  0  0  0  0  0  0  0  0  0
   13.8643   -7.2492    1.4771 C   0  0  0  0  0  0  0  0  0  0  0  0
   14.8503   -6.2240    1.7357 N   0  0  0  0  0  0  0  0  0  0  0  0
   15.1302   -5.6660    3.0036 C   0  0  0  0  0  0  0  0  0  0  0  0
   15.6063   -5.6220    0.7974 N   0  0  0  0  0  0  0  0  0  0  0  0
   16.0818   -4.7200    2.8720 N   0  0  0  0  0  0  0  0  0  0  0  0
   16.3554   -4.7197    1.4903 C   0  0  0  0  0  0  0  0  0  0  0  0
    5.7028   -8.4497   -1.6367 C   0  0  0  0  0  0  0  0  0  0  0  0
    6.8596   -8.8045   -0.9489 C   0  0  0  0  0  0  0  0  0  0  0  0
    5.3154   -9.1342   -2.7931 C   0  0  0  0  0  0  0  0  0  0  0  0
    6.1125  -10.1985   -3.2642 C   0  0  0  0  0  0  0  0  0  0  0  0
    7.2852  -10.5639   -2.5874 C   0  0  0  0  0  0  0  0  0  0  0  0
    6.3472  -11.5611   -4.5824 H   0  0  0  0  0  0  0  0  0  0  0  0
   10.9090   -6.3040   -0.3974 H   0  0  0  0  0  0  0  0  0  0  0  0
    9.2611   -7.7831   -1.5307 H   0  0  0  0  0  0  0  0  0  0  0  0
   10.0764  -10.9039    1.3655 H   0  0  0  0  0  0  0  0  0  0  0  0
   11.3413   -6.5703    3.3452 H   0  0  0  0  0  0  0  0  0  0  0  0
   12.2473   -5.7636    1.2787 H   0  0  0  0  0  0  0  0  0  0  0  0
   13.9378   -7.5854    0.4050 H   0  0  0  0  0  0  0  0  0  0  0  0
   14.0911   -8.1182    2.1584 H   0  0  0  0  0  0  0  0  0  0  0  0
   14.6083   -5.9829    3.9142 H   0  0  0  0  0  0  0  0  0  0  0  0
   17.0983   -4.0590    1.0333 H   0  0  0  0  0  0  0  0  0  0  0  0
    5.0810   -7.6207   -1.2614 H   0  0  0  0  0  0  0  0  0  0  0  0
    7.1562   -8.2669   -0.0371 H   0  0  0  0  0  0  0  0  0  0  0  0
    7.9109  -11.3940   -2.9439 H   0  0  0  0  0  0  0  0  0  0  0  0
  1 23  1  0  0  0  0
  1 25  1  0  0  0  0
  2 22  1  0  0  0  0
  3  4  1  0  0  0  0
  3 21  2  0  0  0  0
  3 24  1  0  0  0  0
  4  9  1  0  0  0  0
  5 10  1  0  0  0  0
  6  7  2  0  0  0  0
  6  8  1  0  0  0  0
  6 26  1  0  0  0  0
  7  9  1  0  0  0  0
  7 27  1  0  0  0  0
  8 10  2  0  0  0  0
  8 13  1  0  0  0  0
  9 11  2  0  0  0  0
 10 11  1  0  0  0  0
 11 28  1  0  0  0  0
 12 13  1  0  0  0  0
 12 29  1  0  0  0  0
 13 14  1  0  0  0  0
 13 30  1  0  0  0  0
 14 15  1  0  0  0  0
 14 31  1  0  0  0  0
 14 32  1  0  0  0  0
 15 16  1  0  0  0  0
 15 17  1  0  0  0  0
 16 18  2  0  0  0  0
 16 33  1  0  0  0  0
 17 19  2  0  0  0  0
 18 19  1  0  0  0  0
 19 34  1  0  0  0  0
 20 21  1  0  0  0  0
 20 22  2  0  0  0  0
 20 35  1  0  0  0  0
 21 36  1  0  0  0  0
 22 23  1  0  0  0  0
 23 24  2  0  0  0  0
 24 37  1  0  0  0  0
M  END
