./xxx014.hin
 OpenBabel10051109203D

 29 31  0  0  0  0  0  0  0  0999 V2000
   17.3577  -10.8865   -1.0319 F   0  0  0  0  0  0  0  0  0  0  0  0
   16.0469   -7.4413    2.0605 F   0  0  0  0  0  0  0  0  0  0  0  0
   17.2330   -8.1161   -0.4221 N   0  0  0  0  0  0  0  0  0  0  0  0
   17.5115   -7.1150   -2.6558 O   0  0  0  0  0  0  0  0  0  0  0  0
   15.5209   -8.3760   -2.2224 O   0  0  0  0  0  0  0  0  0  0  0  0
   16.5249   -7.5307   -1.7579 S   0  0  0  0  0  0  0  0  0  0  0  0
   12.1884   -3.6621   -1.5669 F   0  0  0  0  0  0  0  0  0  0  0  0
   16.7507   -2.9028    1.4311 O   0  0  0  0  0  0  0  0  0  0  0  0
   14.5301   -5.6285   -1.5498 N   0  0  0  0  0  0  0  0  0  0  0  0
   15.5464   -4.2222   -0.0819 N   0  0  0  0  0  0  0  0  0  0  0  0
   14.6073   -2.1504    0.7388 N   0  0  0  0  0  0  0  0  0  0  0  0
   13.4841   -2.3680   -0.0193 C   0  0  0  0  0  0  0  0  0  0  0  0
   15.5965   -3.0474    0.7034 C   0  0  0  0  0  0  0  0  0  0  0  0
   14.3613   -4.4608   -0.8878 C   0  0  0  0  0  0  0  0  0  0  0  0
   13.3000   -3.4756   -0.8353 C   0  0  0  0  0  0  0  0  0  0  0  0
   16.4135   -5.2214   -0.2522 N   0  0  0  0  0  0  0  0  0  0  0  0
   15.8004   -6.0700   -1.1369 C   0  0  0  0  0  0  0  0  0  0  0  0
   16.7026   -9.0931    0.4363 C   0  0  0  0  0  0  0  0  0  0  0  0
   16.1077   -8.7396    1.6821 C   0  0  0  0  0  0  0  0  0  0  0  0
   16.7720  -10.4798    0.1169 C   0  0  0  0  0  0  0  0  0  0  0  0
   15.5812   -9.7209    2.5388 C   0  0  0  0  0  0  0  0  0  0  0  0
   16.2320  -11.4484    0.9819 C   0  0  0  0  0  0  0  0  0  0  0  0
   15.6420  -11.0625    2.1790 C   0  0  0  0  0  0  0  0  0  0  0  0
   18.0892   -7.7317   -0.0844 H   0  0  0  0  0  0  0  0  0  0  0  0
   16.6966   -2.0664    1.9311 H   0  0  0  0  0  0  0  0  0  0  0  0
   12.7148   -1.5784    0.0664 H   0  0  0  0  0  0  0  0  0  0  0  0
   15.1228   -9.4112    3.4897 H   0  0  0  0  0  0  0  0  0  0  0  0
   16.2874  -12.5094    0.6947 H   0  0  0  0  0  0  0  0  0  0  0  0
   15.2204  -11.8268    2.8510 H   0  0  0  0  0  0  0  0  0  0  0  0
  1 20  1  0  0  0  0
  2 19  1  0  0  0  0
  3  6  1  0  0  0  0
  3 18  1  0  0  0  0
  3 24  1  0  0  0  0
  4  6  2  0  0  0  0
  5  6  2  0  0  0  0
  6 17  1  0  0  0  0
  7 15  1  0  0  0  0
  8 13  1  0  0  0  0
  8 25  1  0  0  0  0
  9 14  2  0  0  0  0
  9 17  1  0  0  0  0
 10 13  1  0  0  0  0
 10 14  1  0  0  0  0
 10 16  1  0  0  0  0
 11 12  1  0  0  0  0
 11 13  2  0  0  0  0
 12 15  2  0  0  0  0
 12 26  1  0  0  0  0
 14 15  1  0  0  0  0
 16 17  2  0  0  0  0
 18 19  2  0  0  0  0
 18 20  1  0  0  0  0
 19 21  1  0  0  0  0
 20 22  2  0  0  0  0
 21 23  2  0  0  0  0
 21 27  1  0  0  0  0
 22 23  1  0  0  0  0
 22 28  1  0  0  0  0
 23 29  1  0  0  0  0
M  END
