./xxx015.hin
 OpenBabel10051109203D

 26 27  0  0  0  0  0  0  0  0999 V2000
   12.9692   -9.3557   -1.9879 F   0  0  0  0  0  0  0  0  0  0  0  0
    8.8285   -9.1559   -0.3049 O   0  0  0  0  0  0  0  0  0  0  0  0
    9.0435   -7.5127   -2.0347 O   0  0  0  0  0  0  0  0  0  0  0  0
    9.0240   -7.8177   -0.6734 S   0  0  0  0  0  0  0  0  0  0  0  0
   12.5809   -3.9208    1.6012 O   0  0  0  0  0  0  0  0  0  0  0  0
   14.3551   -5.0282    0.8516 O   0  0  0  0  0  0  0  0  0  0  0  0
   13.0168   -4.9496    1.0846 C   0  0  0  0  0  0  0  0  0  0  0  0
   11.7093   -8.1725    0.2585 N   0  0  0  0  0  0  0  0  0  0  0  0
   10.5907   -7.3542   -0.0392 C   0  0  0  0  0  0  0  0  0  0  0  0
   12.7320   -7.4354    0.6824 N   0  0  0  0  0  0  0  0  0  0  0  0
   10.9295   -6.0697    0.2235 N   0  0  0  0  0  0  0  0  0  0  0  0
   12.2584   -6.1417    0.6701 C   0  0  0  0  0  0  0  0  0  0  0  0
    8.0478   -6.8681    0.1290 N   0  0  0  0  0  0  0  0  0  0  0  0
   12.4300  -10.1522   -1.0406 C   0  0  0  0  0  0  0  0  0  0  0  0
   12.5022  -11.5480   -1.1923 C   0  0  0  0  0  0  0  0  0  0  0  0
   11.7910   -9.5897    0.0988 C   0  0  0  0  0  0  0  0  0  0  0  0
   11.9600  -12.3832   -0.2216 C   0  0  0  0  0  0  0  0  0  0  0  0
   11.2680  -10.4661    1.0887 C   0  0  0  0  0  0  0  0  0  0  0  0
   11.3501  -11.8593    0.9120 C   0  0  0  0  0  0  0  0  0  0  0  0
   10.6866   -9.9756    2.2036 F   0  0  0  0  0  0  0  0  0  0  0  0
   14.7770   -4.2057    1.1549 H   0  0  0  0  0  0  0  0  0  0  0  0
    7.5765   -7.1384    0.9583 H   0  0  0  0  0  0  0  0  0  0  0  0
    7.9135   -5.9080   -0.0833 H   0  0  0  0  0  0  0  0  0  0  0  0
   12.9913  -11.9621   -2.0871 H   0  0  0  0  0  0  0  0  0  0  0  0
   12.0168  -13.4762   -0.3523 H   0  0  0  0  0  0  0  0  0  0  0  0
   10.9223  -12.5192    1.6819 H   0  0  0  0  0  0  0  0  0  0  0  0
  1 14  1  0  0  0  0
  2  4  2  0  0  0  0
  3  4  2  0  0  0  0
  4  9  1  0  0  0  0
  4 13  1  0  0  0  0
  5  7  2  0  0  0  0
  6  7  1  0  0  0  0
  6 21  1  0  0  0  0
  7 12  1  0  0  0  0
  8  9  1  0  0  0  0
  8 10  1  0  0  0  0
  8 16  1  0  0  0  0
  9 11  2  0  0  0  0
 10 12  2  0  0  0  0
 11 12  1  0  0  0  0
 13 22  1  0  0  0  0
 13 23  1  0  0  0  0
 14 15  2  0  0  0  0
 14 16  1  0  0  0  0
 15 17  1  0  0  0  0
 15 24  1  0  0  0  0
 16 18  2  0  0  0  0
 17 19  2  0  0  0  0
 17 25  1  0  0  0  0
 18 19  1  0  0  0  0
 18 20  1  0  0  0  0
 19 26  1  0  0  0  0
M  END
