./xxx017.hin
 OpenBabel10051109203D

 41 44  0  0  0  0  0  0  0  0999 V2000
   11.6504  -13.0701    2.6922 Cl  0  0  0  0  0  0  0  0  0  0  0  0
   16.1606  -11.5728   -0.9438 C   0  0  0  0  0  0  0  0  0  0  0  0
   16.3389  -10.0540   -1.1236 C   0  0  0  0  0  0  0  0  0  0  0  0
   17.4218  -12.1044   -0.4773 O   0  0  0  0  0  0  0  0  0  0  0  0
   17.8319   -9.7659   -0.8872 C   0  0  0  0  0  0  0  0  0  0  0  0
   18.3773  -11.1131   -0.4297 C   0  0  0  0  0  0  0  0  0  0  0  0
   17.4842   -8.9644    1.4914 N   0  0  0  0  0  0  0  0  0  0  0  0
   16.4597   -8.1878    2.0830 C   0  0  0  0  0  0  0  0  0  0  0  0
   17.8143   -9.9779    2.3141 N   0  0  0  0  0  0  0  0  0  0  0  0
   16.1493   -8.7051    3.2873 N   0  0  0  0  0  0  0  0  0  0  0  0
   17.0078   -9.8170    3.3994 C   0  0  0  0  0  0  0  0  0  0  0  0
   18.0943   -8.7067    0.2080 C   0  0  0  0  0  0  0  0  0  0  0  0
   19.4854  -11.4573   -0.0414 O   0  0  0  0  0  0  0  0  0  0  0  0
   18.4951   -9.2678   -2.1414 C   0  0  0  0  0  0  0  0  0  0  0  0
   20.2575   -9.3407   -3.8017 C   0  0  0  0  0  0  0  0  0  0  0  0
   19.6805   -8.2676   -4.4775 C   0  0  0  0  0  0  0  0  0  0  0  0
   19.6716   -9.8388   -2.6370 C   0  0  0  0  0  0  0  0  0  0  0  0
   18.5116   -7.6873   -3.9831 C   0  0  0  0  0  0  0  0  0  0  0  0
   17.9231   -8.1825   -2.8225 C   0  0  0  0  0  0  0  0  0  0  0  0
   15.0592  -11.9358   -0.0010 C   0  0  0  0  0  0  0  0  0  0  0  0
   15.2742  -12.8005    1.0759 C   0  0  0  0  0  0  0  0  0  0  0  0
   14.2188  -13.1535    1.9158 C   0  0  0  0  0  0  0  0  0  0  0  0
   12.9414  -12.6407    1.6735 C   0  0  0  0  0  0  0  0  0  0  0  0
   13.7751  -11.4279   -0.2361 C   0  0  0  0  0  0  0  0  0  0  0  0
   12.7156  -11.7762    0.5966 C   0  0  0  0  0  0  0  0  0  0  0  0
   15.9771  -12.0746   -1.9369 H   0  0  0  0  0  0  0  0  0  0  0  0
   15.6943   -9.4935   -0.4026 H   0  0  0  0  0  0  0  0  0  0  0  0
   16.0282   -9.7618   -2.1574 H   0  0  0  0  0  0  0  0  0  0  0  0
   16.0225   -7.3033    1.6112 H   0  0  0  0  0  0  0  0  0  0  0  0
   17.0161  -10.4751    4.2743 H   0  0  0  0  0  0  0  0  0  0  0  0
   19.2140   -8.6384    0.3460 H   0  0  0  0  0  0  0  0  0  0  0  0
   17.7029   -7.7152   -0.1568 H   0  0  0  0  0  0  0  0  0  0  0  0
   21.1817   -9.8009   -4.1831 H   0  0  0  0  0  0  0  0  0  0  0  0
   20.1442   -7.8775   -5.3955 H   0  0  0  0  0  0  0  0  0  0  0  0
   20.1521  -10.6807   -2.1106 H   0  0  0  0  0  0  0  0  0  0  0  0
   18.0533   -6.8369   -4.5095 H   0  0  0  0  0  0  0  0  0  0  0  0
   17.0021   -7.7174   -2.4391 H   0  0  0  0  0  0  0  0  0  0  0  0
   16.2844  -13.2022    1.2610 H   0  0  0  0  0  0  0  0  0  0  0  0
   14.3953  -13.8329    2.7636 H   0  0  0  0  0  0  0  0  0  0  0  0
   13.6007  -10.7505   -1.0856 H   0  0  0  0  0  0  0  0  0  0  0  0
   11.7091  -11.3738    0.4076 H   0  0  0  0  0  0  0  0  0  0  0  0
  1 23  1  0  0  0  0
  2  3  1  0  0  0  0
  2  4  1  0  0  0  0
  2 20  1  0  0  0  0
  2 26  1  0  0  0  0
  3  5  1  0  0  0  0
  3 27  1  0  0  0  0
  3 28  1  0  0  0  0
  4  6  1  0  0  0  0
  5  6  1  0  0  0  0
  5 12  1  0  0  0  0
  5 14  1  0  0  0  0
  6 13  2  0  0  0  0
  7  8  1  0  0  0  0
  7  9  1  0  0  0  0
  7 12  1  0  0  0  0
  8 10  2  0  0  0  0
  8 29  1  0  0  0  0
  9 11  2  0  0  0  0
 10 11  1  0  0  0  0
 11 30  1  0  0  0  0
 12 31  1  0  0  0  0
 12 32  1  0  0  0  0
 14 17  1  0  0  0  0
 14 19  2  0  0  0  0
 15 16  1  0  0  0  0
 15 17  2  0  0  0  0
 15 33  1  0  0  0  0
 16 18  2  0  0  0  0
 16 34  1  0  0  0  0
 17 35  1  0  0  0  0
 18 19  1  0  0  0  0
 18 36  1  0  0  0  0
 19 37  1  0  0  0  0
 20 21  2  0  0  0  0
 20 24  1  0  0  0  0
 21 22  1  0  0  0  0
 21 38  1  0  0  0  0
 22 23  2  0  0  0  0
 22 39  1  0  0  0  0
 23 25  1  0  0  0  0
 24 25  2  0  0  0  0
 24 40  1  0  0  0  0
 25 41  1  0  0  0  0
M  END
