./xxx018.hin
 OpenBabel10051109203D

 40 42  0  0  0  0  0  0  0  0999 V2000
   14.6049  -10.7537   -0.9247 C   0  0  0  0  0  0  0  0  0  0  0  0
   16.8349  -10.3640    0.1126 C   0  0  0  0  0  0  0  0  0  0  0  0
   15.2720   -8.5478    1.6847 O   0  0  0  0  0  0  0  0  0  0  0  0
   13.1043   -6.7091    1.7692 C   0  0  0  0  0  0  0  0  0  0  0  0
   13.9871   -6.8273    0.6867 C   0  0  0  0  0  0  0  0  0  0  0  0
   12.2185   -5.6373    1.8452 C   0  0  0  0  0  0  0  0  0  0  0  0
   13.9874   -5.8468   -0.3128 C   0  0  0  0  0  0  0  0  0  0  0  0
   12.2233   -4.6673    0.8373 C   0  0  0  0  0  0  0  0  0  0  0  0
   13.1110   -4.7670   -0.2401 C   0  0  0  0  0  0  0  0  0  0  0  0
   11.1480   -3.3571    0.9228 Cl  0  0  0  0  0  0  0  0  0  0  0  0
   14.9092   -7.9844    0.6428 C   0  0  0  0  0  0  0  0  0  0  0  0
   15.3867   -8.3834   -0.7247 C   0  0  0  0  0  0  0  0  0  0  0  0
   15.8120   -9.8458   -0.9393 C   0  0  0  0  0  0  0  0  0  0  0  0
   16.4823   -9.8890   -2.2428 C   0  0  0  0  0  0  0  0  0  0  0  0
   18.0281   -9.5607    0.2421 N   0  0  0  0  0  0  0  0  0  0  0  0
   18.3363   -8.7205    1.3382 C   0  0  0  0  0  0  0  0  0  0  0  0
   19.0233   -9.5059   -0.6644 N   0  0  0  0  0  0  0  0  0  0  0  0
   19.5331   -8.1391    1.1279 N   0  0  0  0  0  0  0  0  0  0  0  0
   19.9319   -8.6478   -0.1245 C   0  0  0  0  0  0  0  0  0  0  0  0
   14.0988  -11.2983   -2.1116 C   0  0  0  0  0  0  0  0  0  0  0  0
   12.9836  -12.1358   -2.0870 C   0  0  0  0  0  0  0  0  0  0  0  0
   12.3575  -12.4385   -0.8794 C   0  0  0  0  0  0  0  0  0  0  0  0
   13.9626  -11.0551    0.2843 C   0  0  0  0  0  0  0  0  0  0  0  0
   12.8495  -11.8931    0.3058 C   0  0  0  0  0  0  0  0  0  0  0  0
   17.0537   -9.9031   -3.2544 N   0  0  0  0  0  0  0  0  0  0  0  0
   17.1258  -11.4129   -0.1851 H   0  0  0  0  0  0  0  0  0  0  0  0
   16.3445  -10.3927    1.1267 H   0  0  0  0  0  0  0  0  0  0  0  0
   13.1214   -7.4717    2.5651 H   0  0  0  0  0  0  0  0  0  0  0  0
   11.5245   -5.5543    2.6957 H   0  0  0  0  0  0  0  0  0  0  0  0
   14.6888   -5.9126   -1.1596 H   0  0  0  0  0  0  0  0  0  0  0  0
   13.1193   -3.9970   -1.0269 H   0  0  0  0  0  0  0  0  0  0  0  0
   14.5728   -8.1622   -1.4690 H   0  0  0  0  0  0  0  0  0  0  0  0
   16.2596   -7.7122   -0.9643 H   0  0  0  0  0  0  0  0  0  0  0  0
   17.6653   -8.5938    2.1970 H   0  0  0  0  0  0  0  0  0  0  0  0
   20.8784   -8.3751   -0.6019 H   0  0  0  0  0  0  0  0  0  0  0  0
   14.5684  -11.0766   -3.0824 H   0  0  0  0  0  0  0  0  0  0  0  0
   12.6005  -12.5581   -3.0282 H   0  0  0  0  0  0  0  0  0  0  0  0
   11.4804  -13.1020   -0.8612 H   0  0  0  0  0  0  0  0  0  0  0  0
   14.3238  -10.6213    1.2310 H   0  0  0  0  0  0  0  0  0  0  0  0
   12.3592  -12.1226    1.2637 H   0  0  0  0  0  0  0  0  0  0  0  0
  1 13  1  0  0  0  0
  1 20  2  0  0  0  0
  1 23  1  0  0  0  0
  2 13  1  0  0  0  0
  2 15  1  0  0  0  0
  2 26  1  0  0  0  0
  2 27  1  0  0  0  0
  3 11  2  0  0  0  0
  4  5  2  0  0  0  0
  4  6  1  0  0  0  0
  4 28  1  0  0  0  0
  5  7  1  0  0  0  0
  5 11  1  0  0  0  0
  6  8  2  0  0  0  0
  6 29  1  0  0  0  0
  7  9  2  0  0  0  0
  7 30  1  0  0  0  0
  8  9  1  0  0  0  0
  8 10  1  0  0  0  0
  9 31  1  0  0  0  0
 11 12  1  0  0  0  0
 12 13  1  0  0  0  0
 12 32  1  0  0  0  0
 12 33  1  0  0  0  0
 13 14  1  0  0  0  0
 14 25  3  0  0  0  0
 15 16  1  0  0  0  0
 15 17  1  0  0  0  0
 16 18  2  0  0  0  0
 16 34  1  0  0  0  0
 17 19  2  0  0  0  0
 18 19  1  0  0  0  0
 19 35  1  0  0  0  0
 20 21  1  0  0  0  0
 20 36  1  0  0  0  0
 21 22  2  0  0  0  0
 21 37  1  0  0  0  0
 22 24  1  0  0  0  0
 22 38  1  0  0  0  0
 23 24  2  0  0  0  0
 23 39  1  0  0  0  0
 24 40  1  0  0  0  0
M  END
