./xxx020.hin
 OpenBabel10051109203D

 40 42  0  0  0  0  0  0  0  0999 V2000
   14.4026   -3.9634   -4.4965 Cl  0  0  0  0  0  0  0  0  0  0  0  0
   14.9036   -4.7483    0.7294 Cl  0  0  0  0  0  0  0  0  0  0  0  0
   11.7318   -4.8964   -1.7108 C   0  0  0  0  0  0  0  0  0  0  0  0
   13.6838   -4.3421   -3.0066 C   0  0  0  0  0  0  0  0  0  0  0  0
   12.3071   -4.5793   -2.9364 C   0  0  0  0  0  0  0  0  0  0  0  0
   14.4705   -4.4112   -1.8566 C   0  0  0  0  0  0  0  0  0  0  0  0
   13.8787   -4.7232   -0.6243 C   0  0  0  0  0  0  0  0  0  0  0  0
   12.5021   -4.9823   -0.5419 C   0  0  0  0  0  0  0  0  0  0  0  0
   11.0543   -9.5299   -3.2428 O   0  0  0  0  0  0  0  0  0  0  0  0
   10.1267   -9.1252   -2.2556 C   0  0  0  0  0  0  0  0  0  0  0  0
   10.8043   -8.3756   -1.1202 C   0  0  0  0  0  0  0  0  0  0  0  0
    9.8371   -8.1367    0.0151 C   0  0  0  0  0  0  0  0  0  0  0  0
   10.3348   -7.1591    1.0644 C   0  0  0  0  0  0  0  0  0  0  0  0
   10.4938   -5.8506    0.4847 O   0  0  0  0  0  0  0  0  0  0  0  0
   11.6950   -7.4828    1.6797 C   0  0  0  0  0  0  0  0  0  0  0  0
   12.4905   -6.3068    1.5017 O   0  0  0  0  0  0  0  0  0  0  0  0
   11.7932   -5.3178    0.7545 C   0  0  0  0  0  0  0  0  0  0  0  0
   11.6507   -4.0113    1.5912 C   0  0  0  0  0  0  0  0  0  0  0  0
   10.8790   -4.1503    2.8024 N   0  0  0  0  0  0  0  0  0  0  0  0
   11.3868   -4.1507    4.0493 N   0  0  0  0  0  0  0  0  0  0  0  0
    9.4817   -4.3613    2.8591 C   0  0  0  0  0  0  0  0  0  0  0  0
    9.1009   -4.4805    4.1467 N   0  0  0  0  0  0  0  0  0  0  0  0
   10.3083   -4.3431    4.8591 C   0  0  0  0  0  0  0  0  0  0  0  0
   10.6458   -5.0848   -1.6541 H   0  0  0  0  0  0  0  0  0  0  0  0
   11.6827   -4.5146   -3.8405 H   0  0  0  0  0  0  0  0  0  0  0  0
   15.5545   -4.2192   -1.9127 H   0  0  0  0  0  0  0  0  0  0  0  0
   11.5127   -8.7385   -3.5491 H   0  0  0  0  0  0  0  0  0  0  0  0
    9.3240   -8.4904   -2.7191 H   0  0  0  0  0  0  0  0  0  0  0  0
    9.6718  -10.0848   -1.8890 H   0  0  0  0  0  0  0  0  0  0  0  0
   11.6874   -8.9718   -0.7698 H   0  0  0  0  0  0  0  0  0  0  0  0
   11.1943   -7.3906   -1.4943 H   0  0  0  0  0  0  0  0  0  0  0  0
    9.6099   -9.1069    0.5312 H   0  0  0  0  0  0  0  0  0  0  0  0
    8.8729   -7.7359   -0.3993 H   0  0  0  0  0  0  0  0  0  0  0  0
    9.5483   -7.0407    1.8635 H   0  0  0  0  0  0  0  0  0  0  0  0
   12.2236   -8.3260    1.1686 H   0  0  0  0  0  0  0  0  0  0  0  0
   11.6376   -7.6683    2.7822 H   0  0  0  0  0  0  0  0  0  0  0  0
   12.6907   -3.6568    1.8423 H   0  0  0  0  0  0  0  0  0  0  0  0
   11.1327   -3.2524    0.9397 H   0  0  0  0  0  0  0  0  0  0  0  0
    8.8547   -4.4194    1.9632 H   0  0  0  0  0  0  0  0  0  0  0  0
   10.3606   -4.3832    5.9514 H   0  0  0  0  0  0  0  0  0  0  0  0
  1  4  1  0  0  0  0
  2  7  1  0  0  0  0
  3  5  2  0  0  0  0
  3  8  1  0  0  0  0
  3 24  1  0  0  0  0
  4  5  1  0  0  0  0
  4  6  2  0  0  0  0
  5 25  1  0  0  0  0
  6  7  1  0  0  0  0
  6 26  1  0  0  0  0
  7  8  2  0  0  0  0
  8 17  1  0  0  0  0
  9 10  1  0  0  0  0
  9 27  1  0  0  0  0
 10 11  1  0  0  0  0
 10 28  1  0  0  0  0
 10 29  1  0  0  0  0
 11 12  1  0  0  0  0
 11 30  1  0  0  0  0
 11 31  1  0  0  0  0
 12 13  1  0  0  0  0
 12 32  1  0  0  0  0
 12 33  1  0  0  0  0
 13 14  1  0  0  0  0
 13 15  1  0  0  0  0
 13 34  1  0  0  0  0
 14 17  1  0  0  0  0
 15 16  1  0  0  0  0
 15 35  1  0  0  0  0
 15 36  1  0  0  0  0
 16 17  1  0  0  0  0
 17 18  1  0  0  0  0
 18 19  1  0  0  0  0
 18 37  1  0  0  0  0
 18 38  1  0  0  0  0
 19 20  1  0  0  0  0
 19 21  1  0  0  0  0
 20 23  2  0  0  0  0
 21 22  2  0  0  0  0
 21 39  1  0  0  0  0
 22 23  1  0  0  0  0
 23 40  1  0  0  0  0
M  END
