./xxx021.hin
 OpenBabel10051109203D

 41 44  0  0  0  0  0  0  0  0999 V2000
   12.3299  -14.6456    3.1182 Cl  0  0  0  0  0  0  0  0  0  0  0  0
   15.5282  -11.6891   -0.9858 C   0  0  0  0  0  0  0  0  0  0  0  0
   15.4929  -10.1626   -0.7999 C   0  0  0  0  0  0  0  0  0  0  0  0
   16.9156  -12.0910   -0.9642 O   0  0  0  0  0  0  0  0  0  0  0  0
   16.9578   -9.6848   -0.8961 C   0  0  0  0  0  0  0  0  0  0  0  0
   17.7433  -10.9880   -0.8842 C   0  0  0  0  0  0  0  0  0  0  0  0
   18.9389  -11.2400   -0.8341 O   0  0  0  0  0  0  0  0  0  0  0  0
   14.7580  -12.4255    0.0631 C   0  0  0  0  0  0  0  0  0  0  0  0
   15.3336  -13.4699    0.7923 C   0  0  0  0  0  0  0  0  0  0  0  0
   14.5836  -14.1609    1.7429 C   0  0  0  0  0  0  0  0  0  0  0  0
   13.2493  -13.8065    1.9614 C   0  0  0  0  0  0  0  0  0  0  0  0
   13.4195  -12.0794    0.2875 C   0  0  0  0  0  0  0  0  0  0  0  0
   12.6628  -12.7653    1.2332 C   0  0  0  0  0  0  0  0  0  0  0  0
   18.5128   -8.7103   -2.6422 N   0  0  0  0  0  0  0  0  0  0  0  0
   19.2750   -7.5724   -2.2839 C   0  0  0  0  0  0  0  0  0  0  0  0
   19.2730   -9.5496   -3.3762 N   0  0  0  0  0  0  0  0  0  0  0  0
   20.5119   -7.6852   -2.8028 N   0  0  0  0  0  0  0  0  0  0  0  0
   20.4771   -8.9254   -3.4740 C   0  0  0  0  0  0  0  0  0  0  0  0
   17.1479   -8.9720   -2.2604 C   0  0  0  0  0  0  0  0  0  0  0  0
   17.2986   -8.7558    0.2279 C   0  0  0  0  0  0  0  0  0  0  0  0
   18.7309   -8.0014    2.0302 C   0  0  0  0  0  0  0  0  0  0  0  0
   17.8540   -6.9547    2.3052 C   0  0  0  0  0  0  0  0  0  0  0  0
   18.4582   -8.8989    0.9961 C   0  0  0  0  0  0  0  0  0  0  0  0
   16.6970   -6.8028    1.5392 C   0  0  0  0  0  0  0  0  0  0  0  0
   16.4211   -7.6958    0.5080 C   0  0  0  0  0  0  0  0  0  0  0  0
   15.1464  -11.9836   -2.0047 H   0  0  0  0  0  0  0  0  0  0  0  0
   15.0622   -9.9040    0.2007 H   0  0  0  0  0  0  0  0  0  0  0  0
   14.8528   -9.6889   -1.5833 H   0  0  0  0  0  0  0  0  0  0  0  0
   16.3855  -13.7475    0.6125 H   0  0  0  0  0  0  0  0  0  0  0  0
   15.0436  -14.9813    2.3149 H   0  0  0  0  0  0  0  0  0  0  0  0
   12.9610  -11.2607   -0.2876 H   0  0  0  0  0  0  0  0  0  0  0  0
   11.6115  -12.4895    1.4049 H   0  0  0  0  0  0  0  0  0  0  0  0
   18.8809   -6.7504   -1.6788 H   0  0  0  0  0  0  0  0  0  0  0  0
   21.3395   -9.3335   -4.0106 H   0  0  0  0  0  0  0  0  0  0  0  0
   16.6626   -9.6069   -3.0577 H   0  0  0  0  0  0  0  0  0  0  0  0
   16.6144   -7.9801   -2.2041 H   0  0  0  0  0  0  0  0  0  0  0  0
   19.6470   -8.1261    2.6274 H   0  0  0  0  0  0  0  0  0  0  0  0
   18.0710   -6.2503    3.1217 H   0  0  0  0  0  0  0  0  0  0  0  0
   19.1719   -9.7145    0.7895 H   0  0  0  0  0  0  0  0  0  0  0  0
   16.0005   -5.9781    1.7509 H   0  0  0  0  0  0  0  0  0  0  0  0
   15.5051   -7.5715   -0.0896 H   0  0  0  0  0  0  0  0  0  0  0  0
  1 11  1  0  0  0  0
  2  3  1  0  0  0  0
  2  4  1  0  0  0  0
  2  8  1  0  0  0  0
  2 26  1  0  0  0  0
  3  5  1  0  0  0  0
  3 27  1  0  0  0  0
  3 28  1  0  0  0  0
  4  6  1  0  0  0  0
  5  6  1  0  0  0  0
  5 19  1  0  0  0  0
  5 20  1  0  0  0  0
  6  7  2  0  0  0  0
  8  9  2  0  0  0  0
  8 12  1  0  0  0  0
  9 10  1  0  0  0  0
  9 29  1  0  0  0  0
 10 11  2  0  0  0  0
 10 30  1  0  0  0  0
 11 13  1  0  0  0  0
 12 13  2  0  0  0  0
 12 31  1  0  0  0  0
 13 32  1  0  0  0  0
 14 15  1  0  0  0  0
 14 16  1  0  0  0  0
 14 19  1  0  0  0  0
 15 17  2  0  0  0  0
 15 33  1  0  0  0  0
 16 18  2  0  0  0  0
 17 18  1  0  0  0  0
 18 34  1  0  0  0  0
 19 35  1  0  0  0  0
 19 36  1  0  0  0  0
 20 23  1  0  0  0  0
 20 25  2  0  0  0  0
 21 22  1  0  0  0  0
 21 23  2  0  0  0  0
 21 37  1  0  0  0  0
 22 24  2  0  0  0  0
 22 38  1  0  0  0  0
 23 39  1  0  0  0  0
 24 25  1  0  0  0  0
 24 40  1  0  0  0  0
 25 41  1  0  0  0  0
M  END
