./007767-15-7.hin
 OpenBabel10071114553D

 18 18  0  0  0  0  0  0  0  0999 V2000
   -1.2521   -0.5866    0.0000 N   0  0  0  0  0  0  0  0  0  0  0  0
   -0.0260   -1.2505   -0.0000 C   0  0  0  0  0  0  0  0  0  0  0  0
    1.2206   -0.6333    0.0000 N   0  0  0  0  0  0  0  0  0  0  0  0
    1.2178    0.7182    0.0000 C   0  0  0  0  0  0  0  0  0  0  0  0
    0.0249    1.4684    0.0000 C   0  0  0  0  0  0  0  0  0  0  0  0
   -1.1974    0.7603    0.0000 C   0  0  0  0  0  0  0  0  0  0  0  0
   -2.4680    1.5491    0.0000 C   0  0  0  0  0  0  0  0  0  0  0  0
    2.5298    1.4370    0.0000 C   0  0  0  0  0  0  0  0  0  0  0  0
   -0.0525   -2.6349   -0.0000 N   0  0  0  0  0  0  0  0  0  0  0  0
    0.0376    2.5626    0.0000 H   0  0  0  0  0  0  0  0  0  0  0  0
   -2.4933    2.1994   -0.9090 H   0  0  0  0  0  0  0  0  0  0  0  0
   -3.3762    0.8985   -0.0000 H   0  0  0  0  0  0  0  0  0  0  0  0
   -2.4933    2.1994    0.9091 H   0  0  0  0  0  0  0  0  0  0  0  0
    3.1245    1.1615   -0.9063 H   0  0  0  0  0  0  0  0  0  0  0  0
    2.3635    2.5411   -0.0000 H   0  0  0  0  0  0  0  0  0  0  0  0
    3.1245    1.1615    0.9063 H   0  0  0  0  0  0  0  0  0  0  0  0
   -0.9187   -3.1091   -0.0000 H   0  0  0  0  0  0  0  0  0  0  0  0
    0.7943   -3.1428   -0.0000 H   0  0  0  0  0  0  0  0  0  0  0  0
  1  2  2  0  0  0  0
  1  6  1  0  0  0  0
  2  3  1  0  0  0  0
  2  9  1  0  0  0  0
  3  4  2  0  0  0  0
  4  5  1  0  0  0  0
  4  8  1  0  0  0  0
  5  6  2  0  0  0  0
  5 10  1  0  0  0  0
  6  7  1  0  0  0  0
  7 11  1  0  0  0  0
  7 12  1  0  0  0  0
  7 13  1  0  0  0  0
  8 14  1  0  0  0  0
  8 15  1  0  0  0  0
  8 16  1  0  0  0  0
  9 17  1  0  0  0  0
  9 18  1  0  0  0  0
M  END
