./036315-01-2.hin
 OpenBabel10071114553D

 20 20  0  0  0  0  0  0  0  0999 V2000
   -1.1048   -1.0664   -0.0000 N   0  0  0  0  0  0  0  0  0  0  0  0
    0.1653   -1.6419   -0.0000 C   0  0  0  0  0  0  0  0  0  0  0  0
    1.3722   -0.9495    0.0000 N   0  0  0  0  0  0  0  0  0  0  0  0
    1.2613    0.4042    0.0000 C   0  0  0  0  0  0  0  0  0  0  0  0
    0.0355    1.1017    0.0000 C   0  0  0  0  0  0  0  0  0  0  0  0
   -1.1241    0.2869   -0.0000 C   0  0  0  0  0  0  0  0  0  0  0  0
   -2.3111    0.9836    0.0000 O   0  0  0  0  0  0  0  0  0  0  0  0
   -3.5257    0.2313   -0.0000 C   0  0  0  0  0  0  0  0  0  0  0  0
    2.4895    1.0335    0.0000 O   0  0  0  0  0  0  0  0  0  0  0  0
    2.4511    2.4590   -0.0000 C   0  0  0  0  0  0  0  0  0  0  0  0
    0.2326   -3.0227   -0.0000 N   0  0  0  0  0  0  0  0  0  0  0  0
   -0.0497    2.1900   -0.0000 H   0  0  0  0  0  0  0  0  0  0  0  0
   -4.3122    1.0284    0.0000 H   0  0  0  0  0  0  0  0  0  0  0  0
   -3.5967   -0.3997   -0.9178 H   0  0  0  0  0  0  0  0  0  0  0  0
   -3.5967   -0.3997    0.9178 H   0  0  0  0  0  0  0  0  0  0  0  0
    3.5361    2.7378   -0.0000 H   0  0  0  0  0  0  0  0  0  0  0  0
    1.9432    2.8395   -0.9188 H   0  0  0  0  0  0  0  0  0  0  0  0
    1.9432    2.8395    0.9188 H   0  0  0  0  0  0  0  0  0  0  0  0
   -0.5985   -3.5565    0.0000 H   0  0  0  0  0  0  0  0  0  0  0  0
    1.1137   -3.4709    0.0000 H   0  0  0  0  0  0  0  0  0  0  0  0
  1  2  2  0  0  0  0
  1  6  1  0  0  0  0
  2  3  1  0  0  0  0
  2 11  1  0  0  0  0
  3  4  2  0  0  0  0
  4  5  1  0  0  0  0
  4  9  1  0  0  0  0
  5  6  2  0  0  0  0
  5 12  1  0  0  0  0
  6  7  1  0  0  0  0
  7  8  1  0  0  0  0
  8 13  1  0  0  0  0
  8 14  1  0  0  0  0
  8 15  1  0  0  0  0
  9 10  1  0  0  0  0
 10 16  1  0  0  0  0
 10 17  1  0  0  0  0
 10 18  1  0  0  0  0
 11 19  1  0  0  0  0
 11 20  1  0  0  0  0
M  END
