./064902-72-3.hin
 OpenBabel10071114553D

 35 36  0  0  0  0  0  0  0  0999 V2000
   -5.7830   -2.8945   -0.5687 C   0  0  0  0  0  0  0  0  0  0  0  0
   -4.5358   -3.5064   -0.4426 C   0  0  0  0  0  0  0  0  0  0  0  0
   -3.4638   -2.7906    0.0799 C   0  0  0  0  0  0  0  0  0  0  0  0
   -3.6015   -1.4546    0.4921 C   0  0  0  0  0  0  0  0  0  0  0  0
   -4.8637   -0.8586    0.3441 C   0  0  0  0  0  0  0  0  0  0  0  0
   -5.9500   -1.5676   -0.1762 C   0  0  0  0  0  0  0  0  0  0  0  0
   -5.1058    0.7629    0.7928 Cl  0  0  0  0  0  0  0  0  0  0  0  0
   -2.2351   -0.7158    1.1768 S   0  0  0  0  0  0  0  0  0  0  0  0
   -2.5443   -0.2123    2.4408 O   0  0  0  0  0  0  0  0  0  0  0  0
   -1.1586   -1.6288    1.1258 O   0  0  0  0  0  0  0  0  0  0  0  0
   -1.9625    0.4942    0.1046 N   0  0  0  0  0  0  0  0  0  0  0  0
   -0.7472    1.0020   -0.4190 C   0  0  0  0  0  0  0  0  0  0  0  0
   -0.7983    1.9044   -1.2718 O   0  0  0  0  0  0  0  0  0  0  0  0
    0.4593    0.4347    0.0494 N   0  0  0  0  0  0  0  0  0  0  0  0
    1.6880    1.1208   -0.0426 C   0  0  0  0  0  0  0  0  0  0  0  0
    1.6964    2.5014    0.0253 N   0  0  0  0  0  0  0  0  0  0  0  0
    2.9382    3.0814   -0.0282 C   0  0  0  0  0  0  0  0  0  0  0  0
    4.1284    2.4136   -0.1256 N   0  0  0  0  0  0  0  0  0  0  0  0
    3.9962    1.0412   -0.1725 C   0  0  0  0  0  0  0  0  0  0  0  0
    2.8250    0.3282   -0.1428 N   0  0  0  0  0  0  0  0  0  0  0  0
    2.9857    4.5894    0.0314 C   0  0  0  0  0  0  0  0  0  0  0  0
    5.2070    0.3933   -0.2646 O   0  0  0  0  0  0  0  0  0  0  0  0
    5.1853   -1.0369   -0.3171 C   0  0  0  0  0  0  0  0  0  0  0  0
   -6.6377   -3.4558   -0.9785 H   0  0  0  0  0  0  0  0  0  0  0  0
   -4.3984   -4.5532   -0.7540 H   0  0  0  0  0  0  0  0  0  0  0  0
   -2.4775   -3.2841    0.1802 H   0  0  0  0  0  0  0  0  0  0  0  0
   -6.9330   -1.0807   -0.2754 H   0  0  0  0  0  0  0  0  0  0  0  0
   -2.7291    1.0231   -0.2637 H   0  0  0  0  0  0  0  0  0  0  0  0
    0.4995   -0.5478    0.2545 H   0  0  0  0  0  0  0  0  0  0  0  0
    2.5200    4.9371    0.9866 H   0  0  0  0  0  0  0  0  0  0  0  0
    4.0372    4.9631   -0.0191 H   0  0  0  0  0  0  0  0  0  0  0  0
    2.4061    5.0106   -0.8272 H   0  0  0  0  0  0  0  0  0  0  0  0
    6.2749   -1.2898   -0.3827 H   0  0  0  0  0  0  0  0  0  0  0  0
    4.7321   -1.4592    0.6110 H   0  0  0  0  0  0  0  0  0  0  0  0
    4.6379   -1.3898   -1.2230 H   0  0  0  0  0  0  0  0  0  0  0  0
  1  2  2  0  0  0  0
  1  6  1  0  0  0  0
  1 24  1  0  0  0  0
  2  3  1  0  0  0  0
  2 25  1  0  0  0  0
  3  4  2  0  0  0  0
  3 26  1  0  0  0  0
  4  5  1  0  0  0  0
  4  8  1  0  0  0  0
  5  6  2  0  0  0  0
  5  7  1  0  0  0  0
  6 27  1  0  0  0  0
  8  9  2  0  0  0  0
  8 10  2  0  0  0  0
  8 11  1  0  0  0  0
 11 12  1  0  0  0  0
 11 28  1  0  0  0  0
 12 13  2  0  0  0  0
 12 14  1  0  0  0  0
 14 15  1  0  0  0  0
 14 29  1  0  0  0  0
 15 16  2  0  0  0  0
 15 20  1  0  0  0  0
 16 17  1  0  0  0  0
 17 18  2  0  0  0  0
 17 21  1  0  0  0  0
 18 19  1  0  0  0  0
 19 20  2  0  0  0  0
 19 22  1  0  0  0  0
 21 30  1  0  0  0  0
 21 31  1  0  0  0  0
 21 32  1  0  0  0  0
 22 23  1  0  0  0  0
 23 33  1  0  0  0  0
 23 34  1  0  0  0  0
 23 35  1  0  0  0  0
M  END
