./066753-07-9.hin
 OpenBabel10071114553D

 32 32  0  0  0  0  0  0  0  0999 V2000
   -1.7232   -1.4384   -0.2576 N   0  0  0  0  0  0  0  0  0  0  0  0
   -1.4193   -0.2763    0.3019 C   0  0  0  0  0  0  0  0  0  0  0  0
   -0.0906    0.2259    0.3584 N   0  0  0  0  0  0  0  0  0  0  0  0
    0.9484   -0.6521   -0.0548 C   0  0  0  0  0  0  0  0  0  0  0  0
    0.7099   -1.8286   -0.6353 N   0  0  0  0  0  0  0  0  0  0  0  0
   -0.6490   -2.2565   -0.7477 C   0  0  0  0  0  0  0  0  0  0  0  0
   -0.9105   -3.3434   -1.2885 O   0  0  0  0  0  0  0  0  0  0  0  0
    2.2841   -0.2575    0.2208 N   0  0  0  0  0  0  0  0  0  0  0  0
    2.6355    1.1399    0.0747 C   0  0  0  0  0  0  0  0  0  0  0  0
    4.1235    1.3614   -0.1462 C   0  0  0  0  0  0  0  0  0  0  0  0
   -2.4172    0.5321    0.9543 N   0  0  0  0  0  0  0  0  0  0  0  0
   -2.8505    1.7506    0.2422 C   0  0  0  0  0  0  0  0  0  0  0  0
   -1.7506    2.8222    0.2181 C   0  0  0  0  0  0  0  0  0  0  0  0
   -3.2832    1.4819   -1.2076 C   0  0  0  0  0  0  0  0  0  0  0  0
   -4.0613    2.3472    0.9868 C   0  0  0  0  0  0  0  0  0  0  0  0
    2.9629   -0.8918   -0.1584 H   0  0  0  0  0  0  0  0  0  0  0  0
    2.0725    1.6218   -0.7775 H   0  0  0  0  0  0  0  0  0  0  0  0
    2.3289    1.6658    1.0259 H   0  0  0  0  0  0  0  0  0  0  0  0
    4.3157    2.4601   -0.2014 H   0  0  0  0  0  0  0  0  0  0  0  0
    4.7246    0.9372    0.6939 H   0  0  0  0  0  0  0  0  0  0  0  0
    4.4644    0.8924   -1.1006 H   0  0  0  0  0  0  0  0  0  0  0  0
   -3.2218   -0.0341    1.1722 H   0  0  0  0  0  0  0  0  0  0  0  0
   -2.2086    3.8012   -0.0651 H   0  0  0  0  0  0  0  0  0  0  0  0
   -1.2733    2.9348    1.2205 H   0  0  0  0  0  0  0  0  0  0  0  0
   -0.9700    2.5794   -0.5411 H   0  0  0  0  0  0  0  0  0  0  0  0
   -3.6001    2.4402   -1.6831 H   0  0  0  0  0  0  0  0  0  0  0  0
   -2.4401    1.0519   -1.7997 H   0  0  0  0  0  0  0  0  0  0  0  0
   -4.1402    0.7671   -1.2373 H   0  0  0  0  0  0  0  0  0  0  0  0
   -4.3995    3.2647    0.4492 H   0  0  0  0  0  0  0  0  0  0  0  0
   -4.9102    1.6227    1.0148 H   0  0  0  0  0  0  0  0  0  0  0  0
   -3.7845    2.6238    2.0317 H   0  0  0  0  0  0  0  0  0  0  0  0
    0.1102    1.0372    0.8981 H   0  0  0  0  0  0  0  0  0  0  0  0
  1  2  2  0  0  0  0
  1  6  1  0  0  0  0
  2  3  1  0  0  0  0
  2 11  1  0  0  0  0
  3  4  1  0  0  0  0
  3 32  1  0  0  0  0
  4  5  2  0  0  0  0
  4  8  1  0  0  0  0
  5  6  1  0  0  0  0
  6  7  2  0  0  0  0
  8  9  1  0  0  0  0
  8 16  1  0  0  0  0
  9 10  1  0  0  0  0
  9 17  1  0  0  0  0
  9 18  1  0  0  0  0
 10 19  1  0  0  0  0
 10 20  1  0  0  0  0
 10 21  1  0  0  0  0
 11 12  1  0  0  0  0
 11 22  1  0  0  0  0
 12 13  1  0  0  0  0
 12 14  1  0  0  0  0
 12 15  1  0  0  0  0
 13 23  1  0  0  0  0
 13 24  1  0  0  0  0
 13 25  1  0  0  0  0
 14 26  1  0  0  0  0
 14 27  1  0  0  0  0
 14 28  1  0  0  0  0
 15 29  1  0  0  0  0
 15 30  1  0  0  0  0
 15 31  1  0  0  0  0
M  END
