./131860-33-8.hin
 OpenBabel10071114553D

 47 49  0  0  0  0  0  0  0  0999 V2000
   -2.6212    1.7955    0.0721 C   0  0  0  0  0  0  0  0  0  0  0  0
   -2.5777    3.1127   -0.2801 N   0  0  0  0  0  0  0  0  0  0  0  0
   -1.4622    3.4740   -0.9658 C   0  0  0  0  0  0  0  0  0  0  0  0
   -0.4103    2.7017   -1.3398 N   0  0  0  0  0  0  0  0  0  0  0  0
   -0.5023    1.3905   -0.9663 C   0  0  0  0  0  0  0  0  0  0  0  0
   -1.5966    0.8732   -0.2371 C   0  0  0  0  0  0  0  0  0  0  0  0
    0.5993    0.6452   -1.3554 O   0  0  0  0  0  0  0  0  0  0  0  0
    0.5456   -0.7302   -1.0994 C   0  0  0  0  0  0  0  0  0  0  0  0
   -0.4781   -1.4999   -1.6691 C   0  0  0  0  0  0  0  0  0  0  0  0
   -0.4762   -2.8796   -1.4989 C   0  0  0  0  0  0  0  0  0  0  0  0
    0.5451   -3.4840   -0.7635 C   0  0  0  0  0  0  0  0  0  0  0  0
    1.5721   -2.7179   -0.2240 C   0  0  0  0  0  0  0  0  0  0  0  0
    1.6118   -1.3200   -0.3901 C   0  0  0  0  0  0  0  0  0  0  0  0
    2.7539   -0.5747    0.1231 C   0  0  0  0  0  0  0  0  0  0  0  0
    2.6973    0.7289    0.4866 C   0  0  0  0  0  0  0  0  0  0  0  0
    3.8268    1.3295    0.9859 O   0  0  0  0  0  0  0  0  0  0  0  0
    3.7023    2.7404    1.1795 C   0  0  0  0  0  0  0  0  0  0  0  0
    4.0255   -1.3233    0.2341 C   0  0  0  0  0  0  0  0  0  0  0  0
    4.3515   -2.1750    1.0643 O   0  0  0  0  0  0  0  0  0  0  0  0
    4.9248   -1.0028   -0.7459 O   0  0  0  0  0  0  0  0  0  0  0  0
    6.1895   -1.6644   -0.6970 C   0  0  0  0  0  0  0  0  0  0  0  0
   -3.7564    1.4562    0.7962 O   0  0  0  0  0  0  0  0  0  0  0  0
   -3.9945    0.0872    0.9481 C   0  0  0  0  0  0  0  0  0  0  0  0
   -3.6498   -0.5067    2.1685 C   0  0  0  0  0  0  0  0  0  0  0  0
   -4.0254   -1.8261    2.4135 C   0  0  0  0  0  0  0  0  0  0  0  0
   -4.7310   -2.5477    1.4497 C   0  0  0  0  0  0  0  0  0  0  0  0
   -5.0721   -1.9569    0.2350 C   0  0  0  0  0  0  0  0  0  0  0  0
   -4.7085   -0.6283   -0.0319 C   0  0  0  0  0  0  0  0  0  0  0  0
   -5.0710   -0.0350   -1.2702 C   0  0  0  0  0  0  0  0  0  0  0  0
   -5.3741    0.4428   -2.2866 N   0  0  0  0  0  0  0  0  0  0  0  0
   -1.4068    4.5433   -1.2664 H   0  0  0  0  0  0  0  0  0  0  0  0
   -1.6506   -0.1755    0.0753 H   0  0  0  0  0  0  0  0  0  0  0  0
   -1.2689   -1.0024   -2.2508 H   0  0  0  0  0  0  0  0  0  0  0  0
   -1.2738   -3.4897   -1.9475 H   0  0  0  0  0  0  0  0  0  0  0  0
    0.5441   -4.5746   -0.6162 H   0  0  0  0  0  0  0  0  0  0  0  0
    2.3754   -3.2119    0.3504 H   0  0  0  0  0  0  0  0  0  0  0  0
    1.7854    1.3449    0.4193 H   0  0  0  0  0  0  0  0  0  0  0  0
    4.7029    3.0376    1.5821 H   0  0  0  0  0  0  0  0  0  0  0  0
    3.4968    3.2481    0.2065 H   0  0  0  0  0  0  0  0  0  0  0  0
    2.8944    2.9614    1.9179 H   0  0  0  0  0  0  0  0  0  0  0  0
    6.6949   -1.3352   -1.6382 H   0  0  0  0  0  0  0  0  0  0  0  0
    6.7520   -1.3320    0.2081 H   0  0  0  0  0  0  0  0  0  0  0  0
    6.0482   -2.7717   -0.6749 H   0  0  0  0  0  0  0  0  0  0  0  0
   -3.1025    0.0785    2.9228 H   0  0  0  0  0  0  0  0  0  0  0  0
   -3.7638   -2.2976    3.3734 H   0  0  0  0  0  0  0  0  0  0  0  0
   -5.0237   -3.5900    1.6495 H   0  0  0  0  0  0  0  0  0  0  0  0
   -5.6330   -2.5282   -0.5213 H   0  0  0  0  0  0  0  0  0  0  0  0
  1  2  2  0  0  0  0
  1  6  1  0  0  0  0
  1 22  1  0  0  0  0
  2  3  1  0  0  0  0
  3  4  2  0  0  0  0
  3 31  1  0  0  0  0
  4  5  1  0  0  0  0
  5  6  2  0  0  0  0
  5  7  1  0  0  0  0
  6 32  1  0  0  0  0
  7  8  1  0  0  0  0
  8  9  2  0  0  0  0
  8 13  1  0  0  0  0
  9 10  1  0  0  0  0
  9 33  1  0  0  0  0
 10 11  2  0  0  0  0
 10 34  1  0  0  0  0
 11 12  1  0  0  0  0
 11 35  1  0  0  0  0
 12 13  2  0  0  0  0
 12 36  1  0  0  0  0
 13 14  1  0  0  0  0
 14 15  2  0  0  0  0
 14 18  1  0  0  0  0
 15 16  1  0  0  0  0
 15 37  1  0  0  0  0
 16 17  1  0  0  0  0
 17 38  1  0  0  0  0
 17 39  1  0  0  0  0
 17 40  1  0  0  0  0
 18 19  2  0  0  0  0
 18 20  1  0  0  0  0
 20 21  1  0  0  0  0
 21 41  1  0  0  0  0
 21 42  1  0  0  0  0
 21 43  1  0  0  0  0
 22 23  1  0  0  0  0
 23 24  2  0  0  0  0
 23 28  1  0  0  0  0
 24 25  1  0  0  0  0
 24 44  1  0  0  0  0
 25 26  2  0  0  0  0
 25 45  1  0  0  0  0
 26 27  1  0  0  0  0
 26 46  1  0  0  0  0
 27 28  2  0  0  0  0
 27 47  1  0  0  0  0
 28 29  1  0  0  0  0
 29 30  3  0  0  0  0
M  END
