./158062-67-0.hin
 OpenBabel10071114553D

 22 22  0  0  0  0  0  0  0  0999 V2000
    0.7754    0.2361    0.0000 C   0  0  0  0  0  0  0  0  0  0  0  0
    2.0332   -0.4088    0.0000 C   0  0  0  0  0  0  0  0  0  0  0  0
    3.2134    0.2377    0.0000 N   0  0  0  0  0  0  0  0  0  0  0  0
    3.1877    1.5816    0.0000 C   0  0  0  0  0  0  0  0  0  0  0  0
    1.9934    2.3258    0.0000 C   0  0  0  0  0  0  0  0  0  0  0  0
    0.7740    1.6441    0.0000 C   0  0  0  0  0  0  0  0  0  0  0  0
   -0.5152    2.4796    0.0000 C   0  0  0  0  0  0  0  0  0  0  0  0
   -1.3142    2.2913    1.0960 F   0  0  0  0  0  0  0  0  0  0  0  0
   -0.2858    3.8388    0.0001 F   0  0  0  0  0  0  0  0  0  0  0  0
   -1.3140    2.2913   -1.0961 F   0  0  0  0  0  0  0  0  0  0  0  0
   -0.5087   -0.5221    0.0000 C   0  0  0  0  0  0  0  0  0  0  0  0
   -0.4813   -1.9025    0.0000 N   0  0  0  0  0  0  0  0  0  0  0  0
   -1.7214   -2.6395    0.0000 C   0  0  0  0  0  0  0  0  0  0  0  0
   -1.5204   -4.0832    0.0000 C   0  0  0  0  0  0  0  0  0  0  0  0
   -1.3912   -5.2380   -0.0000 N   0  0  0  0  0  0  0  0  0  0  0  0
   -1.6085    0.0669   -0.0000 O   0  0  0  0  0  0  0  0  0  0  0  0
    2.1362   -1.5097   -0.0000 H   0  0  0  0  0  0  0  0  0  0  0  0
    4.1712    2.0876   -0.0000 H   0  0  0  0  0  0  0  0  0  0  0  0
    2.0258    3.4264    0.0000 H   0  0  0  0  0  0  0  0  0  0  0  0
    0.3691   -2.4066    0.0000 H   0  0  0  0  0  0  0  0  0  0  0  0
   -2.3288   -2.3510    0.9122 H   0  0  0  0  0  0  0  0  0  0  0  0
   -2.3288   -2.3510   -0.9122 H   0  0  0  0  0  0  0  0  0  0  0  0
  1  2  2  0  0  0  0
  1  6  1  0  0  0  0
  1 11  1  0  0  0  0
  2  3  1  0  0  0  0
  2 17  1  0  0  0  0
  3  4  2  0  0  0  0
  4  5  1  0  0  0  0
  4 18  1  0  0  0  0
  5  6  2  0  0  0  0
  5 19  1  0  0  0  0
  6  7  1  0  0  0  0
  7  8  1  0  0  0  0
  7  9  1  0  0  0  0
  7 10  1  0  0  0  0
 11 12  1  0  0  0  0
 11 16  2  0  0  0  0
 12 13  1  0  0  0  0
 12 20  1  0  0  0  0
 13 14  1  0  0  0  0
 13 21  1  0  0  0  0
 13 22  1  0  0  0  0
 14 15  3  0  0  0  0
M  END
