./361377-29-9.hin
 OpenBabel10071114553D

 48 51  0  0  0  0  0  0  0  0999 V2000
    0.2842   -0.8472   -2.3781 O   0  0  0  0  0  0  0  0  0  0  0  0
    0.8478    0.3602   -2.9543 C   0  0  0  0  0  0  0  0  0  0  0  0
    2.3504    0.4002   -2.7438 C   0  0  0  0  0  0  0  0  0  0  0  0
    0.7244   -1.2499   -1.2159 N   0  0  0  0  0  0  0  0  0  0  0  0
    1.8648   -0.7956   -0.7516 C   0  0  0  0  0  0  0  0  0  0  0  0
    2.6999    0.1250   -1.3811 O   0  0  0  0  0  0  0  0  0  0  0  0
    2.3934   -1.1626    0.5980 C   0  0  0  0  0  0  0  0  0  0  0  0
    2.5634   -2.4399    0.8316 N   0  0  0  0  0  0  0  0  0  0  0  0
    3.0352   -2.7692    2.0159 O   0  0  0  0  0  0  0  0  0  0  0  0
    2.9888   -4.1914    2.2880 C   0  0  0  0  0  0  0  0  0  0  0  0
    2.6653   -0.0261    1.4941 C   0  0  0  0  0  0  0  0  0  0  0  0
    3.8974    0.0490    2.1595 C   0  0  0  0  0  0  0  0  0  0  0  0
    4.1894    1.1228    2.9976 C   0  0  0  0  0  0  0  0  0  0  0  0
    3.2528    2.1372    3.1981 C   0  0  0  0  0  0  0  0  0  0  0  0
    2.0149    2.0792    2.5623 C   0  0  0  0  0  0  0  0  0  0  0  0
    1.7349    1.0041    1.7097 C   0  0  0  0  0  0  0  0  0  0  0  0
    0.5446    1.0649    0.9713 O   0  0  0  0  0  0  0  0  0  0  0  0
   -0.5485    0.3727    1.4578 C   0  0  0  0  0  0  0  0  0  0  0  0
   -1.7346    0.5064    0.6600 C   0  0  0  0  0  0  0  0  0  0  0  0
   -2.8693   -0.2202    1.1179 C   0  0  0  0  0  0  0  0  0  0  0  0
   -2.8475   -0.9754    2.2507 N   0  0  0  0  0  0  0  0  0  0  0  0
   -1.6705   -0.9949    2.9196 C   0  0  0  0  0  0  0  0  0  0  0  0
   -0.5092   -0.3655    2.5924 N   0  0  0  0  0  0  0  0  0  0  0  0
   -4.1142   -0.0864    0.5084 O   0  0  0  0  0  0  0  0  0  0  0  0
   -4.1841   -0.4515   -0.8384 C   0  0  0  0  0  0  0  0  0  0  0  0
   -4.8156    0.4855   -1.6715 C   0  0  0  0  0  0  0  0  0  0  0  0
   -3.7885   -1.7032   -1.3370 C   0  0  0  0  0  0  0  0  0  0  0  0
   -4.0107   -1.9950   -2.6891 C   0  0  0  0  0  0  0  0  0  0  0  0
   -5.0450    0.1685   -3.0067 C   0  0  0  0  0  0  0  0  0  0  0  0
   -4.6358   -1.0648   -3.5156 C   0  0  0  0  0  0  0  0  0  0  0  0
   -3.0462   -2.8693   -0.3583 Cl  0  0  0  0  0  0  0  0  0  0  0  0
   -1.7466    1.2636   -0.4500 F   0  0  0  0  0  0  0  0  0  0  0  0
    0.3426    1.2385   -2.4739 H   0  0  0  0  0  0  0  0  0  0  0  0
    0.5783    0.2905   -4.0374 H   0  0  0  0  0  0  0  0  0  0  0  0
    2.7664    1.4241   -2.9324 H   0  0  0  0  0  0  0  0  0  0  0  0
    2.8678   -0.3562   -3.3906 H   0  0  0  0  0  0  0  0  0  0  0  0
    3.4024   -4.2403    3.3258 H   0  0  0  0  0  0  0  0  0  0  0  0
    1.9377   -4.5631    2.2570 H   0  0  0  0  0  0  0  0  0  0  0  0
    3.6305   -4.7515    1.5683 H   0  0  0  0  0  0  0  0  0  0  0  0
    4.6350   -0.7565    2.0176 H   0  0  0  0  0  0  0  0  0  0  0  0
    5.1648    1.1675    3.5047 H   0  0  0  0  0  0  0  0  0  0  0  0
    3.4886    2.9837    3.8603 H   0  0  0  0  0  0  0  0  0  0  0  0
    1.2622    2.8666    2.7119 H   0  0  0  0  0  0  0  0  0  0  0  0
   -1.6445   -1.6072    3.8464 H   0  0  0  0  0  0  0  0  0  0  0  0
   -5.1269    1.4537   -1.2523 H   0  0  0  0  0  0  0  0  0  0  0  0
   -3.6873   -2.9661   -3.0953 H   0  0  0  0  0  0  0  0  0  0  0  0
   -5.5454    0.8972   -3.6617 H   0  0  0  0  0  0  0  0  0  0  0  0
   -4.8056   -1.3056   -4.5755 H   0  0  0  0  0  0  0  0  0  0  0  0
  1  2  1  0  0  0  0
  1  4  1  0  0  0  0
  2  3  1  0  0  0  0
  2 33  1  0  0  0  0
  2 34  1  0  0  0  0
  3  6  1  0  0  0  0
  3 35  1  0  0  0  0
  3 36  1  0  0  0  0
  4  5  2  0  0  0  0
  5  6  1  0  0  0  0
  5  7  1  0  0  0  0
  7  8  2  0  0  0  0
  7 11  1  0  0  0  0
  8  9  1  0  0  0  0
  9 10  1  0  0  0  0
 10 37  1  0  0  0  0
 10 38  1  0  0  0  0
 10 39  1  0  0  0  0
 11 12  2  0  0  0  0
 11 16  1  0  0  0  0
 12 13  1  0  0  0  0
 12 40  1  0  0  0  0
 13 14  2  0  0  0  0
 13 41  1  0  0  0  0
 14 15  1  0  0  0  0
 14 42  1  0  0  0  0
 15 16  2  0  0  0  0
 15 43  1  0  0  0  0
 16 17  1  0  0  0  0
 17 18  1  0  0  0  0
 18 19  2  0  0  0  0
 18 23  1  0  0  0  0
 19 20  1  0  0  0  0
 19 32  1  0  0  0  0
 20 21  2  0  0  0  0
 20 24  1  0  0  0  0
 21 22  1  0  0  0  0
 22 23  2  0  0  0  0
 22 44  1  0  0  0  0
 24 25  1  0  0  0  0
 25 26  2  0  0  0  0
 25 27  1  0  0  0  0
 26 29  1  0  0  0  0
 26 45  1  0  0  0  0
 27 28  2  0  0  0  0
 27 31  1  0  0  0  0
 28 30  1  0  0  0  0
 28 46  1  0  0  0  0
 29 30  2  0  0  0  0
 29 47  1  0  0  0  0
 30 48  1  0  0  0  0
M  END
