./500008-45-7.hin
  ACCLDraw05171616313D

 42 44  0  0  0  0  0  0  0  0999 V2000
   14.5706  -17.4368   -1.9701 C   0  0  3  0  0  0  0  0  0  0  0  0
   13.2739  -17.1296   -1.4637 N   0  0  3  0  0  0  0  0  0  0  0  0
   13.0030  -16.2618   -0.4265 C   0  0  0  0  0  0  0  0  0  0  0  0
   11.8331  -16.1783   -0.0013 O   0  0  0  0  0  0  0  0  0  0  0  0
   14.1134  -15.4591    0.1698 C   0  0  0  0  0  0  0  0  0  0  0  0
   14.5213  -15.7898    1.4596 C   0  0  0  0  0  0  0  0  0  0  0  0
   15.5451  -15.0752    2.0896 C   0  0  0  0  0  0  0  0  0  0  0  0
   15.9413  -15.4008    3.4785 Cl  0  0  0  0  0  0  0  0  0  0  0  0
   16.1823  -14.0477    1.3919 C   0  0  0  0  0  0  0  0  0  0  0  0
   15.7944  -13.7188    0.0901 C   0  0  0  0  0  0  0  0  0  0  0  0
   16.6882  -12.5319   -0.7293 C   0  0  3  0  0  0  0  0  0  0  0  0
   14.7107  -14.3810   -0.5334 C   0  0  0  0  0  0  0  0  0  0  0  0
   14.2739  -14.0779   -1.8320 N   0  0  3  0  0  0  0  0  0  0  0  0
   13.7966  -12.8836   -2.3504 C   0  0  0  0  0  0  0  0  0  0  0  0
   13.4080  -12.9042   -3.5344 O   0  0  0  0  0  0  0  0  0  0  0  0
   13.8167  -11.6098   -1.6022 C   0  0  0  0  0  0  0  0  0  0  0  0
   14.5172  -10.4655   -2.0194 C   0  0  0  0  0  0  0  0  0  0  0  0
   14.1739   -9.4479   -1.0512 C   0  0  0  0  0  0  0  0  0  0  0  0
   14.7766   -7.7071   -1.0402 Br  0  0  0  0  0  0  0  0  0  0  0  0
   13.3122   -9.9567   -0.1242 N   0  0  0  0  0  0  0  0  0  0  0  0
   13.0814  -11.2332   -0.4603 N   0  0  3  0  0  0  0  0  0  0  0  0
   12.2263  -12.0608    0.3495 C   0  0  0  0  0  0  0  0  0  0  0  0
   10.9843  -12.5211   -0.1690 C   0  0  0  0  0  0  0  0  0  0  0  0
   10.4906  -12.1781   -1.7455 Cl  0  0  0  0  0  0  0  0  0  0  0  0
   10.1534  -13.2792    0.6712 C   0  0  0  0  0  0  0  0  0  0  0  0
   10.5556  -13.5323    1.9775 C   0  0  0  0  0  0  0  0  0  0  0  0
   11.7992  -13.0282    2.4062 C   0  0  0  0  0  0  0  0  0  0  0  0
   12.6263  -12.3152    1.6299 N   0  0  0  0  0  0  0  0  0  0  0  0
   14.7835  -18.5349   -1.8550 H   0  0  0  0  0  0  0  0  0  0  0  0
   14.6238  -17.1800   -3.0643 H   0  0  0  0  0  0  0  0  0  0  0  0
   15.3659  -16.8614   -1.4263 H   0  0  0  0  0  0  0  0  0  0  0  0
   12.5097  -17.6621   -1.8163 H   0  0  0  0  0  0  0  0  0  0  0  0
   14.0207  -16.6175    1.9880 H   0  0  0  0  0  0  0  0  0  0  0  0
   17.0055  -13.4922    1.8705 H   0  0  0  0  0  0  0  0  0  0  0  0
   14.1699  -14.8651   -2.4428 H   0  0  0  0  0  0  0  0  0  0  0  0
   15.1630  -10.3625   -2.8853 H   0  0  0  0  0  0  0  0  0  0  0  0
    9.1959  -13.6692    0.2911 H   0  0  0  0  0  0  0  0  0  0  0  0
    9.9282  -14.1200    2.6609 H   0  0  0  0  0  0  0  0  0  0  0  0
   12.1603  -13.2041    3.4364 H   0  0  0  0  0  0  0  0  0  0  0  0
   15.7312  -12.7705   -0.8717 H   0  0  0  0  0  0  0  0  0  0  0  0
   17.5046  -11.4638   -0.4766 H   0  0  0  0  0  0  0  0  0  0  0  0
   15.8287  -11.8904   -1.1299 H   0  0  0  0  0  0  0  0  0  0  0  0
  1  2  1  0  0  0  0
  1 29  1  0  0  0  0
  1 30  1  0  0  0  0
  1 31  1  0  0  0  0
  2  3  1  0  0  0  0
  2 32  1  0  0  0  0
  3  4  2  0  0  0  0
  3  5  1  0  0  0  0
  5  6  2  0  0  0  0
  5 12  1  0  0  0  0
  6  7  1  0  0  0  0
  6 33  1  0  0  0  0
  7  8  1  0  0  0  0
  7  9  2  0  0  0  0
  9 10  1  0  0  0  0
  9 34  1  0  0  0  0
 10 11  1  0  0  0  0
 10 12  2  0  0  0  0
 12 13  1  0  0  0  0
 13 14  1  0  0  0  0
 13 35  1  0  0  0  0
 14 15  2  0  0  0  0
 14 16  1  0  0  0  0
 16 17  2  0  0  0  0
 16 21  1  0  0  0  0
 17 18  1  0  0  0  0
 17 36  1  0  0  0  0
 18 19  1  0  0  0  0
 18 20  2  0  0  0  0
 20 21  1  0  0  0  0
 21 22  1  0  0  0  0
 22 23  2  0  0  0  0
 22 28  1  0  0  0  0
 23 24  1  0  0  0  0
 23 25  1  0  0  0  0
 25 26  2  0  0  0  0
 25 37  1  0  0  0  0
 26 27  1  0  0  0  0
 26 38  1  0  0  0  0
 27 28  2  0  0  0  0
 27 39  1  0  0  0  0
 11 40  1  0  0  0  0
 11 41  1  0  0  0  0
 11 42  1  0  0  0  0
M  END