PROPYLENE OXIDE
  DSViewer          3D                             0

  4  4  0  0  0  0  0  0  0  0999 V2000
   -0.0293   -1.3459   -0.3799 C   0  0  0  0  0  0  0  0  0  1
   -0.2747   -0.0601    0.4313 C   0  0  0  0  0  0  0  0  0  2
    0.9593    0.8023    0.3920 C   0  0  0  0  0  0  0  0  0  3
   -0.1865    1.0886   -0.4453 O   0  0  0  0  0  0  0  0  0  4
  1  2  1  0  0  0
  2  3  1  0  0  0
  3  4  1  0  0  0
  4  2  1  0  0  0
M  END
> <SMILES>
CC1CO1

> <Reference>
TR-267

> <Id2>
.

> <Actual Value>
POS TR-267 : MR: SE FR: SE MM: CE FM: CE

> <Predicted Value>
0.999 POS

> <Used>
1

> <Additional Info(LOAEL)>
.

> <Status>
Carcinogen

> <iscarc>
1

$$$$
ALLYLISOVALERATE
  SciTegic06161615502D

 10  9  0  0  0  0            999 V2000
    0.0000    0.0000    0.0000 C   0  0
    0.0000    0.0000    0.0000 C   0  0
    0.0000    0.0000    0.0000 C   0  0
    0.0000    0.0000    0.0000 C   0  0
    0.0000    0.0000    0.0000 C   0  0
    0.0000    0.0000    0.0000 O   0  0
    0.0000    0.0000    0.0000 O   0  0
    0.0000    0.0000    0.0000 C   0  0
    0.0000    0.0000    0.0000 C   0  0
    0.0000    0.0000    0.0000 C   0  0
  1  2  1  0
  2  3  1  0
  2  4  1  0
  4  5  1  0
  5  6  2  0
  5  7  1  0
  7  8  1  0
  8  9  1  0
  9 10  2  0
M  END
> <Name>
ALLYLISOVALERATE

> <SMILES>
CC(C)CC(=O)OCC=C

> <Reference>
TR-253

> <Id>
2835-39-4

> <Actual Value>
NEG TR-253 : MR: P FR: N MM: N FM: P

> <Predicted Value>
0.000 NEG

> <Used>
1

> <Status>
Non-Carcinogen

> <iscarc>
0

$$$$
4-VINYL-1-CYCLOHEXANE DIEPOXIDE
  SciTegic06161615502D

 10 12  0  0  0  0            999 V2000
    0.0000    0.0000    0.0000 C   0  0
    0.0000    0.0000    0.0000 C   0  0
    0.0000    0.0000    0.0000 C   0  0
    0.0000    0.0000    0.0000 O   0  0
    0.0000    0.0000    0.0000 C   0  0
    0.0000    0.0000    0.0000 C   0  0
    0.0000    0.0000    0.0000 C   0  0
    0.0000    0.0000    0.0000 C   0  0
    0.0000    0.0000    0.0000 C   0  0
    0.0000    0.0000    0.0000 O   0  0
  1  2  1  0
  2  3  1  0
  3  4  1  0
  4  5  1  0
  5  3  1  0
  5  6  1  0
  6  7  1  0
  7  1  1  0
  7  8  1  0
  8  9  1  0
  9 10  1  0
 10  8  1  0
M  END
> <Name>
4-VINYL-1-CYCLOHEXANE DIEPOXIDE

> <SMILES>
C2CC1OC1CC2C3CO3

> <Reference>
TR-362

> <Id>
106-87-6

> <Actual Value>
POS TR-362 : MR: CE FR: CE MM: CE FM: CE

> <Predicted Value>
1.000 POS

> <Used>
1

> <Status>
Carcinogen

> <iscarc>
1

$$$$
DIMETHYL MORPHOLINOPHOSPHORAMIDATE
  SciTegic06161615502D

 12 12  0  0  0  0            999 V2000
    0.0000    0.0000    0.0000 C   0  0
    0.0000    0.0000    0.0000 O   0  0
    0.0000    0.0000    0.0000 P   0  0
    0.0000    0.0000    0.0000 O   0  0
    0.0000    0.0000    0.0000 O   0  0
    0.0000    0.0000    0.0000 C   0  0
    0.0000    0.0000    0.0000 N   0  0
    0.0000    0.0000    0.0000 C   0  0
    0.0000    0.0000    0.0000 C   0  0
    0.0000    0.0000    0.0000 O   0  0
    0.0000    0.0000    0.0000 C   0  0
    0.0000    0.0000    0.0000 C   0  0
  1  2  1  0
  2  3  1  0
  3  4  2  0
  3  5  1  0
  5  6  1  0
  3  7  1  0
  7  8  1  0
  8  9  1  0
  9 10  1  0
 10 11  1  0
 11 12  1  0
 12  7  1  0
M  END
> <Name>
DIMETHYL MORPHOLINOPHOSPHORAMIDATE

> <SMILES>
COP(=O)(OC)N1CCOCC1

> <Reference>
TR-298

> <Id>
597-25-1

> <Actual Value>
POS TR-298 : MR: SE FR: SE MM: NE FM: NE

> <Predicted Value>
0.997 POS

> <Used>
1

> <Status>
Carcinogen

> <iscarc>
1

$$$$
ISOBUTYL NITRITE
  SciTegic06161615502D

  7  6  0  0  0  0            999 V2000
    0.0000    0.0000    0.0000 C   0  0
    0.0000    0.0000    0.0000 C   0  0
    0.0000    0.0000    0.0000 C   0  0
    0.0000    0.0000    0.0000 C   0  0
    0.0000    0.0000    0.0000 O   0  0
    0.0000    0.0000    0.0000 N   0  0
    0.0000    0.0000    0.0000 O   0  0
  1  2  1  0
  2  3  1  0
  2  4  1  0
  4  5  1  0
  5  6  1  0
  6  7  2  0
M  END
> <Name>
ISOBUTYL NITRITE

> <SMILES>
CC(C)CON=O

> <Reference>
TR-448

> <Id>
542-56-3

> <Actual Value>
POS TR-448 : MR: CE FR: CE MM: SE FM: SE

> <Predicted Value>
1.000 POS

> <Used>
1

> <Status>
Carcinogen

> <iscarc>
1

$$$$
GAMMA-BUTYROLACTONE
  SciTegic06161615502D

  6  6  0  0  0  0            999 V2000
    0.0000    0.0000    0.0000 O   0  0
    0.0000    0.0000    0.0000 C   0  0
    0.0000    0.0000    0.0000 C   0  0
    0.0000    0.0000    0.0000 C   0  0
    0.0000    0.0000    0.0000 C   0  0
    0.0000    0.0000    0.0000 O   0  0
  1  2  2  0
  2  3  1  0
  3  4  1  0
  4  5  1  0
  5  6  1  0
  6  2  1  0
M  END
> <Name>
GAMMA-BUTYROLACTONE

> <SMILES>
O=C1CCCO1

> <Reference>
TR-406

> <Id>
96-48-0

> <Actual Value>
NEG TR-406 : MR: NE FR: NE MM: EE FM: NE

> <Predicted Value>
0.003 NEG

> <Used>
1

> <Status>
Non-Carcinogen

> <iscarc>
0

$$$$
DIETHYLPHTHALATE
  SciTegic06161615502D

 16 16  0  0  0  0            999 V2000
    0.0000    0.0000    0.0000 C   0  0
    0.0000    0.0000    0.0000 C   0  0
    0.0000    0.0000    0.0000 O   0  0
    0.0000    0.0000    0.0000 C   0  0
    0.0000    0.0000    0.0000 O   0  0
    0.0000    0.0000    0.0000 C   0  0
    0.0000    0.0000    0.0000 C   0  0
    0.0000    0.0000    0.0000 C   0  0
    0.0000    0.0000    0.0000 C   0  0
    0.0000    0.0000    0.0000 C   0  0
    0.0000    0.0000    0.0000 C   0  0
    0.0000    0.0000    0.0000 C   0  0
    0.0000    0.0000    0.0000 O   0  0
    0.0000    0.0000    0.0000 O   0  0
    0.0000    0.0000    0.0000 C   0  0
    0.0000    0.0000    0.0000 C   0  0
  1  2  1  0
  2  3  1  0
  3  4  1  0
  4  5  2  0
  4  6  1  0
  6  7  2  3
  7  8  1  0
  8  9  2  3
  9 10  1  0
 10 11  2  3
 11  6  1  0
 11 12  1  0
 12 13  2  0
 12 14  1  0
 14 15  1  0
 15 16  1  0
M  END
> <Name>
DIETHYLPHTHALATE

> <SMILES>
CCOC(=O)c1ccccc1C(=O)OCC

> <Reference>
TR-429

> <Id>
84-66-2

> <Actual Value>
NEG TR-429 : MR: NE FR: NE MM: EE FM: EE

> <Predicted Value>
0.000 NEG

> <Used>
1

> <Status>
Non-Carcinogen

> <iscarc>
0

$$$$
t-BUTYL ALCOHOL
  SciTegic06161615502D

  5  4  0  0  0  0            999 V2000
    0.0000    0.0000    0.0000 C   0  0
    0.0000    0.0000    0.0000 C   0  0
    0.0000    0.0000    0.0000 C   0  0
    0.0000    0.0000    0.0000 C   0  0
    0.0000    0.0000    0.0000 O   0  0
  1  2  1  0
  2  3  1  0
  2  4  1  0
  2  5  1  0
M  END
> <Name>
t-BUTYL ALCOHOL

> <SMILES>
CC(C)(C)O

> <Reference>
TR-436

> <Id>
75-65-0

> <Actual Value>
NEG TR-436 : MR: SE FR: NE MM: EE FM: SE

> <Predicted Value>
0.000 NEG

> <Used>
1

> <Status>
Non-Carcinogen

> <iscarc>
0

$$$$
DIGLYCIDYL RESORCINOL ETHER
  SciTegic06161615502D

 16 18  0  0  0  0            999 V2000
    0.0000    0.0000    0.0000 C   0  0
    0.0000    0.0000    0.0000 O   0  0
    0.0000    0.0000    0.0000 C   0  0
    0.0000    0.0000    0.0000 C   0  0
    0.0000    0.0000    0.0000 O   0  0
    0.0000    0.0000    0.0000 C   0  0
    0.0000    0.0000    0.0000 C   0  0
    0.0000    0.0000    0.0000 C   0  0
    0.0000    0.0000    0.0000 C   0  0
    0.0000    0.0000    0.0000 C   0  0
    0.0000    0.0000    0.0000 O   0  0
    0.0000    0.0000    0.0000 C   0  0
    0.0000    0.0000    0.0000 C   0  0
    0.0000    0.0000    0.0000 C   0  0
    0.0000    0.0000    0.0000 O   0  0
    0.0000    0.0000    0.0000 C   0  0
  1  2  1  0
  2  3  1  0
  3  1  1  0
  3  4  1  0
  4  5  1  0
  5  6  1  0
  6  7  2  3
  7  8  1  0
  8  9  2  3
  9 10  1  0
 10 11  1  0
 11 12  1  0
 12 13  1  0
 13 14  1  0
 14 15  1  0
 15 13  1  0
 10 16  2  3
 16  6  1  0
M  END
> <Name>
DIGLYCIDYL RESORCINOL ETHER

> <SMILES>
C1OC1COc3cccc(OCC2CO2)c3

> <Reference>
TR-257

> <Id>
101-90-6

> <Actual Value>
POS TR-257 : MR: P FR: P MM: P FM: P

> <Predicted Value>
1.000 POS

> <Used>
1

> <Status>
Carcinogen

> <iscarc>
1

$$$$
PIPERONYL SULFOXIDE
  SciTegic06161615502D

 22 23  0  0  0  0            999 V2000
    0.0000    0.0000    0.0000 C   0  0
    0.0000    0.0000    0.0000 C   0  0
    0.0000    0.0000    0.0000 C   0  0
    0.0000    0.0000    0.0000 C   0  0
    0.0000    0.0000    0.0000 C   0  0
    0.0000    0.0000    0.0000 C   0  0
    0.0000    0.0000    0.0000 C   0  0
    0.0000    0.0000    0.0000 C   0  0
    0.0000    0.0000    0.0000 S   0  0
    0.0000    0.0000    0.0000 O   0  0
    0.0000    0.0000    0.0000 C   0  0
    0.0000    0.0000    0.0000 C   0  0
    0.0000    0.0000    0.0000 C   0  0
    0.0000    0.0000    0.0000 C   0  0
    0.0000    0.0000    0.0000 C   0  0
    0.0000    0.0000    0.0000 C   0  0
    0.0000    0.0000    0.0000 C   0  0
    0.0000    0.0000    0.0000 O   0  0
    0.0000    0.0000    0.0000 C   0  0
    0.0000    0.0000    0.0000 O   0  0
    0.0000    0.0000    0.0000 C   0  0
    0.0000    0.0000    0.0000 C   0  0
  1  2  1  0
  2  3  1  0
  3  4  1  0
  4  5  1  0
  5  6  1  0
  6  7  1  0
  7  8  1  0
  8  9  1  0
  9 10  2  0
  9 11  1  0
 11 12  1  0
 11 13  1  0
 13 14  1  0
 14 15  2  3
 15 16  1  0
 16 17  2  3
 17 18  1  0
 18 19  1  0
 19 20  1  0
 20 21  1  0
 21 17  1  0
 21 22  2  3
 22 14  1  0
M  END
> <Name>
PIPERONYL SULFOXIDE

> <SMILES>
CCCCCCCCS(=O)C(C)Cc2ccc1OCOc1c2

> <Reference>
TR-124

> <Id>
120-62-7

> <Actual Value>
NEG TR-124 : MR: N FR: N MM: P FM: N

> <Predicted Value>
0.000 NEG

> <Used>
1

> <Status>
Non-Carcinogen

> <iscarc>
0

$$$$
PIPERONYL BUTAOXIDE
  SciTegic06161615502D

 24 25  0  0  0  0            999 V2000
    0.0000    0.0000    0.0000 C   0  0
    0.0000    0.0000    0.0000 C   0  0
    0.0000    0.0000    0.0000 C   0  0
    0.0000    0.0000    0.0000 C   0  0
    0.0000    0.0000    0.0000 O   0  0
    0.0000    0.0000    0.0000 C   0  0
    0.0000    0.0000    0.0000 C   0  0
    0.0000    0.0000    0.0000 O   0  0
    0.0000    0.0000    0.0000 C   0  0
    0.0000    0.0000    0.0000 C   0  0
    0.0000    0.0000    0.0000 O   0  0
    0.0000    0.0000    0.0000 C   0  0
    0.0000    0.0000    0.0000 C   0  0
    0.0000    0.0000    0.0000 C   0  0
    0.0000    0.0000    0.0000 C   0  0
    0.0000    0.0000    0.0000 O   0  0
    0.0000    0.0000    0.0000 C   0  0
    0.0000    0.0000    0.0000 O   0  0
    0.0000    0.0000    0.0000 C   0  0
    0.0000    0.0000    0.0000 C   0  0
    0.0000    0.0000    0.0000 C   0  0
    0.0000    0.0000    0.0000 C   0  0
    0.0000    0.0000    0.0000 C   0  0
    0.0000    0.0000    0.0000 C   0  0
  1  2  1  0
  2  3  1  0
  3  4  1  0
  4  5  1  0
  5  6  1  0
  6  7  1  0
  7  8  1  0
  8  9  1  0
  9 10  1  0
 10 11  1  0
 11 12  1  0
 12 13  1  0
 13 14  2  3
 14 15  1  0
 15 16  1  0
 16 17  1  0
 17 18  1  0
 18 19  1  0
 19 15  2  3
 19 20  1  0
 20 21  2  3
 21 13  1  0
 21 22  1  0
 22 23  1  0
 23 24  1  0
M  END
> <Name>
PIPERONYL BUTAOXIDE

> <SMILES>
CCCCOCCOCCOCc2cc1OCOc1cc2CCC

> <Reference>
TR-120

> <Id>
51-03-6

> <Actual Value>
NEG TR-120 : MR: N FR: N MM: N FM: N

> <Predicted Value>
0.007 NEG

> <Used>
1

> <Status>
Non-Carcinogen

> <iscarc>
0

$$$$
DI(2-ETHYLHEXYL)ADIPATE
  SciTegic06161615502D

 26 25  0  0  0  0            999 V2000
    0.0000    0.0000    0.0000 C   0  0
    0.0000    0.0000    0.0000 C   0  0
    0.0000    0.0000    0.0000 C   0  0
    0.0000    0.0000    0.0000 C   0  0
    0.0000    0.0000    0.0000 C   0  0
    0.0000    0.0000    0.0000 C   0  0
    0.0000    0.0000    0.0000 C   0  0
    0.0000    0.0000    0.0000 C   0  0
    0.0000    0.0000    0.0000 O   0  0
    0.0000    0.0000    0.0000 C   0  0
    0.0000    0.0000    0.0000 O   0  0
    0.0000    0.0000    0.0000 C   0  0
    0.0000    0.0000    0.0000 C   0  0
    0.0000    0.0000    0.0000 C   0  0
    0.0000    0.0000    0.0000 C   0  0
    0.0000    0.0000    0.0000 C   0  0
    0.0000    0.0000    0.0000 O   0  0
    0.0000    0.0000    0.0000 O   0  0
    0.0000    0.0000    0.0000 C   0  0
    0.0000    0.0000    0.0000 C   0  0
    0.0000    0.0000    0.0000 C   0  0
    0.0000    0.0000    0.0000 C   0  0
    0.0000    0.0000    0.0000 C   0  0
    0.0000    0.0000    0.0000 C   0  0
    0.0000    0.0000    0.0000 C   0  0
    0.0000    0.0000    0.0000 C   0  0
  1  2  1  0
  2  3  1  0
  3  4  1  0
  4  5  1  0
  5  6  1  0
  6  7  1  0
  5  8  1  0
  8  9  1  0
  9 10  1  0
 10 11  2  0
 10 12  1  0
 12 13  1  0
 13 14  1  0
 14 15  1  0
 15 16  1  0
 16 17  2  0
 16 18  1  0
 18 19  1  0
 19 20  1  0
 20 21  1  0
 21 22  1  0
 20 23  1  0
 23 24  1  0
 24 25  1  0
 25 26  1  0
M  END
> <Name>
DI(2-ETHYLHEXYL)ADIPATE

> <SMILES>
CCCCC(CC)COC(=O)CCCCC(=O)OCC(CC)CCCC

> <Reference>
TR-212

> <Id>
103-23-1

> <Actual Value>
NEG TR-212 : MR: N FR: N MM: P FM: P

> <Predicted Value>
0.000 NEG

> <Used>
1

> <Status>
Non-Carcinogen

> <iscarc>
0

$$$$
PROPYLENE
  SciTegic06161615502D

  3  2  0  0  0  0            999 V2000
    0.0000    0.0000    0.0000 C   0  0
    0.0000    0.0000    0.0000 C   0  0
    0.0000    0.0000    0.0000 C   0  0
  1  2  1  0
  2  3  2  0
M  END
> <Name>
PROPYLENE

> <SMILES>
CC=C

> <Reference>
TR-272

> <Id>
115-07-1

> <Actual Value>
NEG TR-272 : MR: NE FR: NE MM: NE FM: NE

> <Predicted Value>
0.000 NEG

> <Used>
1

> <Status>
Non-Carcinogen

> <iscarc>
0

$$$$
DIMETHOXANE
  SciTegic06161615502D

 12 12  0  0  0  0            999 V2000
    0.0000    0.0000    0.0000 C   0  0
    0.0000    0.0000    0.0000 C   0  0
    0.0000    0.0000    0.0000 C   0  0
    0.0000    0.0000    0.0000 C   0  0
    0.0000    0.0000    0.0000 O   0  0
    0.0000    0.0000    0.0000 C   0  0
    0.0000    0.0000    0.0000 C   0  0
    0.0000    0.0000    0.0000 O   0  0
    0.0000    0.0000    0.0000 O   0  0
    0.0000    0.0000    0.0000 C   0  0
    0.0000    0.0000    0.0000 C   0  0
    0.0000    0.0000    0.0000 O   0  0
  1  2  1  0
  2  3  1  0
  3  4  1  0
  4  5  1  0
  5  6  1  0
  6  7  1  0
  6  8  1  0
  8  2  1  0
  4  9  1  0
  9 10  1  0
 10 11  1  0
 10 12  2  0
M  END
> <Name>
DIMETHOXANE

> <SMILES>
CC1CC(OC(C)O1)OC(C)=O

> <Reference>
TR-354

> <Id>
828-00-2

> <Actual Value>
NEG TR-354 : MR: NE FR: NE MM: EE FM: NE

> <Predicted Value>
0.000 NEG

> <Used>
1

> <Status>
Non-Carcinogen

> <iscarc>
0

$$$$
TRIS(2-CHLOROETHYL)PHOSPHATE
  SciTegic06161615502D

 14 13  0  0  0  0            999 V2000
    0.0000    0.0000    0.0000 Cl  0  0
    0.0000    0.0000    0.0000 C   0  0
    0.0000    0.0000    0.0000 C   0  0
    0.0000    0.0000    0.0000 O   0  0
    0.0000    0.0000    0.0000 P   0  0
    0.0000    0.0000    0.0000 O   0  0
    0.0000    0.0000    0.0000 O   0  0
    0.0000    0.0000    0.0000 C   0  0
    0.0000    0.0000    0.0000 C   0  0
    0.0000    0.0000    0.0000 Cl  0  0
    0.0000    0.0000    0.0000 O   0  0
    0.0000    0.0000    0.0000 C   0  0
    0.0000    0.0000    0.0000 C   0  0
    0.0000    0.0000    0.0000 Cl  0  0
  1  2  1  0
  2  3  1  0
  3  4  1  0
  4  5  1  0
  5  6  2  0
  5  7  1  0
  7  8  1  0
  8  9  1  0
  9 10  1  0
  5 11  1  0
 11 12  1  0
 12 13  1  0
 13 14  1  0
M  END
> <Name>
TRIS(2-CHLOROETHYL)PHOSPHATE

> <SMILES>
ClCCOP(=O)(OCCCl)OCCCl

> <Reference>
TR-391

> <Id>
115-96-8

> <Actual Value>
POS TR-391 : MR: CE FR: CE MM: EE FM: EE

> <Predicted Value>
1.000 POS

> <Used>
1

> <Status>
Carcinogen

> <iscarc>
1

$$$$
dl-MENTHOL
  SciTegic06161615502D

 11 11  0  0  0  0            999 V2000
    0.0000    0.0000    0.0000 C   0  0
    0.0000    0.0000    0.0000 C   0  0
    0.0000    0.0000    0.0000 C   0  0
    0.0000    0.0000    0.0000 C   0  0
    0.0000    0.0000    0.0000 C   0  0
    0.0000    0.0000    0.0000 C   0  0
    0.0000    0.0000    0.0000 C   0  0
    0.0000    0.0000    0.0000 C   0  0
    0.0000    0.0000    0.0000 C   0  0
    0.0000    0.0000    0.0000 C   0  0
    0.0000    0.0000    0.0000 O   0  0
  1  2  1  0
  2  3  1  0
  2  4  1  0
  4  5  1  0
  5  6  1  0
  6  7  1  0
  7  8  1  0
  7  9  1  0
  9 10  1  0
 10  4  1  0
 10 11  1  0
M  END
> <Name>
dl-MENTHOL

> <SMILES>
CC(C)C1CCC(C)CC1O

> <Reference>
TR-98

> <Id>
89-78-1

> <Actual Value>
NEG TR-98 : MR: N FR: N MM: N FM: N

> <Predicted Value>
0.000 NEG

> <Used>
1

> <Status>
Non-Carcinogen

> <iscarc>
0

$$$$
CINNAMYL ANTHRANILATE
  SciTegic06161615502D

 19 20  0  0  0  0            999 V2000
    0.0000    0.0000    0.0000 N   0  0
    0.0000    0.0000    0.0000 C   0  0
    0.0000    0.0000    0.0000 C   0  0
    0.0000    0.0000    0.0000 C   0  0
    0.0000    0.0000    0.0000 C   0  0
    0.0000    0.0000    0.0000 C   0  0
    0.0000    0.0000    0.0000 C   0  0
    0.0000    0.0000    0.0000 C   0  0
    0.0000    0.0000    0.0000 O   0  0
    0.0000    0.0000    0.0000 O   0  0
    0.0000    0.0000    0.0000 C   0  0
    0.0000    0.0000    0.0000 C   0  0
    0.0000    0.0000    0.0000 C   0  0
    0.0000    0.0000    0.0000 C   0  0
    0.0000    0.0000    0.0000 C   0  0
    0.0000    0.0000    0.0000 C   0  0
    0.0000    0.0000    0.0000 C   0  0
    0.0000    0.0000    0.0000 C   0  0
    0.0000    0.0000    0.0000 C   0  0
  1  2  1  0
  2  3  2  3
  3  4  1  0
  4  5  2  3
  5  6  1  0
  6  7  2  3
  7  2  1  0
  7  8  1  0
  8  9  2  0
  8 10  1  0
 10 11  1  0
 11 12  1  0
 12 13  2  3
 13 14  1  0
 14 15  2  3
 15 16  1  0
 16 17  2  3
 17 18  1  0
 18 19  2  3
 19 14  1  0
M  END
> <Name>
CINNAMYL ANTHRANILATE

> <SMILES>
Nc1ccccc1C(=O)OCC=Cc2ccccc2

> <Reference>
TR-196

> <Id>
87-29-6

> <Actual Value>
NEG TR-196 : MR: P FR: N MM: P FM: P

> <Predicted Value>
0.001 NEG

> <Used>
1

> <Status>
Non-Carcinogen

> <CanonicalTautomer>
Yes

> <NumberOfTautomers>
2

> <iscarc>
0

$$$$
DIMETHYLVINYL CHLORIDE
  SciTegic06161615502D

  5  4  0  0  0  0            999 V2000
    0.0000    0.0000    0.0000 C   0  0
    0.0000    0.0000    0.0000 C   0  0
    0.0000    0.0000    0.0000 C   0  0
    0.0000    0.0000    0.0000 C   0  0
    0.0000    0.0000    0.0000 Cl  0  0
  1  2  1  0
  2  3  1  0
  2  4  2  3
  4  5  1  0
M  END
> <Name>
DIMETHYLVINYL CHLORIDE

> <SMILES>
CC(C)=CCl

> <Reference>
TR-316

> <Id>
513-37-1

> <Actual Value>
POS TR-316 : MR: CE FR: CE MM: CE FM: CE

> <Predicted Value>
0.886 POS

> <Used>
1

> <Status>
Carcinogen

> <iscarc>
1

$$$$
BIS(2-CHLORO-1-METHYLETHYL) ETHER
  SciTegic06161615502D

  9  8  0  0  0  0            999 V2000
    0.0000    0.0000    0.0000 C   0  0
    0.0000    0.0000    0.0000 C   0  0
    0.0000    0.0000    0.0000 C   0  0
    0.0000    0.0000    0.0000 Cl  0  0
    0.0000    0.0000    0.0000 O   0  0
    0.0000    0.0000    0.0000 C   0  0
    0.0000    0.0000    0.0000 C   0  0
    0.0000    0.0000    0.0000 C   0  0
    0.0000    0.0000    0.0000 Cl  0  0
  1  2  1  0
  2  3  1  0
  3  4  1  0
  2  5  1  0
  5  6  1  0
  6  7  1  0
  6  8  1  0
  8  9  1  0
M  END
> <Name>
BIS(2-CHLORO-1-METHYLETHYL) ETHER

> <SMILES>
CC(CCl)OC(C)CCl

> <Reference>
TR-191 (TR-239: No Female Rat Data)

> <Id>
108-60-1

> <Actual Value>
NEG TR-191 : MR: N FR: N MM: FM:

> <Predicted Value>
TR-23

> <Used>
0.004 NEG

> <Additional Info(LOAEL)>
1

> <Status>
Non-Carcinogen

> <iscarc>
0

$$$$
D-LIMONENE
  SciTegic06161615502D

 10 10  0  0  0  0            999 V2000
    0.0000    0.0000    0.0000 C   0  0
    0.0000    0.0000    0.0000 C   0  0
    0.0000    0.0000    0.0000 C   0  0
    0.0000    0.0000    0.0000 C   0  0
    0.0000    0.0000    0.0000 C   0  0
    0.0000    0.0000    0.0000 C   0  0
    0.0000    0.0000    0.0000 C   0  0
    0.0000    0.0000    0.0000 C   0  0
    0.0000    0.0000    0.0000 C   0  0
    0.0000    0.0000    0.0000 C   0  0
  1  2  1  0
  2  3  2  3
  3  4  1  0
  4  5  1  0
  5  6  1  0
  6  7  1  0
  7  2  1  0
  5  8  1  0
  8  9  1  0
  8 10  2  0
M  END
> <Name>
D-LIMONENE

> <SMILES>
CC1=CCC(CC1)C(C)=C

> <Reference>
TR-347

> <Id>
5989-27-5

> <Actual Value>
NEG TR-347 : MR: CE FR: NE MM: NE FM: NE

> <Predicted Value>
0.000 NEG

> <Used>
1

> <Status>
Non-Carcinogen

> <iscarc>
0

$$$$
LASIOCARPINE
  SciTegic06161615502D

 29 30  0  0  0  0            999 V2000
    0.0000    0.0000    0.0000 C   0  0
    0.0000    0.0000    0.0000 O   0  0
    0.0000    0.0000    0.0000 C   0  0
    0.0000    0.0000    0.0000 C   0  0
    0.0000    0.0000    0.0000 C   0  0
    0.0000    0.0000    0.0000 O   0  0
    0.0000    0.0000    0.0000 C   0  0
    0.0000    0.0000    0.0000 O   0  0
    0.0000    0.0000    0.0000 O   0  0
    0.0000    0.0000    0.0000 C   0  0
    0.0000    0.0000    0.0000 C   0  0
    0.0000    0.0000    0.0000 C   0  0
    0.0000    0.0000    0.0000 C   0  0
    0.0000    0.0000    0.0000 N   0  0
    0.0000    0.0000    0.0000 C   0  0
    0.0000    0.0000    0.0000 C   0  0
    0.0000    0.0000    0.0000 C   0  0
    0.0000    0.0000    0.0000 O   0  0
    0.0000    0.0000    0.0000 C   0  0
    0.0000    0.0000    0.0000 O   0  0
    0.0000    0.0000    0.0000 C   0  0
    0.0000    0.0000    0.0000 C   0  0
    0.0000    0.0000    0.0000 C   0  0
    0.0000    0.0000    0.0000 C   0  0
    0.0000    0.0000    0.0000 C   0  0
    0.0000    0.0000    0.0000 C   0  0
    0.0000    0.0000    0.0000 C   0  0
    0.0000    0.0000    0.0000 C   0  0
    0.0000    0.0000    0.0000 O   0  0
  1  2  1  0
  2  3  1  0
  3  4  1  0
  3  5  1  0
  5  6  1  0
  5  7  1  0
  7  8  2  0
  7  9  1  0
  9 10  1  0
 10 11  1  0
 11 12  2  3
 12 13  1  0
 13 14  1  0
 14 15  1  0
 15 16  1  0
 16 17  1  0
 17 18  1  0
 18 19  1  0
 19 20  2  0
 19 21  1  0
 21 22  1  0
 21 23  2  3
 23 24  1  0
 17 25  1  0
 25 11  1  0
 25 14  1  0
  5 26  1  0
 26 27  1  0
 26 28  1  0
 26 29  1  0
M  END
> <Name>
LASIOCARPINE

> <SMILES>
COC(C)C(O)(C(=O)OCC1=CCN2CCC(OC(=O)C(C)=CC)C12)C(C)(C)O

> <Reference>
TR-39

> <Id>
303-34-4

> <Actual Value>
POS TR-39 : MR: P FR: P MM: FM:

> <Predicted Value>
1.000 POS

> <Used>
1

> <Status>
Carcinogen

> <iscarc>
1

$$$$
METHYL METHACRYLATE
  SciTegic06161615502D

  7  6  0  0  0  0            999 V2000
    0.0000    0.0000    0.0000 C   0  0
    0.0000    0.0000    0.0000 O   0  0
    0.0000    0.0000    0.0000 C   0  0
    0.0000    0.0000    0.0000 O   0  0
    0.0000    0.0000    0.0000 C   0  0
    0.0000    0.0000    0.0000 C   0  0
    0.0000    0.0000    0.0000 C   0  0
  1  2  1  0
  2  3  1  0
  3  4  2  0
  3  5  1  0
  5  6  1  0
  5  7  2  0
M  END
> <Name>
METHYL METHACRYLATE

> <SMILES>
COC(=O)C(C)=C

> <Reference>
TR-314

> <Id>
80-62-6

> <Actual Value>
NEG TR-314 : MR: NE FR: NE MM: NE FM: NE

> <Predicted Value>
0.001 NEG

> <Used>
1

> <Status>
Non-Carcinogen

> <iscarc>
0

$$$$
TRIS(2-ETHYLHEXYL)PHOSPHATE
  SciTegic06161615502D

 29 28  0  0  0  0            999 V2000
    0.0000    0.0000    0.0000 C   0  0
    0.0000    0.0000    0.0000 C   0  0
    0.0000    0.0000    0.0000 C   0  0
    0.0000    0.0000    0.0000 C   0  0
    0.0000    0.0000    0.0000 C   0  0
    0.0000    0.0000    0.0000 C   0  0
    0.0000    0.0000    0.0000 C   0  0
    0.0000    0.0000    0.0000 C   0  0
    0.0000    0.0000    0.0000 O   0  0
    0.0000    0.0000    0.0000 P   0  0
    0.0000    0.0000    0.0000 O   0  0
    0.0000    0.0000    0.0000 O   0  0
    0.0000    0.0000    0.0000 C   0  0
    0.0000    0.0000    0.0000 C   0  0
    0.0000    0.0000    0.0000 C   0  0
    0.0000    0.0000    0.0000 C   0  0
    0.0000    0.0000    0.0000 C   0  0
    0.0000    0.0000    0.0000 C   0  0
    0.0000    0.0000    0.0000 C   0  0
    0.0000    0.0000    0.0000 C   0  0
    0.0000    0.0000    0.0000 O   0  0
    0.0000    0.0000    0.0000 C   0  0
    0.0000    0.0000    0.0000 C   0  0
    0.0000    0.0000    0.0000 C   0  0
    0.0000    0.0000    0.0000 C   0  0
    0.0000    0.0000    0.0000 C   0  0
    0.0000    0.0000    0.0000 C   0  0
    0.0000    0.0000    0.0000 C   0  0
    0.0000    0.0000    0.0000 C   0  0
  1  2  1  0
  2  3  1  0
  3  4  1  0
  4  5  1  0
  5  6  1  0
  6  7  1  0
  5  8  1  0
  8  9  1  0
  9 10  1  0
 10 11  2  0
 10 12  1  0
 12 13  1  0
 13 14  1  0
 14 15  1  0
 15 16  1  0
 14 17  1  0
 17 18  1  0
 18 19  1  0
 19 20  1  0
 10 21  1  0
 21 22  1  0
 22 23  1  0
 23 24  1  0
 24 25  1  0
 23 26  1  0
 26 27  1  0
 27 28  1  0
 28 29  1  0
M  END
> <Name>
TRIS(2-ETHYLHEXYL)PHOSPHATE

> <SMILES>
CCCCC(CC)COP(=O)(OCC(CC)CCCC)OCC(CC)CCCC

> <Reference>
TR-274

> <Id>
78-42-2

> <Actual Value>
NEG TR-274 : MR: EE FR: NE MM: NE FM: SE

> <Predicted Value>
0.000 NEG

> <Used>
1

> <Status>
Non-Carcinogen

> <iscarc>
0

$$$$
N;N'-DIETHYLTHIOUREA
  SciTegic06161615502D

  8  7  0  0  0  0            999 V2000
    0.0000    0.0000    0.0000 C   0  0
    0.0000    0.0000    0.0000 C   0  0
    0.0000    0.0000    0.0000 N   0  0
    0.0000    0.0000    0.0000 C   0  0
    0.0000    0.0000    0.0000 S   0  0
    0.0000    0.0000    0.0000 N   0  0
    0.0000    0.0000    0.0000 C   0  0
    0.0000    0.0000    0.0000 C   0  0
  1  2  1  0
  2  3  1  0
  3  4  1  0
  4  5  2  0
  4  6  1  0
  6  7  1  0
  7  8  1  0
M  END
> <Name>
N;N'-DIETHYLTHIOUREA

> <SMILES>
CCNC(=S)NCC

> <Reference>
TR-149

> <Id>
105-55-5

> <Actual Value>
POS TR-149 : MR: P FR: P MM: N FM: N

> <Predicted Value>
1.000 POS

> <Used>
1

> <Status>
Carcinogen

> <CanonicalTautomer>
Yes

> <NumberOfTautomers>
3

> <iscarc>
1

$$$$
ACETONITRILE
  SciTegic06161615502D

  3  2  0  0  0  0            999 V2000
    0.0000    0.0000    0.0000 C   0  0
    0.0000    0.0000    0.0000 C   0  0
    0.0000    0.0000    0.0000 N   0  0
  1  2  1  0
  2  3  3  0
M  END
> <Name>
ACETONITRILE

> <SMILES>
CC#N

> <Reference>
TR-447

> <Id>
75-05-8

> <Actual Value>
NEG TR-447 : MR: EE FR: NE MM: NE FM: NE

> <Predicted Value>
0.001 NEG

> <Used>
1

> <Status>
Non-Carcinogen

> <iscarc>
0

$$$$
MALAOXON
  SciTegic06161615502D

 19 18  0  0  0  0            999 V2000
    0.0000    0.0000    0.0000 C   0  0
    0.0000    0.0000    0.0000 C   0  0
    0.0000    0.0000    0.0000 O   0  0
    0.0000    0.0000    0.0000 C   0  0
    0.0000    0.0000    0.0000 O   0  0
    0.0000    0.0000    0.0000 C   0  0
    0.0000    0.0000    0.0000 C   0  0
    0.0000    0.0000    0.0000 S   0  0
    0.0000    0.0000    0.0000 P   0  0
    0.0000    0.0000    0.0000 O   0  0
    0.0000    0.0000    0.0000 O   0  0
    0.0000    0.0000    0.0000 C   0  0
    0.0000    0.0000    0.0000 O   0  0
    0.0000    0.0000    0.0000 C   0  0
    0.0000    0.0000    0.0000 C   0  0
    0.0000    0.0000    0.0000 O   0  0
    0.0000    0.0000    0.0000 O   0  0
    0.0000    0.0000    0.0000 C   0  0
    0.0000    0.0000    0.0000 C   0  0
  1  2  1  0
  2  3  1  0
  3  4  1  0
  4  5  2  0
  4  6  1  0
  6  7  1  0
  7  8  1  0
  8  9  1  0
  9 10  2  0
  9 11  1  0
 11 12  1  0
  9 13  1  0
 13 14  1  0
  7 15  1  0
 15 16  2  0
 15 17  1  0
 17 18  1  0
 18 19  1  0
M  END
> <Name>
MALAOXON

> <SMILES>
CCOC(=O)CC(SP(=O)(OC)OC)C(=O)OCC

> <Reference>
TR-135

> <Id>
1634-78-2

> <Actual Value>
NEG TR-135 : MR: N FR: N MM: N FM: N

> <Predicted Value>
0.000 NEG

> <Used>
1

> <Status>
Non-Carcinogen

> <iscarc>
0

$$$$
ISOPHORONE
  SciTegic06161615502D

 10 10  0  0  0  0            999 V2000
    0.0000    0.0000    0.0000 C   0  0
    0.0000    0.0000    0.0000 C   0  0
    0.0000    0.0000    0.0000 C   0  0
    0.0000    0.0000    0.0000 C   0  0
    0.0000    0.0000    0.0000 O   0  0
    0.0000    0.0000    0.0000 C   0  0
    0.0000    0.0000    0.0000 C   0  0
    0.0000    0.0000    0.0000 C   0  0
    0.0000    0.0000    0.0000 C   0  0
    0.0000    0.0000    0.0000 C   0  0
  1  2  1  0
  2  3  2  3
  3  4  1  0
  4  5  2  0
  4  6  1  0
  6  7  1  0
  7  8  1  0
  7  9  1  0
  7 10  1  0
 10  2  1  0
M  END
> <Name>
ISOPHORONE

> <SMILES>
CC1=CC(=O)CC(C)(C)C1

> <Reference>
TR-291

> <Id>
78-59-1

> <Actual Value>
NEG TR-291 : MR: SE FR: NE MM: EE FM: NE

> <Predicted Value>
0.000 NEG

> <Used>
1

> <Status>
Non-Carcinogen

> <iscarc>
0

$$$$
(2-CHLOROETHYL)TRIMETHYLAMMONIUM CHLORIDE
  SciTegic06161615502D

  7  6  0  0  0  0            999 V2000
    0.0000    0.0000    0.0000 C   0  0
    0.0000    0.0000    0.0000 N   0  3
    0.0000    0.0000    0.0000 C   0  0
    0.0000    0.0000    0.0000 C   0  0
    0.0000    0.0000    0.0000 C   0  0
    0.0000    0.0000    0.0000 C   0  0
    0.0000    0.0000    0.0000 Cl  0  0
  1  2  1  0
  2  3  1  0
  2  4  1  0
  2  5  1  0
  5  6  1  0
  6  7  1  0
M  CHG  1   2   1
M  END
> <Name>
(2-CHLOROETHYL)TRIMETHYLAMMONIUM CHLORIDE

> <SMILES>
C[N+](C)(C)CCCl

> <Reference>
TR-158

> <Id>
999-81-5

> <Actual Value>
NEG TR-158 : MR: N FR: N MM: N FM: N

> <Predicted Value>
0.000 NEG

> <Used>
1

> <Status>
Non-Carcinogen

> <iscarc>
0

$$$$
n-METHYLOLACRYLAMIDE
  SciTegic06161615502D

  7  6  0  0  0  0            999 V2000
    0.0000    0.0000    0.0000 O   0  0
    0.0000    0.0000    0.0000 C   0  0
    0.0000    0.0000    0.0000 N   0  0
    0.0000    0.0000    0.0000 C   0  0
    0.0000    0.0000    0.0000 O   0  0
    0.0000    0.0000    0.0000 C   0  0
    0.0000    0.0000    0.0000 C   0  0
  1  2  1  0
  2  3  1  0
  3  4  1  0
  4  5  2  0
  4  6  1  0
  6  7  2  0
M  END
> <Name>
n-METHYLOLACRYLAMIDE

> <SMILES>
OCNC(=O)C=C

> <Reference>
TR-352

> <Id>
924-42-5

> <Actual Value>
NEG TR-352 : MR: NE FR: NE MM: CE FM: CE

> <Predicted Value>
0.000 NEG

> <Used>
1

> <Status>
Non-Carcinogen

> <iscarc>
0

$$$$
ACETOHEXAMIDE
  SciTegic06161615502D

 22 23  0  0  0  0            999 V2000
    0.0000    0.0000    0.0000 C   0  0
    0.0000    0.0000    0.0000 C   0  0
    0.0000    0.0000    0.0000 O   0  0
    0.0000    0.0000    0.0000 C   0  0
    0.0000    0.0000    0.0000 C   0  0
    0.0000    0.0000    0.0000 C   0  0
    0.0000    0.0000    0.0000 C   0  0
    0.0000    0.0000    0.0000 C   0  0
    0.0000    0.0000    0.0000 C   0  0
    0.0000    0.0000    0.0000 S   0  0
    0.0000    0.0000    0.0000 O   0  0
    0.0000    0.0000    0.0000 O   0  0
    0.0000    0.0000    0.0000 N   0  0
    0.0000    0.0000    0.0000 C   0  0
    0.0000    0.0000    0.0000 O   0  0
    0.0000    0.0000    0.0000 N   0  0
    0.0000    0.0000    0.0000 C   0  0
    0.0000    0.0000    0.0000 C   0  0
    0.0000    0.0000    0.0000 C   0  0
    0.0000    0.0000    0.0000 C   0  0
    0.0000    0.0000    0.0000 C   0  0
    0.0000    0.0000    0.0000 C   0  0
  1  2  1  0
  2  3  2  0
  2  4  1  0
  4  5  2  3
  5  6  1  0
  6  7  2  3
  7  8  1  0
  8  9  2  3
  9  4  1  0
  7 10  1  0
 10 11  2  0
 10 12  2  0
 10 13  1  0
 13 14  1  0
 14 15  2  0
 14 16  1  0
 16 17  1  0
 17 18  1  0
 18 19  1  0
 19 20  1  0
 20 21  1  0
 21 22  1  0
 22 17  1  0
M  END
> <Name>
ACETOHEXAMIDE

> <SMILES>
CC(=O)c1ccc(cc1)S(=O)(=O)NC(=O)NC2CCCCC2

> <Reference>
TR-50

> <Id>
968-81-0

> <Actual Value>
NEG TR-50 : MR: N FR: N MM: N FM: N

> <Predicted Value>
0.000 NEG

> <Used>
1

> <Status>
Non-Carcinogen

> <CanonicalTautomer>
Yes

> <NumberOfTautomers>
2

> <iscarc>
0

$$$$
PROBENECID
  SciTegic06161615502D

 19 19  0  0  0  0            999 V2000
    0.0000    0.0000    0.0000 C   0  0
    0.0000    0.0000    0.0000 C   0  0
    0.0000    0.0000    0.0000 C   0  0
    0.0000    0.0000    0.0000 N   0  0
    0.0000    0.0000    0.0000 C   0  0
    0.0000    0.0000    0.0000 C   0  0
    0.0000    0.0000    0.0000 C   0  0
    0.0000    0.0000    0.0000 S   0  0
    0.0000    0.0000    0.0000 O   0  0
    0.0000    0.0000    0.0000 O   0  0
    0.0000    0.0000    0.0000 C   0  0
    0.0000    0.0000    0.0000 C   0  0
    0.0000    0.0000    0.0000 C   0  0
    0.0000    0.0000    0.0000 C   0  0
    0.0000    0.0000    0.0000 C   0  0
    0.0000    0.0000    0.0000 C   0  0
    0.0000    0.0000    0.0000 C   0  0
    0.0000    0.0000    0.0000 O   0  0
    0.0000    0.0000    0.0000 O   0  0
  1  2  1  0
  2  3  1  0
  3  4  1  0
  4  5  1  0
  5  6  1  0
  6  7  1  0
  4  8  1  0
  8  9  2  0
  8 10  2  0
  8 11  1  0
 11 12  2  3
 12 13  1  0
 13 14  2  3
 14 15  1  0
 15 16  2  3
 16 11  1  0
 14 17  1  0
 17 18  1  0
 17 19  2  0
M  END
> <Name>
PROBENECID

> <SMILES>
CCCN(CCC)S(=O)(=O)c1ccc(cc1)C(O)=O

> <Reference>
TR-395

> <Id>
57-66-9

> <Actual Value>
NEG TR-395 : MR: NE FR: NE MM: NE FM: SE

> <Predicted Value>
0.011 NEG

> <Used>
1

> <Status>
Non-Carcinogen

> <iscarc>
0

$$$$
11-AMINOUNDECANOIC ACID
  SciTegic06161615502D

 14 13  0  0  0  0            999 V2000
    0.0000    0.0000    0.0000 N   0  0
    0.0000    0.0000    0.0000 C   0  0
    0.0000    0.0000    0.0000 C   0  0
    0.0000    0.0000    0.0000 C   0  0
    0.0000    0.0000    0.0000 C   0  0
    0.0000    0.0000    0.0000 C   0  0
    0.0000    0.0000    0.0000 C   0  0
    0.0000    0.0000    0.0000 C   0  0
    0.0000    0.0000    0.0000 C   0  0
    0.0000    0.0000    0.0000 C   0  0
    0.0000    0.0000    0.0000 C   0  0
    0.0000    0.0000    0.0000 C   0  0
    0.0000    0.0000    0.0000 O   0  0
    0.0000    0.0000    0.0000 O   0  0
  1  2  1  0
  2  3  1  0
  3  4  1  0
  4  5  1  0
  5  6  1  0
  6  7  1  0
  7  8  1  0
  8  9  1  0
  9 10  1  0
 10 11  1  0
 11 12  1  0
 12 13  1  0
 12 14  2  0
M  END
> <Name>
11-AMINOUNDECANOIC ACID

> <SMILES>
NCCCCCCCCCCC(O)=O

> <Reference>
TR-216

> <Id>
2432-99-7

> <Actual Value>
NEG TR-216 : MR: P FR: N MM: E FM: N

> <Predicted Value>
0.000 NEG

> <Used>
1

> <Status>
Non-Carcinogen

> <iscarc>
0

$$$$
MALATHION
  SciTegic06161615502D

 19 18  0  0  0  0            999 V2000
    0.0000    0.0000    0.0000 C   0  0
    0.0000    0.0000    0.0000 C   0  0
    0.0000    0.0000    0.0000 O   0  0
    0.0000    0.0000    0.0000 C   0  0
    0.0000    0.0000    0.0000 O   0  0
    0.0000    0.0000    0.0000 C   0  0
    0.0000    0.0000    0.0000 C   0  0
    0.0000    0.0000    0.0000 S   0  0
    0.0000    0.0000    0.0000 P   0  0
    0.0000    0.0000    0.0000 S   0  0
    0.0000    0.0000    0.0000 O   0  0
    0.0000    0.0000    0.0000 C   0  0
    0.0000    0.0000    0.0000 O   0  0
    0.0000    0.0000    0.0000 C   0  0
    0.0000    0.0000    0.0000 C   0  0
    0.0000    0.0000    0.0000 O   0  0
    0.0000    0.0000    0.0000 O   0  0
    0.0000    0.0000    0.0000 C   0  0
    0.0000    0.0000    0.0000 C   0  0
  1  2  1  0
  2  3  1  0
  3  4  1  0
  4  5  2  0
  4  6  1  0
  6  7  1  0
  7  8  1  0
  8  9  1  0
  9 10  2  0
  9 11  1  0
 11 12  1  0
  9 13  1  0
 13 14  1  0
  7 15  1  0
 15 16  2  0
 15 17  1  0
 17 18  1  0
 18 19  1  0
M  END
> <Name>
MALATHION

> <SMILES>
CCOC(=O)CC(SP(=S)(OC)OC)C(=O)OCC

> <Reference>
TR-192 (TR-24: Exposure Less Than 100 Weeks)

> <Id>
121-75-5

> <Actual Value>
NEG TR-192 : MR: N FR: N MM: FM:

> <Predicted Value>
TR-24

> <Used>
0.000 NEG

> <Additional Info(LOAEL)>
1

> <Status>
Non-Carcinogen

> <iscarc>
0

$$$$
CHLORPROPAMIDE
  SciTegic06161615502D

 17 17  0  0  0  0            999 V2000
    0.0000    0.0000    0.0000 C   0  0
    0.0000    0.0000    0.0000 C   0  0
    0.0000    0.0000    0.0000 C   0  0
    0.0000    0.0000    0.0000 N   0  0
    0.0000    0.0000    0.0000 C   0  0
    0.0000    0.0000    0.0000 O   0  0
    0.0000    0.0000    0.0000 N   0  0
    0.0000    0.0000    0.0000 S   0  0
    0.0000    0.0000    0.0000 O   0  0
    0.0000    0.0000    0.0000 O   0  0
    0.0000    0.0000    0.0000 C   0  0
    0.0000    0.0000    0.0000 C   0  0
    0.0000    0.0000    0.0000 C   0  0
    0.0000    0.0000    0.0000 C   0  0
    0.0000    0.0000    0.0000 Cl  0  0
    0.0000    0.0000    0.0000 C   0  0
    0.0000    0.0000    0.0000 C   0  0
  1  2  1  0
  2  3  1  0
  3  4  1  0
  4  5  1  0
  5  6  2  0
  5  7  1  0
  7  8  1  0
  8  9  2  0
  8 10  2  0
  8 11  1  0
 11 12  2  3
 12 13  1  0
 13 14  2  3
 14 15  1  0
 14 16  1  0
 16 17  2  3
 17 11  1  0
M  END
> <Name>
CHLORPROPAMIDE

> <SMILES>
CCCNC(=O)NS(=O)(=O)c1ccc(Cl)cc1

> <Reference>
TR-45

> <Id>
94-20-2

> <Actual Value>
NEG TR-45 : MR: N FR: N MM: N FM: N

> <Predicted Value>
0.000 NEG

> <Used>
1

> <Status>
Non-Carcinogen

> <CanonicalTautomer>
Yes

> <NumberOfTautomers>
2

> <iscarc>
0

$$$$
ROTENONE
  SciTegic06161615502D

 29 33  0  0  0  0            999 V2000
    0.0000    0.0000    0.0000 C   0  0
    0.0000    0.0000    0.0000 O   0  0
    0.0000    0.0000    0.0000 C   0  0
    0.0000    0.0000    0.0000 C   0  0
    0.0000    0.0000    0.0000 C   0  0
    0.0000    0.0000    0.0000 O   0  0
    0.0000    0.0000    0.0000 C   0  0
    0.0000    0.0000    0.0000 C   0  0
    0.0000    0.0000    0.0000 O   0  0
    0.0000    0.0000    0.0000 C   0  0
    0.0000    0.0000    0.0000 C   0  0
    0.0000    0.0000    0.0000 C   0  0
    0.0000    0.0000    0.0000 C   0  0
    0.0000    0.0000    0.0000 O   0  0
    0.0000    0.0000    0.0000 C   0  0
    0.0000    0.0000    0.0000 C   0  0
    0.0000    0.0000    0.0000 C   0  0
    0.0000    0.0000    0.0000 C   0  0
    0.0000    0.0000    0.0000 C   0  0
    0.0000    0.0000    0.0000 O   0  0
    0.0000    0.0000    0.0000 C   0  0
    0.0000    0.0000    0.0000 C   0  0
    0.0000    0.0000    0.0000 C   0  0
    0.0000    0.0000    0.0000 C   0  0
    0.0000    0.0000    0.0000 O   0  0
    0.0000    0.0000    0.0000 C   0  0
    0.0000    0.0000    0.0000 C   0  0
    0.0000    0.0000    0.0000 C   0  0
    0.0000    0.0000    0.0000 C   0  0
  1  2  1  0
  2  3  1  0
  3  4  2  3
  4  5  1  0
  5  6  1  0
  6  7  1  0
  7  8  1  0
  8  9  1  0
  9 10  1  0
 10 11  2  3
 11 12  1  0
 12 13  1  0
 13 14  1  0
 14 15  1  0
 15 11  1  0
 15 16  2  3
 16 17  1  0
 17 18  2  3
 18 10  1  0
 18 19  1  0
 19 20  2  0
 19 21  1  0
 21  8  1  0
 21 22  1  0
 22  5  2  3
 22 23  1  0
 23 24  2  3
 24  3  1  0
 24 25  1  0
 25 26  1  0
 13 27  1  0
 27 28  1  0
 27 29  2  0
M  END
> <Name>
ROTENONE

> <SMILES>
COc5cc4OCC3Oc2c1CC(Oc1ccc2C(=O)C3c4cc5OC)C(C)=C

> <Reference>
TR-320

> <Id>
83-79-4

> <Actual Value>
NEG TR-320 : MR: EE FR: NE MM: NE FM: NE

> <Predicted Value>
0.000 NEG

> <Used>
1

> <Status>
Non-Carcinogen

> <iscarc>
0

$$$$
LITHOCHOLIC ACID
  SciTegic06161615502D

 26 29  0  0  0  0            999 V2000
    0.0000    0.0000    0.0000 C   0  0
    0.0000    0.0000    0.0000 C   0  0
    0.0000    0.0000    0.0000 C   0  0
    0.0000    0.0000    0.0000 C   0  0
    0.0000    0.0000    0.0000 C   0  0
    0.0000    0.0000    0.0000 O   0  0
    0.0000    0.0000    0.0000 O   0  0
    0.0000    0.0000    0.0000 C   0  0
    0.0000    0.0000    0.0000 C   0  0
    0.0000    0.0000    0.0000 C   0  0
    0.0000    0.0000    0.0000 C   0  0
    0.0000    0.0000    0.0000 C   0  0
    0.0000    0.0000    0.0000 C   0  0
    0.0000    0.0000    0.0000 C   0  0
    0.0000    0.0000    0.0000 C   0  0
    0.0000    0.0000    0.0000 C   0  0
    0.0000    0.0000    0.0000 O   0  0
    0.0000    0.0000    0.0000 C   0  0
    0.0000    0.0000    0.0000 C   0  0
    0.0000    0.0000    0.0000 C   0  0
    0.0000    0.0000    0.0000 C   0  0
    0.0000    0.0000    0.0000 C   0  0
    0.0000    0.0000    0.0000 C   0  0
    0.0000    0.0000    0.0000 C   0  0
    0.0000    0.0000    0.0000 C   0  0
    0.0000    0.0000    0.0000 C   0  0
  1  2  1  0
  2  3  1  0
  3  4  1  0
  4  5  1  0
  5  6  1  0
  5  7  2  0
  2  8  1  0
  8  9  1  0
  9 10  1  0
 10 11  1  0
 11 12  1  0
 12 13  1  0
 13 14  1  0
 14 15  1  0
 15 16  1  0
 16 17  1  0
 16 18  1  0
 18 19  1  0
 19 20  1  0
 20 14  1  0
 20 21  1  0
 20 22  1  0
 22 11  1  0
 22 23  1  0
 23 24  1  0
 24 25  1  0
 25  8  1  0
 25 10  1  0
 25 26  1  0
M  END
> <Name>
LITHOCHOLIC ACID

> <SMILES>
CC(CCC(O)=O)C3CC4C2CCC1CC(O)CCC1(C)C2CCC34C

> <Reference>
TR-175

> <Id>
434-13-9

> <Actual Value>
NEG TR-175 : MR: N FR: N MM: N FM: N

> <Predicted Value>
0.000 NEG

> <Used>
1

> <Status>
Non-Carcinogen

> <iscarc>
0

$$$$
DIMETHYL METHYLPHOSPHONATE
  SciTegic06161615502D

  7  6  0  0  0  0            999 V2000
    0.0000    0.0000    0.0000 C   0  0
    0.0000    0.0000    0.0000 O   0  0
    0.0000    0.0000    0.0000 P   0  0
    0.0000    0.0000    0.0000 C   0  0
    0.0000    0.0000    0.0000 O   0  0
    0.0000    0.0000    0.0000 O   0  0
    0.0000    0.0000    0.0000 C   0  0
  1  2  1  0
  2  3  1  0
  3  4  1  0
  3  5  2  0
  3  6  1  0
  6  7  1  0
M  END
> <Name>
DIMETHYL METHYLPHOSPHONATE

> <SMILES>
COP(C)(=O)OC

> <Reference>
TR-323

> <Id>
756-79-6

> <Actual Value>
NEG TR-323 : MR: SE FR: NE MM: IS FM: NE

> <Predicted Value>
0.003 NEG

> <Used>
1

> <Status>
Non-Carcinogen

> <iscarc>
0

$$$$
1-TRANS-DELTA(9)-TETRAHYDROCANNABINOL
  SciTegic06161615502D

 23 25  0  0  0  0            999 V2000
    0.0000    0.0000    0.0000 C   0  0
    0.0000    0.0000    0.0000 C   0  0
    0.0000    0.0000    0.0000 C   0  0
    0.0000    0.0000    0.0000 C   0  0
    0.0000    0.0000    0.0000 C   0  0
    0.0000    0.0000    0.0000 C   0  0
    0.0000    0.0000    0.0000 C   0  0
    0.0000    0.0000    0.0000 C   0  0
    0.0000    0.0000    0.0000 O   0  0
    0.0000    0.0000    0.0000 C   0  0
    0.0000    0.0000    0.0000 C   0  0
    0.0000    0.0000    0.0000 C   0  0
    0.0000    0.0000    0.0000 C   0  0
    0.0000    0.0000    0.0000 C   0  0
    0.0000    0.0000    0.0000 C   0  0
    0.0000    0.0000    0.0000 C   0  0
    0.0000    0.0000    0.0000 C   0  0
    0.0000    0.0000    0.0000 C   0  0
    0.0000    0.0000    0.0000 C   0  0
    0.0000    0.0000    0.0000 C   0  0
    0.0000    0.0000    0.0000 O   0  0
    0.0000    0.0000    0.0000 C   0  0
    0.0000    0.0000    0.0000 C   0  0
  1  2  1  0
  2  3  1  0
  3  4  1  0
  4  5  1  0
  5  6  1  0
  6  7  2  3
  7  8  1  0
  8  9  1  0
  8 10  2  3
 10 11  1  0
 11 12  1  0
 12 13  2  3
 13 14  1  0
 13 15  1  0
 15 16  1  0
 16 17  1  0
 17 11  1  0
 17 18  1  0
 18 19  1  0
 18 20  1  0
 18 21  1  0
 21 22  1  0
 22 10  1  0
 22 23  2  3
 23  6  1  0
M  END
> <Name>
1-TRANS-DELTA(9)-TETRAHYDROCANNABINOL

> <SMILES>
CCCCCc3cc(O)c2C1C=C(C)CCC1C(C)(C)Oc2c3

> <Reference>
TR-446

> <Id>
1972-08-3

> <Actual Value>
NEG TR-446 : MR: NE FR: NE MM: EE FM: EE

> <Predicted Value>
0.000 NEG

> <Used>
1

> <Status>
Non-Carcinogen

> <iscarc>
0

$$$$
TRIMETHYLPHOSPHATE
  SciTegic06161615502D

  8  7  0  0  0  0            999 V2000
    0.0000    0.0000    0.0000 C   0  0
    0.0000    0.0000    0.0000 O   0  0
    0.0000    0.0000    0.0000 P   0  0
    0.0000    0.0000    0.0000 O   0  0
    0.0000    0.0000    0.0000 O   0  0
    0.0000    0.0000    0.0000 C   0  0
    0.0000    0.0000    0.0000 O   0  0
    0.0000    0.0000    0.0000 C   0  0
  1  2  1  0
  2  3  1  0
  3  4  2  0
  3  5  1  0
  5  6  1  0
  3  7  1  0
  7  8  1  0
M  END
> <Name>
TRIMETHYLPHOSPHATE

> <SMILES>
COP(=O)(OC)OC

> <Reference>
TR-81

> <Id>
512-56-1

> <Actual Value>
NEG TR-81 : MR: P FR: N MM: N FM: P

> <Predicted Value>
0.004 NEG

> <Used>
1

> <Status>
Non-Carcinogen

> <iscarc>
0

$$$$
TOLAZAMIDE
  SciTegic06161615502D

 21 22  0  0  0  0            999 V2000
    0.0000    0.0000    0.0000 C   0  0
    0.0000    0.0000    0.0000 C   0  0
    0.0000    0.0000    0.0000 C   0  0
    0.0000    0.0000    0.0000 C   0  0
    0.0000    0.0000    0.0000 C   0  0
    0.0000    0.0000    0.0000 C   0  0
    0.0000    0.0000    0.0000 C   0  0
    0.0000    0.0000    0.0000 S   0  0
    0.0000    0.0000    0.0000 O   0  0
    0.0000    0.0000    0.0000 O   0  0
    0.0000    0.0000    0.0000 N   0  0
    0.0000    0.0000    0.0000 C   0  0
    0.0000    0.0000    0.0000 O   0  0
    0.0000    0.0000    0.0000 N   0  0
    0.0000    0.0000    0.0000 N   0  0
    0.0000    0.0000    0.0000 C   0  0
    0.0000    0.0000    0.0000 C   0  0
    0.0000    0.0000    0.0000 C   0  0
    0.0000    0.0000    0.0000 C   0  0
    0.0000    0.0000    0.0000 C   0  0
    0.0000    0.0000    0.0000 C   0  0
  1  2  1  0
  2  3  2  3
  3  4  1  0
  4  5  2  3
  5  6  1  0
  6  7  2  3
  7  2  1  0
  5  8  1  0
  8  9  2  0
  8 10  2  0
  8 11  1  0
 11 12  1  0
 12 13  2  0
 12 14  1  0
 14 15  1  0
 15 16  1  0
 16 17  1  0
 17 18  1  0
 18 19  1  0
 19 20  1  0
 20 21  1  0
 21 15  1  0
M  END
> <Name>
TOLAZAMIDE

> <SMILES>
Cc1ccc(cc1)S(=O)(=O)NC(=O)NN2CCCCCC2

> <Reference>
TR-51

> <Id>
1156-19-0

> <Actual Value>
NEG TR-51 : MR: N FR: N MM: N FM: N

> <Predicted Value>
0.001 NEG

> <Used>
1

> <Status>
Non-Carcinogen

> <CanonicalTautomer>
Yes

> <NumberOfTautomers>
2

> <iscarc>
0

$$$$
BUTYLATED HYDROXYTOLUENE
  SciTegic06161615502D

 16 16  0  0  0  0            999 V2000
    0.0000    0.0000    0.0000 C   0  0
    0.0000    0.0000    0.0000 C   0  0
    0.0000    0.0000    0.0000 C   0  0
    0.0000    0.0000    0.0000 C   0  0
    0.0000    0.0000    0.0000 C   0  0
    0.0000    0.0000    0.0000 O   0  0
    0.0000    0.0000    0.0000 C   0  0
    0.0000    0.0000    0.0000 C   0  0
    0.0000    0.0000    0.0000 C   0  0
    0.0000    0.0000    0.0000 C   0  0
    0.0000    0.0000    0.0000 C   0  0
    0.0000    0.0000    0.0000 C   0  0
    0.0000    0.0000    0.0000 C   0  0
    0.0000    0.0000    0.0000 C   0  0
    0.0000    0.0000    0.0000 C   0  0
    0.0000    0.0000    0.0000 C   0  0
  1  2  1  0
  2  3  2  3
  3  4  1  0
  4  5  2  3
  5  6  1  0
  5  7  1  0
  7  8  2  3
  8  2  1  0
  7  9  1  0
  9 10  1  0
  9 11  1  0
  9 12  1  0
  4 13  1  0
 13 14  1  0
 13 15  1  0
 13 16  1  0
M  END
> <Name>
BUTYLATED HYDROXYTOLUENE

> <SMILES>
Cc1cc(c(O)c(c1)C(C)(C)C)C(C)(C)C

> <Reference>
TR-150

> <Id>
128-37-0

> <Actual Value>
NEG TR-150 : MR: N FR: N MM: N FM: N

> <Predicted Value>
0.000 NEG

> <Used>
1

> <Status>
Non-Carcinogen

> <iscarc>
0

$$$$
TRIETHANOLAMINE
  SciTegic06161615502D

 10  9  0  0  0  0            999 V2000
    0.0000    0.0000    0.0000 O   0  0
    0.0000    0.0000    0.0000 C   0  0
    0.0000    0.0000    0.0000 C   0  0
    0.0000    0.0000    0.0000 N   0  0
    0.0000    0.0000    0.0000 C   0  0
    0.0000    0.0000    0.0000 C   0  0
    0.0000    0.0000    0.0000 O   0  0
    0.0000    0.0000    0.0000 C   0  0
    0.0000    0.0000    0.0000 C   0  0
    0.0000    0.0000    0.0000 O   0  0
  1  2  1  0
  2  3  1  0
  3  4  1  0
  4  5  1  0
  5  6  1  0
  6  7  1  0
  4  8  1  0
  8  9  1  0
  9 10  1  0
M  END
> <Name>
TRIETHANOLAMINE

> <SMILES>
OCCN(CCO)CCO

> <Reference>
TR-449

> <Id>
102-71-6

> <Actual Value>
NEG TR-449 : MR: EE FR: NE MM: EE FM: SE

> <Predicted Value>
0.001 NEG

> <Used>
1

> <Status>
Non-Carcinogen

> <iscarc>
0

$$$$
CAPROLACTAM
  SciTegic06161615502D

  8  8  0  0  0  0            999 V2000
    0.0000    0.0000    0.0000 O   0  0
    0.0000    0.0000    0.0000 C   0  0
    0.0000    0.0000    0.0000 C   0  0
    0.0000    0.0000    0.0000 C   0  0
    0.0000    0.0000    0.0000 C   0  0
    0.0000    0.0000    0.0000 C   0  0
    0.0000    0.0000    0.0000 C   0  0
    0.0000    0.0000    0.0000 N   0  0
  1  2  2  0
  2  3  1  0
  3  4  1  0
  4  5  1  0
  5  6  1  0
  6  7  1  0
  7  8  1  0
  8  2  1  0
M  END
> <Name>
CAPROLACTAM

> <SMILES>
O=C1CCCCCN1

> <Reference>
TR-214

> <Id>
105-60-2

> <Actual Value>
NEG TR-214 : MR: N FR: N MM: N FM: N

> <Predicted Value>
0.000 NEG

> <Used>
1

> <Status>
Non-Carcinogen

> <iscarc>
0

$$$$
PENICILLIN VK
  SciTegic06161615502D

 24 26  0  0  0  0            999 V2000
    0.0000    0.0000    0.0000 C   0  0
    0.0000    0.0000    0.0000 C   0  0
    0.0000    0.0000    0.0000 C   0  0
    0.0000    0.0000    0.0000 S   0  0
    0.0000    0.0000    0.0000 C   0  0
    0.0000    0.0000    0.0000 C   0  0
    0.0000    0.0000    0.0000 N   0  0
    0.0000    0.0000    0.0000 C   0  0
    0.0000    0.0000    0.0000 O   0  0
    0.0000    0.0000    0.0000 C   0  0
    0.0000    0.0000    0.0000 O   0  0
    0.0000    0.0000    0.0000 C   0  0
    0.0000    0.0000    0.0000 C   0  0
    0.0000    0.0000    0.0000 C   0  0
    0.0000    0.0000    0.0000 C   0  0
    0.0000    0.0000    0.0000 C   0  0
    0.0000    0.0000    0.0000 C   0  0
    0.0000    0.0000    0.0000 C   0  0
    0.0000    0.0000    0.0000 O   0  0
    0.0000    0.0000    0.0000 N   0  0
    0.0000    0.0000    0.0000 C   0  0
    0.0000    0.0000    0.0000 C   0  0
    0.0000    0.0000    0.0000 O   0  0
    0.0000    0.0000    0.0000 O   0  0
  1  2  1  0
  2  3  1  0
  2  4  1  0
  4  5  1  0
  5  6  1  0
  6  7  1  0
  7  8  1  0
  8  9  2  0
  8 10  1  0
 10 11  1  0
 11 12  1  0
 12 13  2  3
 13 14  1  0
 14 15  2  3
 15 16  1  0
 16 17  2  3
 17 12  1  0
  6 18  1  0
 18 19  2  0
 18 20  1  0
 20  5  1  0
 20 21  1  0
 21  2  1  0
 21 22  1  0
 22 23  1  0
 22 24  2  0
M  END
> <Name>
PENICILLIN VK

> <SMILES>
CC3(C)SC2C(NC(=O)COc1ccccc1)C(=O)N2C3C(O)=O

> <Reference>
TR-336

> <Id>
132-98-9

> <Actual Value>
NEG TR-336 : MR: NE FR: NE MM: NE FM: NE

> <Predicted Value>
0.002 NEG

> <Used>
1

> <Status>
Non-Carcinogen

> <iscarc>
0

$$$$
TETRAETHYLTHIURAM DISULFIDE
  SciTegic06161615502D

 16 15  0  0  0  0            999 V2000
    0.0000    0.0000    0.0000 C   0  0
    0.0000    0.0000    0.0000 C   0  0
    0.0000    0.0000    0.0000 N   0  0
    0.0000    0.0000    0.0000 C   0  0
    0.0000    0.0000    0.0000 C   0  0
    0.0000    0.0000    0.0000 C   0  0
    0.0000    0.0000    0.0000 S   0  0
    0.0000    0.0000    0.0000 S   0  0
    0.0000    0.0000    0.0000 S   0  0
    0.0000    0.0000    0.0000 C   0  0
    0.0000    0.0000    0.0000 S   0  0
    0.0000    0.0000    0.0000 N   0  0
    0.0000    0.0000    0.0000 C   0  0
    0.0000    0.0000    0.0000 C   0  0
    0.0000    0.0000    0.0000 C   0  0
    0.0000    0.0000    0.0000 C   0  0
  1  2  1  0
  2  3  1  0
  3  4  1  0
  4  5  1  0
  3  6  1  0
  6  7  2  0
  6  8  1  0
  8  9  1  0
  9 10  1  0
 10 11  2  0
 10 12  1  0
 12 13  1  0
 13 14  1  0
 12 15  1  0
 15 16  1  0
M  END
> <Name>
TETRAETHYLTHIURAM DISULFIDE

> <SMILES>
CCN(CC)C(=S)SSC(=S)N(CC)CC

> <Reference>
TR-166

> <Id>
97-77-8

> <Actual Value>
NEG TR-166 : MR: N FR: N MM: N FM: N

> <Predicted Value>
0.024 NEG

> <Used>
1

> <Status>
Non-Carcinogen

> <iscarc>
0

$$$$
ZEARALENONE
  SciTegic06161615502D

 23 24  0  0  0  0            999 V2000
    0.0000    0.0000    0.0000 C   0  0
    0.0000    0.0000    0.0000 C   0  0
    0.0000    0.0000    0.0000 C   0  0
    0.0000    0.0000    0.0000 C   0  0
    0.0000    0.0000    0.0000 C   0  0
    0.0000    0.0000    0.0000 C   0  0
    0.0000    0.0000    0.0000 O   0  0
    0.0000    0.0000    0.0000 C   0  0
    0.0000    0.0000    0.0000 C   0  0
    0.0000    0.0000    0.0000 C   0  0
    0.0000    0.0000    0.0000 C   0  0
    0.0000    0.0000    0.0000 C   0  0
    0.0000    0.0000    0.0000 C   0  0
    0.0000    0.0000    0.0000 C   0  0
    0.0000    0.0000    0.0000 C   0  0
    0.0000    0.0000    0.0000 O   0  0
    0.0000    0.0000    0.0000 C   0  0
    0.0000    0.0000    0.0000 C   0  0
    0.0000    0.0000    0.0000 O   0  0
    0.0000    0.0000    0.0000 C   0  0
    0.0000    0.0000    0.0000 C   0  0
    0.0000    0.0000    0.0000 O   0  0
    0.0000    0.0000    0.0000 O   0  0
  1  2  1  0
  2  3  1  0
  3  4  1  0
  4  5  1  0
  5  6  1  0
  6  7  2  0
  6  8  1  0
  8  9  1  0
  9 10  1  0
 10 11  1  0
 11 12  2  3
 12 13  1  0
 13 14  2  3
 14 15  1  0
 15 16  1  0
 15 17  2  3
 17 18  1  0
 18 19  1  0
 18 20  2  3
 20 13  1  0
 20 21  1  0
 21 22  2  0
 21 23  1  0
 23  2  1  0
M  END
> <Name>
ZEARALENONE

> <SMILES>
CC2CCCC(=O)CCCC=Cc1cc(O)cc(O)c1C(=O)O2

> <Reference>
TR-235

> <Id>
17924-92-4

> <Actual Value>
NEG TR-235 : MR: N FR: N MM: E FM: E

> <Predicted Value>
0.000 NEG

> <Used>
1

> <Status>
Non-Carcinogen

> <CanonicalTautomer>
Yes

> <NumberOfTautomers>
3

> <iscarc>
0

$$$$
NALIXIC ACID
  SciTegic06161615502D

 17 18  0  0  0  0            999 V2000
    0.0000    0.0000    0.0000 C   0  0
    0.0000    0.0000    0.0000 C   0  0
    0.0000    0.0000    0.0000 N   0  0
    0.0000    0.0000    0.0000 C   0  0
    0.0000    0.0000    0.0000 C   0  0
    0.0000    0.0000    0.0000 C   0  0
    0.0000    0.0000    0.0000 O   0  0
    0.0000    0.0000    0.0000 O   0  0
    0.0000    0.0000    0.0000 C   0  0
    0.0000    0.0000    0.0000 O   0  0
    0.0000    0.0000    0.0000 C   0  0
    0.0000    0.0000    0.0000 C   0  0
    0.0000    0.0000    0.0000 C   0  0
    0.0000    0.0000    0.0000 C   0  0
    0.0000    0.0000    0.0000 C   0  0
    0.0000    0.0000    0.0000 N   0  0
    0.0000    0.0000    0.0000 C   0  0
  1  2  1  0
  2  3  1  0
  3  4  1  0
  4  5  2  3
  5  6  1  0
  6  7  1  0
  6  8  2  0
  5  9  1  0
  9 10  2  0
  9 11  1  0
 11 12  2  3
 12 13  1  0
 13 14  2  3
 14 15  1  0
 14 16  1  0
 16 17  2  3
 17  3  1  0
 17 11  1  0
M  END
> <Name>
NALIXIC ACID

> <SMILES>
CCn1cc(C(O)=O)c(=O)c2ccc(C)nc12

> <Reference>
TR-368

> <Id>
389-08-2

> <Actual Value>
POS TR-368 : MR: CE FR: CE MM: EE FM: NE

> <Predicted Value>
0.993 POS

> <Used>
1

> <Status>
Carcinogen

> <iscarc>
1

$$$$
EUGENOL
  SciTegic06161615502D

 12 12  0  0  0  0            999 V2000
    0.0000    0.0000    0.0000 C   0  0
    0.0000    0.0000    0.0000 O   0  0
    0.0000    0.0000    0.0000 C   0  0
    0.0000    0.0000    0.0000 C   0  0
    0.0000    0.0000    0.0000 C   0  0
    0.0000    0.0000    0.0000 C   0  0
    0.0000    0.0000    0.0000 C   0  0
    0.0000    0.0000    0.0000 C   0  0
    0.0000    0.0000    0.0000 C   0  0
    0.0000    0.0000    0.0000 C   0  0
    0.0000    0.0000    0.0000 C   0  0
    0.0000    0.0000    0.0000 O   0  0
  1  2  1  0
  2  3  1  0
  3  4  2  3
  4  5  1  0
  5  6  1  0
  6  7  1  0
  7  8  2  0
  5  9  2  3
  9 10  1  0
 10 11  2  3
 11  3  1  0
 11 12  1  0
M  END
> <Name>
EUGENOL

> <SMILES>
COc1cc(CC=C)ccc1O

> <Reference>
TR-223

> <Id>
97-53-0

> <Actual Value>
NEG TR-223 : MR: N FR: N MM: E FM: E

> <Predicted Value>
0.000 NEG

> <Used>
1

> <Status>
Non-Carcinogen

> <iscarc>
0

$$$$
N;N-DIMETHYLANILINE
  SciTegic06161615502D

  9  9  0  0  0  0            999 V2000
    0.0000    0.0000    0.0000 C   0  0
    0.0000    0.0000    0.0000 N   0  0
    0.0000    0.0000    0.0000 C   0  0
    0.0000    0.0000    0.0000 C   0  0
    0.0000    0.0000    0.0000 C   0  0
    0.0000    0.0000    0.0000 C   0  0
    0.0000    0.0000    0.0000 C   0  0
    0.0000    0.0000    0.0000 C   0  0
    0.0000    0.0000    0.0000 C   0  0
  1  2  1  0
  2  3  1  0
  2  4  1  0
  4  5  2  3
  5  6  1  0
  6  7  2  3
  7  8  1  0
  8  9  2  3
  9  4  1  0
M  END
> <Name>
N;N-DIMETHYLANILINE

> <SMILES>
CN(C)c1ccccc1

> <Reference>
TR-360

> <Id>
121-69-7

> <Actual Value>
NEG TR-360 : MR: SE FR: NE MM: NE FM: EE

> <Predicted Value>
0.141 NEG

> <Used>
1

> <Status>
Non-Carcinogen

> <iscarc>
0

$$$$
2-CHLOROETHANOL
  SciTegic06161615502D

  4  3  0  0  0  0            999 V2000
    0.0000    0.0000    0.0000 O   0  0
    0.0000    0.0000    0.0000 C   0  0
    0.0000    0.0000    0.0000 C   0  0
    0.0000    0.0000    0.0000 Cl  0  0
  1  2  1  0
  2  3  1  0
  3  4  1  0
M  END
> <Name>
2-CHLOROETHANOL

> <SMILES>
OCCCl

> <Reference>
TR-275

> <Id>
107-07-3

> <Actual Value>
NEG TR-275 : MR: NE FR: NE MM: NE FM: NE

> <Predicted Value>
0.001 NEG

> <Used>
1

> <Status>
Non-Carcinogen

> <iscarc>
0

$$$$
CARBROMAL
  SciTegic06161615502D

 12 11  0  0  0  0            999 V2000
    0.0000    0.0000    0.0000 C   0  0
    0.0000    0.0000    0.0000 C   0  0
    0.0000    0.0000    0.0000 C   0  0
    0.0000    0.0000    0.0000 Br  0  0
    0.0000    0.0000    0.0000 C   0  0
    0.0000    0.0000    0.0000 C   0  0
    0.0000    0.0000    0.0000 C   0  0
    0.0000    0.0000    0.0000 O   0  0
    0.0000    0.0000    0.0000 N   0  0
    0.0000    0.0000    0.0000 C   0  0
    0.0000    0.0000    0.0000 N   0  0
    0.0000    0.0000    0.0000 O   0  0
  1  2  1  0
  2  3  1  0
  3  4  1  0
  3  5  1  0
  5  6  1  0
  3  7  1  0
  7  8  2  0
  7  9  1  0
  9 10  1  0
 10 11  1  0
 10 12  2  0
M  END
> <Name>
CARBROMAL

> <SMILES>
CCC(Br)(CC)C(=O)NC(N)=O

> <Reference>
TR-173

> <Id>
77-65-6

> <Actual Value>
NEG TR-173 : MR: N FR: N MM: N FM: N

> <Predicted Value>
0.000 NEG

> <Used>
1

> <Status>
Non-Carcinogen

> <CanonicalTautomer>
Yes

> <NumberOfTautomers>
3

> <iscarc>
0

$$$$
PROCARBAZINE
  SciTegic06161615502D

 16 16  0  0  0  0            999 V2000
    0.0000    0.0000    0.0000 C   0  0
    0.0000    0.0000    0.0000 N   0  0
    0.0000    0.0000    0.0000 N   0  0
    0.0000    0.0000    0.0000 C   0  0
    0.0000    0.0000    0.0000 C   0  0
    0.0000    0.0000    0.0000 C   0  0
    0.0000    0.0000    0.0000 C   0  0
    0.0000    0.0000    0.0000 C   0  0
    0.0000    0.0000    0.0000 C   0  0
    0.0000    0.0000    0.0000 C   0  0
    0.0000    0.0000    0.0000 C   0  0
    0.0000    0.0000    0.0000 O   0  0
    0.0000    0.0000    0.0000 N   0  0
    0.0000    0.0000    0.0000 C   0  0
    0.0000    0.0000    0.0000 C   0  0
    0.0000    0.0000    0.0000 C   0  0
  1  2  1  0
  2  3  1  0
  3  4  1  0
  4  5  1  0
  5  6  2  3
  6  7  1  0
  7  8  2  3
  8  9  1  0
  9 10  2  3
 10  5  1  0
  8 11  1  0
 11 12  2  0
 11 13  1  0
 13 14  1  0
 14 15  1  0
 14 16  1  0
M  END
> <Name>
PROCARBAZINE

> <SMILES>
CNNCc1ccc(cc1)C(=O)NC(C)C

> <Reference>
TR-19

> <Id>
366-70-1

> <Actual Value>
POS TR-19 : MR: P FR: P MM: P FM: P

> <Predicted Value>
1.000 POS

> <Used>
1

> <Status>
Carcinogen

> <iscarc>
1

$$$$
ALDICARB
  SciTegic06161615502D

 12 11  0  0  0  0            999 V2000
    0.0000    0.0000    0.0000 C   0  0
    0.0000    0.0000    0.0000 N   0  0
    0.0000    0.0000    0.0000 C   0  0
    0.0000    0.0000    0.0000 O   0  0
    0.0000    0.0000    0.0000 O   0  0
    0.0000    0.0000    0.0000 N   0  0
    0.0000    0.0000    0.0000 C   0  0
    0.0000    0.0000    0.0000 C   0  0
    0.0000    0.0000    0.0000 C   0  0
    0.0000    0.0000    0.0000 C   0  0
    0.0000    0.0000    0.0000 S   0  0
    0.0000    0.0000    0.0000 C   0  0
  1  2  1  0
  2  3  1  0
  3  4  2  0
  3  5  1  0
  5  6  1  0
  6  7  2  3
  7  8  1  0
  8  9  1  0
  8 10  1  0
  8 11  1  0
 11 12  1  0
M  END
> <Name>
ALDICARB

> <SMILES>
CNC(=O)ON=CC(C)(C)SC

> <Reference>
TR-136

> <Id>
116-06-3

> <Actual Value>
NEG TR-136 : MR: N FR: N MM: N FM: N

> <Predicted Value>
0.000 NEG

> <Used>
1

> <Status>
Non-Carcinogen

> <iscarc>
0

$$$$
o-CHLOROBENZALMALONONITRILE
  SciTegic06161615502D

 13 13  0  0  0  0            999 V2000
    0.0000    0.0000    0.0000 Cl  0  0
    0.0000    0.0000    0.0000 C   0  0
    0.0000    0.0000    0.0000 C   0  0
    0.0000    0.0000    0.0000 C   0  0
    0.0000    0.0000    0.0000 C   0  0
    0.0000    0.0000    0.0000 C   0  0
    0.0000    0.0000    0.0000 C   0  0
    0.0000    0.0000    0.0000 C   0  0
    0.0000    0.0000    0.0000 C   0  0
    0.0000    0.0000    0.0000 C   0  0
    0.0000    0.0000    0.0000 N   0  0
    0.0000    0.0000    0.0000 C   0  0
    0.0000    0.0000    0.0000 N   0  0
  1  2  1  0
  2  3  2  3
  3  4  1  0
  4  5  2  3
  5  6  1  0
  6  7  2  3
  7  2  1  0
  7  8  1  0
  8  9  2  3
  9 10  1  0
 10 11  3  0
  9 12  1  0
 12 13  3  0
M  END
> <Name>
o-CHLOROBENZALMALONONITRILE

> <SMILES>
Clc1ccccc1C=C(C#N)C#N

> <Reference>
TR-377

> <Id>
2698-41-1

> <Actual Value>
NEG TR-377 : MR: NE FR: NE MM: NE FM: NE

> <Predicted Value>
0.000 NEG

> <Used>
1

> <Status>
Non-Carcinogen

> <iscarc>
0

$$$$
BENZYL ALCOHOL
  SciTegic06161615502D

  8  8  0  0  0  0            999 V2000
    0.0000    0.0000    0.0000 O   0  0
    0.0000    0.0000    0.0000 C   0  0
    0.0000    0.0000    0.0000 C   0  0
    0.0000    0.0000    0.0000 C   0  0
    0.0000    0.0000    0.0000 C   0  0
    0.0000    0.0000    0.0000 C   0  0
    0.0000    0.0000    0.0000 C   0  0
    0.0000    0.0000    0.0000 C   0  0
  1  2  1  0
  2  3  1  0
  3  4  2  3
  4  5  1  0
  5  6  2  3
  6  7  1  0
  7  8  2  3
  8  3  1  0
M  END
> <Name>
BENZYL ALCOHOL

> <SMILES>
OCc1ccccc1

> <Reference>
TR-343

> <Id>
100-51-6

> <Actual Value>
NEG TR-343 : MR: NE FR: NE MM: NE FM: NE

> <Predicted Value>
0.001 NEG

> <Used>
1

> <Status>
Non-Carcinogen

> <iscarc>
0

$$$$
2;4-DIMETHOXYANILINE.HCL
  SciTegic06161615502D

 11 11  0  0  0  0            999 V2000
    0.0000    0.0000    0.0000 C   0  0
    0.0000    0.0000    0.0000 O   0  0
    0.0000    0.0000    0.0000 C   0  0
    0.0000    0.0000    0.0000 C   0  0
    0.0000    0.0000    0.0000 C   0  0
    0.0000    0.0000    0.0000 C   0  0
    0.0000    0.0000    0.0000 N   0  0
    0.0000    0.0000    0.0000 C   0  0
    0.0000    0.0000    0.0000 O   0  0
    0.0000    0.0000    0.0000 C   0  0
    0.0000    0.0000    0.0000 C   0  0
  1  2  1  0
  2  3  1  0
  3  4  2  3
  4  5  1  0
  5  6  2  3
  6  7  1  0
  6  8  1  0
  8  9  1  0
  9 10  1  0
  8 11  2  3
 11  3  1  0
M  END
> <Name>
2;4-DIMETHOXYANILINE.HCL

> <SMILES>
COc1ccc(N)c(OC)c1

> <Reference>
TR-171

> <Id>
54150-69-5

> <Actual Value>
NEG TR-171 : MR: N FR: N MM: N FM: N

> <Predicted Value>
0.409 IND

> <Used>
1

> <Status>
Non-Carcinogen

> <iscarc>
0

$$$$
ALPHA-METHYLDOPA SESQUIHYDRATE
  SciTegic06161615502D

 12 12  0  0  0  0            999 V2000
    0.0000    0.0000    0.0000 C   0  0
    0.0000    0.0000    0.0000 C   0  0
    0.0000    0.0000    0.0000 N   0  0
    0.0000    0.0000    0.0000 C   0  0
    0.0000    0.0000    0.0000 C   0  0
    0.0000    0.0000    0.0000 C   0  0
    0.0000    0.0000    0.0000 C   0  0
    0.0000    0.0000    0.0000 C   0  0
    0.0000    0.0000    0.0000 O   0  0
    0.0000    0.0000    0.0000 C   0  0
    0.0000    0.0000    0.0000 O   0  0
    0.0000    0.0000    0.0000 C   0  0
  1  2  1  0
  2  3  1  0
  2  4  1  0
  4  5  1  0
  5  6  2  3
  6  7  1  0
  7  8  2  3
  8  9  1  0
  8 10  1  0
 10 11  1  0
 10 12  2  3
 12  5  1  0
M  END
> <Name>
ALPHA-METHYLDOPA SESQUIHYDRATE

> <SMILES>
CC(N)Cc1ccc(O)c(O)c1

> <Reference>
TR-348

> <Id>
41372-08-1

> <Actual Value>
NEG TR-348 : MR: NE FR: NE MM: EE FM: NE

> <Predicted Value>
0.000 NEG

> <Used>
1

> <Status>
Non-Carcinogen

> <iscarc>
0

$$$$
p-QUINONE DIOXIME
  SciTegic06161615502D

 10 10  0  0  0  0            999 V2000
    0.0000    0.0000    0.0000 O   0  0
    0.0000    0.0000    0.0000 N   0  0
    0.0000    0.0000    0.0000 C   0  0
    0.0000    0.0000    0.0000 C   0  0
    0.0000    0.0000    0.0000 C   0  0
    0.0000    0.0000    0.0000 C   0  0
    0.0000    0.0000    0.0000 C   0  0
    0.0000    0.0000    0.0000 C   0  0
    0.0000    0.0000    0.0000 N   0  0
    0.0000    0.0000    0.0000 O   0  0
  1  2  2  0
  2  3  1  0
  3  4  1  0
  4  5  2  3
  5  6  1  0
  6  7  1  0
  7  8  2  3
  8  3  1  0
  6  9  1  0
  9 10  2  0
M  END
> <Name>
p-QUINONE DIOXIME

> <SMILES>
O=NC1C=CC(C=C1)N=O

> <Reference>
TR-179

> <Id>
105-11-3

> <Actual Value>
POS TR-179 : MR: N FR: P MM: N FM: N

> <Predicted Value>
1.000 POS

> <Used>
1

> <Status>
Carcinogen

> <iscarc>
1

$$$$
DAMINOZIDE
  SciTegic06161615502D

 11 10  0  0  0  0            999 V2000
    0.0000    0.0000    0.0000 C   0  0
    0.0000    0.0000    0.0000 N   0  0
    0.0000    0.0000    0.0000 C   0  0
    0.0000    0.0000    0.0000 N   0  0
    0.0000    0.0000    0.0000 C   0  0
    0.0000    0.0000    0.0000 O   0  0
    0.0000    0.0000    0.0000 C   0  0
    0.0000    0.0000    0.0000 C   0  0
    0.0000    0.0000    0.0000 C   0  0
    0.0000    0.0000    0.0000 O   0  0
    0.0000    0.0000    0.0000 O   0  0
  1  2  1  0
  2  3  1  0
  2  4  1  0
  4  5  1  0
  5  6  2  0
  5  7  1  0
  7  8  1  0
  8  9  1  0
  9 10  1  0
  9 11  2  0
M  END
> <Name>
DAMINOZIDE

> <SMILES>
CN(C)NC(=O)CCC(O)=O

> <Reference>
TR-83

> <Id>
1596-84-5

> <Actual Value>
POS TR-83 : MR: N FR: P MM: E FM: N

> <Predicted Value>
1.000 POS

> <Used>
1

> <Status>
Carcinogen

> <iscarc>
1

$$$$
3;4-DIHYDROCOUMARIN
  SciTegic06161615502D

 11 12  0  0  0  0            999 V2000
    0.0000    0.0000    0.0000 O   0  0
    0.0000    0.0000    0.0000 C   0  0
    0.0000    0.0000    0.0000 C   0  0
    0.0000    0.0000    0.0000 C   0  0
    0.0000    0.0000    0.0000 C   0  0
    0.0000    0.0000    0.0000 C   0  0
    0.0000    0.0000    0.0000 C   0  0
    0.0000    0.0000    0.0000 C   0  0
    0.0000    0.0000    0.0000 C   0  0
    0.0000    0.0000    0.0000 C   0  0
    0.0000    0.0000    0.0000 O   0  0
  1  2  2  0
  2  3  1  0
  3  4  1  0
  4  5  1  0
  5  6  2  3
  6  7  1  0
  7  8  2  3
  8  9  1  0
  9 10  2  3
 10  5  1  0
 10 11  1  0
 11  2  1  0
M  END
> <Name>
3;4-DIHYDROCOUMARIN

> <SMILES>
O=C2CCc1ccccc1O2

> <Reference>
TR-423

> <Id>
119-84-6

> <Actual Value>
NEG TR-423 : MR: SE FR: NE MM: NE FM: SE

> <Predicted Value>
0.000 NEG

> <Used>
1

> <Status>
Non-Carcinogen

> <iscarc>
0

$$$$
SULFALLATE
  SciTegic06161615502D

 12 11  0  0  0  0            999 V2000
    0.0000    0.0000    0.0000 C   0  0
    0.0000    0.0000    0.0000 C   0  0
    0.0000    0.0000    0.0000 N   0  0
    0.0000    0.0000    0.0000 C   0  0
    0.0000    0.0000    0.0000 C   0  0
    0.0000    0.0000    0.0000 C   0  0
    0.0000    0.0000    0.0000 S   0  0
    0.0000    0.0000    0.0000 S   0  0
    0.0000    0.0000    0.0000 C   0  0
    0.0000    0.0000    0.0000 C   0  0
    0.0000    0.0000    0.0000 Cl  0  0
    0.0000    0.0000    0.0000 C   0  0
  1  2  1  0
  2  3  1  0
  3  4  1  0
  4  5  1  0
  3  6  1  0
  6  7  2  0
  6  8  1  0
  8  9  1  0
  9 10  1  0
 10 11  1  0
 10 12  2  0
M  END
> <Name>
SULFALLATE

> <SMILES>
CCN(CC)C(=S)SCC(Cl)=C

> <Reference>
TR-115

> <Id>
95-06-7

> <Actual Value>
POS TR-115 : MR: P FR: P MM: P FM: P

> <Predicted Value>
1.000 POS

> <Used>
1

> <Status>
Carcinogen

> <iscarc>
1

$$$$
p-ANISIDINE.HCL
  SciTegic06161615502D

  9  9  0  0  0  0            999 V2000
    0.0000    0.0000    0.0000 C   0  0
    0.0000    0.0000    0.0000 O   0  0
    0.0000    0.0000    0.0000 C   0  0
    0.0000    0.0000    0.0000 C   0  0
    0.0000    0.0000    0.0000 C   0  0
    0.0000    0.0000    0.0000 C   0  0
    0.0000    0.0000    0.0000 N   0  0
    0.0000    0.0000    0.0000 C   0  0
    0.0000    0.0000    0.0000 C   0  0
  1  2  1  0
  2  3  1  0
  3  4  2  3
  4  5  1  0
  5  6  2  3
  6  7  1  0
  6  8  1  0
  8  9  2  3
  9  3  1  0
M  END
> <Name>
p-ANISIDINE.HCL

> <SMILES>
COc1ccc(N)cc1

> <Reference>
TR-116

> <Id>
20265-97-8

> <Actual Value>
NEG TR-116 : MR: E FR: N MM: N FM: N

> <Predicted Value>
0.986 POS

> <Used>
1

> <Status>
Non-Carcinogen

> <iscarc>
0

$$$$
p-CRESIDINE
  SciTegic06161615502D

 10 10  0  0  0  0            999 V2000
    0.0000    0.0000    0.0000 C   0  0
    0.0000    0.0000    0.0000 O   0  0
    0.0000    0.0000    0.0000 C   0  0
    0.0000    0.0000    0.0000 C   0  0
    0.0000    0.0000    0.0000 C   0  0
    0.0000    0.0000    0.0000 C   0  0
    0.0000    0.0000    0.0000 C   0  0
    0.0000    0.0000    0.0000 C   0  0
    0.0000    0.0000    0.0000 C   0  0
    0.0000    0.0000    0.0000 N   0  0
  1  2  1  0
  2  3  1  0
  3  4  2  3
  4  5  1  0
  5  6  2  3
  6  7  1  0
  6  8  1  0
  8  9  2  3
  9  3  1  0
  9 10  1  0
M  END
> <Name>
p-CRESIDINE

> <SMILES>
COc1ccc(C)cc1N

> <Reference>
TR-142

> <Id>
120-71-8

> <Actual Value>
POS TR-142 : MR: P FR: P MM: P FM: P

> <Predicted Value>
0.999 POS

> <Used>
1

> <Status>
Carcinogen

> <iscarc>
1

$$$$
m-CRESIDINE
  SciTegic06161615502D

 10 10  0  0  0  0            999 V2000
    0.0000    0.0000    0.0000 C   0  0
    0.0000    0.0000    0.0000 O   0  0
    0.0000    0.0000    0.0000 C   0  0
    0.0000    0.0000    0.0000 C   0  0
    0.0000    0.0000    0.0000 C   0  0
    0.0000    0.0000    0.0000 C   0  0
    0.0000    0.0000    0.0000 N   0  0
    0.0000    0.0000    0.0000 C   0  0
    0.0000    0.0000    0.0000 C   0  0
    0.0000    0.0000    0.0000 C   0  0
  1  2  1  0
  2  3  1  0
  3  4  2  3
  4  5  1  0
  5  6  2  3
  6  7  1  0
  6  8  1  0
  8  9  1  0
  8 10  2  3
 10  3  1  0
M  END
> <Name>
m-CRESIDINE

> <SMILES>
COc1ccc(N)c(C)c1

> <Reference>
TR-105

> <Id>
102-50-1

> <Actual Value>
POS TR-105 : MR: P FR: P MM: IS FM: N

> <Predicted Value>
0.998 POS

> <Used>
1

> <Status>
Carcinogen

> <iscarc>
1

$$$$
TOLUENE
  SciTegic06161615502D

  7  7  0  0  0  0            999 V2000
    0.0000    0.0000    0.0000 C   0  0
    0.0000    0.0000    0.0000 C   0  0
    0.0000    0.0000    0.0000 C   0  0
    0.0000    0.0000    0.0000 C   0  0
    0.0000    0.0000    0.0000 C   0  0
    0.0000    0.0000    0.0000 C   0  0
    0.0000    0.0000    0.0000 C   0  0
  1  2  1  0
  2  3  2  3
  3  4  1  0
  4  5  2  3
  5  6  1  0
  6  7  2  3
  7  2  1  0
M  END
> <Name>
TOLUENE

> <SMILES>
Cc1ccccc1

> <Reference>
TR-371

> <Id>
108-88-3

> <Actual Value>
NEG TR-371 : MR: NE FR: NE MM: NE FM: NE

> <Predicted Value>
0.881 POS

> <Used>
1

> <Status>
Non-Carcinogen

> <iscarc>
0

$$$$
ERYTHROMYCIN STEARATE
  SciTegic06161615502D

 51 53  0  0  0  0            999 V2000
    0.0000    0.0000    0.0000 C   0  0
    0.0000    0.0000    0.0000 C   0  0
    0.0000    0.0000    0.0000 C   0  0
    0.0000    0.0000    0.0000 O   0  0
    0.0000    0.0000    0.0000 C   0  0
    0.0000    0.0000    0.0000 O   0  0
    0.0000    0.0000    0.0000 C   0  0
    0.0000    0.0000    0.0000 C   0  0
    0.0000    0.0000    0.0000 C   0  0
    0.0000    0.0000    0.0000 O   0  0
    0.0000    0.0000    0.0000 C   0  0
    0.0000    0.0000    0.0000 C   0  0
    0.0000    0.0000    0.0000 C   0  0
    0.0000    0.0000    0.0000 C   0  0
    0.0000    0.0000    0.0000 O   0  0
    0.0000    0.0000    0.0000 C   0  0
    0.0000    0.0000    0.0000 C   0  0
    0.0000    0.0000    0.0000 O   0  0
    0.0000    0.0000    0.0000 C   0  0
    0.0000    0.0000    0.0000 C   0  0
    0.0000    0.0000    0.0000 O   0  0
    0.0000    0.0000    0.0000 C   0  0
    0.0000    0.0000    0.0000 C   0  0
    0.0000    0.0000    0.0000 C   0  0
    0.0000    0.0000    0.0000 O   0  0
    0.0000    0.0000    0.0000 C   0  0
    0.0000    0.0000    0.0000 O   0  0
    0.0000    0.0000    0.0000 C   0  0
    0.0000    0.0000    0.0000 C   0  0
    0.0000    0.0000    0.0000 C   0  0
    0.0000    0.0000    0.0000 C   0  0
    0.0000    0.0000    0.0000 C   0  0
    0.0000    0.0000    0.0000 O   0  0
    0.0000    0.0000    0.0000 N   0  0
    0.0000    0.0000    0.0000 C   0  0
    0.0000    0.0000    0.0000 C   0  0
    0.0000    0.0000    0.0000 C   0  0
    0.0000    0.0000    0.0000 C   0  0
    0.0000    0.0000    0.0000 O   0  0
    0.0000    0.0000    0.0000 C   0  0
    0.0000    0.0000    0.0000 C   0  0
    0.0000    0.0000    0.0000 C   0  0
    0.0000    0.0000    0.0000 C   0  0
    0.0000    0.0000    0.0000 O   0  0
    0.0000    0.0000    0.0000 C   0  0
    0.0000    0.0000    0.0000 C   0  0
    0.0000    0.0000    0.0000 C   0  0
    0.0000    0.0000    0.0000 O   0  0
    0.0000    0.0000    0.0000 C   0  0
    0.0000    0.0000    0.0000 C   0  0
    0.0000    0.0000    0.0000 O   0  0
  1  2  1  0
  2  3  1  0
  3  4  1  0
  4  5  1  0
  5  6  2  0
  5  7  1  0
  7  8  1  0
  7  9  1  0
  9 10  1  0
 10 11  1  0
 11 12  1  0
 12 13  1  0
 13 14  1  0
 13 15  1  0
 15 16  1  0
 13 17  1  0
 17 18  1  0
 17 19  1  0
 19 20  1  0
 19 21  1  0
 21 11  1  0
  9 22  1  0
 22 23  1  0
 22 24  1  0
 24 25  1  0
 25 26  1  0
 26 27  1  0
 27 28  1  0
 28 29  1  0
 28 30  1  0
 30 31  1  0
 31 32  1  0
 32 26  1  0
 32 33  1  0
 31 34  1  0
 34 35  1  0
 34 36  1  0
 24 37  1  0
 37 38  1  0
 37 39  1  0
 37 40  1  0
 40 41  1  0
 41 42  1  0
 41 43  1  0
 43 44  2  0
 43 45  1  0
 45 46  1  0
 45 47  1  0
 47 48  1  0
 47 49  1  0
 49  3  1  0
 49 50  1  0
 49 51  1  0
M  END
> <Name>
ERYTHROMYCIN STEARATE

> <SMILES>
CCC3OC(=O)C(C)C(OC1CC(C)(OC)C(O)C(C)O1)C(C)C(OC2OC(C)CC(C2O)N(C)C)C(C)(O)CC(C)C(=O)C(C)C(O)C3(C)O

> <Reference>
TR-338

> <Id>
643-22-1

> <Actual Value>
NEG TR-338 : MR: NE FR: NE MM: NE FM: NE

> <Predicted Value>
0.000 NEG

> <Used>
1

> <Status>
Non-Carcinogen

> <iscarc>
0

$$$$
2;4-DIAMINOANISOLE
  SciTegic06161615502D

 10 10  0  0  0  0            999 V2000
    0.0000    0.0000    0.0000 C   0  0
    0.0000    0.0000    0.0000 O   0  0
    0.0000    0.0000    0.0000 C   0  0
    0.0000    0.0000    0.0000 C   0  0
    0.0000    0.0000    0.0000 C   0  0
    0.0000    0.0000    0.0000 C   0  0
    0.0000    0.0000    0.0000 N   0  0
    0.0000    0.0000    0.0000 C   0  0
    0.0000    0.0000    0.0000 C   0  0
    0.0000    0.0000    0.0000 N   0  0
  1  2  1  0
  2  3  1  0
  3  4  2  3
  4  5  1  0
  5  6  2  3
  6  7  1  0
  6  8  1  0
  8  9  2  3
  9  3  1  0
  9 10  1  0
M  END
> <Name>
2;4-DIAMINOANISOLE

> <SMILES>
COc1ccc(N)cc1N

> <Reference>
TR-84

> <Id>
39156-41-7

> <Actual Value>
POS TR-84 : MR: P FR: P MM: P FM: P

> <Predicted Value>
0.859 POS

> <Used>
1

> <Status>
Carcinogen

> <iscarc>
1

$$$$
4;4'-THIOBIS(6-t-BUTYL-m-CRESOL)
  SciTegic06161615502D

 25 26  0  0  0  0            999 V2000
    0.0000    0.0000    0.0000 C   0  0
    0.0000    0.0000    0.0000 C   0  0
    0.0000    0.0000    0.0000 C   0  0
    0.0000    0.0000    0.0000 C   0  0
    0.0000    0.0000    0.0000 O   0  0
    0.0000    0.0000    0.0000 C   0  0
    0.0000    0.0000    0.0000 C   0  0
    0.0000    0.0000    0.0000 C   0  0
    0.0000    0.0000    0.0000 S   0  0
    0.0000    0.0000    0.0000 C   0  0
    0.0000    0.0000    0.0000 C   0  0
    0.0000    0.0000    0.0000 C   0  0
    0.0000    0.0000    0.0000 C   0  0
    0.0000    0.0000    0.0000 O   0  0
    0.0000    0.0000    0.0000 C   0  0
    0.0000    0.0000    0.0000 C   0  0
    0.0000    0.0000    0.0000 C   0  0
    0.0000    0.0000    0.0000 C   0  0
    0.0000    0.0000    0.0000 C   0  0
    0.0000    0.0000    0.0000 C   0  0
    0.0000    0.0000    0.0000 C   0  0
    0.0000    0.0000    0.0000 C   0  0
    0.0000    0.0000    0.0000 C   0  0
    0.0000    0.0000    0.0000 C   0  0
    0.0000    0.0000    0.0000 C   0  0
  1  2  1  0
  2  3  2  3
  3  4  1  0
  4  5  1  0
  4  6  2  3
  6  7  1  0
  7  8  2  3
  8  2  1  0
  8  9  1  0
  9 10  1  0
 10 11  2  3
 11 12  1  0
 12 13  2  3
 13 14  1  0
 13 15  1  0
 15 16  2  3
 16 10  1  0
 16 17  1  0
 12 18  1  0
 18 19  1  0
 18 20  1  0
 18 21  1  0
  6 22  1  0
 22 23  1  0
 22 24  1  0
 22 25  1  0
M  END
> <Name>
4;4'-THIOBIS(6-t-BUTYL-m-CRESOL)

> <SMILES>
Cc1cc(O)c(cc1Sc2cc(c(O)cc2C)C(C)(C)C)C(C)(C)C

> <Reference>
TR-435

> <Id>
96-69-5

> <Actual Value>
NEG TR-435 : MR: NE FR: NE MM: NE FM: NE

> <Predicted Value>
0.001 NEG

> <Used>
1

> <Status>
Non-Carcinogen

> <iscarc>
0

$$$$
ETHYLENE THIOUREA
  SciTegic06161615502D

  6  6  0  0  0  0            999 V2000
    0.0000    0.0000    0.0000 S   0  0
    0.0000    0.0000    0.0000 C   0  0
    0.0000    0.0000    0.0000 N   0  0
    0.0000    0.0000    0.0000 C   0  0
    0.0000    0.0000    0.0000 C   0  0
    0.0000    0.0000    0.0000 N   0  0
  1  2  2  0
  2  3  1  0
  3  4  1  0
  4  5  1  0
  5  6  1  0
  6  2  1  0
M  END
> <Name>
ETHYLENE THIOUREA

> <SMILES>
S=C1NCCN1

> <Reference>
TR-388

> <Id>
96-45-7

> <Actual Value>
POS TR-388 : MR: CE FR: CE MM: CE FM: CE

> <Predicted Value>
1.000 POS

> <Used>
1

> <Status>
Carcinogen

> <CanonicalTautomer>
Yes

> <NumberOfTautomers>
3

> <iscarc>
1

$$$$
CHLORPHENIRAMINE MALEATE
  SciTegic06161615502D

 19 20  0  0  0  0            999 V2000
    0.0000    0.0000    0.0000 C   0  0
    0.0000    0.0000    0.0000 N   0  0
    0.0000    0.0000    0.0000 C   0  0
    0.0000    0.0000    0.0000 C   0  0
    0.0000    0.0000    0.0000 C   0  0
    0.0000    0.0000    0.0000 C   0  0
    0.0000    0.0000    0.0000 C   0  0
    0.0000    0.0000    0.0000 C   0  0
    0.0000    0.0000    0.0000 C   0  0
    0.0000    0.0000    0.0000 C   0  0
    0.0000    0.0000    0.0000 Cl  0  0
    0.0000    0.0000    0.0000 C   0  0
    0.0000    0.0000    0.0000 C   0  0
    0.0000    0.0000    0.0000 C   0  0
    0.0000    0.0000    0.0000 C   0  0
    0.0000    0.0000    0.0000 C   0  0
    0.0000    0.0000    0.0000 C   0  0
    0.0000    0.0000    0.0000 C   0  0
    0.0000    0.0000    0.0000 N   0  0
  1  2  1  0
  2  3  1  0
  2  4  1  0
  4  5  1  0
  5  6  1  0
  6  7  1  0
  7  8  2  3
  8  9  1  0
  9 10  2  3
 10 11  1  0
 10 12  1  0
 12 13  2  3
 13  7  1  0
  6 14  1  0
 14 15  2  3
 15 16  1  0
 16 17  2  3
 17 18  1  0
 18 19  2  3
 19 14  1  0
M  END
> <Name>
CHLORPHENIRAMINE MALEATE

> <SMILES>
CN(C)CCC(c1ccc(Cl)cc1)c2ccccn2

> <Reference>
TR-317

> <Id>
113-92-8

> <Actual Value>
NEG TR-317 : MR: NE FR: NE MM: NE FM: NE

> <Predicted Value>
0.000 NEG

> <Used>
1

> <Status>
Non-Carcinogen

> <iscarc>
0

$$$$
PROMETHAZINE.HCL
  SciTegic06161615502D

 20 22  0  0  0  0            999 V2000
    0.0000    0.0000    0.0000 C   0  0
    0.0000    0.0000    0.0000 C   0  0
    0.0000    0.0000    0.0000 C   0  0
    0.0000    0.0000    0.0000 N   0  0
    0.0000    0.0000    0.0000 C   0  0
    0.0000    0.0000    0.0000 C   0  0
    0.0000    0.0000    0.0000 C   0  0
    0.0000    0.0000    0.0000 C   0  0
    0.0000    0.0000    0.0000 C   0  0
    0.0000    0.0000    0.0000 C   0  0
    0.0000    0.0000    0.0000 S   0  0
    0.0000    0.0000    0.0000 C   0  0
    0.0000    0.0000    0.0000 C   0  0
    0.0000    0.0000    0.0000 C   0  0
    0.0000    0.0000    0.0000 C   0  0
    0.0000    0.0000    0.0000 C   0  0
    0.0000    0.0000    0.0000 C   0  0
    0.0000    0.0000    0.0000 N   0  0
    0.0000    0.0000    0.0000 C   0  0
    0.0000    0.0000    0.0000 C   0  0
  1  2  1  0
  2  3  1  0
  3  4  1  0
  4  5  1  0
  5  6  2  3
  6  7  1  0
  7  8  2  3
  8  9  1  0
  9 10  2  3
 10  5  1  0
 10 11  1  0
 11 12  1  0
 12 13  2  3
 13 14  1  0
 14 15  2  3
 15 16  1  0
 16 17  2  3
 17  4  1  0
 17 12  1  0
  2 18  1  0
 18 19  1  0
 18 20  1  0
M  END
> <Name>
PROMETHAZINE.HCL

> <SMILES>
CC(CN2c1ccccc1Sc3ccccc23)N(C)C

> <Reference>
TR-425

> <Id>
58-33-3

> <Actual Value>
NEG TR-425 : MR: NE FR: NE MM: NE FM: NE

> <Predicted Value>
0.000 NEG

> <Used>
1

> <Status>
Non-Carcinogen

> <iscarc>
0

$$$$
2;2-BIS(BROMOMETHYL)-1;3-PROPANEDIOL
  SciTegic06161615502D

  9  8  0  0  0  0            999 V2000
    0.0000    0.0000    0.0000 O   0  0
    0.0000    0.0000    0.0000 C   0  0
    0.0000    0.0000    0.0000 C   0  0
    0.0000    0.0000    0.0000 C   0  0
    0.0000    0.0000    0.0000 O   0  0
    0.0000    0.0000    0.0000 C   0  0
    0.0000    0.0000    0.0000 Br  0  0
    0.0000    0.0000    0.0000 C   0  0
    0.0000    0.0000    0.0000 Br  0  0
  1  2  1  0
  2  3  1  0
  3  4  1  0
  4  5  1  0
  3  6  1  0
  6  7  1  0
  3  8  1  0
  8  9  1  0
M  END
> <Name>
2;2-BIS(BROMOMETHYL)-1;3-PROPANEDIOL

> <SMILES>
OCC(CO)(CBr)CBr

> <Reference>
TR-452

> <Id>
3296-90-0

> <Actual Value>
POS TR-452 : MR: CE FR: CE MM: CE FM: CE

> <Predicted Value>
1.000 POS

> <Used>
1

> <Status>
Carcinogen

> <iscarc>
1

$$$$
MONURON
  SciTegic06161615502D

 13 13  0  0  0  0            999 V2000
    0.0000    0.0000    0.0000 C   0  0
    0.0000    0.0000    0.0000 N   0  0
    0.0000    0.0000    0.0000 C   0  0
    0.0000    0.0000    0.0000 C   0  0
    0.0000    0.0000    0.0000 O   0  0
    0.0000    0.0000    0.0000 N   0  0
    0.0000    0.0000    0.0000 C   0  0
    0.0000    0.0000    0.0000 C   0  0
    0.0000    0.0000    0.0000 C   0  0
    0.0000    0.0000    0.0000 C   0  0
    0.0000    0.0000    0.0000 Cl  0  0
    0.0000    0.0000    0.0000 C   0  0
    0.0000    0.0000    0.0000 C   0  0
  1  2  1  0
  2  3  1  0
  2  4  1  0
  4  5  2  0
  4  6  1  0
  6  7  1  0
  7  8  2  3
  8  9  1  0
  9 10  2  3
 10 11  1  0
 10 12  1  0
 12 13  2  3
 13  7  1  0
M  END
> <Name>
MONURON

> <SMILES>
CN(C)C(=O)Nc1ccc(Cl)cc1

> <Reference>
TR-266

> <Id>
150-68-5

> <Actual Value>
NEG TR-266 : MR: CE FR: NE MM: NE FM: NE

> <Predicted Value>
0.000 NEG

> <Used>
1

> <Status>
Non-Carcinogen

> <CanonicalTautomer>
Yes

> <NumberOfTautomers>
2

> <iscarc>
0

$$$$
o-NITROANISOLE
  SciTegic06161615502D

 11 11  0  0  0  0            999 V2000
    0.0000    0.0000    0.0000 C   0  0
    0.0000    0.0000    0.0000 O   0  0
    0.0000    0.0000    0.0000 C   0  0
    0.0000    0.0000    0.0000 C   0  0
    0.0000    0.0000    0.0000 C   0  0
    0.0000    0.0000    0.0000 C   0  0
    0.0000    0.0000    0.0000 C   0  0
    0.0000    0.0000    0.0000 C   0  0
    0.0000    0.0000    0.0000 N   0  0
    0.0000    0.0000    0.0000 O   0  0
    0.0000    0.0000    0.0000 O   0  0
  1  2  1  0
  2  3  1  0
  3  4  2  3
  4  5  1  0
  5  6  2  3
  6  7  1  0
  7  8  2  3
  8  3  1  0
  8  9  1  0
  9 10  2  0
  9 11  2  0
M  END
> <Name>
o-NITROANISOLE

> <SMILES>
COc1ccccc1N(=O)=O

> <Reference>
TR-416

> <Id>
91-23-6

> <Actual Value>
POS TR-416 : MR: CE FR: CE MM: CE FM: SE

> <Predicted Value>
0.999 POS

> <Used>
1

> <Status>
Carcinogen

> <iscarc>
1

$$$$
5-NITRO-O-ANISIDINE
  SciTegic06161615502D

 12 12  0  0  0  0            999 V2000
    0.0000    0.0000    0.0000 C   0  0
    0.0000    0.0000    0.0000 O   0  0
    0.0000    0.0000    0.0000 C   0  0
    0.0000    0.0000    0.0000 C   0  0
    0.0000    0.0000    0.0000 C   0  0
    0.0000    0.0000    0.0000 C   0  0
    0.0000    0.0000    0.0000 C   0  0
    0.0000    0.0000    0.0000 C   0  0
    0.0000    0.0000    0.0000 N   0  0
    0.0000    0.0000    0.0000 N   0  0
    0.0000    0.0000    0.0000 O   0  0
    0.0000    0.0000    0.0000 O   0  0
  1  2  1  0
  2  3  1  0
  3  4  2  3
  4  5  1  0
  5  6  2  3
  6  7  1  0
  7  8  2  3
  8  3  1  0
  8  9  1  0
  6 10  1  0
 10 11  2  0
 10 12  2  0
M  END
> <Name>
5-NITRO-O-ANISIDINE

> <SMILES>
COc1ccc(cc1N)N(=O)=O

> <Reference>
TR-127

> <Id>
99-59-2

> <Actual Value>
POS TR-127 : MR: P FR: P MM: E FM: P

> <Predicted Value>
1.000 POS

> <Used>
1

> <Status>
Carcinogen

> <iscarc>
1

$$$$
METHYL CARBAMATE
  SciTegic06161615502D

  5  4  0  0  0  0            999 V2000
    0.0000    0.0000    0.0000 C   0  0
    0.0000    0.0000    0.0000 O   0  0
    0.0000    0.0000    0.0000 C   0  0
    0.0000    0.0000    0.0000 N   0  0
    0.0000    0.0000    0.0000 O   0  0
  1  2  1  0
  2  3  1  0
  3  4  1  0
  3  5  2  0
M  END
> <Name>
METHYL CARBAMATE

> <SMILES>
COC(N)=O

> <Reference>
TR-328

> <Id>
598-55-0

> <Actual Value>
POS TR-328 : MR: CE FR: CE MM: NE FM: NE

> <Predicted Value>
1.000 POS

> <Used>
1

> <Status>
Carcinogen

> <iscarc>
1

$$$$
TRIS(2;3-DIBROMOPROPYL)PHOSPHATE
  SciTegic06161615502D

 20 19  0  0  0  0            999 V2000
    0.0000    0.0000    0.0000 Br  0  0
    0.0000    0.0000    0.0000 C   0  0
    0.0000    0.0000    0.0000 C   0  0
    0.0000    0.0000    0.0000 Br  0  0
    0.0000    0.0000    0.0000 C   0  0
    0.0000    0.0000    0.0000 O   0  0
    0.0000    0.0000    0.0000 P   0  0
    0.0000    0.0000    0.0000 O   0  0
    0.0000    0.0000    0.0000 O   0  0
    0.0000    0.0000    0.0000 C   0  0
    0.0000    0.0000    0.0000 C   0  0
    0.0000    0.0000    0.0000 Br  0  0
    0.0000    0.0000    0.0000 C   0  0
    0.0000    0.0000    0.0000 Br  0  0
    0.0000    0.0000    0.0000 O   0  0
    0.0000    0.0000    0.0000 C   0  0
    0.0000    0.0000    0.0000 C   0  0
    0.0000    0.0000    0.0000 Br  0  0
    0.0000    0.0000    0.0000 C   0  0
    0.0000    0.0000    0.0000 Br  0  0
  1  2  1  0
  2  3  1  0
  3  4  1  0
  3  5  1  0
  5  6  1  0
  6  7  1  0
  7  8  2  0
  7  9  1  0
  9 10  1  0
 10 11  1  0
 11 12  1  0
 11 13  1  0
 13 14  1  0
  7 15  1  0
 15 16  1  0
 16 17  1  0
 17 18  1  0
 17 19  1  0
 19 20  1  0
M  END
> <Name>
TRIS(2;3-DIBROMOPROPYL)PHOSPHATE

> <SMILES>
BrCC(Br)COP(=O)(OCC(Br)CBr)OCC(Br)CBr

> <Reference>
TR-76

> <Id>
126-72-7

> <Actual Value>
POS TR-76 : MR: P FR: P MM: P FM: P

> <Predicted Value>
1.000 POS

> <Used>
1

> <Status>
Carcinogen

> <iscarc>
1

$$$$
p;p'-ETHYL-DDD
  SciTegic06161615502D

 20 21  0  0  0  0            999 V2000
    0.0000    0.0000    0.0000 C   0  0
    0.0000    0.0000    0.0000 C   0  0
    0.0000    0.0000    0.0000 C   0  0
    0.0000    0.0000    0.0000 C   0  0
    0.0000    0.0000    0.0000 C   0  0
    0.0000    0.0000    0.0000 C   0  0
    0.0000    0.0000    0.0000 C   0  0
    0.0000    0.0000    0.0000 C   0  0
    0.0000    0.0000    0.0000 C   0  0
    0.0000    0.0000    0.0000 C   0  0
    0.0000    0.0000    0.0000 Cl  0  0
    0.0000    0.0000    0.0000 Cl  0  0
    0.0000    0.0000    0.0000 C   0  0
    0.0000    0.0000    0.0000 C   0  0
    0.0000    0.0000    0.0000 C   0  0
    0.0000    0.0000    0.0000 C   0  0
    0.0000    0.0000    0.0000 C   0  0
    0.0000    0.0000    0.0000 C   0  0
    0.0000    0.0000    0.0000 C   0  0
    0.0000    0.0000    0.0000 C   0  0
  1  2  1  0
  2  3  1  0
  3  4  2  3
  4  5  1  0
  5  6  2  3
  6  7  1  0
  7  8  2  3
  8  3  1  0
  6  9  1  0
  9 10  1  0
 10 11  1  0
 10 12  1  0
  9 13  1  0
 13 14  2  3
 14 15  1  0
 15 16  2  3
 16 17  1  0
 17 18  1  0
 16 19  1  0
 19 20  2  3
 20 13  1  0
M  END
> <Name>
p;p'-ETHYL-DDD

> <SMILES>
CCc1ccc(cc1)C(C(Cl)Cl)c2ccc(CC)cc2

> <Reference>
TR-156

> <Id>
72-56-0

> <Actual Value>
NEG TR-156 : MR: N FR: N MM: N FM: E

> <Predicted Value>
0.000 NEG

> <Used>
1

> <Status>
Non-Carcinogen

> <iscarc>
0

$$$$
NITROFURAZONE
  SciTegic06161615502D

 14 14  0  0  0  0            999 V2000
    0.0000    0.0000    0.0000 N   0  0
    0.0000    0.0000    0.0000 C   0  0
    0.0000    0.0000    0.0000 O   0  0
    0.0000    0.0000    0.0000 N   0  0
    0.0000    0.0000    0.0000 N   0  0
    0.0000    0.0000    0.0000 C   0  0
    0.0000    0.0000    0.0000 C   0  0
    0.0000    0.0000    0.0000 C   0  0
    0.0000    0.0000    0.0000 C   0  0
    0.0000    0.0000    0.0000 C   0  0
    0.0000    0.0000    0.0000 O   0  0
    0.0000    0.0000    0.0000 N   0  0
    0.0000    0.0000    0.0000 O   0  0
    0.0000    0.0000    0.0000 O   0  0
  1  2  1  0
  2  3  2  0
  2  4  1  0
  4  5  1  0
  5  6  2  3
  6  7  1  0
  7  8  2  3
  8  9  1  0
  9 10  2  3
 10 11  1  0
 11  7  1  0
 10 12  1  0
 12 13  2  0
 12 14  2  0
M  END
> <Name>
NITROFURAZONE

> <SMILES>
NC(=O)NN=Cc1ccc(o1)N(=O)=O

> <Reference>
TR-337

> <Id>
59-87-0

> <Actual Value>
POS TR-337 : MR: EE FR: CE MM: NE FM: CE

> <Predicted Value>
1.000 POS

> <Used>
1

> <Status>
Carcinogen

> <CanonicalTautomer>
Yes

> <NumberOfTautomers>
2

> <iscarc>
1

$$$$
PHENYLBUTAZONE
  SciTegic06161615502D

 23 25  0  0  0  0            999 V2000
    0.0000    0.0000    0.0000 C   0  0
    0.0000    0.0000    0.0000 C   0  0
    0.0000    0.0000    0.0000 C   0  0
    0.0000    0.0000    0.0000 C   0  0
    0.0000    0.0000    0.0000 C   0  0
    0.0000    0.0000    0.0000 C   0  0
    0.0000    0.0000    0.0000 O   0  0
    0.0000    0.0000    0.0000 N   0  0
    0.0000    0.0000    0.0000 N   0  0
    0.0000    0.0000    0.0000 C   0  0
    0.0000    0.0000    0.0000 O   0  0
    0.0000    0.0000    0.0000 C   0  0
    0.0000    0.0000    0.0000 C   0  0
    0.0000    0.0000    0.0000 C   0  0
    0.0000    0.0000    0.0000 C   0  0
    0.0000    0.0000    0.0000 C   0  0
    0.0000    0.0000    0.0000 C   0  0
    0.0000    0.0000    0.0000 C   0  0
    0.0000    0.0000    0.0000 C   0  0
    0.0000    0.0000    0.0000 C   0  0
    0.0000    0.0000    0.0000 C   0  0
    0.0000    0.0000    0.0000 C   0  0
    0.0000    0.0000    0.0000 C   0  0
  1  2  1  0
  2  3  1  0
  3  4  1  0
  4  5  1  0
  5  6  1  0
  6  7  2  0
  6  8  1  0
  8  9  1  0
  9 10  1  0
 10  5  1  0
 10 11  2  0
  9 12  1  0
 12 13  2  3
 13 14  1  0
 14 15  2  3
 15 16  1  0
 16 17  2  3
 17 12  1  0
  8 18  1  0
 18 19  2  3
 19 20  1  0
 20 21  2  3
 21 22  1  0
 22 23  2  3
 23 18  1  0
M  END
> <Name>
PHENYLBUTAZONE

> <SMILES>
CCCCC1C(=O)N(N(C1=O)c2ccccc2)c3ccccc3

> <Reference>
TR-367

> <Id>
50-33-9

> <Actual Value>
POS TR-367 : MR: EE FR: SE MM: SE FM: NE

> <Predicted Value>
1.000 POS

> <Used>
1

> <Status>
Carcinogen

> <iscarc>
1

$$$$
1;2-DIBROMOETHANE
  SciTegic06161615502D

  4  3  0  0  0  0            999 V2000
    0.0000    0.0000    0.0000 Br  0  0
    0.0000    0.0000    0.0000 C   0  0
    0.0000    0.0000    0.0000 C   0  0
    0.0000    0.0000    0.0000 Br  0  0
  1  2  1  0
  2  3  1  0
  3  4  1  0
M  END
> <Name>
1;2-DIBROMOETHANE

> <SMILES>
BrCCBr

> <Reference>
TR-210 (TR-86: Low Purity)

> <Id>
106-93-4

> <Actual Value>
POS TR-210 : MR: P FR: P MM: P FM: P

> <Predicted Value>
T

> <Used>
1.000 POS

> <Additional Info(LOAEL)>
1

> <Status>
Carcinogen

> <iscarc>
1

$$$$
SUCCINIC ANHYDRIDE
  SciTegic06161615502D

  7  7  0  0  0  0            999 V2000
    0.0000    0.0000    0.0000 O   0  0
    0.0000    0.0000    0.0000 C   0  0
    0.0000    0.0000    0.0000 C   0  0
    0.0000    0.0000    0.0000 C   0  0
    0.0000    0.0000    0.0000 C   0  0
    0.0000    0.0000    0.0000 O   0  0
    0.0000    0.0000    0.0000 O   0  0
  1  2  2  0
  2  3  1  0
  3  4  1  0
  4  5  1  0
  5  6  2  0
  5  7  1  0
  7  2  1  0
M  END
> <Name>
SUCCINIC ANHYDRIDE

> <SMILES>
O=C1CCC(=O)O1

> <Reference>
TR-373

> <Id>
108-30-5

> <Actual Value>
NEG TR-373 : MR: NE FR: NE MM: NE FM: NE

> <Predicted Value>
0.000 NEG

> <Used>
1

> <Status>
Non-Carcinogen

> <iscarc>
0

$$$$
SULFISOOXAZOLE
  SciTegic06161615502D

 18 19  0  0  0  0            999 V2000
    0.0000    0.0000    0.0000 C   0  0
    0.0000    0.0000    0.0000 C   0  0
    0.0000    0.0000    0.0000 N   0  0
    0.0000    0.0000    0.0000 O   0  0
    0.0000    0.0000    0.0000 C   0  0
    0.0000    0.0000    0.0000 N   0  0
    0.0000    0.0000    0.0000 S   0  0
    0.0000    0.0000    0.0000 O   0  0
    0.0000    0.0000    0.0000 O   0  0
    0.0000    0.0000    0.0000 C   0  0
    0.0000    0.0000    0.0000 C   0  0
    0.0000    0.0000    0.0000 C   0  0
    0.0000    0.0000    0.0000 C   0  0
    0.0000    0.0000    0.0000 N   0  0
    0.0000    0.0000    0.0000 C   0  0
    0.0000    0.0000    0.0000 C   0  0
    0.0000    0.0000    0.0000 C   0  0
    0.0000    0.0000    0.0000 C   0  0
  1  2  1  0
  2  3  2  3
  3  4  1  0
  4  5  1  0
  5  6  1  0
  6  7  1  0
  7  8  2  0
  7  9  2  0
  7 10  1  0
 10 11  2  3
 11 12  1  0
 12 13  2  3
 13 14  1  0
 13 15  1  0
 15 16  2  3
 16 10  1  0
  5 17  2  3
 17  2  1  0
 17 18  1  0
M  END
> <Name>
SULFISOOXAZOLE

> <SMILES>
Cc2noc(NS(=O)(=O)c1ccc(N)cc1)c2C

> <Reference>
TR-138

> <Id>
127-69-5

> <Actual Value>
NEG TR-138 : MR: N FR: N MM: N FM: N

> <Predicted Value>
0.001 NEG

> <Used>
1

> <Status>
Non-Carcinogen

> <CanonicalTautomer>
Yes

> <NumberOfTautomers>
2

> <iscarc>
0

$$$$
DISPERSE YELLOW 3
  SciTegic06161615502D

 20 21  0  0  0  0            999 V2000
    0.0000    0.0000    0.0000 C   0  0
    0.0000    0.0000    0.0000 C   0  0
    0.0000    0.0000    0.0000 O   0  0
    0.0000    0.0000    0.0000 N   0  0
    0.0000    0.0000    0.0000 C   0  0
    0.0000    0.0000    0.0000 C   0  0
    0.0000    0.0000    0.0000 C   0  0
    0.0000    0.0000    0.0000 C   0  0
    0.0000    0.0000    0.0000 N   0  0
    0.0000    0.0000    0.0000 N   0  0
    0.0000    0.0000    0.0000 C   0  0
    0.0000    0.0000    0.0000 C   0  0
    0.0000    0.0000    0.0000 C   0  0
    0.0000    0.0000    0.0000 C   0  0
    0.0000    0.0000    0.0000 C   0  0
    0.0000    0.0000    0.0000 C   0  0
    0.0000    0.0000    0.0000 C   0  0
    0.0000    0.0000    0.0000 O   0  0
    0.0000    0.0000    0.0000 C   0  0
    0.0000    0.0000    0.0000 C   0  0
  1  2  1  0
  2  3  2  0
  2  4  1  0
  4  5  1  0
  5  6  2  3
  6  7  1  0
  7  8  2  3
  8  9  1  0
  9 10  2  3
 10 11  1  0
 11 12  2  3
 12 13  1  0
 13 14  1  0
 13 15  2  3
 15 16  1  0
 16 17  2  3
 17 11  1  0
 17 18  1  0
  8 19  1  0
 19 20  2  3
 20  5  1  0
M  END
> <Name>
DISPERSE YELLOW 3

> <SMILES>
CC(=O)Nc2ccc(N=Nc1cc(C)ccc1O)cc2

> <Reference>
TR-222

> <Id>
2832-40-8

> <Actual Value>
NEG TR-222 : MR: P FR: N MM: N FM: P

> <Predicted Value>
0.000 NEG

> <Used>
1

> <Status>
Non-Carcinogen

> <CanonicalTautomer>
Yes

> <NumberOfTautomers>
5

> <iscarc>
0

$$$$
EPHEDRINE SULPHATE
  SciTegic06161615502D

 12 12  0  0  0  0            999 V2000
    0.0000    0.0000    0.0000 C   0  0
    0.0000    0.0000    0.0000 N   0  0
    0.0000    0.0000    0.0000 C   0  0
    0.0000    0.0000    0.0000 C   0  0
    0.0000    0.0000    0.0000 C   0  0
    0.0000    0.0000    0.0000 O   0  0
    0.0000    0.0000    0.0000 C   0  0
    0.0000    0.0000    0.0000 C   0  0
    0.0000    0.0000    0.0000 C   0  0
    0.0000    0.0000    0.0000 C   0  0
    0.0000    0.0000    0.0000 C   0  0
    0.0000    0.0000    0.0000 C   0  0
  1  2  1  0
  2  3  1  0
  3  4  1  0
  3  5  1  0
  5  6  1  0
  5  7  1  0
  7  8  2  3
  8  9  1  0
  9 10  2  3
 10 11  1  0
 11 12  2  3
 12  7  1  0
M  END
> <Name>
EPHEDRINE SULPHATE

> <SMILES>
CNC(C)C(O)c1ccccc1

> <Reference>
TR-307

> <Id>
134-72-5

> <Actual Value>
NEG TR-307 : MR: NE FR: NE MM: NE FM: NE

> <Predicted Value>
0.000 NEG

> <Used>
1

> <Status>
Non-Carcinogen

> <iscarc>
0

$$$$
3-AMINO-9-ETHYLCARBAZOLE.HCL
  SciTegic06161615502D

 16 18  0  0  0  0            999 V2000
    0.0000    0.0000    0.0000 C   0  0
    0.0000    0.0000    0.0000 C   0  0
    0.0000    0.0000    0.0000 N   0  0
    0.0000    0.0000    0.0000 C   0  0
    0.0000    0.0000    0.0000 C   0  0
    0.0000    0.0000    0.0000 C   0  0
    0.0000    0.0000    0.0000 C   0  0
    0.0000    0.0000    0.0000 C   0  0
    0.0000    0.0000    0.0000 C   0  0
    0.0000    0.0000    0.0000 C   0  0
    0.0000    0.0000    0.0000 C   0  0
    0.0000    0.0000    0.0000 C   0  0
    0.0000    0.0000    0.0000 N   0  0
    0.0000    0.0000    0.0000 C   0  0
    0.0000    0.0000    0.0000 C   0  0
    0.0000    0.0000    0.0000 C   0  0
  1  2  1  0
  2  3  1  0
  3  4  1  0
  4  5  2  3
  5  6  1  0
  6  7  2  3
  7  8  1  0
  8  9  2  3
  9  4  1  0
  9 10  1  0
 10 11  2  3
 11 12  1  0
 12 13  1  0
 12 14  2  3
 14 15  1  0
 15 16  2  3
 16  3  1  0
 16 10  1  0
M  END
> <Name>
3-AMINO-9-ETHYLCARBAZOLE.HCL

> <SMILES>
CCn2c1ccccc1c3cc(N)ccc23

> <Reference>
TR-93

> <Id>
132-32-1

> <Actual Value>
POS TR-93 : MR: P FR: P MM: P FM: P

> <Predicted Value>
1.000 POS

> <Used>
1

> <Status>
Carcinogen

> <iscarc>
1

$$$$
4-CHLORO-o-TOLUIDINE.HCL
  SciTegic06161615502D

  9  9  0  0  0  0            999 V2000
    0.0000    0.0000    0.0000 C   0  0
    0.0000    0.0000    0.0000 C   0  0
    0.0000    0.0000    0.0000 C   0  0
    0.0000    0.0000    0.0000 C   0  0
    0.0000    0.0000    0.0000 Cl  0  0
    0.0000    0.0000    0.0000 C   0  0
    0.0000    0.0000    0.0000 C   0  0
    0.0000    0.0000    0.0000 C   0  0
    0.0000    0.0000    0.0000 N   0  0
  1  2  1  0
  2  3  2  3
  3  4  1  0
  4  5  1  0
  4  6  2  3
  6  7  1  0
  7  8  2  3
  8  2  1  0
  8  9  1  0
M  END
> <Name>
4-CHLORO-o-TOLUIDINE.HCL

> <SMILES>
Cc1cc(Cl)ccc1N

> <Reference>
TR-165

> <Id>
3165-93-3

> <Actual Value>
NEG TR-165 : MR: N FR: N MM: P FM: P

> <Predicted Value>
0.001 NEG

> <Used>
1

> <Status>
Non-Carcinogen

> <iscarc>
0

$$$$
PHTHALIC ANHYDRIDE
  SciTegic06161615502D

 11 12  0  0  0  0            999 V2000
    0.0000    0.0000    0.0000 O   0  0
    0.0000    0.0000    0.0000 C   0  0
    0.0000    0.0000    0.0000 O   0  0
    0.0000    0.0000    0.0000 C   0  0
    0.0000    0.0000    0.0000 O   0  0
    0.0000    0.0000    0.0000 C   0  0
    0.0000    0.0000    0.0000 C   0  0
    0.0000    0.0000    0.0000 C   0  0
    0.0000    0.0000    0.0000 C   0  0
    0.0000    0.0000    0.0000 C   0  0
    0.0000    0.0000    0.0000 C   0  0
  1  2  2  0
  2  3  1  0
  3  4  1  0
  4  5  2  0
  4  6  1  0
  6  7  2  3
  7  8  1  0
  8  9  2  3
  9 10  1  0
 10 11  2  3
 11  2  1  0
 11  6  1  0
M  END
> <Name>
PHTHALIC ANHYDRIDE

> <SMILES>
O=C1OC(=O)c2ccccc12

> <Reference>
TR-159

> <Id>
85-44-9

> <Actual Value>
NEG TR-159 : MR: N FR: N MM: N FM: N

> <Predicted Value>
0.000 NEG

> <Used>
1

> <Status>
Non-Carcinogen

> <iscarc>
0

$$$$
NITROFURANTOIN
  SciTegic06161615502D

 17 18  0  0  0  0            999 V2000
    0.0000    0.0000    0.0000 O   0  0
    0.0000    0.0000    0.0000 C   0  0
    0.0000    0.0000    0.0000 C   0  0
    0.0000    0.0000    0.0000 N   0  0
    0.0000    0.0000    0.0000 N   0  0
    0.0000    0.0000    0.0000 C   0  0
    0.0000    0.0000    0.0000 C   0  0
    0.0000    0.0000    0.0000 C   0  0
    0.0000    0.0000    0.0000 C   0  0
    0.0000    0.0000    0.0000 C   0  0
    0.0000    0.0000    0.0000 O   0  0
    0.0000    0.0000    0.0000 N   0  0
    0.0000    0.0000    0.0000 O   0  0
    0.0000    0.0000    0.0000 O   0  0
    0.0000    0.0000    0.0000 C   0  0
    0.0000    0.0000    0.0000 O   0  0
    0.0000    0.0000    0.0000 N   0  0
  1  2  2  0
  2  3  1  0
  3  4  1  0
  4  5  1  0
  5  6  2  3
  6  7  1  0
  7  8  2  3
  8  9  1  0
  9 10  2  3
 10 11  1  0
 11  7  1  0
 10 12  1  0
 12 13  2  0
 12 14  2  0
  4 15  1  0
 15 16  2  0
 15 17  1  0
 17  2  1  0
M  END
> <Name>
NITROFURANTOIN

> <SMILES>
O=C2CN(N=Cc1ccc(o1)N(=O)=O)C(=O)N2

> <Reference>
TR-341

> <Id>
67-20-9

> <Actual Value>
NEG TR-341 : MR: SE FR: NE MM: NE FM: CE

> <Predicted Value>
0.001 NEG

> <Used>
1

> <Status>
Non-Carcinogen

> <CanonicalTautomer>
Yes

> <NumberOfTautomers>
3

> <iscarc>
0

$$$$
HC BLUE NO.1
  SciTegic06161615502D

 18 18  0  0  0  0            999 V2000
    0.0000    0.0000    0.0000 C   0  0
    0.0000    0.0000    0.0000 N   0  0
    0.0000    0.0000    0.0000 C   0  0
    0.0000    0.0000    0.0000 C   0  0
    0.0000    0.0000    0.0000 C   0  0
    0.0000    0.0000    0.0000 C   0  0
    0.0000    0.0000    0.0000 C   0  0
    0.0000    0.0000    0.0000 C   0  0
    0.0000    0.0000    0.0000 N   0  0
    0.0000    0.0000    0.0000 O   0  0
    0.0000    0.0000    0.0000 O   0  0
    0.0000    0.0000    0.0000 N   0  0
    0.0000    0.0000    0.0000 C   0  0
    0.0000    0.0000    0.0000 C   0  0
    0.0000    0.0000    0.0000 O   0  0
    0.0000    0.0000    0.0000 C   0  0
    0.0000    0.0000    0.0000 C   0  0
    0.0000    0.0000    0.0000 O   0  0
  1  2  1  0
  2  3  1  0
  3  4  2  3
  4  5  1  0
  5  6  2  3
  6  7  1  0
  7  8  2  3
  8  3  1  0
  8  9  1  0
  9 10  2  0
  9 11  2  0
  6 12  1  0
 12 13  1  0
 13 14  1  0
 14 15  1  0
 12 16  1  0
 16 17  1  0
 17 18  1  0
M  END
> <Name>
HC BLUE NO.1

> <SMILES>
CNc1ccc(cc1N(=O)=O)N(CCO)CCO

> <Reference>
TR-271

> <Id>
2784-94-3

> <Actual Value>
POS TR-271 : MR: EE FR: SE MM: CE FM: CE

> <Predicted Value>
0.997 POS

> <Used>
1

> <Status>
Carcinogen

> <iscarc>
1

$$$$
2-METHYL-1-NITROANTHRAQUINONE
  SciTegic06161615502D

 20 22  0  0  0  0            999 V2000
    0.0000    0.0000    0.0000 C   0  0
    0.0000    0.0000    0.0000 C   0  0
    0.0000    0.0000    0.0000 C   0  0
    0.0000    0.0000    0.0000 C   0  0
    0.0000    0.0000    0.0000 C   0  0
    0.0000    0.0000    0.0000 C   0  0
    0.0000    0.0000    0.0000 O   0  0
    0.0000    0.0000    0.0000 C   0  0
    0.0000    0.0000    0.0000 C   0  0
    0.0000    0.0000    0.0000 C   0  0
    0.0000    0.0000    0.0000 C   0  0
    0.0000    0.0000    0.0000 C   0  0
    0.0000    0.0000    0.0000 C   0  0
    0.0000    0.0000    0.0000 C   0  0
    0.0000    0.0000    0.0000 O   0  0
    0.0000    0.0000    0.0000 C   0  0
    0.0000    0.0000    0.0000 C   0  0
    0.0000    0.0000    0.0000 N   0  0
    0.0000    0.0000    0.0000 O   0  0
    0.0000    0.0000    0.0000 O   0  0
  1  2  1  0
  2  3  2  3
  3  4  1  0
  4  5  2  3
  5  6  1  0
  6  7  2  0
  6  8  1  0
  8  9  2  3
  9 10  1  0
 10 11  2  3
 11 12  1  0
 12 13  2  3
 13  8  1  0
 13 14  1  0
 14 15  2  0
 14 16  1  0
 16  5  1  0
 16 17  2  3
 17  2  1  0
 17 18  1  0
 18 19  2  0
 18 20  2  0
M  END
> <Name>
2-METHYL-1-NITROANTHRAQUINONE

> <SMILES>
Cc3ccc2C(=O)c1ccccc1C(=O)c2c3N(=O)=O

> <Reference>
TR-29

> <Id>
129-15-7

> <Actual Value>
POS TR-29 : MR: P FR: P MM: FM:

> <Predicted Value>
1.000 POS

> <Used>
1

> <Status>
Carcinogen

> <iscarc>
1

$$$$
4;4'-METHYLENEBIS-(N;N-DIMETHYL)BENZENAMINE
  SciTegic06161615502D

 19 20  0  0  0  0            999 V2000
    0.0000    0.0000    0.0000 C   0  0
    0.0000    0.0000    0.0000 N   0  0
    0.0000    0.0000    0.0000 C   0  0
    0.0000    0.0000    0.0000 C   0  0
    0.0000    0.0000    0.0000 C   0  0
    0.0000    0.0000    0.0000 C   0  0
    0.0000    0.0000    0.0000 C   0  0
    0.0000    0.0000    0.0000 C   0  0
    0.0000    0.0000    0.0000 C   0  0
    0.0000    0.0000    0.0000 C   0  0
    0.0000    0.0000    0.0000 C   0  0
    0.0000    0.0000    0.0000 C   0  0
    0.0000    0.0000    0.0000 C   0  0
    0.0000    0.0000    0.0000 C   0  0
    0.0000    0.0000    0.0000 N   0  0
    0.0000    0.0000    0.0000 C   0  0
    0.0000    0.0000    0.0000 C   0  0
    0.0000    0.0000    0.0000 C   0  0
    0.0000    0.0000    0.0000 C   0  0
  1  2  1  0
  2  3  1  0
  2  4  1  0
  4  5  2  3
  5  6  1  0
  6  7  2  3
  7  8  1  0
  8  9  1  0
  9 10  2  3
 10 11  1  0
 11 12  2  3
 12 13  1  0
 13 14  2  3
 14  9  1  0
 12 15  1  0
 15 16  1  0
 15 17  1  0
  7 18  1  0
 18 19  2  3
 19  4  1  0
M  END
> <Name>
4;4'-METHYLENEBIS-(N;N-DIMETHYL)BENZENAMINE

> <SMILES>
CN(C)c2ccc(Cc1ccc(cc1)N(C)C)cc2

> <Reference>
TR-186

> <Id>
101-61-1

> <Actual Value>
POS TR-186 : MR: P FR: P MM: E FM: P

> <Predicted Value>
1.000 POS

> <Used>
1

> <Status>
Carcinogen

> <iscarc>
1

$$$$
2;3-DIBROMO-1-PROPANOL
  SciTegic06161615502D

  6  5  0  0  0  0            999 V2000
    0.0000    0.0000    0.0000 O   0  0
    0.0000    0.0000    0.0000 C   0  0
    0.0000    0.0000    0.0000 C   0  0
    0.0000    0.0000    0.0000 Br  0  0
    0.0000    0.0000    0.0000 C   0  0
    0.0000    0.0000    0.0000 Br  0  0
  1  2  1  0
  2  3  1  0
  3  4  1  0
  3  5  1  0
  5  6  1  0
M  END
> <Name>
2;3-DIBROMO-1-PROPANOL

> <SMILES>
OCC(Br)CBr

> <Reference>
TR-400

> <Id>
96-13-9

> <Actual Value>
POS TR-400 : MR: CE FR: CE MM: CE FM: CE

> <Predicted Value>
1.000 POS

> <Used>
1

> <Status>
Carcinogen

> <iscarc>
1

$$$$
AMPICILLIN TRIHYDRATE
  SciTegic06161615502D

 24 26  0  0  0  0            999 V2000
    0.0000    0.0000    0.0000 C   0  0
    0.0000    0.0000    0.0000 C   0  0
    0.0000    0.0000    0.0000 C   0  0
    0.0000    0.0000    0.0000 S   0  0
    0.0000    0.0000    0.0000 C   0  0
    0.0000    0.0000    0.0000 C   0  0
    0.0000    0.0000    0.0000 N   0  0
    0.0000    0.0000    0.0000 C   0  0
    0.0000    0.0000    0.0000 O   0  0
    0.0000    0.0000    0.0000 C   0  0
    0.0000    0.0000    0.0000 N   0  0
    0.0000    0.0000    0.0000 C   0  0
    0.0000    0.0000    0.0000 C   0  0
    0.0000    0.0000    0.0000 C   0  0
    0.0000    0.0000    0.0000 C   0  0
    0.0000    0.0000    0.0000 C   0  0
    0.0000    0.0000    0.0000 C   0  0
    0.0000    0.0000    0.0000 C   0  0
    0.0000    0.0000    0.0000 O   0  0
    0.0000    0.0000    0.0000 N   0  0
    0.0000    0.0000    0.0000 C   0  0
    0.0000    0.0000    0.0000 C   0  0
    0.0000    0.0000    0.0000 O   0  0
    0.0000    0.0000    0.0000 O   0  0
  1  2  1  0
  2  3  1  0
  2  4  1  0
  4  5  1  0
  5  6  1  0
  6  7  1  0
  7  8  1  0
  8  9  2  0
  8 10  1  0
 10 11  1  0
 10 12  1  0
 12 13  2  3
 13 14  1  0
 14 15  2  3
 15 16  1  0
 16 17  2  3
 17 12  1  0
  6 18  1  0
 18 19  2  0
 18 20  1  0
 20  5  1  0
 20 21  1  0
 21  2  1  0
 21 22  1  0
 22 23  1  0
 22 24  2  0
M  END
> <Name>
AMPICILLIN TRIHYDRATE

> <SMILES>
CC3(C)SC2C(NC(=O)C(N)c1ccccc1)C(=O)N2C3C(O)=O

> <Reference>
TR-318

> <Id>
7177-48-2

> <Actual Value>
NEG TR-318 : MR: EE FR: NE MM: NE FM: NE

> <Predicted Value>
0.000 NEG

> <Used>
1

> <Status>
Non-Carcinogen

> <iscarc>
0

$$$$
HC BLUE NO.2
  SciTegic06161615502D

 20 20  0  0  0  0            999 V2000
    0.0000    0.0000    0.0000 O   0  0
    0.0000    0.0000    0.0000 C   0  0
    0.0000    0.0000    0.0000 C   0  0
    0.0000    0.0000    0.0000 N   0  0
    0.0000    0.0000    0.0000 C   0  0
    0.0000    0.0000    0.0000 C   0  0
    0.0000    0.0000    0.0000 C   0  0
    0.0000    0.0000    0.0000 C   0  0
    0.0000    0.0000    0.0000 C   0  0
    0.0000    0.0000    0.0000 C   0  0
    0.0000    0.0000    0.0000 N   0  0
    0.0000    0.0000    0.0000 O   0  0
    0.0000    0.0000    0.0000 O   0  0
    0.0000    0.0000    0.0000 N   0  0
    0.0000    0.0000    0.0000 C   0  0
    0.0000    0.0000    0.0000 C   0  0
    0.0000    0.0000    0.0000 O   0  0
    0.0000    0.0000    0.0000 C   0  0
    0.0000    0.0000    0.0000 C   0  0
    0.0000    0.0000    0.0000 O   0  0
  1  2  1  0
  2  3  1  0
  3  4  1  0
  4  5  1  0
  5  6  2  3
  6  7  1  0
  7  8  2  3
  8  9  1  0
  9 10  2  3
 10  5  1  0
 10 11  1  0
 11 12  2  0
 11 13  2  0
  8 14  1  0
 14 15  1  0
 15 16  1  0
 16 17  1  0
 14 18  1  0
 18 19  1  0
 19 20  1  0
M  END
> <Name>
HC BLUE NO.2

> <SMILES>
OCCNc1ccc(cc1N(=O)=O)N(CCO)CCO

> <Reference>
TR-293

> <Id>
33229-34-4

> <Actual Value>
NEG TR-293 : MR: NE FR: NE MM: NE FM: NE

> <Predicted Value>
0.000 NEG

> <Used>
1

> <Status>
Non-Carcinogen

> <iscarc>
0

$$$$
5;5-DIPHENYLHYDANTOIN
  SciTegic06161615502D

 19 21  0  0  0  0            999 V2000
    0.0000    0.0000    0.0000 O   0  0
    0.0000    0.0000    0.0000 C   0  0
    0.0000    0.0000    0.0000 N   0  0
    0.0000    0.0000    0.0000 C   0  0
    0.0000    0.0000    0.0000 O   0  0
    0.0000    0.0000    0.0000 C   0  0
    0.0000    0.0000    0.0000 N   0  0
    0.0000    0.0000    0.0000 C   0  0
    0.0000    0.0000    0.0000 C   0  0
    0.0000    0.0000    0.0000 C   0  0
    0.0000    0.0000    0.0000 C   0  0
    0.0000    0.0000    0.0000 C   0  0
    0.0000    0.0000    0.0000 C   0  0
    0.0000    0.0000    0.0000 C   0  0
    0.0000    0.0000    0.0000 C   0  0
    0.0000    0.0000    0.0000 C   0  0
    0.0000    0.0000    0.0000 C   0  0
    0.0000    0.0000    0.0000 C   0  0
    0.0000    0.0000    0.0000 C   0  0
  1  2  2  0
  2  3  1  0
  3  4  1  0
  4  5  2  0
  4  6  1  0
  6  7  1  0
  7  2  1  0
  6  8  1  0
  8  9  2  3
  9 10  1  0
 10 11  2  3
 11 12  1  0
 12 13  2  3
 13  8  1  0
  6 14  1  0
 14 15  2  3
 15 16  1  0
 16 17  2  3
 17 18  1  0
 18 19  2  3
 19 14  1  0
M  END
> <Name>
5;5-DIPHENYLHYDANTOIN

> <SMILES>
O=C1NC(=O)C(N1)(c2ccccc2)c3ccccc3

> <Reference>
TR-404

> <Id>
57-41-0

> <Actual Value>
NEG TR-404 : MR: EE FR: NE MM: NE FM: CE

> <Predicted Value>
0.000 NEG

> <Used>
1

> <Status>
Non-Carcinogen

> <CanonicalTautomer>
Yes

> <NumberOfTautomers>
3

> <iscarc>
0

$$$$
3;3'-DIMETHOXYBENZIDINE
  SciTegic06161615502D

 18 19  0  0  0  0            999 V2000
    0.0000    0.0000    0.0000 C   0  0
    0.0000    0.0000    0.0000 O   0  0
    0.0000    0.0000    0.0000 C   0  0
    0.0000    0.0000    0.0000 C   0  0
    0.0000    0.0000    0.0000 C   0  0
    0.0000    0.0000    0.0000 C   0  0
    0.0000    0.0000    0.0000 C   0  0
    0.0000    0.0000    0.0000 C   0  0
    0.0000    0.0000    0.0000 N   0  0
    0.0000    0.0000    0.0000 C   0  0
    0.0000    0.0000    0.0000 C   0  0
    0.0000    0.0000    0.0000 C   0  0
    0.0000    0.0000    0.0000 C   0  0
    0.0000    0.0000    0.0000 N   0  0
    0.0000    0.0000    0.0000 C   0  0
    0.0000    0.0000    0.0000 O   0  0
    0.0000    0.0000    0.0000 C   0  0
    0.0000    0.0000    0.0000 C   0  0
  1  2  1  0
  2  3  1  0
  3  4  2  3
  4  5  1  0
  5  6  2  3
  6  7  1  0
  7  8  2  3
  8  3  1  0
  8  9  1  0
  5 10  1  0
 10 11  2  3
 11 12  1  0
 12 13  2  3
 13 14  1  0
 13 15  1  0
 15 16  1  0
 16 17  1  0
 15 18  2  3
 18 10  1  0
M  END
> <Name>
3;3'-DIMETHOXYBENZIDINE

> <SMILES>
COc1cc(ccc1N)c2ccc(N)c(OC)c2

> <Reference>
TR-372

> <Id>
20325-40-0

> <Actual Value>
POS TR-372 : MR: CE FR: CE MM: FM:

> <Predicted Value>
0.977 POS

> <Used>
1

> <Status>
Carcinogen

> <iscarc>
1

$$$$
BENZENE
  SciTegic06161615502D

  6  6  0  0  0  0            999 V2000
    0.0000    0.0000    0.0000 C   0  0
    0.0000    0.0000    0.0000 C   0  0
    0.0000    0.0000    0.0000 C   0  0
    0.0000    0.0000    0.0000 C   0  0
    0.0000    0.0000    0.0000 C   0  0
    0.0000    0.0000    0.0000 C   0  0
  1  2  2  3
  2  3  1  0
  3  4  2  3
  4  5  1  0
  5  6  2  3
  6  1  1  0
M  END
> <Name>
BENZENE

> <SMILES>
c1ccccc1

> <Reference>
TR-289

> <Id>
71-43-2

> <Actual Value>
POS TR-289 : MR: CE FR: CE MM: CE FM: CE

> <Predicted Value>
0.012 NEG

> <Used>
1

> <Status>
Carcinogen

> <iscarc>
1

$$$$
MELAMINE
  SciTegic06161615502D

  9  9  0  0  0  0            999 V2000
    0.0000    0.0000    0.0000 N   0  0
    0.0000    0.0000    0.0000 C   0  0
    0.0000    0.0000    0.0000 N   0  0
    0.0000    0.0000    0.0000 C   0  0
    0.0000    0.0000    0.0000 N   0  0
    0.0000    0.0000    0.0000 N   0  0
    0.0000    0.0000    0.0000 C   0  0
    0.0000    0.0000    0.0000 N   0  0
    0.0000    0.0000    0.0000 N   0  0
  1  2  1  0
  2  3  2  3
  3  4  1  0
  4  5  1  0
  4  6  2  3
  6  7  1  0
  7  8  1  0
  7  9  2  3
  9  2  1  0
M  END
> <Name>
MELAMINE

> <SMILES>
Nc1nc(N)nc(N)n1

> <Reference>
TR-245

> <Id>
108-78-1

> <Actual Value>
NEG TR-245 : MR: P FR: N MM: N FM: N

> <Predicted Value>
0.008 NEG

> <Used>
1

> <Status>
Non-Carcinogen

> <CanonicalTautomer>
Yes

> <NumberOfTautomers>
17

> <iscarc>
0

$$$$
TRIBROMOMETHANE
  SciTegic06161615502D

  4  3  0  0  0  0            999 V2000
    0.0000    0.0000    0.0000 Br  0  0
    0.0000    0.0000    0.0000 C   0  0
    0.0000    0.0000    0.0000 Br  0  0
    0.0000    0.0000    0.0000 Br  0  0
  1  2  1  0
  2  3  1  0
  2  4  1  0
M  END
> <Name>
TRIBROMOMETHANE

> <SMILES>
BrC(Br)Br

> <Reference>
TR-350

> <Id>
75-25-2

> <Actual Value>
POS TR-350 : MR: SE FR: CE MM: NE FM: NE

> <Predicted Value>
0.975 POS

> <Used>
1

> <Status>
Carcinogen

> <iscarc>
1

$$$$
C.I.BASIC RED 9
  SciTegic06161615502D

 22 24  0  0  0  0            999 V2000
    0.0000    0.0000    0.0000 N   0  0
    0.0000    0.0000    0.0000 C   0  0
    0.0000    0.0000    0.0000 C   0  0
    0.0000    0.0000    0.0000 C   0  0
    0.0000    0.0000    0.0000 C   0  0
    0.0000    0.0000    0.0000 C   0  0
    0.0000    0.0000    0.0000 C   0  0
    0.0000    0.0000    0.0000 C   0  0
    0.0000    0.0000    0.0000 C   0  0
    0.0000    0.0000    0.0000 C   0  0
    0.0000    0.0000    0.0000 C   0  0
    0.0000    0.0000    0.0000 C   0  0
    0.0000    0.0000    0.0000 N   0  0
    0.0000    0.0000    0.0000 C   0  0
    0.0000    0.0000    0.0000 C   0  0
    0.0000    0.0000    0.0000 C   0  0
    0.0000    0.0000    0.0000 C   0  0
    0.0000    0.0000    0.0000 C   0  0
    0.0000    0.0000    0.0000 C   0  0
    0.0000    0.0000    0.0000 N   0  0
    0.0000    0.0000    0.0000 C   0  0
    0.0000    0.0000    0.0000 C   0  0
  1  2  2  0
  2  3  1  0
  3  4  2  3
  4  5  1  0
  5  6  1  0
  6  7  2  3
  7  2  1  0
  5  8  2  3
  8  9  1  0
  9 10  2  3
 10 11  1  0
 11 12  2  3
 12 13  1  0
 12 14  1  0
 14 15  2  3
 15  9  1  0
  8 16  1  0
 16 17  2  3
 17 18  1  0
 18 19  2  3
 19 20  1  0
 19 21  1  0
 21 22  2  3
 22 16  1  0
M  END
> <Name>
C.I.BASIC RED 9

> <SMILES>
Nc1ccc(cc1)C(=C2C=CC(=N)C=C2)c3ccc(N)cc3

> <Reference>
TR-285

> <Id>
569-61-9

> <Actual Value>
POS TR-285 : MR: CE FR: CE MM: CE FM: CE

> <Predicted Value>
1.000 POS

> <Used>
1

> <Status>
Carcinogen

> <CanonicalTautomer>
Yes

> <NumberOfTautomers>
3

> <iscarc>
1

$$$$
METHYL PARATHION
  SciTegic06161615502D

 16 16  0  0  0  0            999 V2000
    0.0000    0.0000    0.0000 C   0  0
    0.0000    0.0000    0.0000 O   0  0
    0.0000    0.0000    0.0000 P   0  0
    0.0000    0.0000    0.0000 S   0  0
    0.0000    0.0000    0.0000 O   0  0
    0.0000    0.0000    0.0000 C   0  0
    0.0000    0.0000    0.0000 O   0  0
    0.0000    0.0000    0.0000 C   0  0
    0.0000    0.0000    0.0000 C   0  0
    0.0000    0.0000    0.0000 C   0  0
    0.0000    0.0000    0.0000 C   0  0
    0.0000    0.0000    0.0000 C   0  0
    0.0000    0.0000    0.0000 C   0  0
    0.0000    0.0000    0.0000 N   0  0
    0.0000    0.0000    0.0000 O   0  0
    0.0000    0.0000    0.0000 O   0  0
  1  2  1  0
  2  3  1  0
  3  4  2  0
  3  5  1  0
  5  6  1  0
  3  7  1  0
  7  8  1  0
  8  9  2  3
  9 10  1  0
 10 11  2  3
 11 12  1  0
 12 13  2  3
 13  8  1  0
 11 14  1  0
 14 15  2  0
 14 16  2  0
M  END
> <Name>
METHYL PARATHION

> <SMILES>
COP(=S)(OC)Oc1ccc(cc1)N(=O)=O

> <Reference>
TR-157

> <Id>
298-00-0

> <Actual Value>
NEG TR-157 : MR: N FR: N MM: N FM: N

> <Predicted Value>
0.000 NEG

> <Used>
1

> <Status>
Non-Carcinogen

> <iscarc>
0

$$$$
2;4;5-TRIMETHYLANILINE
  SciTegic06161615502D

 10 10  0  0  0  0            999 V2000
    0.0000    0.0000    0.0000 C   0  0
    0.0000    0.0000    0.0000 C   0  0
    0.0000    0.0000    0.0000 C   0  0
    0.0000    0.0000    0.0000 C   0  0
    0.0000    0.0000    0.0000 C   0  0
    0.0000    0.0000    0.0000 C   0  0
    0.0000    0.0000    0.0000 N   0  0
    0.0000    0.0000    0.0000 C   0  0
    0.0000    0.0000    0.0000 C   0  0
    0.0000    0.0000    0.0000 C   0  0
  1  2  1  0
  2  3  2  3
  3  4  1  0
  4  5  1  0
  4  6  2  3
  6  7  1  0
  6  8  1  0
  8  9  2  3
  9  2  1  0
  9 10  1  0
M  END
> <Name>
2;4;5-TRIMETHYLANILINE

> <SMILES>
Cc1cc(C)c(N)cc1C

> <Reference>
TR-160

> <Id>
137-17-7

> <Actual Value>
POS TR-160 : MR: P FR: P MM: E FM: P

> <Predicted Value>
1.000 POS

> <Used>
1

> <Status>
Carcinogen

> <iscarc>
1

$$$$
PHTHALAMIDE
  SciTegic06161615502D

 12 12  0  0  0  0            999 V2000
    0.0000    0.0000    0.0000 N   0  0
    0.0000    0.0000    0.0000 C   0  0
    0.0000    0.0000    0.0000 O   0  0
    0.0000    0.0000    0.0000 C   0  0
    0.0000    0.0000    0.0000 C   0  0
    0.0000    0.0000    0.0000 C   0  0
    0.0000    0.0000    0.0000 C   0  0
    0.0000    0.0000    0.0000 C   0  0
    0.0000    0.0000    0.0000 C   0  0
    0.0000    0.0000    0.0000 C   0  0
    0.0000    0.0000    0.0000 N   0  0
    0.0000    0.0000    0.0000 O   0  0
  1  2  1  0
  2  3  2  0
  2  4  1  0
  4  5  2  3
  5  6  1  0
  6  7  2  3
  7  8  1  0
  8  9  2  3
  9  4  1  0
  9 10  1  0
 10 11  1  0
 10 12  2  0
M  END
> <Name>
PHTHALAMIDE

> <SMILES>
NC(=O)c1ccccc1C(N)=O

> <Reference>
TR-161

> <Id>
88-96-0

> <Actual Value>
NEG TR-161 : MR: N FR: N MM: N FM: N

> <Predicted Value>
0.000 NEG

> <Used>
1

> <Status>
Non-Carcinogen

> <iscarc>
0

$$$$
ANILINE.HCL
  SciTegic06161615502D

  7  7  0  0  0  0            999 V2000
    0.0000    0.0000    0.0000 N   0  0
    0.0000    0.0000    0.0000 C   0  0
    0.0000    0.0000    0.0000 C   0  0
    0.0000    0.0000    0.0000 C   0  0
    0.0000    0.0000    0.0000 C   0  0
    0.0000    0.0000    0.0000 C   0  0
    0.0000    0.0000    0.0000 C   0  0
  1  2  1  0
  2  3  2  3
  3  4  1  0
  4  5  2  3
  5  6  1  0
  6  7  2  3
  7  2  1  0
M  END
> <Name>
ANILINE.HCL

> <SMILES>
Nc1ccccc1

> <Reference>
TR-130

> <Id>
142-04-1

> <Actual Value>
POS TR-130 : MR: P FR: P MM: N FM: N

> <Predicted Value>
0.211 NEG

> <Used>
1

> <Status>
Carcinogen

> <iscarc>
1

$$$$
CYTEMBENA
  SciTegic06161615502D

 14 14  0  0  0  0            999 V2000
    0.0000    0.0000    0.0000 O   0  0
    0.0000    0.0000    0.0000 C   0  0
    0.0000    0.0000    0.0000 O   0  0
    0.0000    0.0000    0.0000 C   0  0
    0.0000    0.0000    0.0000 C   0  0
    0.0000    0.0000    0.0000 Br  0  0
    0.0000    0.0000    0.0000 C   0  0
    0.0000    0.0000    0.0000 O   0  0
    0.0000    0.0000    0.0000 C   0  0
    0.0000    0.0000    0.0000 C   0  0
    0.0000    0.0000    0.0000 C   0  0
    0.0000    0.0000    0.0000 C   0  0
    0.0000    0.0000    0.0000 C   0  0
    0.0000    0.0000    0.0000 C   0  0
  1  2  1  0
  2  3  2  0
  2  4  1  0
  4  5  2  3
  5  6  1  0
  5  7  1  0
  7  8  2  0
  7  9  1  0
  9 10  2  3
 10 11  1  0
 11 12  2  3
 12 13  1  0
 13 14  2  3
 14  9  1  0
M  END
> <Name>
CYTEMBENA

> <SMILES>
OC(=O)C=C(Br)C(=O)c1ccccc1

> <Reference>
TR-207

> <Id>
21739-91-3

> <Actual Value>
POS TR-207 : MR: P FR: P MM: N FM: N

> <Predicted Value>
1.000 POS

> <Used>
1

> <Status>
Carcinogen

> <iscarc>
1

$$$$
2;3;5;6-TETRACHLORO-4-NITROANISOLE
  SciTegic06161615502D

 15 15  0  0  0  0            999 V2000
    0.0000    0.0000    0.0000 C   0  0
    0.0000    0.0000    0.0000 O   0  0
    0.0000    0.0000    0.0000 C   0  0
    0.0000    0.0000    0.0000 C   0  0
    0.0000    0.0000    0.0000 Cl  0  0
    0.0000    0.0000    0.0000 C   0  0
    0.0000    0.0000    0.0000 Cl  0  0
    0.0000    0.0000    0.0000 C   0  0
    0.0000    0.0000    0.0000 N   0  0
    0.0000    0.0000    0.0000 O   0  0
    0.0000    0.0000    0.0000 O   0  0
    0.0000    0.0000    0.0000 C   0  0
    0.0000    0.0000    0.0000 Cl  0  0
    0.0000    0.0000    0.0000 C   0  0
    0.0000    0.0000    0.0000 Cl  0  0
  1  2  1  0
  2  3  1  0
  3  4  2  3
  4  5  1  0
  4  6  1  0
  6  7  1  0
  6  8  2  3
  8  9  1  0
  9 10  2  0
  9 11  2  0
  8 12  1  0
 12 13  1  0
 12 14  2  3
 14  3  1  0
 14 15  1  0
M  END
> <Name>
2;3;5;6-TETRACHLORO-4-NITROANISOLE

> <SMILES>
COc1c(Cl)c(Cl)c(N(=O)=O)c(Cl)c1Cl

> <Reference>
TR-114

> <Id>
2438-88-2

> <Actual Value>
NEG TR-114 : MR: N FR: N MM: N FM: N

> <Predicted Value>
0.000 NEG

> <Used>
1

> <Status>
Non-Carcinogen

> <iscarc>
0

$$$$
p-NITROBENZOIC ACID
  SciTegic06161615502D

 12 12  0  0  0  0            999 V2000
    0.0000    0.0000    0.0000 O   0  0
    0.0000    0.0000    0.0000 C   0  0
    0.0000    0.0000    0.0000 O   0  0
    0.0000    0.0000    0.0000 C   0  0
    0.0000    0.0000    0.0000 C   0  0
    0.0000    0.0000    0.0000 C   0  0
    0.0000    0.0000    0.0000 C   0  0
    0.0000    0.0000    0.0000 C   0  0
    0.0000    0.0000    0.0000 C   0  0
    0.0000    0.0000    0.0000 N   0  0
    0.0000    0.0000    0.0000 O   0  0
    0.0000    0.0000    0.0000 O   0  0
  1  2  1  0
  2  3  2  0
  2  4  1  0
  4  5  2  3
  5  6  1  0
  6  7  2  3
  7  8  1  0
  8  9  2  3
  9  4  1  0
  7 10  1  0
 10 11  2  0
 10 12  2  0
M  END
> <Name>
p-NITROBENZOIC ACID

> <SMILES>
OC(=O)c1ccc(cc1)N(=O)=O

> <Reference>
TR-442

> <Id>
62-23-7

> <Actual Value>
POS TR-442 : MR: NE FR: SE MM: NE FM: NE

> <Predicted Value>
1.000 POS

> <Used>
1

> <Status>
Carcinogen

> <iscarc>
1

$$$$
MONOCHLOROACETIC ACID
  SciTegic06161615502D

  5  4  0  0  0  0            999 V2000
    0.0000    0.0000    0.0000 O   0  0
    0.0000    0.0000    0.0000 C   0  0
    0.0000    0.0000    0.0000 O   0  0
    0.0000    0.0000    0.0000 C   0  0
    0.0000    0.0000    0.0000 Cl  0  0
  1  2  1  0
  2  3  2  0
  2  4  1  0
  4  5  1  0
M  END
> <Name>
MONOCHLOROACETIC ACID

> <SMILES>
OC(=O)CCl

> <Reference>
TR-396

> <Id>
79-11-8

> <Actual Value>
NEG TR-396 : MR: NE FR: NE MM: NE FM: NE

> <Predicted Value>
0.001 NEG

> <Used>
1

> <Status>
Non-Carcinogen

> <iscarc>
0

$$$$
CHLORODIBROMOMETHANE
  SciTegic06161615502D

  4  3  0  0  0  0            999 V2000
    0.0000    0.0000    0.0000 Cl  0  0
    0.0000    0.0000    0.0000 C   0  0
    0.0000    0.0000    0.0000 Br  0  0
    0.0000    0.0000    0.0000 Br  0  0
  1  2  1  0
  2  3  1  0
  2  4  1  0
M  END
> <Name>
CHLORODIBROMOMETHANE

> <SMILES>
ClC(Br)Br

> <Reference>
TR-282

> <Id>
124-48-1

> <Actual Value>
NEG TR-282 : MR: NE FR: NE MM: EE FM: SE

> <Predicted Value>
0.985 POS

> <Used>
1

> <Status>
Non-Carcinogen

> <iscarc>
0

$$$$
CHLOROBENZENE
  SciTegic06161615502D

  7  7  0  0  0  0            999 V2000
    0.0000    0.0000    0.0000 Cl  0  0
    0.0000    0.0000    0.0000 C   0  0
    0.0000    0.0000    0.0000 C   0  0
    0.0000    0.0000    0.0000 C   0  0
    0.0000    0.0000    0.0000 C   0  0
    0.0000    0.0000    0.0000 C   0  0
    0.0000    0.0000    0.0000 C   0  0
  1  2  1  0
  2  3  2  3
  3  4  1  0
  4  5  2  3
  5  6  1  0
  6  7  2  3
  7  2  1  0
M  END
> <Name>
CHLOROBENZENE

> <SMILES>
Clc1ccccc1

> <Reference>
TR-261

> <Id>
108-90-7

> <Actual Value>
NEG TR-261 : MR: SE FR: NE MM: NE FM: NE

> <Predicted Value>
0.000 NEG

> <Used>
1

> <Status>
Non-Carcinogen

> <iscarc>
0

$$$$
FUROSEMIDE
  SciTegic06161615502D

 21 22  0  0  0  0            999 V2000
    0.0000    0.0000    0.0000 N   0  0
    0.0000    0.0000    0.0000 S   0  0
    0.0000    0.0000    0.0000 O   0  0
    0.0000    0.0000    0.0000 O   0  0
    0.0000    0.0000    0.0000 C   0  0
    0.0000    0.0000    0.0000 C   0  0
    0.0000    0.0000    0.0000 C   0  0
    0.0000    0.0000    0.0000 C   0  0
    0.0000    0.0000    0.0000 O   0  0
    0.0000    0.0000    0.0000 O   0  0
    0.0000    0.0000    0.0000 C   0  0
    0.0000    0.0000    0.0000 N   0  0
    0.0000    0.0000    0.0000 C   0  0
    0.0000    0.0000    0.0000 C   0  0
    0.0000    0.0000    0.0000 C   0  0
    0.0000    0.0000    0.0000 C   0  0
    0.0000    0.0000    0.0000 C   0  0
    0.0000    0.0000    0.0000 O   0  0
    0.0000    0.0000    0.0000 C   0  0
    0.0000    0.0000    0.0000 C   0  0
    0.0000    0.0000    0.0000 Cl  0  0
  1  2  1  0
  2  3  2  0
  2  4  2  0
  2  5  1  0
  5  6  2  3
  6  7  1  0
  7  8  1  0
  8  9  1  0
  8 10  2  0
  7 11  2  3
 11 12  1  0
 12 13  1  0
 13 14  1  0
 14 15  2  3
 15 16  1  0
 16 17  2  3
 17 18  1  0
 18 14  1  0
 11 19  1  0
 19 20  2  3
 20  5  1  0
 20 21  1  0
M  END
> <Name>
FUROSEMIDE

> <SMILES>
NS(=O)(=O)c2cc(C(O)=O)c(NCc1ccco1)cc2Cl

> <Reference>
TR-356

> <Id>
54-31-9

> <Actual Value>
NEG TR-356 : MR: EE FR: NE MM: NE FM: SE

> <Predicted Value>
0.000 NEG

> <Used>
1

> <Status>
Non-Carcinogen

> <iscarc>
0

$$$$
1;2-DICHLOROBENZENE
  SciTegic06161615502D

  8  8  0  0  0  0            999 V2000
    0.0000    0.0000    0.0000 Cl  0  0
    0.0000    0.0000    0.0000 C   0  0
    0.0000    0.0000    0.0000 C   0  0
    0.0000    0.0000    0.0000 C   0  0
    0.0000    0.0000    0.0000 C   0  0
    0.0000    0.0000    0.0000 C   0  0
    0.0000    0.0000    0.0000 C   0  0
    0.0000    0.0000    0.0000 Cl  0  0
  1  2  1  0
  2  3  2  3
  3  4  1  0
  4  5  2  3
  5  6  1  0
  6  7  2  3
  7  2  1  0
  7  8  1  0
M  END
> <Name>
1;2-DICHLOROBENZENE

> <SMILES>
Clc1ccccc1Cl

> <Reference>
TR-255

> <Id>
95-50-1

> <Actual Value>
NEG TR-255 : MR: N FR: N MM: N FM: N

> <Predicted Value>
0.000 NEG

> <Used>
1

> <Status>
Non-Carcinogen

> <iscarc>
0

$$$$
8-METHOXYPSORALEN
  SciTegic06161615502D

 16 18  0  0  0  0            999 V2000
    0.0000    0.0000    0.0000 C   0  0
    0.0000    0.0000    0.0000 O   0  0
    0.0000    0.0000    0.0000 C   0  0
    0.0000    0.0000    0.0000 C   0  0
    0.0000    0.0000    0.0000 O   0  0
    0.0000    0.0000    0.0000 C   0  0
    0.0000    0.0000    0.0000 C   0  0
    0.0000    0.0000    0.0000 C   0  0
    0.0000    0.0000    0.0000 C   0  0
    0.0000    0.0000    0.0000 C   0  0
    0.0000    0.0000    0.0000 C   0  0
    0.0000    0.0000    0.0000 C   0  0
    0.0000    0.0000    0.0000 C   0  0
    0.0000    0.0000    0.0000 O   0  0
    0.0000    0.0000    0.0000 O   0  0
    0.0000    0.0000    0.0000 C   0  0
  1  2  1  0
  2  3  1  0
  3  4  2  3
  4  5  1  0
  5  6  1  0
  6  7  2  3
  7  8  1  0
  8  4  1  0
  8  9  2  3
  9 10  1  0
 10 11  1  0
 11 12  2  3
 12 13  1  0
 13 14  2  0
 13 15  1  0
 15 16  1  0
 16  3  1  0
 16 10  2  3
M  END
> <Name>
8-METHOXYPSORALEN

> <SMILES>
COc2c1occc1cc3ccc(=O)oc23

> <Reference>
TR-359

> <Id>
298-81-7

> <Actual Value>
NEG TR-359 : MR: CE FR: NE MM: FM:

> <Predicted Value>
0.020 NEG

> <Used>
1

> <Status>
Non-Carcinogen

> <iscarc>
0

$$$$
FURAN
  SciTegic06161615502D

  5  5  0  0  0  0            999 V2000
    0.0000    0.0000    0.0000 C   0  0
    0.0000    0.0000    0.0000 C   0  0
    0.0000    0.0000    0.0000 C   0  0
    0.0000    0.0000    0.0000 O   0  0
    0.0000    0.0000    0.0000 C   0  0
  1  2  1  0
  2  3  2  3
  3  4  1  0
  4  5  1  0
  5  1  2  3
M  END
> <Name>
FURAN

> <SMILES>
c1ccoc1

> <Reference>
TR-402

> <Id>
110-00-9

> <Actual Value>
POS TR-402 : MR: CE FR: CE MM: CE FM: CE

> <Predicted Value>
0.999 POS

> <Used>
1

> <Status>
Carcinogen

> <iscarc>
1

$$$$
PHENOL
  SciTegic06161615502D

  7  7  0  0  0  0            999 V2000
    0.0000    0.0000    0.0000 O   0  0
    0.0000    0.0000    0.0000 C   0  0
    0.0000    0.0000    0.0000 C   0  0
    0.0000    0.0000    0.0000 C   0  0
    0.0000    0.0000    0.0000 C   0  0
    0.0000    0.0000    0.0000 C   0  0
    0.0000    0.0000    0.0000 C   0  0
  1  2  1  0
  2  3  2  3
  3  4  1  0
  4  5  2  3
  5  6  1  0
  6  7  2  3
  7  2  1  0
M  END
> <Name>
PHENOL

> <SMILES>
Oc1ccccc1

> <Reference>
TR-203

> <Id>
108-95-2

> <Actual Value>
NEG TR-203 : MR: N FR: N MM: N FM: N

> <Predicted Value>
0.000 NEG

> <Used>
1

> <Status>
Non-Carcinogen

> <iscarc>
0

$$$$
p-PHENYLENEDIAMINE.2HCL
  SciTegic06161615502D

  8  8  0  0  0  0            999 V2000
    0.0000    0.0000    0.0000 N   0  0
    0.0000    0.0000    0.0000 C   0  0
    0.0000    0.0000    0.0000 C   0  0
    0.0000    0.0000    0.0000 C   0  0
    0.0000    0.0000    0.0000 C   0  0
    0.0000    0.0000    0.0000 N   0  0
    0.0000    0.0000    0.0000 C   0  0
    0.0000    0.0000    0.0000 C   0  0
  1  2  1  0
  2  3  2  3
  3  4  1  0
  4  5  2  3
  5  6  1  0
  5  7  1  0
  7  8  2  3
  8  2  1  0
M  END
> <Name>
p-PHENYLENEDIAMINE.2HCL

> <SMILES>
Nc1ccc(N)cc1

> <Reference>
TR-174

> <Id>
624-18-0

> <Actual Value>
NEG TR-174 : MR: N FR: N MM: N FM: N

> <Predicted Value>
0.828 POS

> <Used>
1

> <Status>
Non-Carcinogen

> <iscarc>
0

$$$$
RESORCINOL
  SciTegic06161615502D

  8  8  0  0  0  0            999 V2000
    0.0000    0.0000    0.0000 O   0  0
    0.0000    0.0000    0.0000 C   0  0
    0.0000    0.0000    0.0000 C   0  0
    0.0000    0.0000    0.0000 C   0  0
    0.0000    0.0000    0.0000 C   0  0
    0.0000    0.0000    0.0000 C   0  0
    0.0000    0.0000    0.0000 O   0  0
    0.0000    0.0000    0.0000 C   0  0
  1  2  1  0
  2  3  2  3
  3  4  1  0
  4  5  2  3
  5  6  1  0
  6  7  1  0
  6  8  2  3
  8  2  1  0
M  END
> <Name>
RESORCINOL

> <SMILES>
Oc1cccc(O)c1

> <Reference>
TR-403

> <Id>
108-46-3

> <Actual Value>
NEG TR-403 : MR: NE FR: NE MM: NE FM: NE

> <Predicted Value>
0.016 NEG

> <Used>
1

> <Status>
Non-Carcinogen

> <iscarc>
0

$$$$
2-MERCAPTOBENZOTHIAZOLE
  SciTegic06161615502D

 10 11  0  0  0  0            999 V2000
    0.0000    0.0000    0.0000 S   0  0
    0.0000    0.0000    0.0000 C   0  0
    0.0000    0.0000    0.0000 N   0  0
    0.0000    0.0000    0.0000 C   0  0
    0.0000    0.0000    0.0000 C   0  0
    0.0000    0.0000    0.0000 C   0  0
    0.0000    0.0000    0.0000 C   0  0
    0.0000    0.0000    0.0000 C   0  0
    0.0000    0.0000    0.0000 C   0  0
    0.0000    0.0000    0.0000 S   0  0
  1  2  1  0
  2  3  2  3
  3  4  1  0
  4  5  2  3
  5  6  1  0
  6  7  2  3
  7  8  1  0
  8  9  2  3
  9  4  1  0
  9 10  1  0
 10  2  1  0
M  END
> <Name>
2-MERCAPTOBENZOTHIAZOLE

> <SMILES>
S=c2[nH]c1ccccc1s2

> <Reference>
TR-332

> <Id>
149-30-4

> <Actual Value>
POS TR-332 : MR: SE FR: SE MM: NE FM: EE

> <Predicted Value>
1.000 POS

> <Used>
1

> <Status>
Carcinogen

> <CanonicalTautomer>
Yes

> <NumberOfTautomers>
2

> <iscarc>
1

$$$$
1;4-DICHLOROBENZENE
  SciTegic06161615502D

  8  8  0  0  0  0            999 V2000
    0.0000    0.0000    0.0000 Cl  0  0
    0.0000    0.0000    0.0000 C   0  0
    0.0000    0.0000    0.0000 C   0  0
    0.0000    0.0000    0.0000 C   0  0
    0.0000    0.0000    0.0000 C   0  0
    0.0000    0.0000    0.0000 Cl  0  0
    0.0000    0.0000    0.0000 C   0  0
    0.0000    0.0000    0.0000 C   0  0
  1  2  1  0
  2  3  2  3
  3  4  1  0
  4  5  2  3
  5  6  1  0
  5  7  1  0
  7  8  2  3
  8  2  1  0
M  END
> <Name>
1;4-DICHLOROBENZENE

> <SMILES>
Clc1ccc(Cl)cc1

> <Reference>
TR-319

> <Id>
106-46-7

> <Actual Value>
NEG TR-319 : MR: CE FR: NE MM: CE FM: CE

> <Predicted Value>
0.006 NEG

> <Used>
1

> <Status>
Non-Carcinogen

> <iscarc>
0

$$$$
HYDROQUINONE
  SciTegic06161615502D

  8  8  0  0  0  0            999 V2000
    0.0000    0.0000    0.0000 O   0  0
    0.0000    0.0000    0.0000 C   0  0
    0.0000    0.0000    0.0000 C   0  0
    0.0000    0.0000    0.0000 C   0  0
    0.0000    0.0000    0.0000 C   0  0
    0.0000    0.0000    0.0000 O   0  0
    0.0000    0.0000    0.0000 C   0  0
    0.0000    0.0000    0.0000 C   0  0
  1  2  1  0
  2  3  2  3
  3  4  1  0
  4  5  2  3
  5  6  1  0
  5  7  1  0
  7  8  2  3
  8  2  1  0
M  END
> <Name>
HYDROQUINONE

> <SMILES>
Oc1ccc(O)cc1

> <Reference>
TR-366

> <Id>
123-31-9

> <Actual Value>
POS TR-366 : MR: SE FR: SE MM: NE FM: SE

> <Predicted Value>
0.013 NEG

> <Used>
1

> <Status>
Carcinogen

> <iscarc>
1

$$$$
2;6-dICHLORO-p-PNENYLENEDIAMINE
  SciTegic06161615502D

 10 10  0  0  0  0            999 V2000
    0.0000    0.0000    0.0000 N   0  0
    0.0000    0.0000    0.0000 C   0  0
    0.0000    0.0000    0.0000 C   0  0
    0.0000    0.0000    0.0000 C   0  0
    0.0000    0.0000    0.0000 Cl  0  0
    0.0000    0.0000    0.0000 C   0  0
    0.0000    0.0000    0.0000 N   0  0
    0.0000    0.0000    0.0000 C   0  0
    0.0000    0.0000    0.0000 Cl  0  0
    0.0000    0.0000    0.0000 C   0  0
  1  2  1  0
  2  3  2  3
  3  4  1  0
  4  5  1  0
  4  6  2  3
  6  7  1  0
  6  8  1  0
  8  9  1  0
  8 10  2  3
 10  2  1  0
M  END
> <Name>
2;6-dICHLORO-p-PNENYLENEDIAMINE

> <SMILES>
Nc1cc(Cl)c(N)c(Cl)c1

> <Reference>
TR-219

> <Id>
609-20-1

> <Actual Value>
NEG TR-219 : MR: N FR: N MM: P FM: P

> <Predicted Value>
0.000 NEG

> <Used>
1

> <Status>
Non-Carcinogen

> <iscarc>
0

$$$$
BROMODICHLOROMETHANE
  SciTegic06161615502D

  4  3  0  0  0  0            999 V2000
    0.0000    0.0000    0.0000 Cl  0  0
    0.0000    0.0000    0.0000 C   0  0
    0.0000    0.0000    0.0000 Cl  0  0
    0.0000    0.0000    0.0000 Br  0  0
  1  2  1  0
  2  3  1  0
  2  4  1  0
M  END
> <Name>
BROMODICHLOROMETHANE

> <SMILES>
ClC(Cl)Br

> <Reference>
TR-321

> <Id>
75-27-4

> <Actual Value>
POS TR-321 : MR: CE FR: CE MM: CE FM: CE

> <Predicted Value>
0.990 POS

> <Used>
1

> <Status>
Carcinogen

> <iscarc>
1

$$$$
BENZOFURAN
  SciTegic06161615502D

  9 10  0  0  0  0            999 V2000
    0.0000    0.0000    0.0000 C   0  0
    0.0000    0.0000    0.0000 C   0  0
    0.0000    0.0000    0.0000 C   0  0
    0.0000    0.0000    0.0000 C   0  0
    0.0000    0.0000    0.0000 O   0  0
    0.0000    0.0000    0.0000 C   0  0
    0.0000    0.0000    0.0000 C   0  0
    0.0000    0.0000    0.0000 C   0  0
    0.0000    0.0000    0.0000 C   0  0
  1  2  2  3
  2  3  1  0
  3  4  2  3
  4  5  1  0
  5  6  1  0
  6  7  2  3
  7  8  1  0
  8  4  1  0
  8  9  2  3
  9  1  1  0
M  END
> <Name>
BENZOFURAN

> <SMILES>
c2ccc1occc1c2

> <Reference>
TR-370

> <Id>
271-89-6

> <Actual Value>
POS TR-370 : MR: NE FR: SE MM: CE FM: CE

> <Predicted Value>
1.000 POS

> <Used>
1

> <Status>
Carcinogen

> <iscarc>
1

$$$$
2-CHLORO-p-PHENYLENEDIAMINE
  SciTegic06161615502D

  9  9  0  0  0  0            999 V2000
    0.0000    0.0000    0.0000 N   0  0
    0.0000    0.0000    0.0000 C   0  0
    0.0000    0.0000    0.0000 C   0  0
    0.0000    0.0000    0.0000 C   0  0
    0.0000    0.0000    0.0000 C   0  0
    0.0000    0.0000    0.0000 N   0  0
    0.0000    0.0000    0.0000 C   0  0
    0.0000    0.0000    0.0000 Cl  0  0
    0.0000    0.0000    0.0000 C   0  0
  1  2  1  0
  2  3  2  3
  3  4  1  0
  4  5  2  3
  5  6  1  0
  5  7  1  0
  7  8  1  0
  7  9  2  3
  9  2  1  0
M  END
> <Name>
2-CHLORO-p-PHENYLENEDIAMINE

> <SMILES>
Nc1ccc(N)c(Cl)c1

> <Reference>
TR-113

> <Id>
61702-44-1

> <Actual Value>
NEG TR-113 : MR: N FR: N MM: N FM: N

> <Predicted Value>
0.001 NEG

> <Used>
1

> <Status>
Non-Carcinogen

> <iscarc>
0

$$$$
1;1-DIBROMO-3-CHLOROPROPANE
  SciTegic06161615502D

  6  5  0  0  0  0            999 V2000
    0.0000    0.0000    0.0000 Cl  0  0
    0.0000    0.0000    0.0000 C   0  0
    0.0000    0.0000    0.0000 C   0  0
    0.0000    0.0000    0.0000 Br  0  0
    0.0000    0.0000    0.0000 C   0  0
    0.0000    0.0000    0.0000 Br  0  0
  1  2  1  0
  2  3  1  0
  3  4  1  0
  3  5  1  0
  5  6  1  0
M  END
> <Name>
1;1-DIBROMO-3-CHLOROPROPANE

> <SMILES>
ClCC(Br)CBr

> <Reference>
TR-206 (TR-28: Strain Not F344)

> <Id>
96-12-8

> <Actual Value>
POS TR-206 : MR: P FR: P MM: P FM: P

> <Predicted Value>
T

> <Used>
1.000 POS

> <Additional Info(LOAEL)>
1

> <Status>
Carcinogen

> <iscarc>
1

$$$$
2;4-DIAMINOPHENOL 2HCL
  SciTegic06161615502D

  9  9  0  0  0  0            999 V2000
    0.0000    0.0000    0.0000 N   0  0
    0.0000    0.0000    0.0000 C   0  0
    0.0000    0.0000    0.0000 C   0  0
    0.0000    0.0000    0.0000 C   0  0
    0.0000    0.0000    0.0000 C   0  0
    0.0000    0.0000    0.0000 O   0  0
    0.0000    0.0000    0.0000 C   0  0
    0.0000    0.0000    0.0000 N   0  0
    0.0000    0.0000    0.0000 C   0  0
  1  2  1  0
  2  3  2  3
  3  4  1  0
  4  5  2  3
  5  6  1  0
  5  7  1  0
  7  8  1  0
  7  9  2  3
  9  2  1  0
M  END
> <Name>
2;4-DIAMINOPHENOL 2HCL

> <SMILES>
Nc1ccc(O)c(N)c1

> <Reference>
TR-401

> <Id>
137-09-7

> <Actual Value>
NEG TR-401 : MR: NE FR: NE MM: SE FM: NE

> <Predicted Value>
0.000 NEG

> <Used>
1

> <Status>
Non-Carcinogen

> <iscarc>
0

$$$$
2;4-DICHLOROPHENOL
  SciTegic06161615502D

  9  9  0  0  0  0            999 V2000
    0.0000    0.0000    0.0000 O   0  0
    0.0000    0.0000    0.0000 C   0  0
    0.0000    0.0000    0.0000 C   0  0
    0.0000    0.0000    0.0000 C   0  0
    0.0000    0.0000    0.0000 C   0  0
    0.0000    0.0000    0.0000 Cl  0  0
    0.0000    0.0000    0.0000 C   0  0
    0.0000    0.0000    0.0000 C   0  0
    0.0000    0.0000    0.0000 Cl  0  0
  1  2  1  0
  2  3  2  3
  3  4  1  0
  4  5  2  3
  5  6  1  0
  5  7  1  0
  7  8  2  3
  8  2  1  0
  8  9  1  0
M  END
> <Name>
2;4-DICHLOROPHENOL

> <SMILES>
Oc1ccc(Cl)cc1Cl

> <Reference>
TR-353

> <Id>
120-83-2

> <Actual Value>
NEG TR-353 : MR: NE FR: NE MM: NE FM: NE

> <Predicted Value>
0.000 NEG

> <Used>
1

> <Status>
Non-Carcinogen

> <iscarc>
0

$$$$
HEXACHLOROPHENE
  SciTegic06161615502D

 21 22  0  0  0  0            999 V2000
    0.0000    0.0000    0.0000 O   0  0
    0.0000    0.0000    0.0000 C   0  0
    0.0000    0.0000    0.0000 C   0  0
    0.0000    0.0000    0.0000 Cl  0  0
    0.0000    0.0000    0.0000 C   0  0
    0.0000    0.0000    0.0000 C   0  0
    0.0000    0.0000    0.0000 Cl  0  0
    0.0000    0.0000    0.0000 C   0  0
    0.0000    0.0000    0.0000 Cl  0  0
    0.0000    0.0000    0.0000 C   0  0
    0.0000    0.0000    0.0000 C   0  0
    0.0000    0.0000    0.0000 C   0  0
    0.0000    0.0000    0.0000 C   0  0
    0.0000    0.0000    0.0000 O   0  0
    0.0000    0.0000    0.0000 C   0  0
    0.0000    0.0000    0.0000 Cl  0  0
    0.0000    0.0000    0.0000 C   0  0
    0.0000    0.0000    0.0000 C   0  0
    0.0000    0.0000    0.0000 Cl  0  0
    0.0000    0.0000    0.0000 C   0  0
    0.0000    0.0000    0.0000 Cl  0  0
  1  2  1  0
  2  3  2  3
  3  4  1  0
  3  5  1  0
  5  6  2  3
  6  7  1  0
  6  8  1  0
  8  9  1  0
  8 10  2  3
 10  2  1  0
 10 11  1  0
 11 12  1  0
 12 13  2  3
 13 14  1  0
 13 15  1  0
 15 16  1  0
 15 17  2  3
 17 18  1  0
 18 19  1  0
 18 20  2  3
 20 12  1  0
 20 21  1  0
M  END
> <Name>
HEXACHLOROPHENE

> <SMILES>
Oc1c(Cl)cc(Cl)c(Cl)c1Cc2c(O)c(Cl)cc(Cl)c2Cl

> <Reference>
TR-40

> <Id>
70-30-4

> <Actual Value>
NEG TR-40 : MR: N FR: N MM: FM:

> <Predicted Value>
0.000 NEG

> <Used>
1

> <Status>
Non-Carcinogen

> <iscarc>
0

$$$$
3;3'-DIMETHYLBENZIDINE
  SciTegic06161615502D

 16 17  0  0  0  0            999 V2000
    0.0000    0.0000    0.0000 C   0  0
    0.0000    0.0000    0.0000 C   0  0
    0.0000    0.0000    0.0000 C   0  0
    0.0000    0.0000    0.0000 C   0  0
    0.0000    0.0000    0.0000 C   0  0
    0.0000    0.0000    0.0000 C   0  0
    0.0000    0.0000    0.0000 C   0  0
    0.0000    0.0000    0.0000 N   0  0
    0.0000    0.0000    0.0000 C   0  0
    0.0000    0.0000    0.0000 C   0  0
    0.0000    0.0000    0.0000 C   0  0
    0.0000    0.0000    0.0000 C   0  0
    0.0000    0.0000    0.0000 N   0  0
    0.0000    0.0000    0.0000 C   0  0
    0.0000    0.0000    0.0000 C   0  0
    0.0000    0.0000    0.0000 C   0  0
  1  2  1  0
  2  3  2  3
  3  4  1  0
  4  5  2  3
  5  6  1  0
  6  7  2  3
  7  2  1  0
  7  8  1  0
  4  9  1  0
  9 10  2  3
 10 11  1  0
 11 12  2  3
 12 13  1  0
 12 14  1  0
 14 15  1  0
 14 16  2  3
 16  9  1  0
M  END
> <Name>
3;3'-DIMETHYLBENZIDINE

> <SMILES>
Cc1cc(ccc1N)c2ccc(N)c(C)c2

> <Reference>
TR-390

> <Id>
612-82-8

> <Actual Value>
POS TR-390 : MR: CE FR: CE MM: FM:

> <Predicted Value>
1.000 POS

> <Used>
1

> <Status>
Carcinogen

> <iscarc>
1

$$$$
CUPFERRON
  SciTegic06161615502D

 10 10  0  0  0  0            999 V2000
    0.0000    0.0000    0.0000 O   0  0
    0.0000    0.0000    0.0000 N   0  0
    0.0000    0.0000    0.0000 N   0  0
    0.0000    0.0000    0.0000 O   0  0
    0.0000    0.0000    0.0000 C   0  0
    0.0000    0.0000    0.0000 C   0  0
    0.0000    0.0000    0.0000 C   0  0
    0.0000    0.0000    0.0000 C   0  0
    0.0000    0.0000    0.0000 C   0  0
    0.0000    0.0000    0.0000 C   0  0
  1  2  1  0
  2  3  1  0
  3  4  2  0
  2  5  1  0
  5  6  2  3
  6  7  1  0
  7  8  2  3
  8  9  1  0
  9 10  2  3
 10  5  1  0
M  END
> <Name>
CUPFERRON

> <SMILES>
ON(N=O)c1ccccc1

> <Reference>
TR-100

> <Id>
135-20-6

> <Actual Value>
POS TR-100 : MR: P FR: P MM: P FM: P

> <Predicted Value>
1.000 POS

> <Used>
1

> <Status>
Carcinogen

> <iscarc>
1

$$$$
PHENAZOPYRIDINE.HCL
  SciTegic06161615502D

 16 17  0  0  0  0            999 V2000
    0.0000    0.0000    0.0000 N   0  0
    0.0000    0.0000    0.0000 C   0  0
    0.0000    0.0000    0.0000 C   0  0
    0.0000    0.0000    0.0000 C   0  0
    0.0000    0.0000    0.0000 C   0  0
    0.0000    0.0000    0.0000 N   0  0
    0.0000    0.0000    0.0000 N   0  0
    0.0000    0.0000    0.0000 C   0  0
    0.0000    0.0000    0.0000 C   0  0
    0.0000    0.0000    0.0000 C   0  0
    0.0000    0.0000    0.0000 C   0  0
    0.0000    0.0000    0.0000 C   0  0
    0.0000    0.0000    0.0000 C   0  0
    0.0000    0.0000    0.0000 C   0  0
    0.0000    0.0000    0.0000 N   0  0
    0.0000    0.0000    0.0000 N   0  0
  1  2  1  0
  2  3  2  3
  3  4  1  0
  4  5  2  3
  5  6  1  0
  6  7  2  3
  7  8  1  0
  8  9  2  3
  9 10  1  0
 10 11  2  3
 11 12  1  0
 12 13  2  3
 13  8  1  0
  5 14  1  0
 14 15  1  0
 14 16  2  3
 16  2  1  0
M  END
> <Name>
PHENAZOPYRIDINE.HCL

> <SMILES>
Nc2ccc(N=Nc1ccccc1)c(N)n2

> <Reference>
TR-99

> <Id>
136-40-3

> <Actual Value>
POS TR-99 : MR: P FR: P MM: N FM: P

> <Predicted Value>
1.000 POS

> <Used>
1

> <Status>
Carcinogen

> <CanonicalTautomer>
Yes

> <NumberOfTautomers>
6

> <iscarc>
1

$$$$
2-AMINO-5-NITROTHIAZOLE
  SciTegic06161615502D

  9  9  0  0  0  0            999 V2000
    0.0000    0.0000    0.0000 N   0  0
    0.0000    0.0000    0.0000 C   0  0
    0.0000    0.0000    0.0000 N   0  0
    0.0000    0.0000    0.0000 C   0  0
    0.0000    0.0000    0.0000 C   0  0
    0.0000    0.0000    0.0000 S   0  0
    0.0000    0.0000    0.0000 N   0  0
    0.0000    0.0000    0.0000 O   0  0
    0.0000    0.0000    0.0000 O   0  0
  1  2  1  0
  2  3  2  3
  3  4  1  0
  4  5  2  3
  5  6  1  0
  6  2  1  0
  5  7  1  0
  7  8  2  0
  7  9  2  0
M  END
> <Name>
2-AMINO-5-NITROTHIAZOLE

> <SMILES>
Nc1ncc(s1)N(=O)=O

> <Reference>
TR-53

> <Id>
121-66-4

> <Actual Value>
NEG TR-53 : MR: P FR: N MM: N FM: N

> <Predicted Value>
0.103 NEG

> <Used>
1

> <Status>
Non-Carcinogen

> <CanonicalTautomer>
Yes

> <NumberOfTautomers>
2

> <iscarc>
0

$$$$
AZOBENZENE
  SciTegic06161615502D

 14 15  0  0  0  0            999 V2000
    0.0000    0.0000    0.0000 N   0  0
    0.0000    0.0000    0.0000 N   0  0
    0.0000    0.0000    0.0000 C   0  0
    0.0000    0.0000    0.0000 C   0  0
    0.0000    0.0000    0.0000 C   0  0
    0.0000    0.0000    0.0000 C   0  0
    0.0000    0.0000    0.0000 C   0  0
    0.0000    0.0000    0.0000 C   0  0
    0.0000    0.0000    0.0000 C   0  0
    0.0000    0.0000    0.0000 C   0  0
    0.0000    0.0000    0.0000 C   0  0
    0.0000    0.0000    0.0000 C   0  0
    0.0000    0.0000    0.0000 C   0  0
    0.0000    0.0000    0.0000 C   0  0
  1  2  2  3
  2  3  1  0
  3  4  2  3
  4  5  1  0
  5  6  2  3
  6  7  1  0
  7  8  2  3
  8  3  1  0
  1  9  1  0
  9 10  2  3
 10 11  1  0
 11 12  2  3
 12 13  1  0
 13 14  2  3
 14  9  1  0
M  END
> <Name>
AZOBENZENE

> <SMILES>
N(=Nc1ccccc1)c2ccccc2

> <Reference>
TR-154

> <Id>
103-33-3

> <Actual Value>
POS TR-154 : MR: P FR: P MM: N FM: N

> <Predicted Value>
1.000 POS

> <Used>
1

> <Status>
Carcinogen

> <iscarc>
1

$$$$
HYDROCHLOROTHIAZIDE
  SciTegic06161615502D

 17 18  0  0  0  0            999 V2000
    0.0000    0.0000    0.0000 N   0  0
    0.0000    0.0000    0.0000 S   0  0
    0.0000    0.0000    0.0000 O   0  0
    0.0000    0.0000    0.0000 O   0  0
    0.0000    0.0000    0.0000 C   0  0
    0.0000    0.0000    0.0000 C   0  0
    0.0000    0.0000    0.0000 C   0  0
    0.0000    0.0000    0.0000 C   0  0
    0.0000    0.0000    0.0000 N   0  0
    0.0000    0.0000    0.0000 C   0  0
    0.0000    0.0000    0.0000 N   0  0
    0.0000    0.0000    0.0000 S   0  0
    0.0000    0.0000    0.0000 O   0  0
    0.0000    0.0000    0.0000 O   0  0
    0.0000    0.0000    0.0000 C   0  0
    0.0000    0.0000    0.0000 C   0  0
    0.0000    0.0000    0.0000 Cl  0  0
  1  2  1  0
  2  3  2  0
  2  4  2  0
  2  5  1  0
  5  6  2  3
  6  7  1  0
  7  8  2  3
  8  9  1  0
  9 10  1  0
 10 11  1  0
 11 12  1  0
 12  7  1  0
 12 13  2  0
 12 14  2  0
  8 15  1  0
 15 16  2  3
 16  5  1  0
 16 17  1  0
M  END
> <Name>
HYDROCHLOROTHIAZIDE

> <SMILES>
NS(=O)(=O)c2cc1c(NCNS1(=O)=O)cc2Cl

> <Reference>
TR-357

> <Id>
58-93-5

> <Actual Value>
NEG TR-357 : MR: NE FR: NE MM: EE FM: NE

> <Predicted Value>
0.000 NEG

> <Used>
1

> <Status>
Non-Carcinogen

> <iscarc>
0

$$$$
5-NITRONAPHTHALENE
  SciTegic06161615502D

 15 17  0  0  0  0            999 V2000
    0.0000    0.0000    0.0000 O   0  0
    0.0000    0.0000    0.0000 N   0  0
    0.0000    0.0000    0.0000 O   0  0
    0.0000    0.0000    0.0000 C   0  0
    0.0000    0.0000    0.0000 C   0  0
    0.0000    0.0000    0.0000 C   0  0
    0.0000    0.0000    0.0000 C   0  0
    0.0000    0.0000    0.0000 C   0  0
    0.0000    0.0000    0.0000 C   0  0
    0.0000    0.0000    0.0000 C   0  0
    0.0000    0.0000    0.0000 C   0  0
    0.0000    0.0000    0.0000 C   0  0
    0.0000    0.0000    0.0000 C   0  0
    0.0000    0.0000    0.0000 C   0  0
    0.0000    0.0000    0.0000 C   0  0
  1  2  2  0
  2  3  2  0
  2  4  1  0
  4  5  2  3
  5  6  1  0
  6  7  2  3
  7  8  1  0
  8  9  1  0
  9 10  1  0
 10 11  2  3
 11 12  1  0
 12 13  2  3
 13 14  1  0
 14  4  1  0
 14 15  2  3
 15  7  1  0
 15 10  1  0
M  END
> <Name>
5-NITRONAPHTHALENE

> <SMILES>
O=N(=O)c1ccc2CCc3cccc1c23

> <Reference>
TR-118

> <Id>
602-87-9

> <Actual Value>
POS TR-118 : MR: P FR: P MM: N FM: P

> <Predicted Value>
1.000 POS

> <Used>
1

> <Status>
Carcinogen

> <iscarc>
1

$$$$
N-NITROSODIPHENYLAMINE
  SciTegic06161615502D

 15 16  0  0  0  0            999 V2000
    0.0000    0.0000    0.0000 O   0  0
    0.0000    0.0000    0.0000 N   0  0
    0.0000    0.0000    0.0000 N   0  0
    0.0000    0.0000    0.0000 C   0  0
    0.0000    0.0000    0.0000 C   0  0
    0.0000    0.0000    0.0000 C   0  0
    0.0000    0.0000    0.0000 C   0  0
    0.0000    0.0000    0.0000 C   0  0
    0.0000    0.0000    0.0000 C   0  0
    0.0000    0.0000    0.0000 C   0  0
    0.0000    0.0000    0.0000 C   0  0
    0.0000    0.0000    0.0000 C   0  0
    0.0000    0.0000    0.0000 C   0  0
    0.0000    0.0000    0.0000 C   0  0
    0.0000    0.0000    0.0000 C   0  0
  1  2  2  0
  2  3  1  0
  3  4  1  0
  4  5  2  3
  5  6  1  0
  6  7  2  3
  7  8  1  0
  8  9  2  3
  9  4  1  0
  3 10  1  0
 10 11  2  3
 11 12  1  0
 12 13  2  3
 13 14  1  0
 14 15  2  3
 15 10  1  0
M  END
> <Name>
N-NITROSODIPHENYLAMINE

> <SMILES>
O=NN(c1ccccc1)c2ccccc2

> <Reference>
TR-164

> <Id>
86-30-6

> <Actual Value>
POS TR-164 : MR: P FR: P MM: N FM: N

> <Predicted Value>
1.000 POS

> <Used>
1

> <Status>
Carcinogen

> <iscarc>
1

$$$$
C.I.PIGMENT RED 3
  SciTegic06161615502D

 23 25  0  0  0  0            999 V2000
    0.0000    0.0000    0.0000 C   0  0
    0.0000    0.0000    0.0000 C   0  0
    0.0000    0.0000    0.0000 C   0  0
    0.0000    0.0000    0.0000 C   0  0
    0.0000    0.0000    0.0000 C   0  0
    0.0000    0.0000    0.0000 N   0  0
    0.0000    0.0000    0.0000 N   0  0
    0.0000    0.0000    0.0000 C   0  0
    0.0000    0.0000    0.0000 C   0  0
    0.0000    0.0000    0.0000 O   0  0
    0.0000    0.0000    0.0000 C   0  0
    0.0000    0.0000    0.0000 C   0  0
    0.0000    0.0000    0.0000 C   0  0
    0.0000    0.0000    0.0000 C   0  0
    0.0000    0.0000    0.0000 C   0  0
    0.0000    0.0000    0.0000 C   0  0
    0.0000    0.0000    0.0000 C   0  0
    0.0000    0.0000    0.0000 C   0  0
    0.0000    0.0000    0.0000 C   0  0
    0.0000    0.0000    0.0000 C   0  0
    0.0000    0.0000    0.0000 N   0  0
    0.0000    0.0000    0.0000 O   0  0
    0.0000    0.0000    0.0000 O   0  0
  1  2  1  0
  2  3  2  3
  3  4  1  0
  4  5  2  3
  5  6  1  0
  6  7  2  3
  7  8  1  0
  8  9  2  3
  9 10  1  0
  9 11  1  0
 11 12  2  3
 12 13  1  0
 13 14  2  3
 14 15  1  0
 15 16  2  3
 16 17  1  0
 17 18  2  3
 18  8  1  0
 18 13  1  0
  5 19  1  0
 19 20  2  3
 20  2  1  0
 19 21  1  0
 21 22  2  0
 21 23  2  0
M  END
> <Name>
C.I.PIGMENT RED 3

> <SMILES>
Cc3ccc(N=Nc1c(O)ccc2ccccc12)c(c3)N(=O)=O

> <Reference>
TR-407

> <Id>
2425-85-6

> <Actual Value>
POS TR-407 : MR: SE FR: SE MM: SE FM: NE

> <Predicted Value>
1.000 POS

> <Used>
1

> <Status>
Carcinogen

> <CanonicalTautomer>
Yes

> <NumberOfTautomers>
2

> <iscarc>
1

$$$$
TRIAMTERENE
  SciTegic06161615502D

 19 21  0  0  0  0            999 V2000
    0.0000    0.0000    0.0000 N   0  0
    0.0000    0.0000    0.0000 C   0  0
    0.0000    0.0000    0.0000 N   0  0
    0.0000    0.0000    0.0000 C   0  0
    0.0000    0.0000    0.0000 N   0  0
    0.0000    0.0000    0.0000 C   0  0
    0.0000    0.0000    0.0000 N   0  0
    0.0000    0.0000    0.0000 C   0  0
    0.0000    0.0000    0.0000 C   0  0
    0.0000    0.0000    0.0000 C   0  0
    0.0000    0.0000    0.0000 C   0  0
    0.0000    0.0000    0.0000 C   0  0
    0.0000    0.0000    0.0000 C   0  0
    0.0000    0.0000    0.0000 C   0  0
    0.0000    0.0000    0.0000 C   0  0
    0.0000    0.0000    0.0000 N   0  0
    0.0000    0.0000    0.0000 N   0  0
    0.0000    0.0000    0.0000 C   0  0
    0.0000    0.0000    0.0000 N   0  0
  1  2  1  0
  2  3  2  3
  3  4  1  0
  4  5  1  0
  4  6  2  3
  6  7  1  0
  7  8  2  3
  8  9  1  0
  9 10  2  3
 10 11  1  0
 11 12  2  3
 12 13  1  0
 13 14  2  3
 14  9  1  0
  8 15  1  0
 15 16  1  0
 15 17  2  3
 17 18  1  0
 18  6  1  0
 18 19  2  3
 19  2  1  0
M  END
> <Name>
TRIAMTERENE

> <SMILES>
Nc3nc(N)c2nc(c1ccccc1)c(N)nc2n3

> <Reference>
TR-420

> <Id>
396-01-0

> <Actual Value>
NEG TR-420 : MR: EE FR: NE MM: SE FM: SE

> <Predicted Value>
0.000 NEG

> <Used>
1

> <Status>
Non-Carcinogen

> <CanonicalTautomer>
Yes

> <NumberOfTautomers>
18

> <iscarc>
0

$$$$
1;2;3-TRICHLOROPROPANE
  SciTegic06161615502D

  6  5  0  0  0  0            999 V2000
    0.0000    0.0000    0.0000 Cl  0  0
    0.0000    0.0000    0.0000 C   0  0
    0.0000    0.0000    0.0000 C   0  0
    0.0000    0.0000    0.0000 Cl  0  0
    0.0000    0.0000    0.0000 C   0  0
    0.0000    0.0000    0.0000 Cl  0  0
  1  2  1  0
  2  3  1  0
  3  4  1  0
  3  5  1  0
  5  6  1  0
M  END
> <Name>
1;2;3-TRICHLOROPROPANE

> <SMILES>
ClCC(Cl)CCl

> <Reference>
TR-384

> <Id>
96-18-4

> <Actual Value>
POS TR-384 : MR: CE FR: CE MM: CE FM: CE

> <Predicted Value>
0.905 POS

> <Used>
1

> <Status>
Carcinogen

> <iscarc>
1

$$$$
2-AMINO-4-NITROPHENOL
  SciTegic06161615502D

 11 11  0  0  0  0            999 V2000
    0.0000    0.0000    0.0000 N   0  0
    0.0000    0.0000    0.0000 C   0  0
    0.0000    0.0000    0.0000 C   0  0
    0.0000    0.0000    0.0000 C   0  0
    0.0000    0.0000    0.0000 C   0  0
    0.0000    0.0000    0.0000 C   0  0
    0.0000    0.0000    0.0000 C   0  0
    0.0000    0.0000    0.0000 O   0  0
    0.0000    0.0000    0.0000 N   0  0
    0.0000    0.0000    0.0000 O   0  0
    0.0000    0.0000    0.0000 O   0  0
  1  2  1  0
  2  3  2  3
  3  4  1  0
  4  5  2  3
  5  6  1  0
  6  7  2  3
  7  2  1  0
  7  8  1  0
  4  9  1  0
  9 10  2  0
  9 11  2  0
M  END
> <Name>
2-AMINO-4-NITROPHENOL

> <SMILES>
Nc1cc(ccc1O)N(=O)=O

> <Reference>
TR-339

> <Id>
99-57-0

> <Actual Value>
NEG TR-339 : MR: SE FR: NE MM: NE FM: NE

> <Predicted Value>
0.065 NEG

> <Used>
1

> <Status>
Non-Carcinogen

> <iscarc>
0

$$$$
2-AMINO-5-NITROPHENOL
  SciTegic06161615502D

 11 11  0  0  0  0            999 V2000
    0.0000    0.0000    0.0000 N   0  0
    0.0000    0.0000    0.0000 C   0  0
    0.0000    0.0000    0.0000 C   0  0
    0.0000    0.0000    0.0000 C   0  0
    0.0000    0.0000    0.0000 C   0  0
    0.0000    0.0000    0.0000 C   0  0
    0.0000    0.0000    0.0000 C   0  0
    0.0000    0.0000    0.0000 O   0  0
    0.0000    0.0000    0.0000 N   0  0
    0.0000    0.0000    0.0000 O   0  0
    0.0000    0.0000    0.0000 O   0  0
  1  2  1  0
  2  3  2  3
  3  4  1  0
  4  5  2  3
  5  6  1  0
  6  7  2  3
  7  2  1  0
  7  8  1  0
  5  9  1  0
  9 10  2  0
  9 11  2  0
M  END
> <Name>
2-AMINO-5-NITROPHENOL

> <SMILES>
Nc1ccc(cc1O)N(=O)=O

> <Reference>
TR-334

> <Id>
121-88-0

> <Actual Value>
NEG TR-334 : MR: SE FR: NE MM: NE FM: NE

> <Predicted Value>
0.049 NEG

> <Used>
1

> <Status>
Non-Carcinogen

> <iscarc>
0

$$$$
OCHRATOXIN
  SciTegic06161615502D

 28 30  0  0  0  0            999 V2000
    0.0000    0.0000    0.0000 C   0  0
    0.0000    0.0000    0.0000 C   0  0
    0.0000    0.0000    0.0000 C   0  0
    0.0000    0.0000    0.0000 C   0  0
    0.0000    0.0000    0.0000 C   0  0
    0.0000    0.0000    0.0000 Cl  0  0
    0.0000    0.0000    0.0000 C   0  0
    0.0000    0.0000    0.0000 C   0  0
    0.0000    0.0000    0.0000 C   0  0
    0.0000    0.0000    0.0000 O   0  0
    0.0000    0.0000    0.0000 N   0  0
    0.0000    0.0000    0.0000 C   0  0
    0.0000    0.0000    0.0000 C   0  0
    0.0000    0.0000    0.0000 C   0  0
    0.0000    0.0000    0.0000 C   0  0
    0.0000    0.0000    0.0000 C   0  0
    0.0000    0.0000    0.0000 C   0  0
    0.0000    0.0000    0.0000 C   0  0
    0.0000    0.0000    0.0000 C   0  0
    0.0000    0.0000    0.0000 C   0  0
    0.0000    0.0000    0.0000 O   0  0
    0.0000    0.0000    0.0000 O   0  0
    0.0000    0.0000    0.0000 C   0  0
    0.0000    0.0000    0.0000 O   0  0
    0.0000    0.0000    0.0000 C   0  0
    0.0000    0.0000    0.0000 C   0  0
    0.0000    0.0000    0.0000 O   0  0
    0.0000    0.0000    0.0000 O   0  0
  1  2  1  0
  2  3  1  0
  3  4  1  0
  4  5  2  3
  5  6  1  0
  5  7  1  0
  7  8  2  3
  8  9  1  0
  9 10  2  0
  9 11  1  0
 11 12  1  0
 12 13  1  0
 13 14  1  0
 14 15  2  3
 15 16  1  0
 16 17  2  3
 17 18  1  0
 18 19  2  3
 19 14  1  0
 12 20  1  0
 20 21  1  0
 20 22  2  0
  8 23  1  0
 23 24  1  0
 23 25  2  3
 25  4  1  0
 25 26  1  0
 26 27  2  0
 26 28  1  0
 28  2  1  0
M  END
> <Name>
OCHRATOXIN

> <SMILES>
CC3Cc2c(Cl)cc(C(=O)NC(Cc1ccccc1)C(O)=O)c(O)c2C(=O)O3

> <Reference>
TR-358

> <Id>
303-47-9

> <Actual Value>
POS TR-358 : MR: CE FR: CE MM: FM:

> <Predicted Value>
1.000 POS

> <Used>
1

> <Status>
Carcinogen

> <CanonicalTautomer>
Yes

> <NumberOfTautomers>
3

> <iscarc>
1

$$$$
2-BIPHENYLAMINE HYDROCHLORIDE
  SciTegic06161615502D

 13 14  0  0  0  0            999 V2000
    0.0000    0.0000    0.0000 N   0  0
    0.0000    0.0000    0.0000 C   0  0
    0.0000    0.0000    0.0000 C   0  0
    0.0000    0.0000    0.0000 C   0  0
    0.0000    0.0000    0.0000 C   0  0
    0.0000    0.0000    0.0000 C   0  0
    0.0000    0.0000    0.0000 C   0  0
    0.0000    0.0000    0.0000 C   0  0
    0.0000    0.0000    0.0000 C   0  0
    0.0000    0.0000    0.0000 C   0  0
    0.0000    0.0000    0.0000 C   0  0
    0.0000    0.0000    0.0000 C   0  0
    0.0000    0.0000    0.0000 C   0  0
  1  2  1  0
  2  3  2  3
  3  4  1  0
  4  5  2  3
  5  6  1  0
  6  7  2  3
  7  2  1  0
  7  8  1  0
  8  9  2  3
  9 10  1  0
 10 11  2  3
 11 12  1  0
 12 13  2  3
 13  8  1  0
M  END
> <Name>
2-BIPHENYLAMINE HYDROCHLORIDE

> <SMILES>
Nc1ccccc1c2ccccc2

> <Reference>
TR-233

> <Id>
2185-92-4

> <Actual Value>
NEG TR-233 : MR: N FR: N MM: E FM: P

> <Predicted Value>
0.104 NEG

> <Used>
1

> <Status>
Non-Carcinogen

> <iscarc>
0

$$$$
TETRACHLOROETHYLENE
  SciTegic06161615502D

  6  5  0  0  0  0            999 V2000
    0.0000    0.0000    0.0000 Cl  0  0
    0.0000    0.0000    0.0000 C   0  0
    0.0000    0.0000    0.0000 Cl  0  0
    0.0000    0.0000    0.0000 C   0  0
    0.0000    0.0000    0.0000 Cl  0  0
    0.0000    0.0000    0.0000 Cl  0  0
  1  2  1  0
  2  3  1  0
  2  4  2  3
  4  5  1  0
  4  6  1  0
M  END
> <Name>
TETRACHLOROETHYLENE

> <SMILES>
ClC(Cl)=C(Cl)Cl

> <Reference>
TR-311 (TR-13: Inadequate Study)

> <Id>
127-18-4

> <Actual Value>
POS TR-311 : MR: CE FR: SE MM: CE FM: CE

> <Predicted Value>
1.000 POS

> <Used>
1

> <Status>
Carcinogen

> <iscarc>
1

$$$$
TRICHLOROETHYLENE
  SciTegic06161615502D

  5  4  0  0  0  0            999 V2000
    0.0000    0.0000    0.0000 Cl  0  0
    0.0000    0.0000    0.0000 C   0  0
    0.0000    0.0000    0.0000 C   0  0
    0.0000    0.0000    0.0000 Cl  0  0
    0.0000    0.0000    0.0000 Cl  0  0
  1  2  1  0
  2  3  2  3
  3  4  1  0
  3  5  1  0
M  END
> <Name>
TRICHLOROETHYLENE

> <SMILES>
ClC=C(Cl)Cl

> <Reference>
TR-243 (TR-273: Inadequate Study; TR-2: Strain Not F344)

> <Id>
79-01-6

> <Actual Value>
NEG TR-243: MR: IS FR: N MM: P FM: P

> <Predicted Value>
T

> <Used>
0.000 NEG

> <Additional Info(LOAEL)>
1

> <Status>
Non-Carcinogen

> <iscarc>
0

$$$$
DIELDRIN
  SciTegic06161615502D

 19 23  0  0  0  0            999 V2000
    0.0000    0.0000    0.0000 Cl  0  0
    0.0000    0.0000    0.0000 C   0  0
    0.0000    0.0000    0.0000 C   0  0
    0.0000    0.0000    0.0000 Cl  0  0
    0.0000    0.0000    0.0000 C   0  0
    0.0000    0.0000    0.0000 Cl  0  0
    0.0000    0.0000    0.0000 C   0  0
    0.0000    0.0000    0.0000 C   0  0
    0.0000    0.0000    0.0000 C   0  0
    0.0000    0.0000    0.0000 C   0  0
    0.0000    0.0000    0.0000 C   0  0
    0.0000    0.0000    0.0000 O   0  0
    0.0000    0.0000    0.0000 C   0  0
    0.0000    0.0000    0.0000 C   0  0
    0.0000    0.0000    0.0000 C   0  0
    0.0000    0.0000    0.0000 Cl  0  0
    0.0000    0.0000    0.0000 C   0  0
    0.0000    0.0000    0.0000 Cl  0  0
    0.0000    0.0000    0.0000 Cl  0  0
  1  2  1  0
  2  3  2  3
  3  4  1  0
  3  5  1  0
  5  6  1  0
  5  7  1  0
  7  8  1  0
  8  9  1  0
  9 10  1  0
 10 11  1  0
 11 12  1  0
 12 13  1  0
 13  8  1  0
 13 11  1  0
 10 14  1  0
 14  7  1  0
 14 15  1  0
 15  2  1  0
 15 16  1  0
 15 17  1  0
 17  5  1  0
 17 18  1  0
 17 19  1  0
M  END
> <Name>
DIELDRIN

> <SMILES>
ClC4=C(Cl)C5(Cl)C3C1CC(C2OC12)C3C4(Cl)C5(Cl)Cl

> <Reference>
TR-22 (TR-21: Exposure Less Than 100 Weeks)

> <Id>
60-57-1

> <Actual Value>
NEG TR-22: MR: N FR: N MM: FM:

> <Predicted Value>
TR-21:

> <Used>
0.000 NEG

> <Additional Info(LOAEL)>
1

> <Status>
Non-Carcinogen

> <iscarc>
0

$$$$
4;4'-METHYLENEDIANILINE HCL
  SciTegic06161615502D

 15 16  0  0  0  0            999 V2000
    0.0000    0.0000    0.0000 N   0  0
    0.0000    0.0000    0.0000 C   0  0
    0.0000    0.0000    0.0000 C   0  0
    0.0000    0.0000    0.0000 C   0  0
    0.0000    0.0000    0.0000 C   0  0
    0.0000    0.0000    0.0000 C   0  0
    0.0000    0.0000    0.0000 C   0  0
    0.0000    0.0000    0.0000 C   0  0
    0.0000    0.0000    0.0000 C   0  0
    0.0000    0.0000    0.0000 C   0  0
    0.0000    0.0000    0.0000 N   0  0
    0.0000    0.0000    0.0000 C   0  0
    0.0000    0.0000    0.0000 C   0  0
    0.0000    0.0000    0.0000 C   0  0
    0.0000    0.0000    0.0000 C   0  0
  1  2  1  0
  2  3  2  3
  3  4  1  0
  4  5  2  3
  5  6  1  0
  6  7  1  0
  7  8  2  3
  8  9  1  0
  9 10  2  3
 10 11  1  0
 10 12  1  0
 12 13  2  3
 13  7  1  0
  5 14  1  0
 14 15  2  3
 15  2  1  0
M  END
> <Name>
4;4'-METHYLENEDIANILINE HCL

> <SMILES>
Nc2ccc(Cc1ccc(N)cc1)cc2

> <Reference>
TR-248

> <Id>
13552-44-8

> <Actual Value>
POS TR-248 : MR: P FR: P MM: P FM: P

> <Predicted Value>
0.999 POS

> <Used>
1

> <Status>
Carcinogen

> <iscarc>
1

$$$$
8-HYDROXYQUINOLINE
  SciTegic06161615502D

 11 12  0  0  0  0            999 V2000
    0.0000    0.0000    0.0000 O   0  0
    0.0000    0.0000    0.0000 C   0  0
    0.0000    0.0000    0.0000 C   0  0
    0.0000    0.0000    0.0000 C   0  0
    0.0000    0.0000    0.0000 C   0  0
    0.0000    0.0000    0.0000 C   0  0
    0.0000    0.0000    0.0000 C   0  0
    0.0000    0.0000    0.0000 C   0  0
    0.0000    0.0000    0.0000 C   0  0
    0.0000    0.0000    0.0000 N   0  0
    0.0000    0.0000    0.0000 C   0  0
  1  2  1  0
  2  3  2  3
  3  4  1  0
  4  5  2  3
  5  6  1  0
  6  7  2  3
  7  8  1  0
  8  9  2  3
  9 10  1  0
 10 11  2  3
 11  2  1  0
 11  6  1  0
M  END
> <Name>
8-HYDROXYQUINOLINE

> <SMILES>
Oc1cccc2cccnc12

> <Reference>
TR-276

> <Id>
148-24-3

> <Actual Value>
NEG TR-276 : MR: NE FR: NE MM: NE FM: NE

> <Predicted Value>
0.000 NEG

> <Used>
1

> <Status>
Non-Carcinogen

> <iscarc>
0

$$$$
C.I. ACID RED 114
  SciTegic06161615502D

 54 59  0  0  0  0            999 V2000
    0.0000    0.0000    0.0000 C   0  0
    0.0000    0.0000    0.0000 C   0  0
    0.0000    0.0000    0.0000 C   0  0
    0.0000    0.0000    0.0000 C   0  0
    0.0000    0.0000    0.0000 C   0  0
    0.0000    0.0000    0.0000 C   0  0
    0.0000    0.0000    0.0000 C   0  0
    0.0000    0.0000    0.0000 S   0  0
    0.0000    0.0000    0.0000 O   0  0
    0.0000    0.0000    0.0000 O   0  0
    0.0000    0.0000    0.0000 O   0  0
    0.0000    0.0000    0.0000 C   0  0
    0.0000    0.0000    0.0000 C   0  0
    0.0000    0.0000    0.0000 C   0  0
    0.0000    0.0000    0.0000 C   0  0
    0.0000    0.0000    0.0000 N   0  0
    0.0000    0.0000    0.0000 N   0  0
    0.0000    0.0000    0.0000 C   0  0
    0.0000    0.0000    0.0000 C   0  0
    0.0000    0.0000    0.0000 C   0  0
    0.0000    0.0000    0.0000 C   0  0
    0.0000    0.0000    0.0000 C   0  0
    0.0000    0.0000    0.0000 C   0  0
    0.0000    0.0000    0.0000 C   0  0
    0.0000    0.0000    0.0000 C   0  0
    0.0000    0.0000    0.0000 C   0  0
    0.0000    0.0000    0.0000 C   0  0
    0.0000    0.0000    0.0000 C   0  0
    0.0000    0.0000    0.0000 N   0  0
    0.0000    0.0000    0.0000 N   0  0
    0.0000    0.0000    0.0000 C   0  0
    0.0000    0.0000    0.0000 C   0  0
    0.0000    0.0000    0.0000 O   0  0
    0.0000    0.0000    0.0000 C   0  0
    0.0000    0.0000    0.0000 C   0  0
    0.0000    0.0000    0.0000 C   0  0
    0.0000    0.0000    0.0000 C   0  0
    0.0000    0.0000    0.0000 C   0  0
    0.0000    0.0000    0.0000 C   0  0
    0.0000    0.0000    0.0000 C   0  0
    0.0000    0.0000    0.0000 C   0  0
    0.0000    0.0000    0.0000 S   0  0
    0.0000    0.0000    0.0000 O   0  0
    0.0000    0.0000    0.0000 O   0  0
    0.0000    0.0000    0.0000 O   0  0
    0.0000    0.0000    0.0000 S   0  0
    0.0000    0.0000    0.0000 O   0  0
    0.0000    0.0000    0.0000 O   0  0
    0.0000    0.0000    0.0000 O   0  0
    0.0000    0.0000    0.0000 C   0  0
    0.0000    0.0000    0.0000 C   0  0
    0.0000    0.0000    0.0000 C   0  0
    0.0000    0.0000    0.0000 C   0  0
    0.0000    0.0000    0.0000 C   0  0
  1  2  1  0
  2  3  2  3
  3  4  1  0
  4  5  2  3
  5  6  1  0
  6  7  2  3
  7  2  1  0
  5  8  1  0
  8  9  2  0
  8 10  2  0
  8 11  1  0
 11 12  1  0
 12 13  2  3
 13 14  1  0
 14 15  2  3
 15 16  1  0
 16 17  2  3
 17 18  1  0
 18 19  2  3
 19 20  1  0
 20 21  2  3
 21 22  1  0
 22 23  2  3
 23 18  1  0
 23 24  1  0
 21 25  1  0
 25 26  2  3
 26 27  1  0
 27 28  2  3
 28 29  1  0
 29 30  2  3
 30 31  1  0
 31 32  2  3
 32 33  1  0
 32 34  1  0
 34 35  2  3
 35 36  1  0
 36 37  2  3
 37 38  1  0
 38 39  2  3
 39 40  1  0
 40 41  2  3
 41 31  1  0
 41 36  1  0
 40 42  1  0
 42 43  1  0
 42 44  2  0
 42 45  2  0
 38 46  1  0
 46 47  1  0
 46 48  2  0
 46 49  2  0
 28 50  1  0
 50 51  1  0
 50 52  2  3
 52 25  1  0
 15 53  1  0
 53 54  2  3
 54 12  1  0
M  END
> <Name>
C.I. ACID RED 114

> <SMILES>
Cc1ccc(cc1)S(=O)(=O)Oc6ccc(N=Nc2ccc(cc2C)c5ccc(N=Nc3c(O)ccc4cc(cc(c34)S(O)(=O)=O)S(O)(=O)=O)c(C)c5)cc6

> <Reference>
TR-405

> <Id>
6459-94-5

> <Actual Value>
POS TR-405 : MR: CE FR: CE MM: FM:

> <Predicted Value>
1.000 POS

> <Used>
1

> <Status>
Carcinogen

> <CanonicalTautomer>
Yes

> <NumberOfTautomers>
3

> <iscarc>
1

$$$$
4;4'-OXYDIANILINE
  SciTegic06161615502D

 15 16  0  0  0  0            999 V2000
    0.0000    0.0000    0.0000 N   0  0
    0.0000    0.0000    0.0000 C   0  0
    0.0000    0.0000    0.0000 C   0  0
    0.0000    0.0000    0.0000 C   0  0
    0.0000    0.0000    0.0000 C   0  0
    0.0000    0.0000    0.0000 O   0  0
    0.0000    0.0000    0.0000 C   0  0
    0.0000    0.0000    0.0000 C   0  0
    0.0000    0.0000    0.0000 C   0  0
    0.0000    0.0000    0.0000 C   0  0
    0.0000    0.0000    0.0000 N   0  0
    0.0000    0.0000    0.0000 C   0  0
    0.0000    0.0000    0.0000 C   0  0
    0.0000    0.0000    0.0000 C   0  0
    0.0000    0.0000    0.0000 C   0  0
  1  2  1  0
  2  3  2  3
  3  4  1  0
  4  5  2  3
  5  6  1  0
  6  7  1  0
  7  8  2  3
  8  9  1  0
  9 10  2  3
 10 11  1  0
 10 12  1  0
 12 13  2  3
 13  7  1  0
  5 14  1  0
 14 15  2  3
 15  2  1  0
M  END
> <Name>
4;4'-OXYDIANILINE

> <SMILES>
Nc2ccc(Oc1ccc(N)cc1)cc2

> <Reference>
TR-205

> <Id>
101-80-4

> <Actual Value>
POS TR-205 : MR: P FR: P MM: P FM: P

> <Predicted Value>
1.000 POS

> <Used>
1

> <Status>
Carcinogen

> <iscarc>
1

$$$$
QUERCETIN
  SciTegic06161615502D

 22 24  0  0  0  0            999 V2000
    0.0000    0.0000    0.0000 O   0  0
    0.0000    0.0000    0.0000 C   0  0
    0.0000    0.0000    0.0000 C   0  0
    0.0000    0.0000    0.0000 C   0  0
    0.0000    0.0000    0.0000 O   0  0
    0.0000    0.0000    0.0000 C   0  0
    0.0000    0.0000    0.0000 C   0  0
    0.0000    0.0000    0.0000 O   0  0
    0.0000    0.0000    0.0000 C   0  0
    0.0000    0.0000    0.0000 O   0  0
    0.0000    0.0000    0.0000 C   0  0
    0.0000    0.0000    0.0000 O   0  0
    0.0000    0.0000    0.0000 C   0  0
    0.0000    0.0000    0.0000 C   0  0
    0.0000    0.0000    0.0000 C   0  0
    0.0000    0.0000    0.0000 C   0  0
    0.0000    0.0000    0.0000 C   0  0
    0.0000    0.0000    0.0000 C   0  0
    0.0000    0.0000    0.0000 O   0  0
    0.0000    0.0000    0.0000 C   0  0
    0.0000    0.0000    0.0000 O   0  0
    0.0000    0.0000    0.0000 C   0  0
  1  2  1  0
  2  3  2  3
  3  4  1  0
  4  5  1  0
  4  6  2  3
  6  7  1  0
  7  8  2  0
  7  9  1  0
  9 10  1  0
  9 11  2  3
 11 12  1  0
 12 13  1  0
 13  6  1  0
 13 14  2  3
 14  2  1  0
 11 15  1  0
 15 16  2  3
 16 17  1  0
 17 18  2  3
 18 19  1  0
 18 20  1  0
 20 21  1  0
 20 22  2  3
 22 15  1  0
M  END
> <Name>
QUERCETIN

> <SMILES>
Oc2cc(O)c1c(=O)c(O)c(oc1c2)c3ccc(O)c(O)c3

> <Reference>
TR-409

> <Id>
117-39-5

> <Actual Value>
NEG TR-409 : MR: SE FR: NE MM: FM:

> <Predicted Value>
0.000 NEG

> <Used>
1

> <Status>
Non-Carcinogen

> <CanonicalTautomer>
Yes

> <NumberOfTautomers>
4

> <iscarc>
0

$$$$
N-(1-NAPHTHYL)ETHYLENEDIAMINE
  SciTegic06161615502D

 14 15  0  0  0  0            999 V2000
    0.0000    0.0000    0.0000 N   0  0
    0.0000    0.0000    0.0000 C   0  0
    0.0000    0.0000    0.0000 C   0  0
    0.0000    0.0000    0.0000 N   0  0
    0.0000    0.0000    0.0000 C   0  0
    0.0000    0.0000    0.0000 C   0  0
    0.0000    0.0000    0.0000 C   0  0
    0.0000    0.0000    0.0000 C   0  0
    0.0000    0.0000    0.0000 C   0  0
    0.0000    0.0000    0.0000 C   0  0
    0.0000    0.0000    0.0000 C   0  0
    0.0000    0.0000    0.0000 C   0  0
    0.0000    0.0000    0.0000 C   0  0
    0.0000    0.0000    0.0000 C   0  0
  1  2  1  0
  2  3  1  0
  3  4  1  0
  4  5  1  0
  5  6  2  3
  6  7  1  0
  7  8  2  3
  8  9  1  0
  9 10  2  3
 10 11  1  0
 11 12  2  3
 12 13  1  0
 13 14  2  3
 14  5  1  0
 14  9  1  0
M  END
> <Name>
N-(1-NAPHTHYL)ETHYLENEDIAMINE

> <SMILES>
NCCNc1cccc2ccccc12

> <Reference>
TR-168

> <Id>
1465-25-4

> <Actual Value>
NEG TR-168 : MR: N FR: N MM: N FM: N

> <Predicted Value>
0.000 NEG

> <Used>
1

> <Status>
Non-Carcinogen

> <iscarc>
0

$$$$
4;4'-THIODIANILINE
  SciTegic06161615502D

 15 16  0  0  0  0            999 V2000
    0.0000    0.0000    0.0000 N   0  0
    0.0000    0.0000    0.0000 C   0  0
    0.0000    0.0000    0.0000 C   0  0
    0.0000    0.0000    0.0000 C   0  0
    0.0000    0.0000    0.0000 C   0  0
    0.0000    0.0000    0.0000 S   0  0
    0.0000    0.0000    0.0000 C   0  0
    0.0000    0.0000    0.0000 C   0  0
    0.0000    0.0000    0.0000 C   0  0
    0.0000    0.0000    0.0000 C   0  0
    0.0000    0.0000    0.0000 N   0  0
    0.0000    0.0000    0.0000 C   0  0
    0.0000    0.0000    0.0000 C   0  0
    0.0000    0.0000    0.0000 C   0  0
    0.0000    0.0000    0.0000 C   0  0
  1  2  1  0
  2  3  2  3
  3  4  1  0
  4  5  2  3
  5  6  1  0
  6  7  1  0
  7  8  2  3
  8  9  1  0
  9 10  2  3
 10 11  1  0
 10 12  1  0
 12 13  2  3
 13  7  1  0
  5 14  1  0
 14 15  2  3
 15  2  1  0
M  END
> <Name>
4;4'-THIODIANILINE

> <SMILES>
Nc2ccc(Sc1ccc(N)cc1)cc2

> <Reference>
TR-47

> <Id>
139-65-1

> <Actual Value>
POS TR-47 : MR: P FR: P MM: P FM: P

> <Predicted Value>
1.000 POS

> <Used>
1

> <Status>
Carcinogen

> <iscarc>
1

$$$$
1-AMINO-2;4-DIBROMOANTHRAQUINONE
  SciTegic06161615502D

 19 21  0  0  0  0            999 V2000
    0.0000    0.0000    0.0000 N   0  0
    0.0000    0.0000    0.0000 C   0  0
    0.0000    0.0000    0.0000 C   0  0
    0.0000    0.0000    0.0000 Br  0  0
    0.0000    0.0000    0.0000 C   0  0
    0.0000    0.0000    0.0000 C   0  0
    0.0000    0.0000    0.0000 Br  0  0
    0.0000    0.0000    0.0000 C   0  0
    0.0000    0.0000    0.0000 C   0  0
    0.0000    0.0000    0.0000 O   0  0
    0.0000    0.0000    0.0000 C   0  0
    0.0000    0.0000    0.0000 C   0  0
    0.0000    0.0000    0.0000 C   0  0
    0.0000    0.0000    0.0000 C   0  0
    0.0000    0.0000    0.0000 C   0  0
    0.0000    0.0000    0.0000 C   0  0
    0.0000    0.0000    0.0000 C   0  0
    0.0000    0.0000    0.0000 O   0  0
    0.0000    0.0000    0.0000 C   0  0
  1  2  1  0
  2  3  2  3
  3  4  1  0
  3  5  1  0
  5  6  2  3
  6  7  1  0
  6  8  1  0
  8  9  1  0
  9 10  2  0
  9 11  1  0
 11 12  2  3
 12 13  1  0
 13 14  2  3
 14 15  1  0
 15 16  2  3
 16 11  1  0
 16 17  1  0
 17 18  2  0
 17 19  1  0
 19  2  1  0
 19  8  2  3
M  END
> <Name>
1-AMINO-2;4-DIBROMOANTHRAQUINONE

> <SMILES>
Nc2c(Br)cc(Br)c3C(=O)c1ccccc1C(=O)c23

> <Reference>
TR-383

> <Id>
81-49-2

> <Actual Value>
POS TR-383 : MR: CE FR: CE MM: CE FM: CE

> <Used>
0

> <Status>
Carcinogen

> <CanonicalTautomer>
Yes

> <NumberOfTautomers>
2

> <iscarc>
1

$$$$
C.I. SOLVENT YELLOW 14
  SciTegic06161615502D

 19 21  0  0  0  0            999 V2000
    0.0000    0.0000    0.0000 O   0  0
    0.0000    0.0000    0.0000 C   0  0
    0.0000    0.0000    0.0000 C   0  0
    0.0000    0.0000    0.0000 C   0  0
    0.0000    0.0000    0.0000 C   0  0
    0.0000    0.0000    0.0000 C   0  0
    0.0000    0.0000    0.0000 C   0  0
    0.0000    0.0000    0.0000 C   0  0
    0.0000    0.0000    0.0000 C   0  0
    0.0000    0.0000    0.0000 C   0  0
    0.0000    0.0000    0.0000 C   0  0
    0.0000    0.0000    0.0000 N   0  0
    0.0000    0.0000    0.0000 N   0  0
    0.0000    0.0000    0.0000 C   0  0
    0.0000    0.0000    0.0000 C   0  0
    0.0000    0.0000    0.0000 C   0  0
    0.0000    0.0000    0.0000 C   0  0
    0.0000    0.0000    0.0000 C   0  0
    0.0000    0.0000    0.0000 C   0  0
  1  2  1  0
  2  3  2  3
  3  4  1  0
  4  5  2  3
  5  6  1  0
  6  7  2  3
  7  8  1  0
  8  9  2  3
  9 10  1  0
 10  5  1  0
 10 11  2  3
 11  2  1  0
 11 12  1  0
 12 13  2  3
 13 14  1  0
 14 15  2  3
 15 16  1  0
 16 17  2  3
 17 18  1  0
 18 19  2  3
 19 14  1  0
M  END
> <Name>
C.I. SOLVENT YELLOW 14

> <SMILES>
Oc2ccc1ccccc1c2N=Nc3ccccc3

> <Reference>
TR-226

> <Id>
842-07-9

> <Actual Value>
POS TR-226 : MR: P FR: P MM: N FM: N

> <Predicted Value>
0.999 POS

> <Used>
1

> <Status>
Carcinogen

> <CanonicalTautomer>
Yes

> <NumberOfTautomers>
2

> <iscarc>
1

$$$$
C.I.ORANGE 3
  SciTegic06161615502D

 30 32  0  0  0  0            999 V2000
    0.0000    0.0000    0.0000 O   0  0
    0.0000    0.0000    0.0000 S   0  0
    0.0000    0.0000    0.0000 O   0  0
    0.0000    0.0000    0.0000 O   0  0
    0.0000    0.0000    0.0000 C   0  0
    0.0000    0.0000    0.0000 C   0  0
    0.0000    0.0000    0.0000 C   0  0
    0.0000    0.0000    0.0000 N   0  0
    0.0000    0.0000    0.0000 C   0  0
    0.0000    0.0000    0.0000 C   0  0
    0.0000    0.0000    0.0000 C   0  0
    0.0000    0.0000    0.0000 C   0  0
    0.0000    0.0000    0.0000 C   0  0
    0.0000    0.0000    0.0000 C   0  0
    0.0000    0.0000    0.0000 N   0  0
    0.0000    0.0000    0.0000 O   0  0
    0.0000    0.0000    0.0000 O   0  0
    0.0000    0.0000    0.0000 N   0  0
    0.0000    0.0000    0.0000 O   0  0
    0.0000    0.0000    0.0000 O   0  0
    0.0000    0.0000    0.0000 C   0  0
    0.0000    0.0000    0.0000 C   0  0
    0.0000    0.0000    0.0000 C   0  0
    0.0000    0.0000    0.0000 N   0  0
    0.0000    0.0000    0.0000 C   0  0
    0.0000    0.0000    0.0000 C   0  0
    0.0000    0.0000    0.0000 C   0  0
    0.0000    0.0000    0.0000 C   0  0
    0.0000    0.0000    0.0000 C   0  0
    0.0000    0.0000    0.0000 C   0  0
  1  2  1  0
  2  3  2  0
  2  4  2  0
  2  5  1  0
  5  6  2  3
  6  7  1  0
  7  8  1  0
  8  9  1  0
  9 10  2  3
 10 11  1  0
 11 12  2  3
 12 13  1  0
 13 14  2  3
 14  9  1  0
 14 15  1  0
 15 16  2  0
 15 17  2  0
 12 18  1  0
 18 19  2  0
 18 20  2  0
  7 21  2  3
 21 22  1  0
 22 23  2  3
 23  5  1  0
 23 24  1  0
 24 25  1  0
 25 26  2  3
 26 27  1  0
 27 28  2  3
 28 29  1  0
 29 30  2  3
 30 25  1  0
M  END
> <Name>
C.I.ORANGE 3

> <SMILES>
OS(=O)(=O)c2cc(Nc1ccc(cc1N(=O)=O)N(=O)=O)ccc2Nc3ccccc3

> <Reference>
TR-335

> <Id>
6373-74-6

> <Actual Value>
POS TR-335 : MR: NE FR: CE MM: NE FM: NE

> <Predicted Value>
1.000 POS

> <Used>
1

> <Status>
Carcinogen

> <iscarc>
1

$$$$
N-PHENYL-2-NAPTHTHYLAMINE
  SciTegic06161615502D

 17 19  0  0  0  0            999 V2000
    0.0000    0.0000    0.0000 N   0  0
    0.0000    0.0000    0.0000 C   0  0
    0.0000    0.0000    0.0000 C   0  0
    0.0000    0.0000    0.0000 C   0  0
    0.0000    0.0000    0.0000 C   0  0
    0.0000    0.0000    0.0000 C   0  0
    0.0000    0.0000    0.0000 C   0  0
    0.0000    0.0000    0.0000 C   0  0
    0.0000    0.0000    0.0000 C   0  0
    0.0000    0.0000    0.0000 C   0  0
    0.0000    0.0000    0.0000 C   0  0
    0.0000    0.0000    0.0000 C   0  0
    0.0000    0.0000    0.0000 C   0  0
    0.0000    0.0000    0.0000 C   0  0
    0.0000    0.0000    0.0000 C   0  0
    0.0000    0.0000    0.0000 C   0  0
    0.0000    0.0000    0.0000 C   0  0
  1  2  1  0
  2  3  2  3
  3  4  1  0
  4  5  2  3
  5  6  1  0
  6  7  2  3
  7  2  1  0
  1  8  1  0
  8  9  2  3
  9 10  1  0
 10 11  2  3
 11 12  1  0
 12 13  2  3
 13 14  1  0
 14 15  2  3
 15 16  1  0
 16 11  1  0
 16 17  2  3
 17  8  1  0
M  END
> <Name>
N-PHENYL-2-NAPTHTHYLAMINE

> <SMILES>
N(c1ccccc1)c3ccc2ccccc2c3

> <Reference>
TR-333

> <Id>
135-88-6

> <Actual Value>
NEG TR-333 : MR: NE FR: NE MM: NE FM: EE

> <Predicted Value>
0.001 NEG

> <Used>
1

> <Status>
Non-Carcinogen

> <iscarc>
0

$$$$
TETRANITROMETHANE
  SciTegic06161615502D

 13 12  0  0  0  0            999 V2000
    0.0000    0.0000    0.0000 O   0  0
    0.0000    0.0000    0.0000 N   0  0
    0.0000    0.0000    0.0000 O   0  0
    0.0000    0.0000    0.0000 C   0  0
    0.0000    0.0000    0.0000 N   0  0
    0.0000    0.0000    0.0000 O   0  0
    0.0000    0.0000    0.0000 O   0  0
    0.0000    0.0000    0.0000 N   0  0
    0.0000    0.0000    0.0000 O   0  0
    0.0000    0.0000    0.0000 O   0  0
    0.0000    0.0000    0.0000 N   0  0
    0.0000    0.0000    0.0000 O   0  0
    0.0000    0.0000    0.0000 O   0  0
  1  2  2  0
  2  3  2  0
  2  4  1  0
  4  5  1  0
  5  6  2  0
  5  7  2  0
  4  8  1  0
  8  9  2  0
  8 10  2  0
  4 11  1  0
 11 12  2  0
 11 13  2  0
M  END
> <Name>
TETRANITROMETHANE

> <SMILES>
O=N(=O)C(N(=O)=O)(N(=O)=O)N(=O)=O

> <Reference>
TR-386

> <Id>
509-14-8

> <Actual Value>
POS TR-386 : MR: CE FR: CE MM: CE FM: CE

> <Predicted Value>
1.000 POS

> <Used>
1

> <Status>
Carcinogen

> <iscarc>
1

$$$$
N.T.A.
  SciTegic06161615502D

 13 12  0  0  0  0            999 V2000
    0.0000    0.0000    0.0000 O   0  0
    0.0000    0.0000    0.0000 C   0  0
    0.0000    0.0000    0.0000 O   0  0
    0.0000    0.0000    0.0000 C   0  0
    0.0000    0.0000    0.0000 N   0  0
    0.0000    0.0000    0.0000 C   0  0
    0.0000    0.0000    0.0000 C   0  0
    0.0000    0.0000    0.0000 O   0  0
    0.0000    0.0000    0.0000 O   0  0
    0.0000    0.0000    0.0000 C   0  0
    0.0000    0.0000    0.0000 C   0  0
    0.0000    0.0000    0.0000 O   0  0
    0.0000    0.0000    0.0000 O   0  0
  1  2  1  0
  2  3  2  0
  2  4  1  0
  4  5  1  0
  5  6  1  0
  6  7  1  0
  7  8  1  0
  7  9  2  0
  5 10  1  0
 10 11  1  0
 11 12  1  0
 11 13  2  0
M  END
> <Name>
N.T.A.

> <SMILES>
OC(=O)CN(CC(O)=O)CC(O)=O

> <Reference>
TR-6

> <Id>
139-13-9

> <Actual Value>
POS TR-6 : MR: P FR: P MM: P FM: P

> <Predicted Value>
0.999 POS

> <Used>
1

> <Status>
Carcinogen

> <iscarc>
1

$$$$
L-ASCORBIC ACID
  SciTegic06161615502D

 12 12  0  0  0  0            999 V2000
    0.0000    0.0000    0.0000 O   0  0
    0.0000    0.0000    0.0000 C   0  0
    0.0000    0.0000    0.0000 C   0  0
    0.0000    0.0000    0.0000 O   0  0
    0.0000    0.0000    0.0000 C   0  0
    0.0000    0.0000    0.0000 O   0  0
    0.0000    0.0000    0.0000 C   0  0
    0.0000    0.0000    0.0000 O   0  0
    0.0000    0.0000    0.0000 C   0  0
    0.0000    0.0000    0.0000 C   0  0
    0.0000    0.0000    0.0000 O   0  0
    0.0000    0.0000    0.0000 O   0  0
  1  2  1  0
  2  3  1  0
  3  4  1  0
  3  5  1  0
  5  6  1  0
  6  7  1  0
  7  8  1  0
  7  9  2  3
  9 10  1  0
 10  5  1  0
 10 11  2  0
  9 12  1  0
M  END
> <Name>
L-ASCORBIC ACID

> <SMILES>
OCC(O)C1OC(=O)C(=C1O)O

> <Reference>
TR-247

> <Id>
50-81-7

> <Actual Value>
NEG TR-247 : MR: N FR: N MM: N FM: N

> <Predicted Value>
0.003 NEG

> <Used>
1

> <Status>
Non-Carcinogen

> <CanonicalTautomer>
Yes

> <NumberOfTautomers>
2

> <iscarc>
0

$$$$
D-MANNITOL
  SciTegic06161615502D

 12 11  0  0  0  0            999 V2000
    0.0000    0.0000    0.0000 O   0  0
    0.0000    0.0000    0.0000 C   0  0
    0.0000    0.0000    0.0000 C   0  0
    0.0000    0.0000    0.0000 O   0  0
    0.0000    0.0000    0.0000 C   0  0
    0.0000    0.0000    0.0000 O   0  0
    0.0000    0.0000    0.0000 C   0  0
    0.0000    0.0000    0.0000 O   0  0
    0.0000    0.0000    0.0000 C   0  0
    0.0000    0.0000    0.0000 O   0  0
    0.0000    0.0000    0.0000 C   0  0
    0.0000    0.0000    0.0000 O   0  0
  1  2  1  0
  2  3  1  0
  3  4  1  0
  3  5  1  0
  5  6  1  0
  5  7  1  0
  7  8  1  0
  7  9  1  0
  9 10  1  0
  9 11  1  0
 11 12  1  0
M  END
> <Name>
D-MANNITOL

> <SMILES>
OCC(O)C(O)C(O)C(O)CO

> <Reference>
TR-236

> <Id>
69-65-8

> <Actual Value>
NEG TR-236 : MR: N FR: N MM: N FM: N

> <Predicted Value>
0.000 NEG

> <Used>
1

> <Status>
Non-Carcinogen

> <iscarc>
0

$$$$
TRISODIUM E.D.T.A. TRIHYDRATE
  SciTegic06161615502D

 20 19  0  0  0  0            999 V2000
    0.0000    0.0000    0.0000 O   0  0
    0.0000    0.0000    0.0000 C   0  0
    0.0000    0.0000    0.0000 O   0  0
    0.0000    0.0000    0.0000 C   0  0
    0.0000    0.0000    0.0000 N   0  0
    0.0000    0.0000    0.0000 C   0  0
    0.0000    0.0000    0.0000 C   0  0
    0.0000    0.0000    0.0000 N   0  0
    0.0000    0.0000    0.0000 C   0  0
    0.0000    0.0000    0.0000 C   0  0
    0.0000    0.0000    0.0000 O   0  0
    0.0000    0.0000    0.0000 O   0  0
    0.0000    0.0000    0.0000 C   0  0
    0.0000    0.0000    0.0000 C   0  0
    0.0000    0.0000    0.0000 O   0  0
    0.0000    0.0000    0.0000 O   0  0
    0.0000    0.0000    0.0000 C   0  0
    0.0000    0.0000    0.0000 C   0  0
    0.0000    0.0000    0.0000 O   0  0
    0.0000    0.0000    0.0000 O   0  0
  1  2  1  0
  2  3  2  0
  2  4  1  0
  4  5  1  0
  5  6  1  0
  6  7  1  0
  7  8  1  0
  8  9  1  0
  9 10  1  0
 10 11  1  0
 10 12  2  0
  8 13  1  0
 13 14  1  0
 14 15  1  0
 14 16  2  0
  5 17  1  0
 17 18  1  0
 18 19  1  0
 18 20  2  0
M  END
> <Name>
TRISODIUM E.D.T.A. TRIHYDRATE

> <SMILES>
OC(=O)CN(CCN(CC(O)=O)CC(O)=O)CC(O)=O

> <Reference>
TR-11

> <Id>
150-38-9

> <Actual Value>
NEG TR-11 : MR: N FR: N MM: N FM: N

> <Used>
0

> <Status>
Non-Carcinogen

> <iscarc>
0

$$$$
HEXACHLOROETHANE
  SciTegic06161615502D

  8  7  0  0  0  0            999 V2000
    0.0000    0.0000    0.0000 Cl  0  0
    0.0000    0.0000    0.0000 C   0  0
    0.0000    0.0000    0.0000 Cl  0  0
    0.0000    0.0000    0.0000 Cl  0  0
    0.0000    0.0000    0.0000 C   0  0
    0.0000    0.0000    0.0000 Cl  0  0
    0.0000    0.0000    0.0000 Cl  0  0
    0.0000    0.0000    0.0000 Cl  0  0
  1  2  1  0
  2  3  1  0
  2  4  1  0
  2  5  1  0
  5  6  1  0
  5  7  1  0
  5  8  1  0
M  END
> <Name>
HEXACHLOROETHANE

> <SMILES>
ClC(Cl)(Cl)C(Cl)(Cl)Cl

> <Reference>
TR-361 (TR-68: Exposure Less Than 100 Weeks)

> <Id>
67-72-1

> <Actual Value>
NEG TR-361: MR: CE FR: NE MM: FM:

> <Predicted Value>
TR-6

> <Used>
0.001 NEG

> <Additional Info(LOAEL)>
1

> <Status>
Non-Carcinogen

> <iscarc>
0

$$$$
Benzyl Acetate
  SciTegic06161615502D

 11 11  0  0  0  0            999 V2000
    0.0000   -5.7586    0.0000 C   0  0
    0.6651   -4.6068    0.0000 C   0  0
    2.6603   -5.7586    0.0000 C   0  0
    1.9952   -6.9103    0.0000 C   0  0
    1.9952   -4.6068    0.0000 C   0  0
    0.6651   -6.9103    0.0000 C   0  0
    2.6603   -3.4551    0.0000 C   0  0
    1.9952   -2.3034    0.0000 O   0  0
    2.6603   -1.1517    0.0000 C   0  0
    1.9952    0.0000    0.0000 C   0  0
    3.9904   -1.1517    0.0000 O   0  0
  1  2  2  0
  1  6  1  0
  2  5  1  0
  3  4  1  0
  3  5  2  0
  4  6  2  0
  5  7  1  0
  7  8  1  0
  8  9  1  0
  9 10  1  0
  9 11  2  0
M  END
> <Name>
Benzyl Acetate

> <Substance ID>
38

> <Synonyms>
alpha-acetoxytoluene; Acetic acid benzyl ester; ACETATO DE BENCILO; Acetic acid phenylmethyl ester; (acetoxymethyl)benzene;  phenylmethyl acetate.

> <CAS>
140-11-4

> <Reference>
NTP431

> <MolWeight>
150.18

> <Formula>
C9H10O2

> <SMILES>
CC(=O)OCC1=CC=CC=C1

> <TD50_Rat>
NP

> <TD50_Mouse>
NP

> <Canc>
1

> <SAL>
1

> <Rat_Male_Canc>
1

> <Rat_Female_Canc>
1

> <Mouse_Male_Canc>
1

> <Mouse_Female_Canc>
1

> <Rat_Male_NTP>
NE

> <Rat_Female_NTP>
NE

> <Mouse_Male_NTP>
NE

> <Mouse_Female_NTP>
NE

> <Status>
Non-Carcinogen

> <New_Data>
true

> <iscarc>
0

$$$$
1,2-Dichloropropane
  SciTegic06161615502D

  5  4  0  0  0  0            999 V2000
    0.0000   -0.6681    0.0000 Cl  0  0
    1.1527    0.0000    0.0000 C   0  0
    2.3055   -0.6681    0.0000 C   0  0
    3.4582    0.0000    0.0000 C   0  0
    2.3055   -1.9911    0.0000 Cl  0  0
  1  2  1  0
  2  3  1  0
  3  4  1  0
  3  5  1  0
M  END
> <Name>
1,2-Dichloropropane

> <Substance ID>
51

> <Synonyms>
1,2-DICHLOROPROPANE (PROPYLENE DICHLORIDE); alpha,beta-dichloropropane; alpha,beta-propylene dichloride; dichloropropane; Dichloropropane, 1,2-; Dichloropropanes; Propylene Dichloride; Propylene Chlor
ide.

> <CAS>
78-87-5

> <Reference>
NTP263

> <MolWeight>
112.99

> <Formula>
C3H6Cl2

> <SMILES>
CC(CCl)Cl

> <TD50_Rat>
NP

> <TD50_Mouse>
276

> <Canc>
3

> <SAL>
2

> <Rat_Male_Canc>
1

> <Rat_Female_Canc>
2

> <Mouse_Male_Canc>
3

> <Mouse_Female_Canc>
3

> <Rat_Male_NTP>
NE

> <Rat_Female_NTP>
EE

> <Mouse_Male_NTP>
SE

> <Mouse_Female_NTP>
SE

> <Status>
Carcinogen

> <New_Data>
true

> <iscarc>
1

$$$$
HC Blue no. 1
  SciTegic06161615502D

 18 18  0  0  0  0            999 V2000
    5.3175   -1.1521    0.0000 C   0  0
    5.9758    0.0000    0.0000 O   0  0
    3.9881   -1.1521    0.0000 C   0  0
    5.3175   -3.4564    0.0000 C   0  0
    5.9758   -4.6085    0.0000 C   0  0
    3.9881   -5.7606    0.0000 C   0  0
    3.3171   -4.6085    0.0000 C   0  0
    5.3175   -5.7606    0.0000 C   0  0
    3.9881   -3.4564    0.0000 C   0  0
    5.9758   -6.9127    0.0000 N   0  0
    3.3171   -2.3042    0.0000 N   0  0
    1.9877   -2.3042    0.0000 C   0  0
    1.3294   -1.1521    0.0000 C   0  0
    0.0000   -1.1521    0.0000 O   0  0
    3.3171   -6.9127    0.0000 N   0  3
    1.9877   -6.9127    0.0000 O   0  5
    3.9881   -8.0648    0.0000 O   0  0
    7.3052   -6.9127    0.0000 C   0  0
  1  2  1  0
  1  3  1  0
  3 11  1  0
  4  5  2  0
  4  9  1  0
  5  8  1  0
  6  7  1  0
  6  8  2  0
  6 15  1  0
  7  9  2  0
  8 10  1  0
  9 11  1  0
 10 18  1  0
 11 12  1  0
 12 13  1  0
 13 14  1  0
 15 16  1  0
 15 17  2  0
M  CHG  2  15   1  16  -1
M  END
> <Name>
HC Blue no. 1

> <Substance ID>
56

> <Synonyms>
1-Methylamino-2-nitro-4-(bis-2-hydroxyethyl)aminobenzene; 2,2'-((4-(methylamino)-3-nitrophenyl)imino)bisethanol; HC Blue 1; N1,N1-Bis(2-hydroxyethyl)-N4-methyl-3-nitro-p-phenylenediamine; N4,N4-bis(2-
hydroxyethyl)-N1-methyl-2-nitro-p-phenylenediamine; N',N'-bis(2-hydroxyethyl)-N-methyl-2-nitro-p-phenylenediamine; N,N-Bis(2-hydroxyethyl)-N'-methyl-3-nitro-p-phenylenediamine.

> <CAS>
2784-94-3

> <Reference>
NTP271

> <MolWeight>
255.27

> <Formula>
C11H17N3O4

> <SMILES>
C1(=C(C=CC(=C1)N(CCO)CCO)NC)[N+]([O-])=O

> <TD50_Rat>
702

> <TD50_Mouse>
86.3

> <Canc>
3

> <SAL>
3

> <Rat_Male_Canc>
2

> <Rat_Female_Canc>
3

> <Mouse_Male_Canc>
3

> <Mouse_Female_Canc>
3

> <Rat_Male_NTP>
EE

> <Rat_Female_NTP>
SE

> <Mouse_Male_NTP>
CE

> <Mouse_Female_NTP>
CE

> <Status>
Carcinogen

> <New_Data>
true

> <iscarc>
1

$$$$
Telone II, Technical
  SciTegic06161615502D

  5  4  0  0  0  0            999 V2000
    0.0000   -0.6641    0.0000 Cl  0  0
    1.1589    0.0000    0.0000 C   0  0
    2.3047   -0.6641    0.0000 C   0  0
    3.4636    0.0000    0.0000 C   0  0
    4.6094   -0.6641    0.0000 Cl  0  0
  1  2  1  0
  2  3  2  0
  3  4  1  0
  4  5  1  0
M  END
> <Name>
Telone II, Technical

> <Substance ID>
64

> <Synonyms>
1,3-Dichloro-1-Propene; 1,3-dichloro-1-propylene; 1,3-Dichloro-2-propene; 1,3-Dichloropropene; 1,3-dichloropropene-1; 1,3-Dichloropropene, E,Z-; 1,3-Dichloropropene (mixed); 1,3-Dichloropropene (mixed
 isomers); 1,3-Dichloropropylene; 1,3-D; 3-Chloroallyl Chloride; 3-Chloropropenyl Chloride; alpha-Chloroallyl Chloride; alpha,gamma-Dichloropropylene; Dichloropropene, 1,3- (Telone II) ; Chloroallyl C
hloride; Chloropropenyl chloride; D-D92; dorlone ii; Telone; Telone II; Telone IIR; Telone II Soil Fumigant; Tri-Form; gamma-chloroallyl chloride.

> <CAS>
542-75-6

> <Reference>
NTP269

> <MolWeight>
110.97

> <Formula>
C3H4Cl2

> <SMILES>
ClCC=CCl

> <TD50_Rat>
94

> <TD50_Mouse>
49.6

> <Canc>
3

> <SAL>
3

> <Rat_Male_Canc>
3

> <Rat_Female_Canc>
3

> <Mouse_Male_Canc>
ND

> <Mouse_Female_Canc>
3

> <Rat_Male_NTP>
CE

> <Rat_Female_NTP>
SE

> <Mouse_Male_NTP>
ND

> <Mouse_Female_NTP>
CE

> <Status>
Carcinogen

> <New_Data>
true

> <iscarc>
1

$$$$
2,6-Xylidine
  SciTegic06161615502D

  9  9  0  0  0  0            999 V2000
    1.3295   -1.1522    0.0000 C   0  0
    1.9879    0.0000    0.0000 C   0  0
    3.9885   -1.1522    0.0000 C   0  0
    3.3174   -2.3045    0.0000 C   0  0
    3.3174    0.0000    0.0000 C   0  0
    1.9879   -2.3045    0.0000 C   0  0
    1.3295   -3.4567    0.0000 N   0  0
    3.9885   -3.4567    0.0000 C   0  0
    0.0000   -1.1522    0.0000 C   0  0
  1  2  2  0
  1  6  1  0
  1  9  1  0
  2  5  1  0
  3  4  1  0
  3  5  2  0
  4  6  2  0
  4  8  1  0
  6  7  1  0
M  END
> <Name>
2,6-Xylidine

> <Substance ID>
70

> <Synonyms>
1-amino-2,6-dimethylbenzene; 2,6-Dimethylaniline; 2-amino-1,3-dimethylbenzene; o-Xylidine; DMA; Xylylamine.

> <CAS>
87-62-7

> <Reference>
NTP278

> <MolWeight>
121.18

> <Formula>
C8H11N

> <SMILES>
Nc(c(ccc1)C)c1C

> <TD50_Rat>
ND

> <TD50_Mouse>
ND

> <Canc>
3

> <SAL>
1

> <Rat_Male_Canc>
3

> <Rat_Female_Canc>
3

> <Mouse_Male_Canc>
ND

> <Mouse_Female_Canc>
ND

> <Rat_Male_NTP>
CE

> <Rat_Female_NTP>
CE

> <Mouse_Male_NTP>
ND

> <Mouse_Female_NTP>
ND

> <Status>
Carcinogen

> <New_Data>
true

> <iscarc>
1

$$$$
Butyl Benzyl Phthalate
  SciTegic06161615502D

 23 24  0  0  0  0            999 V2000
    3.9845   -2.2968    0.0000 O   0  0
    2.6521   -2.2968    0.0000 C   0  0
    1.9922   -1.1547    0.0000 C   0  0
    0.6598   -1.1547    0.0000 C   0  0
    0.0000    0.0000    0.0000 C   0  0
    4.6443   -3.4515    0.0000 C   0  0
    3.9845   -4.6062    0.0000 O   0  0
    7.9689   -2.2968    0.0000 C   0  0
    8.6415   -3.4515    0.0000 C   0  0
    6.6492   -4.6062    0.0000 C   0  0
    5.9767   -3.4515    0.0000 C   0  0
    7.9689   -4.6062    0.0000 C   0  0
    6.6492   -2.2968    0.0000 C   0  0
    5.9767   -5.7610    0.0000 C   0  0
    6.6492   -6.9030    0.0000 O   0  0
    4.6443   -5.7610    0.0000 O   0  0
    5.9767   -8.0578    0.0000 C   0  0
    6.6492   -9.2125    0.0000 C   0  0
    7.9689   -9.2125    0.0000 C   0  0
    7.9689  -11.5093    0.0000 C   0  0
    6.6492  -11.5093    0.0000 C   0  0
    8.6415  -10.3672    0.0000 C   0  0
    5.9767  -10.3672    0.0000 C   0  0
  1  2  1  0
  1  6  1  0
  2  3  1  0
  3  4  1  0
  4  5  1  0
  6  7  2  0
  6 11  1  0
  8  9  2  0
  8 13  1  0
  9 12  1  0
 10 11  1  0
 10 12  2  0
 10 14  1  0
 11 13  2  0
 14 15  1  0
 14 16  2  0
 15 17  1  0
 17 18  1  0
 18 19  2  0
 18 23  1  0
 19 22  1  0
 20 21  1  0
 20 22  2  0
 21 23  2  0
M  END
> <Name>
Butyl Benzyl Phthalate

> <Substance ID>
72

> <Synonyms>
1,2-Benzenedicarboxylic acid butyl phenylmethyl ester; BBP; Benzyl butyl phthalate; benzyl n-butyl phthalate; butyl phenylmethyl 1,2-benzenedicarboxylate; n-Butyl Benzyl Phthalate; palatinol bb; santi
cizer 160; sicol 160; unimoll bb.

> <CAS>
85-68-7

> <Reference>
NTP458 & CPDB

> <MolWeight>
312.36

> <Formula>
C19H20O4

> <SMILES>
C1(=C(C=CC=C1)C(OCCCC)=O)C(OCC2=CC=CC=C2)=O

> <TD50_Rat>
ND

> <TD50_Mouse>
NP

> <Canc>
3

> <SAL>
1

> <Rat_Male_Canc>
3

> <Rat_Female_Canc>
2

> <Mouse_Male_Canc>
1

> <Mouse_Female_Canc>
1

> <Rat_Male_NTP>
SE

> <Rat_Female_NTP>
EE

> <Mouse_Male_NTP>
ND

> <Mouse_Female_NTP>
ND

> <Status>
Carcinogen

> <New_Data>
true

> <iscarc>
1

$$$$
Diallyl Phthalate
  SciTegic06161615502D

 18 18  0  0  0  0            999 V2000
    6.9164    0.0000    0.0000 C   0  0
    8.0628   -0.6623    0.0000 C   0  0
    6.9164   -2.6621    0.0000 C   0  0
    5.7573   -1.9998    0.0000 C   0  0
    8.0628   -1.9998    0.0000 C   0  0
    5.7573   -0.6623    0.0000 C   0  0
    4.6109   -2.6621    0.0000 C   0  0
    6.9164   -3.9868    0.0000 C   0  0
    4.6109   -3.9868    0.0000 O   0  0
    5.7573   -4.6491    0.0000 O   0  0
    3.4646   -1.9998    0.0000 O   0  0
    8.0628   -4.6491    0.0000 O   0  0
    8.0628   -5.9866    0.0000 C   0  0
    9.2219   -6.6489    0.0000 C   0  0
    2.3055   -2.6621    0.0000 C   0  0
    1.1591   -1.9998    0.0000 C   0  0
    0.0000   -2.6621    0.0000 C   0  0
    9.2219   -7.9736    0.0000 C   0  0
  1  2  2  0
  1  6  1  0
  2  5  1  0
  3  4  1  0
  3  5  2  0
  3  8  1  0
  4  6  2  0
  4  7  1  0
  7  9  2  0
  7 11  1  0
  8 10  2  0
  8 12  1  0
 11 15  1  0
 12 13  1  0
 13 14  1  0
 14 18  2  0
 15 16  1  0
 16 17  2  0
M  END
> <Name>
Diallyl Phthalate

> <Substance ID>
73

> <Synonyms>
1,2-Benzenedicarboxylic acid, di-2-propenyl ester; o-phthalic acid diallyl ester; Allyl Phthalate; diallylester phthalic acid; DAP; dapon 35; dapon r.

> <CAS>
131-17-9

> <Reference>
NTP284 & NTP242

> <MolWeight>
246.26

> <Formula>
C14H14O4

> <SMILES>
O=C(C1=C(C=CC=C1)C(=O)OCC=C)OCC=C

> <TD50_Rat>
NP

> <TD50_Mouse>
NP

> <Canc>
2

> <SAL>
1

> <Rat_Male_Canc>
1

> <Rat_Female_Canc>
2

> <Mouse_Male_Canc>
2

> <Mouse_Female_Canc>
2

> <Rat_Male_NTP>
NE

> <Rat_Female_NTP>
EE

> <Mouse_Male_NTP>
EE

> <Mouse_Female_NTP>
EE

> <Status>
Carcinogen

> <New_Data>
true

> <iscarc>
1

$$$$
HC Blue no. 2
  SciTegic06161615502D

 20 20  0  0  0  0            999 V2000
    4.6133   -4.6524    0.0000 C   0  0
    4.6133   -5.9816    0.0000 C   0  0
    2.3066   -5.9816    0.0000 C   0  0
    2.3066   -4.6524    0.0000 C   0  0
    3.4535   -6.6463    0.0000 C   0  0
    3.4535   -3.9878    0.0000 C   0  0
    3.4535   -2.6585    0.0000 N   0  0
    3.4535   -7.9755    0.0000 N   0  0
    2.3066   -8.6402    0.0000 C   0  0
    1.1598   -7.9755    0.0000 C   0  0
    0.0000   -8.6402    0.0000 O   0  0
    4.6133   -8.6402    0.0000 C   0  0
    5.7601   -7.9755    0.0000 C   0  0
    6.9069   -8.6402    0.0000 O   0  0
    1.1598   -3.9878    0.0000 N   0  3
    1.1598   -2.6585    0.0000 O   0  5
    0.0000   -4.6524    0.0000 O   0  0
    4.6133   -1.9939    0.0000 C   0  0
    4.6133   -0.6646    0.0000 C   0  0
    5.7601    0.0000    0.0000 O   0  0
  1  2  2  0
  1  6  1  0
  2  5  1  0
  3  4  1  0
  3  5  2  0
  4  6  2  0
  4 15  1  0
  5  8  1  0
  6  7  1  0
  7 18  1  0
  8  9  1  0
  8 12  1  0
  9 10  1  0
 10 11  1  0
 12 13  1  0
 13 14  1  0
 15 16  1  0
 15 17  2  0
 18 19  1  0
 19 20  1  0
M  CHG  2  15   1  16  -1
M  END
> <Name>
HC Blue no. 2

> <Substance ID>
84

> <Synonyms>
2,2'-((4-((2-hydroxyethyl)amino)-3-nitrophenyl)imino)bisethanol; 3-nitro-N(sup 1),N(sup 1),N(sup 4)-tris(2-hydroxyethyl)-p-phenylenediamine; hc blue 2; N1,N4,N4-tris(2-hydroxyethyl)-2-nitro-p-phenylen
ediamine.

> <CAS>
33229-34-4

> <Reference>
NTP293

> <MolWeight>
285.3

> <Formula>
C12H19N3O5

> <SMILES>
C1(=C(C=CC(=C1)N(CCO)CCO)NCCO)[N+]([O-])=O

> <TD50_Rat>
NP

> <TD50_Mouse>
NP

> <Canc>
1

> <SAL>
3

> <Rat_Male_Canc>
1

> <Rat_Female_Canc>
1

> <Mouse_Male_Canc>
1

> <Mouse_Female_Canc>
1

> <Rat_Male_NTP>
NE

> <Rat_Female_NTP>
NE

> <Mouse_Male_NTP>
NE

> <Mouse_Female_NTP>
NE

> <Status>
Non-Carcinogen

> <New_Data>
true

> <iscarc>
0

$$$$
Dichlorvos
  SciTegic06161615502D

 11 10  0  0  0  0            999 V2000
    0.0000   -2.4734    0.0000 C   0  0
    0.6596   -1.3192    0.0000 O   0  0
    1.9914   -1.3192    0.0000 P   0  0
    3.3233   -1.3192    0.0000 O   0  0
    3.9828   -2.4734    0.0000 C   0  0
    5.3147   -2.4734    0.0000 C   0  0
    5.9743   -3.6277    0.0000 Cl  0  0
    1.9914    0.0000    0.0000 O   0  0
    5.9743   -1.3192    0.0000 Cl  0  0
    1.9914   -2.6510    0.0000 O   0  0
    0.8372   -3.3233    0.0000 C   0  0
  1  2  1  0
  2  3  1  0
  3  4  1  0
  3  8  2  0
  3 10  1  0
  4  5  1  0
  5  6  2  0
  6  7  1  0
  6  9  1  0
 10 11  1  0
M  END
> <Name>
Dichlorvos

> <Substance ID>
107

> <Synonyms>
2,2-dichloroethenol dimethyl phosphate; 2,2-dichloroethenyl dimethyl phosphate; 2,2-dichloroethenyl phosphoric acid dimethyl ester; 2,2-dichlorovinyl alcohol dimethyl phosphate; 2,2-Dichlorovinyl-O,O-
dimethyl phosphate; 2,2-Dichlorovinyl dimethyl phosphate; 2,2-dichlorovinyl dimethyl phosphoric acid ester; O,O-dimethyl O-2,2-dichlorovinyl phosphate; O,O-dimethyl 2,2-dichlorovinyl phosphate; O,O-di
methyl dichlorovinyl phosphate; apavap; Astrobot; Atgard; atgard c; atgard v; bay-19149; bayer 19149; benfos; bibesol; Dichloroethenyl dimethyl phosphate; Dichlorman; dichlorophos; dichlorovos; DICHLO
RVOS [DIMETHYL DICHLORVINYL PHOSPHATE]; dimethyl 2,2-dichloroethenyl phosphate; dimethyl 2,2-dichlorovinyl phosphate; Divipan; brevinyl; brevinyl e50; Canogard; Cekusan; chlorvinphos; Cypona; DDVP; De
devap; Delevap; deriban; Derriban; derribante; devikol; duo-kill; duravos; Equigand; Equigard; Equigel; Equiguard; estrosel; Estrosol; fecama; fekama; fly-die; fly fighter; herkal; Herkol; insectigas
d; krecalvin; MAFU; mafu strip; marvex; mopari; nefrafos; nerkol; Nogos; nogos 50; nogos 50 ec; nogos g; no-pest; No-Pest Strip; novotox; NUVA; Nuvan; nuvan 100ec; nuvan 7; OKO; OMS 14; panaplate; Pho
sphoric acid 2,2-dichloroethenyl dimethyl ester; phosphoric acid 2,2-dichlorovinyl dimethyl ester; phosvit; Prentox; SD 1750; szklarniak; TASK; task tabs; Tenac; tetravos; UDVF; unifos; unifos 50 ec;
vapona; vaponite; vapora ii; verdican; verdipor; Verdisol; vinylofos; vinylophos; winylophos.

> <CAS>
62-73-7

> <Reference>
NTP342

> <MolWeight>
220.98

> <Formula>
C4H7Cl2O4P

> <SMILES>
O=P(OC=C(Cl)Cl)(OC)OC

> <TD50_Rat>
4.16

> <TD50_Mouse>
70.4

> <Canc>
3

> <SAL>
3

> <Rat_Male_Canc>
3

> <Rat_Female_Canc>
2

> <Mouse_Male_Canc>
3

> <Mouse_Female_Canc>
3

> <Rat_Male_NTP>
SE

> <Rat_Female_NTP>
EE

> <Mouse_Male_NTP>
SE

> <Mouse_Female_NTP>
CE

> <Status>
Carcinogen

> <New_Data>
true

> <iscarc>
1

$$$$
n-Butyl Chloride
  SciTegic06161615502D

  5  4  0  0  0  0            999 V2000
    0.0000   -0.6694    0.0000 C   0  0
    1.1493    0.0000    0.0000 C   0  0
    2.2986   -0.6694    0.0000 C   0  0
    3.4479    0.0000    0.0000 C   0  0
    4.5971   -0.6694    0.0000 Cl  0  0
  1  2  1  0
  2  3  1  0
  3  4  1  0
  4  5  1  0
M  END
> <Name>
n-Butyl Chloride

> <Substance ID>
157

> <Synonyms>
1-Chlorobutane; butyl chloride; Chlorobutane, 1-; N-propylcarbinyl chloride.

> <CAS>
109-69-3

> <Reference>
NTP312

> <MolWeight>
92.57

> <Formula>
C4H9Cl

> <SMILES>
CCCCCl

> <TD50_Rat>
NP

> <TD50_Mouse>
NP

> <Canc>
1

> <SAL>
1

> <Rat_Male_Canc>
1

> <Rat_Female_Canc>
1

> <Mouse_Male_Canc>
1

> <Mouse_Female_Canc>
1

> <Rat_Male_NTP>
NE

> <Rat_Female_NTP>
NE

> <Mouse_Male_NTP>
NE

> <Mouse_Female_NTP>
NE

> <Status>
Non-Carcinogen

> <New_Data>
true

> <iscarc>
0

$$$$
Chlorendic Acid
  SciTegic06161615502D

 19 20  0  0  1  0            999 V2000
    3.9292    0.0000    0.0000 Cl  0  0
    3.2744   -1.1340    0.0000 C   0  0  2  0  0  0
    3.9292   -2.2681    0.0000 C   0  0  1  0  0  0
    3.2744   -2.6514    0.0000 C   0  0  2  0  0  0
    1.9646   -1.1340    0.0000 C   0  0
    5.2390   -2.2681    0.0000 C   0  0
    3.2744   -3.4021    0.0000 C   0  0  1  0  0  0
    3.9292   -3.7855    0.0000 Cl  0  0
    4.5841   -2.6514    0.0000 Cl  0  0
    1.9646   -3.4021    0.0000 C   0  0  2  0  0  0
    1.3097    0.0000    0.0000 Cl  0  0
    1.3097   -2.2681    0.0000 C   0  0
    5.8938   -3.4021    0.0000 O   0  0
    5.8938   -1.1340    0.0000 O   0  0
    3.9292   -4.5362    0.0000 C   0  0
    1.3097   -4.5362    0.0000 Cl  0  0
    0.0000   -2.2681    0.0000 Cl  0  0
    5.2390   -4.5362    0.0000 O   0  0
    3.2744   -5.6702    0.0000 O   0  0
  1  2  1  0
  2  3  1  0
  2  4  1  6
  2  5  1  0
  3  6  1  1
  3  7  1  6
  4  8  1  1
  4  9  1  0
  4 10  1  0
  5 11  1  1
  5 12  2  0
  6 13  2  0
  6 14  1  1
  7 10  1  6
  7 15  1  0
 10 12  1  6
 10 16  1  0
 12 17  1  0
 15 18  2  0
 15 19  1  6
M  END
> <Name>
Chlorendic Acid

> <Substance ID>
160

> <Synonyms>
1,4,5,6,7,7-bicyclo[2.2.1]-5-heptene-2,3-dicarboxylic acid; 1,4,5,6,7,7-bicyclo[2.2.1]hept-5-ene-2,3-dicarboxylic acid; 1,4,5,6,7,7-hexachloro-5-norbornene-2,3-dicarboxylic acid; 1,4,5,6,7,7-Hexachlor
obicyclo(2.2.1)-5-heptene-2,3-dicarboxylic acid; 1,4,5,6,7,7-hexachlorobicyclo[2.2.1]hept-5-ene-2,3-dicarboxylic acid; het acid; hexachloroendomethylenetetrahydrophthalic acid.

> <CAS>
115-28-6

> <Reference>
NTP304

> <MolWeight>
388.85

> <Formula>
C9H4Cl6O4

> <SMILES>
Cl[C@]2(Cl)[C@@]1(Cl)C(/Cl)=C(/Cl)[C@]2(Cl)[C@H](C(=O)O)[C@@H]1C(=O)O

> <TD50_Rat>
40.8

> <TD50_Mouse>
141

> <Canc>
3

> <SAL>
1

> <Rat_Male_Canc>
3

> <Rat_Female_Canc>
3

> <Mouse_Male_Canc>
3

> <Mouse_Female_Canc>
1

> <Rat_Male_NTP>
CE

> <Rat_Female_NTP>
CE

> <Mouse_Male_NTP>
CE

> <Mouse_Female_NTP>
NE

> <Status>
Carcinogen

> <New_Data>
true

> <iscarc>
1

$$$$
p-Chloroaniline Hydrochloride
  SciTegic06161615502D

  8  8  0  0  0  0            999 V2000
    2.3047   -1.9881    0.0000 C   0  0
    2.3047   -3.3177    0.0000 C   0  0
    0.0000   -3.3177    0.0000 C   0  0
    0.0000   -1.9881    0.0000 C   0  0
    1.1523   -3.9889    0.0000 C   0  0
    1.1523   -1.3296    0.0000 C   0  0
    1.1523   -5.3185    0.0000 Cl  0  0
    1.1523    0.0000    0.0000 N   0  0
  1  2  2  0
  1  6  1  0
  2  5  1  0
  3  4  1  0
  3  5  2  0
  4  6  2  0
  5  7  1  0
  6  8  1  0
M  END
> <Name>
p-Chloroaniline Hydrochloride

> <Substance ID>
161

> <Synonyms>
4-chlorobenzenamine hydrochloride.

> <CAS>
20265-96-7

> <Reference>
NTP351

> <MolWeight>
164.03

> <Formula>
C6H6ClN

> <SMILES>
C1(=CC=C(Cl)C=C1)N.Cl

> <TD50_Rat>
7.62

> <TD50_Mouse>
89.5

> <Canc>
3

> <SAL>
3

> <Rat_Male_Canc>
3

> <Rat_Female_Canc>
2

> <Mouse_Male_Canc>
3

> <Mouse_Female_Canc>
1

> <Rat_Male_NTP>
CE

> <Rat_Female_NTP>
EE

> <Mouse_Male_NTP>
SE

> <Mouse_Female_NTP>
NE

> <Status>
Carcinogen

> <New_Data>
true

> <iscarc>
1

$$$$
3-Chloro-2-Methylpropene
  SciTegic06161615502D

  5  4  0  0  0  0            999 V2000
    0.0000   -2.0010    0.0000 C   0  0
    1.1525   -1.3298    0.0000 C   0  0
    2.2923   -2.0010    0.0000 C   0  0
    3.4448   -1.3298    0.0000 Cl  0  0
    1.1525    0.0000    0.0000 C   0  0
  1  2  2  0
  2  3  1  0
  2  5  1  0
  3  4  1  0
M  END
> <Name>
3-Chloro-2-Methylpropene

> <Substance ID>
163

> <Synonyms>
1-chloro-2-methyl-2-propene; 2-methylallyl chloride; 3-Chloro-2-methyl-1-propene; 3-Chloro-2-methylprop-1-ene; 3-chloroisobutene; 3-chloroisobutylene; beta-methallyl chloride; beta-methylallyl chlorid
e; Isobutenyl chloride; Methallyl chloride; gamma-chloroisobutylene.

> <CAS>
563-47-3

> <Reference>
NTP300

> <MolWeight>
90.55

> <Formula>
C4H7Cl

> <SMILES>
CC(=C)CCl

> <TD50_Rat>
113

> <TD50_Mouse>
77.7

> <Canc>
3

> <SAL>
2

> <Rat_Male_Canc>
3

> <Rat_Female_Canc>
3

> <Mouse_Male_Canc>
3

> <Mouse_Female_Canc>
3

> <Rat_Male_NTP>
CE

> <Rat_Female_NTP>
CE

> <Mouse_Male_NTP>
CE

> <Mouse_Female_NTP>
CE

> <Status>
Carcinogen

> <New_Data>
true

> <iscarc>
1

$$$$
Decabromodiphenyl Oxide
  SciTegic06161615503D

 23 24  0  0  0  0            999 V2000
   31.0566  -11.9090    0.0125 C   0  0
   31.6218  -13.0995   -0.0177 C   0  0
   33.9033  -12.1813   -0.0160 C   0  0
   33.1966  -10.7954    0.0222 C   0  0
   33.0686  -13.2365   -0.0344 C   0  0
   31.8678  -10.7353    0.0329 C   0  0
   31.0300   -9.0312    0.0800 Br  0  0
   29.1653  -11.7514    0.0366 Br  0  0
   30.5316  -14.6551   -0.0371 Br  0  0
   33.7606  -14.9964   -0.0772 Br  0  0
   35.3454  -12.6501   -0.0308 O   0  0
   33.9486   -9.1084    0.0698 Br  0  0
   36.7891  -12.1854   -0.0257 C   0  0
   37.6201  -13.2435   -0.0139 C   0  0
   39.6366  -11.9223    0.0196 C   0  0
   38.8298  -10.7457   -0.0017 C   0  0
   39.0672  -13.1112    0.0102 C   0  0
   37.5009  -10.8012   -0.0285 C   0  0
   36.7559   -9.1108   -0.0773 Br  0  0
   39.6742   -9.0441   -0.0002 Br  0  0
   41.5281  -11.7708    0.0584 Br  0  0
   40.1519  -14.6706    0.0317 Br  0  0
   36.9220  -15.0014   -0.0168 Br  0  0
  1  2  2  0
  1  6  1  0
  1  8  1  0
  2  5  1  0
  2  9  1  0
  3  4  1  0
  3  5  2  0
  3 11  1  0
  4  6  2  0
  4 12  1  0
  5 10  1  0
  6  7  1  0
 11 13  1  0
 13 14  2  0
 13 18  1  0
 14 17  1  0
 14 23  1  0
 15 16  1  0
 15 17  2  0
 15 21  1  0
 16 18  2  0
 16 20  1  0
 17 22  1  0
 18 19  1  0
M  END
> <Name>
Decabromodiphenyl Oxide

> <Substance ID>
177

> <Synonyms>
1,1'-oxybis(2,3,4,5,6-pentabromobenzene); berkflam b 10E; bis(pentabromophenyl) ether; BR 55N; bromkal 82-ode; bromkal 83-10de; DE 83R; DBDPO; Decabromodiphenyl ether; Decabromodiphenyl ether; DPBPO;
FR 300; fr 300ba; FRP 53; Pentabromodiphenyl ether; pentabromophenyl ether; saytex 102; saytex 102E; tardex 100.

> <CAS>
1163-19-5

> <Reference>
NTP309

> <MolWeight>
959.17

> <Formula>
C12Br10O

> <SMILES>
BrC1=C(C(=C(C(=C1Br)Br)Br)Br)OC2=C(C(=C(C(=C2Br)Br)Br)Br)Br

> <TD50_Rat>
3340

> <TD50_Mouse>
NP

> <Canc>
3

> <SAL>
1

> <Rat_Male_Canc>
3

> <Rat_Female_Canc>
3

> <Mouse_Male_Canc>
2

> <Mouse_Female_Canc>
1

> <Rat_Male_NTP>
SE

> <Rat_Female_NTP>
SE

> <Mouse_Male_NTP>
EE

> <Mouse_Female_NTP>
NE

> <Status>
Carcinogen

> <New_Data>
true

> <iscarc>
1

$$$$
C.I. Disperse Blue 1
  SciTegic06161615503D

 20 22  0  0  0  0            999 V2000
    7.0387   -3.3598    0.0000 C   0  0
    7.0371   -1.9644    0.0007 C   0  0
    5.9396   -3.9955    0.0003 C   0  0
    5.9368   -1.3311    0.0000 C   0  0
    4.7284   -3.3001    0.0004 C   0  0
    4.7275   -2.0294    0.0002 C   0  0
    3.5179   -1.3327    0.0007 C   0  0
    3.5194   -3.9982    0.0008 C   0  0
    2.3102   -3.3010    0.0009 C   0  0
    2.3088   -2.0320    0.0004 C   0  0
    0.0000   -1.9726    0.0012 C   0  0
    0.0016   -3.3662    0.0009 C   0  0
    1.0978   -1.3356    0.0003 C   0  0
    1.1019   -4.0004    0.0008 C   0  0
    1.0947   -0.0044    0.0005 N   0  0
    1.1005   -5.3319    0.0001 N   0  0
    3.5163   -0.1535    0.0007 O   0  0
    3.5223   -5.1766    0.0009 O   0  0
    5.9374    0.0000    0.0012 N   0  0
    5.9429   -5.3262    0.0004 N   0  0
  1  2  2  0
  1  3  1  0
  2  4  1  0
  3  5  2  0
  3 20  1  0
  4  6  2  0
  4 19  1  0
  5  6  1  0
  5  8  1  0
  6  7  1  0
  7 10  1  0
  7 17  2  0
  8  9  1  0
  8 18  2  0
  9 10  2  0
  9 14  1  0
 10 13  1  0
 11 12  1  0
 11 13  2  0
 12 14  2  0
 13 15  1  0
 14 16  1  0
M  END
> <Name>
C.I. Disperse Blue 1

> <Substance ID>
189

> <Synonyms>
1,4,5,8-Tetraamino-9,10-anthracenedione; 1,4,5,8-tetraamino-9,10-anthraquinone; 1,4,5,8-Tetraaminoanthraquinone; 1,4,5,8-tetraminoanthraquinone; acetate blue g; acetoquinone blue l; acetoquinone blue
r; acetylon fast blue g; amacel blue gg; amacel pure blue b; artisil blue sap; diacellition fast blue r; Disperse Blue 1; disperse blue no. 1; brasilazet blue gr; celanthrene pure blue brs; celliton b
lue bb-cf; celliton blue extra; celliton blue g; celliton blue ga-cf; C.I. 64500; cibacet sapphire blue g; cilla blue extra; C.I. Solvent Blue 18; duranol brilliant blue cb; fenacet blue g; grasol blu
e 2gs; kayalon fast blue br; microsetile blue eb; miketon fast blue; miketon fast blue b; nacelan blue g; neosetile blue eb; nyloquinone blue 2j; oracet sapphire blue g; perliton blue b; serinyl blue
2g; serinyl blue 3g; serinyl blue 3gn; setacyl blue 2gs; setacyl blue 2gs ii; supracet brilliant blue 2gn; supracet deep blue r.

> <CAS>
2475-45-8

> <Reference>
NTP299

> <MolWeight>
268.27

> <Formula>
C14H12N4O2

> <SMILES>
O=C1C2=C(C(=CC=C2N)N)C(=O)C3=C(C=CC(=C13)N)N

> <TD50_Rat>
156

> <TD50_Mouse>
NP

> <Canc>
3

> <SAL>
3

> <Rat_Male_Canc>
3

> <Rat_Female_Canc>
3

> <Mouse_Male_Canc>
2

> <Mouse_Female_Canc>
1

> <Rat_Male_NTP>
CE

> <Rat_Female_NTP>
CE

> <Mouse_Male_NTP>
EE

> <Mouse_Female_NTP>
NE

> <Status>
Carcinogen

> <CanonicalTautomer>
Yes

> <NumberOfTautomers>
9

> <New_Data>
true

> <iscarc>
1

$$$$
Ephedrine sulfate
  SciTegic06161615502D

 29 28  0  0  1  0            999 V2000
    9.2739   -1.1545    0.0000 S   0  0
    8.1321   -1.8142    0.0000 O   0  0
   10.4284   -0.4821    0.0000 O   0  0
    9.9463   -2.2963    0.0000 O   0  0
    8.6142    0.0000    0.0000 O   0  0
    7.5486   -7.6754    0.0000 O   0  0
    9.8575   -6.3433    0.0000 N   0  0
    9.8575   -7.6754    0.0000 C   0  0  2  0  0  0
    8.6904   -8.3351    0.0000 C   0  0  1  0  0  0
    8.6904   -9.6672    0.0000 C   0  0
   11.0120   -8.3351    0.0000 C   0  0
    9.8575  -10.3396    0.0000 C   0  0
    7.5486  -10.3396    0.0000 C   0  0
   11.0120   -5.6836    0.0000 C   0  0
    9.8575  -11.6717    0.0000 C   0  0
    7.5486  -11.6717    0.0000 C   0  0
    8.6904  -12.3314    0.0000 C   0  0
    0.0000   -5.1888    0.0000 O   0  0
    2.2963   -3.8694    0.0000 N   0  0
    2.2963   -5.1888    0.0000 C   0  0  2  0  0  0
    1.1545   -5.8485    0.0000 C   0  0  1  0  0  0
    1.1545   -7.1806    0.0000 C   0  0
    3.4508   -5.8485    0.0000 C   0  0
    2.2963   -7.8530    0.0000 C   0  0
    0.0000   -7.8530    0.0000 C   0  0
    3.4508   -3.1970    0.0000 C   0  0
    2.2963   -9.1851    0.0000 C   0  0
    0.0000   -9.1851    0.0000 C   0  0
    1.1545   -9.8575    0.0000 C   0  0
  1  2  1  0
  1  3  1  0
  1  4  2  0
  1  5  2  0
  9  6  1  1
  8  7  1  1
  7 14  1  0
  8  9  1  0
  8 11  1  0
  9 10  1  0
 10 12  2  0
 10 13  1  0
 12 15  1  0
 13 16  2  0
 15 17  2  0
 16 17  1  0
 21 18  1  1
 20 19  1  1
 19 26  1  0
 20 21  1  0
 20 23  1  0
 21 22  1  0
 22 24  2  0
 22 25  1  0
 24 27  1  0
 25 28  2  0
 27 29  2  0
 28 29  1  0
M  END
> <Name>
Ephedrine sulfate

> <Substance ID>
191

> <Synonyms>
1-alpha-(1-(methylamino)ethyl)benzyl alcohol sulfate; 1-phenyl-2-methylamino-propanol-1-sulfate; 1-Phenyl-2-(methylamino)propanol sulfate; (-)-ephedrine sulfate; (-)-ephedrine sulfate (2:1) (salt); is
ofedrol; L-ephedrine sulfate; (R-(R*,S*))-alpha-(1-(methylamino)ethyl)benzenemethanol sulfate (2:1) (salt).

> <CAS>
134-72-5

> <Reference>
NTP307

> <MolWeight>
428.54

> <Formula>
C20H32N2O6S

> <SMILES>
O=S(=O)(O)O.O[C@@H](c1ccccc1)[C@H](N[C@@H3])[C@H3].O[C@@H](c1ccccc1)[C@H](N[C@@H3])[C@H3]

> <TD50_Rat>
NP

> <TD50_Mouse>
NP

> <Canc>
1

> <SAL>
1

> <Rat_Male_Canc>
1

> <Rat_Female_Canc>
1

> <Mouse_Male_Canc>
1

> <Mouse_Female_Canc>
1

> <Rat_Male_NTP>
NE

> <Rat_Female_NTP>
NE

> <Mouse_Male_NTP>
NE

> <Mouse_Female_NTP>
NE

> <Status>
Non-Carcinogen

> <New_Data>
true

> <iscarc>
0

$$$$
Oxymetholone
  SciTegic06161615502D

 24 27  0  0  1  0            999 V2000
    2.2998   -6.0900    0.0000 C   0  0
    1.1563   -5.4219    0.0000 C   0  0
    1.1563   -4.0985    0.0000 C   0  0
    3.4561   -5.4219    0.0000 C   0  0
    3.4561   -4.0985    0.0000 C   0  0  2  0  0  0
    2.2998   -3.4304    0.0000 C   0  0
    2.2998   -2.1071    0.0000 C   0  0
    3.4561   -1.4390    0.0000 C   0  0
    4.6124   -3.4304    0.0000 C   0  0
    4.6124   -2.1071    0.0000 C   0  0
    6.9122   -3.4304    0.0000 C   0  0
    5.7559   -4.0985    0.0000 C   0  0
    6.9122   -2.1071    0.0000 C   0  0  2  0  0  0
    5.7559   -1.4390    0.0000 C   0  0
    6.0386   -0.1413    0.0000 C   0  0
    7.3619    0.0000    0.0000 C   0  0
    7.9015   -1.2077    0.0000 C   0  0  1  0  0  0
    4.6124   -4.7666    0.0000 C   0  0
    8.1585   -2.5568    0.0000 C   0  0
    8.8908   -2.1071    0.0000 O   0  0
    9.1606   -0.7966    0.0000 C   0  0
    2.2998   -7.4262    0.0000 C   0  0
    0.0000   -6.0900    0.0000 O   0  0
    3.4561   -8.0943    0.0000 O   0  0
  1  2  2  0
  1  4  1  0
  1 22  1  0
  2  3  1  0
  2 23  1  0
  3  6  1  0
  4  5  1  0
  5  6  1  0
  5  9  1  0
  5 18  1  1
  6  7  1  0
  7  8  1  0
  8 10  1  0
  9 10  1  0
  9 12  1  0
 10 14  1  0
 11 13  1  0
 11 12  1  0
 13 14  1  0
 13 17  1  0
 13 19  1  1
 14 15  1  0
 15 16  1  0
 16 17  1  0
 17 20  1  1
 17 21  1  6
 22 24  2  0
M  END
> <Name>
Oxymetholone

> <Substance ID>
248

> <Synonyms>
17alpha-methyl-2-hydroxymethylene-17-hydroxy-5alpha-androstan-3-one; 17b-hydroxy-2-hydroxymethylene-17a-methyl-3-androstanone; 17beta-hydroxy-2-(hydroxymethylene)-17alpha-methyl-5alpha-androstan-3-one
; 17beta-Hydroxy-2-(hydroxymethylene)-17-methyl-5alpha-androstan-3-one; 17-hydroxy-2-(hydroxymethylene)-17-methyl-5alpha-17beta-androst-3-one; 17-hydroxy-2-(hydroxymethylene)-17-methyl-5alpha,17beta-a
ndrostan-3-one; 2-hydroxymethylene-17alpha-methyl-17beta-hydroxy-3-androstanone; 2-hydroxymethylene-17alpha-methyl-5alpha-androstan-17beta-ol-3-one; 2-hydroxymethylene-17a-methyl dihydrotestosterone;
4,5-dihydro-2-hydroxymethylene-17-alpha-methyltestosterone; adroidin; adroyd; anadrol; anadroyd; anapolon; Anapolon 50; anasterone; anasteronal; androstan-3-one, 17-hydroxy-2-(hydroxymethylene)-17-met
hyl-,(5alpha,17beta)-; androstano[2,3-c][1,2,5]oxadiazol-17-ol, 17-methyl-, (5alpha,17beta)-; becorel; CI-406; dynasten; HMD; methabol; nastenon; oximetholonum; oximetolona; oxitosona-50; oxymethalone
; oxymethenolone; Pavisoid; plenastril; protanabol; roboral; synasteron; zenalosyn.

> <CAS>
434-07-1

> <Reference>
NTP485

> <MolWeight>
332.49

> <Formula>
C21H32O3

> <SMILES>
O=C4\C(=C\O)C[C@]1([C@@H](CC[C@@H]2[C@@H]1CC[C@@]3([C@](O)(C)CC[C@@H]23)C)C4)C

> <TD50_Rat>
ND

> <TD50_Mouse>
ND

> <Canc>
3

> <SAL>
1

> <Rat_Male_Canc>
2

> <Rat_Female_Canc>
3

> <Mouse_Male_Canc>
ND

> <Mouse_Female_Canc>
ND

> <Rat_Male_NTP>
EE

> <Rat_Female_NTP>
CE

> <Mouse_Male_NTP>
ND

> <Mouse_Female_NTP>
ND

> <Status>
Carcinogen

> <CanonicalTautomer>
Yes

> <NumberOfTautomers>
2

> <New_Data>
true

> <iscarc>
1

$$$$
2-Amino-5-nitrophenol
  SciTegic06161615502D

 11 11  0  0  0  0            999 V2000
    3.4551   -2.6578    0.0000 C   0  0
    2.3034   -1.9870    0.0000 C   0  0
    3.4551    0.0000    0.0000 C   0  0
    4.6068   -0.6581    0.0000 C   0  0
    2.3034   -0.6581    0.0000 C   0  0
    4.6068   -1.9870    0.0000 C   0  0
    5.7585   -2.6578    0.0000 O   0  0
    5.7585    0.0000    0.0000 N   0  0
    1.1517   -2.6578    0.0000 N   0  3
    0.0000   -1.9870    0.0000 O   0  5
    1.1517   -3.9866    0.0000 O   0  0
  1  2  2  0
  1  6  1  0
  2  5  1  0
  2  9  1  0
  3  4  1  0
  3  5  2  0
  4  6  2  0
  4  8  1  0
  6  7  1  0
  9 10  1  0
  9 11  2  0
M  CHG  2   9   1  10  -1
M  END
> <Name>
2-Amino-5-nitrophenol

> <Substance ID>
254

> <Synonyms>
2-hydroxy-4-nitroaniline; 5-nitro-2-aminophenol; C.I. 76535; rodol yba; ursol yellow brown a.

> <CAS>
121-88-0

> <Reference>
NTP334

> <MolWeight>
154.13

> <Formula>
C6H6N2O3

> <SMILES>
O=[N+](C1=CC(=C(C=C1)N)O)[O-]

> <TD50_Rat>
111

> <TD50_Mouse>
NP

> <Canc>
3

> <SAL>
3

> <Rat_Male_Canc>
3

> <Rat_Female_Canc>
1

> <Mouse_Male_Canc>
1

> <Mouse_Female_Canc>
1

> <Rat_Male_NTP>
SE

> <Rat_Female_NTP>
NE

> <Mouse_Male_NTP>
NE

> <Mouse_Female_NTP>
NE

> <Status>
Non-Carcinogen

> <New_Data>
true

> <iscarc>
0

$$$$
Ampicillin trihydrate
  SciTegic06161615502D

 24 26  0  0  1  0            999 V2000
    2.5621   -2.9511    0.0000 C   0  0
    1.6231   -3.9035    0.0000 C   0  0
    0.0000   -2.2670    0.0000 C   0  0
    0.9390   -1.3280    0.0000 C   0  0
    0.3353   -3.5547    0.0000 C   0  0
    2.2267   -1.6767    0.0000 C   0  0
    5.4863   -4.9363    0.0000 N   0  0
    4.1986   -4.5876    0.0000 C   0  0
    3.8498   -3.2998    0.0000 C   0  0  2  0  0  0
    3.2596   -5.5266    0.0000 O   0  0
    4.7888   -2.3609    0.0000 N   0  0
    6.4253   -3.9839    0.0000 C   0  0
    6.4253   -2.6560    0.0000 C   0  0
    5.4863   -1.7170    0.0000 O   0  0
    7.7533   -3.9839    0.0000 C   0  0
    7.7533   -2.6560    0.0000 N   0  0
    9.0142   -2.2535    0.0000 C   0  0  1  0  0  0
    9.7922   -3.3267    0.0000 C   0  0
    9.0142   -4.3998    0.0000 S   0  0
   10.9458   -2.6560    0.0000 C   0  0
   10.9458   -3.9839    0.0000 C   0  0
    9.4300   -0.9792    0.0000 C   0  0
   10.7312   -0.7109    0.0000 O   0  0
    8.5313    0.0000    0.0000 O   0  0
  1  2  2  0
  1  6  1  0
  1  9  1  0
  2  5  1  0
  3  4  1  0
  3  5  2  0
  4  6  2  0
  7  8  1  0
  7 12  1  0
  8  9  1  0
  8 10  2  0
  9 11  1  1
 12 13  1  0
 12 15  1  0
 13 16  1  0
 13 14  2  0
 15 16  1  0
 15 19  1  0
 16 17  1  0
 17 18  1  0
 17 22  1  6
 18 19  1  0
 18 20  1  0
 18 21  1  0
 22 23  1  0
 22 24  2  0
M  END
> <Name>
Ampicillin trihydrate

> <Substance ID>
255

> <Synonyms>
(6R)-6-(alpha-D-phenylglycylamino)penicillanic acid trihydrate; alpha-aminobenzylpenicillin trihydrate; acillin; Amcap; Amcill; aminobenzylpenicillin trihydrate; amperil; ampichel; AMPICILLIN TRIHYDRA
TE, NON-STERILE USP; ampikel; ampinova; amplin; divercillin; Cymbi; D-(-)-6-(2-amino-2-phenylacetamido)-3,3-dimethyl-7-oxo-4-thia-1-azabicyclo[3.2.0]heptane-2-carboxylic acid trihydrate; lifeampil; mo
repen; PEN A; pensyn; princillin; Principen; ro-ampen; trafarbiot; ukopen; vidopen.

> <CAS>
7177-48-2

> <Reference>
NTP318

> <MolWeight>
403.4

> <Formula>
C16H19N3O4S

> <SMILES>
O=C(O)[C@@H]2N3C(=O)[C@@H](NC(=O)[C@@H](c1ccccc1)N)[C@H]3SC2(C)C

> <TD50_Rat>
NP

> <TD50_Mouse>
NP

> <Canc>
2

> <SAL>
1

> <Rat_Male_Canc>
2

> <Rat_Female_Canc>
1

> <Mouse_Male_Canc>
1

> <Mouse_Female_Canc>
1

> <Rat_Male_NTP>
EE

> <Rat_Female_NTP>
NE

> <Mouse_Male_NTP>
NE

> <Mouse_Female_NTP>
NE

> <Status>
Non-Carcinogen

> <New_Data>
true

> <iscarc>
0

$$$$
C.I. Basic Red 9 Hydrochloride
  SciTegic06161615502D

 22 24  0  0  0  0            999 V2000
    3.9912   -4.5994    0.0000 C   0  0
    4.6628   -3.4464    0.0000 C   0  0
    5.9932   -3.4464    0.0000 C   0  0
    6.6521   -4.5994    0.0000 C   0  0
    5.9932   -5.7525    0.0000 C   0  0
    4.6628   -5.7525    0.0000 C   0  0
    2.6608   -4.5994    0.0000 C   0  0
    2.0020   -3.4464    0.0000 C   0  0
    2.0020   -5.7525    0.0000 C   0  0
    0.6715   -3.4464    0.0000 C   0  0
    0.6715   -1.1530    0.0000 C   0  0
    2.0020   -1.1530    0.0000 C   0  0
    0.0000   -2.3060    0.0000 C   0  0
    2.6608   -2.3060    0.0000 C   0  0
    2.6608   -6.9055    0.0000 C   0  0
    0.6715   -8.0585    0.0000 C   0  0
    0.0000   -6.9055    0.0000 C   0  0
    2.0020   -8.0585    0.0000 C   0  0
    0.6715   -5.7525    0.0000 C   0  0
    0.0000    0.0000    0.0000 N   0  0
    0.0000   -9.2115    0.0000 N   0  0
    7.9825   -4.5994    0.0000 N   0  3
  1  2  1  0
  1  6  1  0
  1  7  2  0
  2  3  2  0
  3  4  1  0
  4  5  1  0
  4 22  2  0
  5  6  2  0
  7  8  1  0
  7  9  1  0
  8 10  2  0
  8 14  1  0
  9 15  2  0
  9 19  1  0
 10 13  1  0
 11 12  1  0
 11 13  2  0
 11 20  1  0
 12 14  2  0
 15 18  1  0
 16 17  1  0
 16 18  2  0
 16 21  1  0
 17 19  2  0
M  CHG  1  22   1
M  END
> <Name>
C.I. Basic Red 9 Hydrochloride

> <Substance ID>
258

> <Synonyms>
4,4'-((4-imino-2,5-cyclohexadien-1-ylidene)methylene)dianiline monohydrochloride; 4-((4-aminophenyl)(4-imino-2,5-cyclohexadien-1-ylidene)methyl)benzenamine monohydrochloride; p-fuchsin; Paramagenta; P
ararosanilin; pararosaniline chloride; Pararosaniline chloride, high purity biological stain; Pararosaniline Hydrochloride; basic parafuchsine; Basic Fuchsin; Basic Red 9; Basic Red 9, monohydrochlori
de; calcozine magenta n; C.I. 42500; C.I. Basic Red 9; C.I. Basic Red 9 monohydrochloride; Fuchsine, Acid; Magenta.

> <CAS>
569-61-9

> <Reference>
NTP285

> <MolWeight>
323.83

> <Formula>
C19H18N3

> <SMILES>
[Cl-].[NH2+]=C\1/C=C\C(/C=C/1)=C(/c2ccc(N)cc2)c3ccc(N)cc3

> <TD50_Rat>
39.4

> <TD50_Mouse>
51.5

> <Canc>
3

> <SAL>
3

> <Rat_Male_Canc>
3

> <Rat_Female_Canc>
3

> <Mouse_Male_Canc>
3

> <Mouse_Female_Canc>
3

> <Rat_Male_NTP>
CE

> <Rat_Female_NTP>
CE

> <Mouse_Male_NTP>
CE

> <Mouse_Female_NTP>
CE

> <Status>
Carcinogen

> <New_Data>
true

> <iscarc>
1

$$$$
Dichloromethane
  SciTegic06161615502D

  5  4  0  0  0  0            999 V2000
    1.1520   -1.1520    0.0000 C   0  0
    2.3040   -0.4937    0.0000 Cl  0  0
    1.8230   -2.3040    0.0000 Cl  0  0
    0.0000   -1.8230    0.0000 H   0  0
    0.4937    0.0000    0.0000 H   0  0
  1  2  1  0
  1  3  1  0
  1  4  1  0
  1  5  1  0
M  END
> <Name>
Dichloromethane

> <Substance ID>
260

> <Synonyms>
Aerothene MM; DCM; Freon 30; Methane dichloride; Methylene dichloride; Methylene chloride; METHYLENE CHLORIDE (DICHLOROMETHANE); narkotil; Plastisolve; R 30; Refrigerant 30; solaesthin; solmethine.

> <CAS>
75-09-2

> <Reference>
NTP306

> <MolWeight>
84.93

> <Formula>
CH2Cl2

> <SMILES>
ClCCl

> <TD50_Rat>
724

> <TD50_Mouse>
1100

> <Canc>
3

> <SAL>
3

> <Rat_Male_Canc>
3

> <Rat_Female_Canc>
3

> <Mouse_Male_Canc>
3

> <Mouse_Female_Canc>
3

> <Rat_Male_NTP>
SE

> <Rat_Female_NTP>
CE

> <Mouse_Male_NTP>
CE

> <Mouse_Female_NTP>
CE

> <Status>
Carcinogen

> <New_Data>
true

> <iscarc>
1

$$$$
1,2-Epoxybutane
  SciTegic06161615502D

  5  5  0  0  0  0            999 V2000
    1.3267   -1.1537    0.0000 C   0  0
    0.0000   -1.1537    0.0000 C   0  0
    0.6634    0.0000    0.0000 O   0  0
    2.4804   -1.8171    0.0000 C   0  0
    3.6341   -1.1537    0.0000 C   0  0
  1  2  1  0
  1  3  1  0
  1  4  1  0
  2  3  1  0
  4  5  1  0
M  END
> <Name>
1,2-Epoxybutane

> <Substance ID>
263

> <Synonyms>
1,2-Butylene Oxide; 2-Ethyloxirane; Epoxybutane, 1,2-; ethyloxirane.

> <CAS>
106-88-7

> <Reference>
NTP329

> <MolWeight>
72.11

> <Formula>
C4H8O

> <SMILES>
CCC1CO1

> <TD50_Rat>
220

> <TD50_Mouse>
NP

> <Canc>
3

> <SAL>
3

> <Rat_Male_Canc>
3

> <Rat_Female_Canc>
2

> <Mouse_Male_Canc>
1

> <Mouse_Female_Canc>
1

> <Rat_Male_NTP>
CE

> <Rat_Female_NTP>
EE

> <Mouse_Male_NTP>
NE

> <Mouse_Female_NTP>
NE

> <Status>
Carcinogen

> <New_Data>
true

> <iscarc>
1

$$$$
4-Hexylresorcinol
  SciTegic06161615502D

 14 14  0  0  0  0            999 V2000
    4.6092   -1.9880    0.0000 C   0  0
    4.6092   -3.3176    0.0000 C   0  0
    2.3046   -3.3176    0.0000 C   0  0
    2.3046   -1.9880    0.0000 C   0  0
    3.4569   -3.9887    0.0000 C   0  0
    3.4569   -1.3296    0.0000 C   0  0
    3.4569    0.0000    0.0000 O   0  0
    1.1523   -3.9887    0.0000 O   0  0
    3.4569   -5.3183    0.0000 C   0  0
    2.3046   -5.9767    0.0000 C   0  0
    2.3046   -7.3063    0.0000 C   0  0
    1.1523   -7.9774    0.0000 C   0  0
    1.1523   -9.3070    0.0000 C   0  0
    0.0000   -9.9655    0.0000 C   0  0
  1  2  2  0
  1  6  1  0
  2  5  1  0
  3  4  1  0
  3  5  2  0
  3  8  1  0
  4  6  2  0
  5  9  1  0
  6  7  1  0
  9 10  1  0
 10 11  1  0
 11 12  1  0
 12 13  1  0
 13 14  1  0
M  END
> <Name>
4-Hexylresorcinol

> <Substance ID>
265

> <Synonyms>
4-Hexyl-1,3-benzenediol; 4-Hexyl-1,3-dihydroxybenzene; 4-hexylresorcine; 4-n-hexylresorcinol; Ascaryl; Benzenediol, 4-hexyl-; Crystoids; crystoids anthelmintic; Gelovermin; Caprokol; Hexylresorcinol;
S.T. 37; Sucrets; Worm-agen.

> <CAS>
136-77-6

> <Reference>
NTP330

> <MolWeight>
194.27

> <Formula>
C12H18O2

> <SMILES>
OC1=C(C=CC(=C1)O)CCCCCC

> <TD50_Rat>
NP

> <TD50_Mouse>
NP

> <Canc>
2

> <SAL>
1

> <Rat_Male_Canc>
1

> <Rat_Female_Canc>
1

> <Mouse_Male_Canc>
2

> <Mouse_Female_Canc>
1

> <Rat_Male_NTP>
NE

> <Rat_Female_NTP>
NE

> <Mouse_Male_NTP>
EE

> <Mouse_Female_NTP>
NE

> <Status>
Non-Carcinogen

> <New_Data>
true

> <iscarc>
0

$$$$
Malonaldehyde, Sodium Salt
  SciTegic06161615502D

  5  4  0  0  0  0            999 V2000
    0.6336   -0.2198    0.0000 C   0  0
    1.8103    0.0000    0.0000 O   0  0
    0.0000   -1.5387    0.0000 C   0  0
    0.5431   -2.7284    0.0000 C   0  0
    1.8620   -3.0258    0.0000 O   0  5
  1  2  2  0
  1  3  1  0
  3  4  2  0
  4  5  1  0
M  CHG  1   5  -1
M  END
> <Name>
Malonaldehyde, Sodium Salt

> <Substance ID>
268

> <Synonyms>
3-Hydroxy-2-propenal, sodium salt; sodium malonaldehyde, ion (1-); sodium malondialdehyde; propanedial, ion (1-), sodium.

> <CAS>
24382-04-5

> <Reference>
NTP331

> <MolWeight>
94.05

> <Formula>
C3H3O2

> <SMILES>
[Na+].[O-]\C=C\C=O

> <TD50_Rat>
122

> <TD50_Mouse>
14.1

> <Canc>
3

> <SAL>
1

> <Rat_Male_Canc>
3

> <Rat_Female_Canc>
3

> <Mouse_Male_Canc>
1

> <Mouse_Female_Canc>
1

> <Rat_Male_NTP>
CE

> <Rat_Female_NTP>
CE

> <Mouse_Male_NTP>
NE

> <Mouse_Female_NTP>
NE

> <Status>
Carcinogen

> <New_Data>
true

> <iscarc>
1

$$$$
Methyl Dopa Sesquihydrate
  SciTegic06161615503D

 30 30  0  0  1  0            999 V2000
    7.2452   -5.9652    1.7355 C   0  0
    6.1451   -6.8747    1.8832 C   0  0  1  0  0  0
    8.1785   -6.2233    2.5470 O   0  0
    7.2997   -5.0878    1.0192 O   0  0
    4.9242   -6.0982    1.8215 C   0  0
    3.6483   -6.7141    1.9513 C   0  0
    3.4424   -7.9629    2.2976 C   0  0
    2.2263   -8.4338    2.4151 C   0  0
    1.1744   -7.6822    2.1989 C   0  0
    1.3570   -6.4351    1.8284 C   0  0
    2.5824   -5.9785    1.7273 C   0  0
    0.3576   -5.6635    1.6400 O   0  0
    0.0000   -8.1576    2.3361 O   0  0
    6.2612   -7.8177    0.7960 C   0  0
    6.2385   -7.5211    3.1037 N   0  0
    6.8383   -1.1294    0.8973 C   0  0
    5.7110   -1.9440    1.2280 C   0  0  1  0  0  0
    7.8257   -1.8353    0.5461 O   0  0
    6.9075    0.0000    0.9636 O   0  0
    4.7661   -1.1847    2.0206 C   0  0
    3.6831   -1.9848    2.4713 C   0  0
    3.7643   -2.6680    3.5872 C   0  0
    2.7707   -3.4247    3.9772 C   0  0
    1.6618   -3.5105    3.2816 C   0  0
    1.5423   -2.7781    2.1954 C   0  0
    2.5544   -2.0397    1.8047 C   0  0
    0.4691   -2.8113    1.5057 O   0  0
    0.6947   -4.2389    3.6879 O   0  0
    5.1147   -2.4148    0.0000 C   0  0
    6.1256   -3.0353    1.9688 N   0  0
  1  2  1  0
  1  3  1  1
  1  4  2  0
  2  5  1  0
  2 14  1  6
  2 15  1  1
  5  6  1  0
  6  7  2  0
  6 11  1  0
  7  8  1  0
  8  9  2  0
  9 10  1  0
  9 13  1  0
 10 11  2  0
 10 12  1  0
 16 17  1  0
 16 18  1  0
 16 19  2  0
 17 20  1  1
 17 29  1  6
 17 30  1  1
 20 21  1  0
 21 22  2  0
 21 26  1  6
 22 23  1  0
 23 24  2  0
 24 25  1  6
 24 28  1  0
 25 26  2  0
 25 27  1  6
M  END
> <Name>
Methyl Dopa Sesquihydrate

> <Substance ID>
271

> <Synonyms>
alpha-Methyldopa sesquihydrate.

> <CAS>
41372-08-1

> <Reference>
NTP348

> <MolWeight>
211.22

> <Formula>
C20H26N2O8

> <SMILES>
O=C(O)[C@]([N@H2])([C@@H3])[C@H2]c1ccc(O)c(O)c1.O=C(O)[C@@]([N@H2])([C@@H2]c1cc(O)c(O)cc1)[C@@H3]

> <TD50_Rat>
NP

> <TD50_Mouse>
NP

> <Canc>
2

> <SAL>
1

> <Rat_Male_Canc>
1

> <Rat_Female_Canc>
1

> <Mouse_Male_Canc>
2

> <Mouse_Female_Canc>
1

> <Rat_Male_NTP>
NE

> <Rat_Female_NTP>
NE

> <Mouse_Male_NTP>
EE

> <Mouse_Female_NTP>
NE

> <Status>
Non-Carcinogen

> <New_Data>
true

> <iscarc>
0

$$$$
Nitrofurantoin
  SciTegic06161615502D

 17 18  0  0  0  0            999 V2000
    7.9277   -1.1904    0.0000 N   0  0
    9.0042   -0.4179    0.0000 C   0  0
   10.0806   -1.1904    0.0000 C   0  0
    9.6627   -2.4568    0.0000 N   0  0
    8.3330   -2.4568    0.0000 C   0  0
    3.3307   -2.0516    0.0000 O   0  0
    2.2542   -1.2664    0.0000 C   0  0
    2.6721    0.0000    0.0000 C   0  0
    4.0018    0.0000    0.0000 C   0  0
    4.4071   -1.2664    0.0000 C   0  0
    5.6735   -1.6717    0.0000 C   0  0
    6.6613   -0.7852    0.0000 N   0  0
    7.5478   -3.5333    0.0000 O   0  0
   11.3470   -0.7852    0.0000 O   0  0
    0.9878   -1.6717    0.0000 N   0  3
    0.0000   -0.7852    0.0000 O   0  5
    0.7092   -2.9761    0.0000 O   0  0
  1  2  1  0
  1  5  1  0
  1 12  1  0
  2  3  1  0
  3  4  1  0
  3 14  2  0
  4  5  1  0
  5 13  2  0
  6  7  1  0
  6 10  1  0
  7  8  2  0
  7 15  1  0
  8  9  1  0
  9 10  2  0
 10 11  1  0
 11 12  2  0
 15 16  1  0
 15 17  2  0
M  CHG  2  15   1  16  -1
M  END
> <Name>
Nitrofurantoin

> <Substance ID>
273

> <Synonyms>
1-(((5-nitro-2-furanyl)methylene)amino)-2,4-imidazolidinedione; 1-(5-nitro-2-furfurylideneamino)hydantoin; 1-[(5-Nitrofurfurylidene)amino]hydantoin; benkfuran; berkfurin; chemiofuran; cyantin; cystit;
 dantafur; fua-med; furachel; furadantin; furadantoin; furadoine; furadonin; furalan; furantoin; Furatoin; furobactina; furophen; ituran; Macrobid; Macrodantin; N-(5-nitro-2-furfurylidene)-1-aminohyda
ntoin; N-(5-nitrofurfurylidene)-1-aminohydantoin; nifurantin; N-toin; orafuran; parfuran; trantoin; urantoin; urizept; urodil; urodin; urolong; uro-tablineu; welfurin; zoofurin.

> <CAS>
67-20-9

> <Reference>
NTP341

> <MolWeight>
238.16

> <Formula>
C8H6N4O5

> <SMILES>
O=C1N(CC(=O)N1)/N=C/C2=CC=C(O2)[N+](=O)[O-]

> <TD50_Rat>
163

> <TD50_Mouse>
1400

> <Canc>
3

> <SAL>
3

> <Rat_Male_Canc>
3

> <Rat_Female_Canc>
1

> <Mouse_Male_Canc>
1

> <Mouse_Female_Canc>
3

> <Rat_Male_NTP>
SE

> <Rat_Female_NTP>
NE

> <Mouse_Male_NTP>
NE

> <Mouse_Female_NTP>
CE

> <Status>
Non-Carcinogen

> <CanonicalTautomer>
Yes

> <NumberOfTautomers>
3

> <New_Data>
true

> <iscarc>
0

$$$$
Nitrofurazone
  SciTegic06161615502D

 14 14  0  0  0  0            999 V2000
    3.0046   -0.3550    0.0000 O   0  0
    4.2216   -0.9001    0.0000 C   0  0
    4.0822   -2.2312    0.0000 C   0  0
    2.7764   -2.4975    0.0000 C   0  0
    2.1171   -1.3438    0.0000 C   0  0
    5.3753   -0.2409    0.0000 C   0  0
    6.5289   -0.9001    0.0000 N   0  0
    7.6826   -0.2409    0.0000 N   0  0
    8.8362   -0.9001    0.0000 C   0  0
    8.8362   -2.2312    0.0000 N   0  0
    9.9772   -0.2409    0.0000 O   0  0
    0.7860   -1.2044    0.0000 N   0  3
    0.2409    0.0000    0.0000 O   0  5
    0.0000   -2.2820    0.0000 O   0  0
  1  2  1  0
  1  5  1  0
  2  3  2  0
  2  6  1  0
  3  4  1  0
  4  5  2  0
  5 12  1  0
  6  7  2  0
  7  8  1  0
  8  9  1  0
  9 10  1  0
  9 11  2  0
 12 13  1  0
 12 14  2  0
M  CHG  2  12   1  13  -1
M  END
> <Name>
Nitrofurazone

> <Substance ID>
274

> <Synonyms>
2-[(5-Nitro-2-furanyl)methylene]-hydrazinecarboxamide; 2-furaldehyde, 5-nitro-, semicarbazole; 5-Nitro-2-furaldehyde Semicarbazone; 5-nitro-2-furancarboxaldehyde semicarbazone; 5-nitro-2-furfuraldehyd
e semicarbazone; 5-nitro-2-furfural semicarbazone; (5-nitro-2-furfurylideneamino)urea; 5-Nitro-2-furfurylidene semicarbazone; 5-nitrofuraldehyde semicarbazide; 5-nitrofuraldehyde semicarbazone; 5-nitr
ofuran-2-aldehyde semicarbazone; 5-nitrofurfural semicarbazone; 6-nitrofuraldehyde semicarbazide; Aldomycin; alfucin; Amifur; babrocid; becafurazone; biofuracina; biofurea; Chemofuran; chixin; cocafur
in; Coxistat; dermofural; dyanazone; eldezol; eldezol f-6; fedacin; flavazone; fracine; furacilin; furacillin; Furacin; Furacinetten; furacin-hc; Furacoccid; furacort; furacycline; furaldon; furalone;
 furametral; furan-ofteno; Furaplast; furaseptyl; furaskin; furaziline; furazin; furazina; Furazol W; furazone; Furesol; furfurin; furosem; fuvacillin; hemofuran; ibiofural; Mammex; mastofuran; monofu
racin; Nefco; NF; NF-7; NFS; NFZ; nifucin; nifurid; Nifuzon; Nitrofural; nitrofurazan; Nitrorural; Nitrozone; otofuran; sanfuran; spray-dermis; spray-foral; U-6421; Vabrocid; vadrocid; veterinary nitr
ofurazone; yatrocin.

> <CAS>
59-87-0

> <Reference>
NTP337

> <MolWeight>
198.14

> <Formula>
C6H6N4O4

> <SMILES>
O=[N+](C1=CC=C(O1)/C=N/NC(=O)N)[O-]

> <TD50_Rat>
6.98

> <TD50_Mouse>
30.8

> <Canc>
3

> <SAL>
3

> <Rat_Male_Canc>
2

> <Rat_Female_Canc>
3

> <Mouse_Male_Canc>
1

> <Mouse_Female_Canc>
3

> <Rat_Male_NTP>
EE

> <Rat_Female_NTP>
CE

> <Mouse_Male_NTP>
NE

> <Mouse_Female_NTP>
CE

> <Status>
Carcinogen

> <CanonicalTautomer>
Yes

> <NumberOfTautomers>
2

> <New_Data>
true

> <iscarc>
1

$$$$
Oxytetracycline Hydrochloride
  SciTegic06161615502D

 33 36  0  0  1  0            999 V2000
    8.0705   -1.3258    0.0000 C   0  0
    9.2161   -1.9951    0.0000 C   0  0
    9.2161   -3.3209    0.0000 C   0  0
    8.0705   -3.9902    0.0000 C   0  0  1  0  0  0
    6.9121   -1.9951    0.0000 C   0  0  1  0  0  0
    6.9121   -3.3209    0.0000 C   0  0
    5.7536   -3.9902    0.0000 C   0  0  1  0  0  0
    5.7536   -1.3258    0.0000 C   0  0
    4.6081   -1.9951    0.0000 C   0  0
    4.6081   -3.3209    0.0000 C   0  0
    3.4496   -3.9902    0.0000 C   0  0  1  0  0  0
    3.4496   -1.3258    0.0000 C   0  0
    2.3040   -1.9951    0.0000 C   0  0
    2.3040   -3.3209    0.0000 C   0  0
    0.0000   -3.3209    0.0000 C   0  0
    0.0000   -1.9951    0.0000 C   0  0
    1.1456   -3.9902    0.0000 C   0  0
    1.1456   -1.3258    0.0000 C   0  0
    1.1456    0.0000    0.0000 O   0  0
    3.4496    0.0000    0.0000 O   0  0
    5.7536    0.0000    0.0000 O   0  0
    6.9121   -0.6565    0.0000 O   0  0
    8.0705    0.0000    0.0000 O   0  0
   10.3746   -1.3258    0.0000 C   0  0
   10.3746    0.0000    0.0000 N   0  0
   11.5201   -1.9951    0.0000 O   0  0
    8.0705   -5.3160    0.0000 N   0  0
    6.9121   -5.9853    0.0000 C   0  0
    9.2161   -5.9853    0.0000 C   0  0
    5.7536   -5.3160    0.0000 O   0  0
    4.1189   -5.1358    0.0000 C   0  0
    2.7932   -5.1358    0.0000 O   0  0
   10.3746   -3.9902    0.0000 O   0  0
  1  5  1  0
  1  2  2  0
  1 23  1  0
  2  3  1  0
  2 24  1  0
  3  4  1  0
  3 33  2  0
  4  6  1  0
  4 27  1  6
  5  6  1  0
  5  8  1  0
  5 22  1  6
  6  7  1  0
  7 10  1  0
  7 30  1  6
  8  9  2  0
  8 21  1  0
  9 10  1  0
  9 12  1  0
 10 11  1  0
 11 14  1  0
 11 31  1  6
 11 32  1  0
 12 13  1  0
 12 20  2  0
 13 14  2  0
 13 18  1  0
 14 17  1  0
 15 16  1  0
 15 17  2  0
 16 18  2  0
 18 19  1  0
 24 25  1  0
 24 26  2  0
 27 28  1  0
 27 29  1  0
M  END
> <Name>
Oxytetracycline Hydrochloride

> <Substance ID>
275

> <Synonyms>
2-Naphthacenecarboxamide, 4-(dimethylamino)-1,4,4a,5,5a,6,11,12a-octahydro-3,5,6,10,12,12a-hexahydroxy-6-methyl-1,11-dioxo-, monohydrochloride, [4S-(4alpha,4aalpha,5alpha,5aalpha,6beta,12aalpha)]-; 4-
(dimethylamino)-1,4,4a,5,5a,6,11,12a-octahydro-3,5,6,10,12,12a-hexahydroxy-6-methyl-1,11-dioxo-2-naphthacenecarboxamide monohydrochloride; 5-Hydroxytetracycline hydrochloride; Aquacycline; bisolvomyci
n; hydrocyclin; Hydroxytetracycline monohydrochloride; liquamycin injectable; Medamycin; Medemycin; Mepatar; Naphthacenecarboxamide, 4-(dimethylamino)-1,4,4a,5,5a,6,11,12a-octahydro-3,5,6,10,12,12a-he
xahydroxy-6-methyl-1,11-dioxo-, monohydrochloride, (4S-(4alpha,4aalpha,5alpha,5aalpha,6beta,12aalpha))-; otetryn; oxlopar; oxyject 100; Oxytet; Oxytetracycline hydrochloride, can be used as secondary
standard; OXY WS; terramycin hydrochloride; tetramine; tetran hydrochloride.

> <CAS>
2058-46-0

> <Reference>
NTP315

> <MolWeight>
495.94

> <Formula>
C22H24N2O9

> <SMILES>
O[C@@]12C([C@H](C3[C@](C4=C(C(=CC=C4)O)C(=O)C/3=C\1O)(C)O)O)[C@@H](/C(=C(\C2=O)C(=O)N)O)N(C)C.Cl

> <TD50_Rat>
NP

> <TD50_Mouse>
NP

> <Canc>
2

> <SAL>
1

> <Rat_Male_Canc>
2

> <Rat_Female_Canc>
2

> <Mouse_Male_Canc>
1

> <Mouse_Female_Canc>
1

> <Rat_Male_NTP>
EE

> <Rat_Female_NTP>
EE

> <Mouse_Male_NTP>
NE

> <Mouse_Female_NTP>
NE

> <Status>
Carcinogen

> <CanonicalTautomer>
Yes

> <NumberOfTautomers>
9

> <New_Data>
true

> <iscarc>
1

$$$$
Phenylephrine Hydrochloride
  SciTegic06161615502D

 12 12  0  0  1  0            999 V2000
    0.6626   -2.3040    0.0000 C   0  0
    0.0000   -1.1595    0.0000 C   0  0
    1.9878    0.0000    0.0000 C   0  0
    2.6504   -1.1595    0.0000 C   0  0
    0.6626    0.0000    0.0000 C   0  0
    1.9878   -2.3040    0.0000 C   0  0
    0.0000   -3.4485    0.0000 O   0  0
    3.9755   -1.1595    0.0000 C   0  0  1  0  0  0
    4.6532   -2.3040    0.0000 C   0  0
    4.6532    0.0000    0.0000 O   0  0
    3.9755   -3.4485    0.0000 N   0  0
    4.6532   -4.6080    0.0000 C   0  0
  1  2  2  0
  1  6  1  0
  1  7  1  0
  2  5  1  0
  3  4  1  0
  3  5  2  0
  4  6  2  0
  4  8  1  0
  8  9  1  0
  8 10  1  6
  9 11  1  0
 11 12  1  0
M  END
> <Name>
Phenylephrine Hydrochloride

> <Substance ID>
276

> <Synonyms>
3-Hydroxy-alpha-(methylaminomethyl)benzyl alcohol hydrochloride; (-)-m-hydroxy-alpha-((methylamino)methyl)benzyl alcohol hydrochloride; (-)-3-hydroxy-alpha-((methylamino)methyl)benzenemethanol, hydroc
hloride; meta-Synephrine hydrochloride; biomydrin; consdrin hydrochloride; D-(-)-phenylephrine hydrochloride; isophrin hydrochloride; L-1-(m-hydroxyphenyl)-2-methyl-aminoethanol hydrochloride; L-Pheny
lephrine Hydrochloride; neosynephrine hydrocholride; (R)-3-hydroxy-a-[(methylamino)methyl]-benzenemethanol hydrochloride.

> <CAS>
61-76-7

> <Reference>
NTP322

> <MolWeight>
202.71

> <Formula>
C9H13NO2

> <SMILES>
C1([C@H](CNC)O)(=CC(=CC=C1)O).Cl

> <TD50_Rat>
NP

> <TD50_Mouse>
NP

> <Canc>
1

> <SAL>
1

> <Rat_Male_Canc>
1

> <Rat_Female_Canc>
1

> <Mouse_Male_Canc>
1

> <Mouse_Female_Canc>
1

> <Rat_Male_NTP>
NE

> <Rat_Female_NTP>
NE

> <Mouse_Male_NTP>
NE

> <Mouse_Female_NTP>
NE

> <Status>
Non-Carcinogen

> <New_Data>
true

> <iscarc>
0

$$$$
Rotenone
  SciTegic06161615502D

 29 33  0  0  1  0            999 V2000
    3.4627   -1.9914    0.0000 O   0  0
    4.6169   -2.6636    0.0000 C   0  0
    5.7584   -1.9914    0.0000 C   0  0
    4.6169   -3.9827    0.0000 C   0  0  2  0  0  0
    6.9127   -2.6636    0.0000 C   0  0
    5.7584   -0.6596    0.0000 C   0  0
    5.7584   -4.6549    0.0000 C   0  0
    3.4627   -4.6549    0.0000 C   0  0
    8.0669   -1.9914    0.0000 C   0  0
    6.9127   -3.9827    0.0000 O   0  0
    6.9127    0.0000    0.0000 C   0  0
    5.7584   -5.9867    0.0000 C   0  0
    3.4627   -5.9867    0.0000 C   0  0
    2.3084   -3.9827    0.0000 C   0  0
    8.0669   -0.6596    0.0000 C   0  0
    9.3353   -2.4099    0.0000 C   0  0
    4.6169   -6.6463    0.0000 O   0  0
    2.3084   -6.6463    0.0000 C   0  0
    1.1542   -4.6549    0.0000 C   0  0
    9.3353   -0.2537    0.0000 O   0  0
   10.1090   -1.3318    0.0000 C   0  0  1  0  0  0
    1.1542   -5.9867    0.0000 C   0  0
    0.0000   -3.9827    0.0000 O   0  0
   11.4408   -1.3318    0.0000 C   0  0
    0.0000   -6.6463    0.0000 O   0  0
    0.0000   -2.6636    0.0000 C   0  0
   12.1003   -2.4860    0.0000 C   0  0
   12.1003   -0.1776    0.0000 C   0  0
    0.0000   -7.9781    0.0000 C   0  0
  1  2  2  0
  2  3  1  0
  2  4  1  0
  3  5  2  0
  3  6  1  0
  4  7  1  6
  4  8  1  0
  5  9  1  0
  5 10  1  0
  6 11  2  0
  7 10  1  0
  7 12  1  0
  8 13  2  0
  8 14  1  0
  9 15  2  0
  9 16  1  0
 11 15  1  0
 12 17  1  0
 13 17  1  0
 13 18  1  0
 14 19  2  0
 15 20  1  0
 16 21  1  0
 18 22  2  0
 19 22  1  6
 19 23  1  0
 20 21  1  0
 21 24  1  1
 22 25  1  0
 23 26  1  1
 24 27  1  0
 24 28  2  0
 25 29  1  1
M  END
> <Name>
Rotenone

> <Substance ID>
278

> <Synonyms>
1,2,12,12a-tetrahydro-2alpha-isopropenyl-8,9-dimethoxy(1)benzopyrano(3,4-b)furo(2,3-h)(1)benzopyran-6(6aH)-one; 1,2,12,12a-tetrahydro-8,9-dimethoxy-2-(1-methylethenyl)-(1)benzopyrano(3,4-b)furo(2,3-h)
(1)benzopyran-6(6aH)-one, (2R-(2alpha, 6alpha-12aalpha))-; [2R-(2alpha,6aalpha,12aalpha)]-1,2,12,12a-tetrahydro-8,9-dimethoxy-2-(1-methylethenyl)-[1]Benzopyrano[3,4-b]furo[2,3-h][1]benzopyran-6(6aH)-o
ne; (2R,6a5,12axS)-1,2,12,12a-tetrahydro-2a-isopropenyl-8,9-dimethoxy(1)benzopyrano(3,4-b)furo(2,3-H)(1)benzopyran-6(6aH)-one; paraderil; barbasco; Benzopyrano[3,4-b]furo[2,3-h][1]benzopyran-6(6aH)-on
e, 1,2,12,12a-tetrahydro-8,9-dimethoxy-2-(1-methylethenyl)-, ([2.2.1]R-([2.2.1]alpha,6aalpha,[2.2.1][2.2.1]aalpha))-; Chem-Fish; chem-mite; Cubor; cube root; dactinol; Deril; derrin; Derris; dri-kil;
extrax; fish-tox; Foliafume; green cross warble; haiari; Hydrogenated rotenone; mexide; nicouline; Noxfire; Noxfish; Nusyn; Nusyn-Noxfish; PB-Nox; Prenfish; pro-nox fish; RO-KO; ronone; Rotacide; rote
five; rotefour; (-)-rotenone; Rotenone ; Rotenone, hydrogenated; rotessenol; rotocide; Synpren; Tubatoxin; tubotoxin.

> <CAS>
83-79-4

> <Reference>
NTP320

> <MolWeight>
394.42

> <Formula>
C23H22O6

> <SMILES>
O=C1C2=CC=C3C(=C2OC4C1C5=C(C=C(C(=C5)OC)OC)OC4)CC(O3)C(=C)C

> <TD50_Rat>
NP

> <TD50_Mouse>
NP

> <Canc>
2

> <SAL>
1

> <Rat_Male_Canc>
2

> <Rat_Female_Canc>
1

> <Mouse_Male_Canc>
1

> <Mouse_Female_Canc>
1

> <Rat_Male_NTP>
EE

> <Rat_Female_NTP>
NE

> <Mouse_Male_NTP>
NE

> <Mouse_Female_NTP>
NE

> <Status>
Non-Carcinogen

> <New_Data>
true

> <iscarc>
0

$$$$
Tetracycline Hydrochloride
  SciTegic06161615502D

 32 35  0  0  1  0            999 V2000
    0.0000   -3.9852    0.0000 C   0  0
    0.0000   -2.6611    0.0000 C   0  0
    1.1553   -1.9991    0.0000 C   0  0
    1.1553   -4.6602    0.0000 C   0  0
    2.2977   -3.9852    0.0000 C   0  0
    2.2977   -2.6611    0.0000 C   0  0
    3.4530   -1.9991    0.0000 C   0  0  1  0  0  0
    3.4530   -4.6602    0.0000 C   0  0
    4.6083   -3.9852    0.0000 C   0  0
    4.6083   -2.6611    0.0000 C   0  0
    5.7637   -1.9991    0.0000 C   0  0
    5.7637   -4.6602    0.0000 C   0  0
    6.9060   -3.9852    0.0000 C   0  0  2  0  0  0
    6.9060   -2.6611    0.0000 C   0  0
    8.0613   -1.9991    0.0000 C   0  0  2  0  0  0
    9.2167   -2.6611    0.0000 C   0  0
    9.2167   -3.9852    0.0000 C   0  0
    8.0613   -4.6602    0.0000 C   0  0
    1.1553   -5.9843    0.0000 O   0  0
    5.7637   -5.9843    0.0000 O   0  0
   10.3720   -4.6602    0.0000 C   0  0
   10.3720   -5.9843    0.0000 N   0  0
   10.3720   -1.9991    0.0000 O   0  0
    2.7910   -0.8438    0.0000 O   0  0
    4.1150   -0.8438    0.0000 C   0  0
    8.0613   -5.9843    0.0000 O   0  0
   11.5143   -3.9852    0.0000 O   0  0
    8.0613   -0.6620    0.0000 N   0  0
    6.9060   -5.3223    0.0000 O   0  0
    3.4530   -5.9843    0.0000 O   0  0
    9.2167    0.0000    0.0000 C   0  0
    6.9060    0.0000    0.0000 C   0  0
  1  2  2  0
  1  4  1  0
  2  3  1  0
  3  6  2  0
  4  5  2  0
  4 19  1  0
  5  6  1  0
  5  8  1  0
  6  7  1  0
  7 10  1  0
  7 24  1  0
  7 25  1  1
  8  9  1  0
  8 30  2  0
  9 10  1  0
  9 12  2  0
 10 11  1  0
 11 14  1  0
 12 13  1  0
 12 20  1  0
 13 14  1  0
 13 18  1  0
 13 29  1  1
 14 15  1  0
 15 16  1  0
 15 28  1  1
 16 17  1  0
 16 23  2  0
 17 18  2  0
 17 21  1  0
 18 26  1  0
 21 22  1  0
 21 27  2  0
 28 31  1  0
 28 32  1  0
M  END
> <Name>
Tetracycline Hydrochloride

> <Substance ID>
279

> <Synonyms>
2-Naphthacenecarboxamide, 4-(dimethylamino)-1,4,4a,5,5a,6,11,12a-octahydro-3,6,10,12,12a-pentahydroxy-6-methyl-1,11-dioxo-, monohydrochloride, [4S-(4alpha,4aalpha,5aalpha,6beta,12aalpha)]-; 4-(dimethy
lamino)-1,4,4a,5,5a,6,11,12a-octahydro-3,6,10,12,12a-pentahydroxy-6-methyl-1,11-dioxo-2-naphthacenecarboxamide, mono-hydrochloride; Abricycline; Achro; achromycin; achromycin hydrochloride; Agromicina
; Ala Tet; Ambracyn; Ambramicina; Ambramycin; Artomycin; artromycin; Diacycline; Bio-Tetra; Bristaciclina; cancycline-250; Cefracycline; Criseociclina; Cyclomycin; Cyclopar; deschlorobiomycin; Democra
cin; Dumocyclin; fermentmycin; Helvecyclin; Hostacyclin; Imex; Mephacyclin; Naphthacenecarboxamide, 4-(dimethylamino)-1,4,4a,5,5a,6,11,12a-octahydro-3,6,10,12,12a-pentahydroxy-6-methyl-1,11-dioxo-, mo
nohydrachloride, (4S-(4alpha,4aalpha,5aalpha,6beta,12aalpha)); paltet; Partrex; Polycycline; polycycline hydrochloride; Purocyclina; Quadracycline; Quatrex; Remicyclin; Ricycline; Ro-cycline; Sanclomy
cine; Steclin; steclin hydrochloride; Stilciclina; Subamycin; Supramycine; Sustamycin; Tefilin; Teline; Telotrex; Tet-cy; Tetrabakat; Tetrabid; Tetrablet; Tetrabon; tetracaps; Tetrachel; Tetracompren;
 tetracycline chloride; Tetracycline hydrochloride, [can be used as secondary standard]; Tetra-D; Tetradecin; Tetrakap; Tetralution; Tetramavan; Tetramycin; Tetra-Wedel; Tetrosol; Topicycline; Totomyc
in; Triphacyclin; Tsiklomitsin; U-5965; Unicin; Unimycin; Vetquamycin-324; Omegamycin.

> <CAS>
64-75-5

> <Reference>
NTP344

> <MolWeight>
479.94

> <Formula>
C22H24N2O8

> <SMILES>
O=C(N)/C1=C(\O)[C@@H](N(C)C)C2CC4C(=C(\O)[C@]2(O)C1=O)\C(=O)c3c(cccc3O)[C@]4(O)C.Cl

> <TD50_Rat>
NP

> <TD50_Mouse>
NP

> <Canc>
1

> <SAL>
1

> <Rat_Male_Canc>
1

> <Rat_Female_Canc>
1

> <Mouse_Male_Canc>
1

> <Mouse_Female_Canc>
1

> <Rat_Male_NTP>
NE

> <Rat_Female_NTP>
NE

> <Mouse_Male_NTP>
NE

> <Mouse_Female_NTP>
NE

> <Status>
Non-Carcinogen

> <CanonicalTautomer>
Yes

> <NumberOfTautomers>
9

> <New_Data>
true

> <iscarc>
0

$$$$
DL-Amphetamine Sulfate
  SciTegic06161615502D

 20 20  0  0  0  0            999 V2000
    3.9912    0.0000    0.0000 C   0  0
    5.3172    0.0000    0.0000 C   0  0
    5.9868   -1.1422    0.0000 C   0  0
    5.3172   -2.2976    0.0000 C   0  0
    3.9912   -2.2976    0.0000 C   0  0
    3.3216   -1.1422    0.0000 C   0  0
    1.9956   -1.1422    0.0000 C   0  0
    1.3260   -2.2976    0.0000 C   0  0
    0.0000   -2.2976    0.0000 N   0  0
    1.9956   -3.4529    0.0000 C   0  0
    7.0896   -3.9912    0.0000 C   0  0
    8.4287   -3.9912    0.0000 C   0  0
    9.0852   -5.1334    0.0000 C   0  0
    8.4287   -6.2887    0.0000 C   0  0
    7.0896   -6.2887    0.0000 C   0  0
    6.4200   -5.1334    0.0000 C   0  0
    5.0940   -5.1334    0.0000 C   0  0
    4.4244   -6.2887    0.0000 C   0  0
    3.0984   -6.2887    0.0000 N   0  0
    5.0940   -7.4441    0.0000 C   0  0
  1  2  2  0
  1  6  1  0
  2  3  1  0
  3  4  2  0
  4  5  1  0
  5  6  2  0
  6  7  1  0
  7  8  1  0
  8  9  1  0
  8 10  1  0
 11 12  2  0
 11 16  1  0
 12 13  1  0
 13 14  2  0
 14 15  1  0
 15 16  2  0
 16 17  1  0
 17 18  1  0
 18 19  1  0
 18 20  1  0
M  END
> <Name>
DL-Amphetamine Sulfate

> <Substance ID>
295

> <Synonyms>
(+-)-2-amino-1-phenylpropane sulfate; (+-)-amphetamine sulfate; Alentol; amphamine sulfate; Amphedrine Sulfate; Amphetamine sulfate; Amphoids-S; Benzedrine Sulfate; Linampheta; phenisopropylamine sulf
ate; Psychoton; Simpamina.

> <CAS>
60-13-9

> <Reference>
NTP387

> <MolWeight>
368.49

> <Formula>
C18H26N2

> <SMILES>
N[C@@H](Cc1ccccc1)C.N[C@@H](C)Cc1ccccc1.S(=O)(=O)(O)(O)

> <TD50_Rat>
NP

> <TD50_Mouse>
NP

> <Canc>
1

> <SAL>
2

> <Rat_Male_Canc>
1

> <Rat_Female_Canc>
1

> <Mouse_Male_Canc>
1

> <Mouse_Female_Canc>
1

> <Rat_Male_NTP>
NE

> <Rat_Female_NTP>
NE

> <Mouse_Male_NTP>
NE

> <Mouse_Female_NTP>
NE

> <Status>
Non-Carcinogen

> <New_Data>
true

> <iscarc>
0

$$$$
Naphthalene
  SciTegic06161615502D

 10 11  0  0  0  0            999 V2000
    3.9877   -2.3040    0.0000 C   0  0
    2.6585   -2.3040    0.0000 C   0  0
    4.6587   -1.1520    0.0000 C   0  0
    3.9877    0.0000    0.0000 C   0  0
    2.6585    0.0000    0.0000 C   0  0
    2.0002   -1.1520    0.0000 C   0  0
    0.6709   -1.1520    0.0000 C   0  0
    0.0000   -2.3040    0.0000 C   0  0
    0.6709   -3.4560    0.0000 C   0  0
    2.0002   -3.4560    0.0000 C   0  0
  1  2  1  0
  1  3  2  0
  2 10  1  0
  2  6  2  0
  3  4  1  0
  4  5  2  0
  5  6  1  0
  6  7  1  0
  7  8  2  0
  8  9  1  0
  9 10  2  0
M  END
> <Name>
Naphthalene

> <Substance ID>
296

> <Synonyms>
Camphor tar; mighty 150; mighty rd1; Mothballs; Moth Flakes; Naphthalene, crude; Naphthalene, molten; Naphthene; tar camphor; white tar.

> <CAS>
91-20-3

> <Reference>
NTP410 & NTP500

> <MolWeight>
128.17

> <Formula>
C10H8

> <SMILES>
C1=C2C(=CC=C1)C=CC=C2

> <TD50_Rat>
ND

> <TD50_Mouse>
163

> <Canc>
3

> <SAL>
1

> <Rat_Male_Canc>
3

> <Rat_Female_Canc>
3

> <Mouse_Male_Canc>
1

> <Mouse_Female_Canc>
3

> <Rat_Male_NTP>
CE

> <Rat_Female_NTP>
CE

> <Mouse_Male_NTP>
NE

> <Mouse_Female_NTP>
SE

> <Status>
Carcinogen

> <New_Data>
true

> <iscarc>
1

$$$$
Tricresyl Phosphate
  SciTegic06161615503D

 26 28  0  0  0  0            999 V2000
    4.7805   -4.7355    1.3632 P   0  0
    5.5592   -3.6261    1.8907 O   0  0
    3.4067   -4.4005    1.0279 O   0  0
    5.1527   -5.9409    2.0678 O   0  0
    5.7897   -4.8150    0.2405 O   0  0
    2.2941   -4.8183    1.6164 C   0  0
    4.6375   -7.1138    1.7314 C   0  0
    5.0350   -2.4011    2.0512 C   0  0
    5.7804   -1.4846    2.3977 C   0  0
    4.0997    0.0000    2.4192 C   0  0
    3.2807   -0.9907    2.0410 C   0  0
    5.2935   -0.2313    2.5865 C   0  0
    1.2430   -4.4197    1.1068 C   0  0
    0.0000   -5.5314    2.5792 C   0  0
    1.1456   -5.9646    3.1581 C   0  0
    0.0514   -4.7880    1.6065 C   0  0
    2.2374   -5.6189    2.7081 C   0  0
    3.6224   -9.4430    1.2146 C   0  0
    4.5739   -9.3209    2.1600 C   0  0
    3.2646   -8.4571    0.5755 C   0  0
    5.0590   -8.2193    2.4055 C   0  0
    6.0556   -8.1075    3.3614 C   0  0
    7.1297   -1.7238    2.5924 C   0  0
    3.8011   -7.2432    0.8386 C   0  0
    3.7267   -2.1201    1.8624 C   0  0
    1.2970   -3.5861    0.0000 C   0  0
  1  2  1  0
  1  3  1  0
  1  4  1  0
  1  5  2  0
  2  8  1  0
  3  6  1  0
  4  7  1  0
  6 13  2  0
  6 17  1  0
  7 24  2  0
  7 21  1  0
  8  9  2  0
  8 25  1  0
  9 12  1  0
  9 23  1  0
 10 11  1  0
 10 12  2  0
 11 25  2  0
 13 16  1  0
 13 26  1  0
 14 15  1  0
 14 16  2  0
 15 17  2  0
 18 19  1  0
 18 20  2  0
 19 21  2  0
 20 24  1  0
 21 22  1  0
M  END
> <Name>
Tricresyl Phosphate

> <Substance ID>
301

> <Synonyms>
disflamoll tkp; Celluflex; celluflex 179c; cresyl phosphate; Durad; flexol plasticizer tcp; fyrquel 150; imol s 140; Kronitex; Lindol; Phosphoric acid, tolyl ester; Phosphoric acid tris(methylphenyl)
ester; phosphoric acid, tritolyl ester; PX-917; Tolylphosphate; Tricresyl phosphates; tris(methylphenyl)ester of phosphoric acid; tris(tolyloxy)phosphine oxide; Tritolyl phosphate; Union carbide flexo
l TCP.

> <CAS>
1330-78-5

> <Reference>
NTP433

> <MolWeight>
368.37

> <Formula>
C21H21O4P

> <SMILES>
P(OC1=C(C=CC=C1)C)(OC2=CC=CC=C2C)(OC3=C(C=CC=C3)C)=O

> <TD50_Rat>
NP

> <TD50_Mouse>
NP

> <Canc>
1

> <SAL>
1

> <Rat_Male_Canc>
1

> <Rat_Female_Canc>
1

> <Mouse_Male_Canc>
1

> <Mouse_Female_Canc>
1

> <Rat_Male_NTP>
NE

> <Rat_Female_NTP>
NE

> <Mouse_Male_NTP>
NE

> <Mouse_Female_NTP>
NE

> <Status>
Non-Carcinogen

> <New_Data>
true

> <iscarc>
0

$$$$
o-Benzyl-p-Chlorophenol
  SciTegic06161615502D

 15 16  0  0  0  0            999 V2000
    0.6589   -4.6123    0.0000 C   0  0
    0.0000   -3.4592    0.0000 C   0  0
    1.9894   -2.3062    0.0000 C   0  0
    2.6609   -3.4592    0.0000 C   0  0
    0.6589   -2.3062    0.0000 C   0  0
    1.9894   -4.6123    0.0000 C   0  0
    0.0000   -1.1531    0.0000 Cl  0  0
    2.6609   -5.7654    0.0000 O   0  0
    3.9914   -3.4592    0.0000 C   0  0
    4.6503   -2.3062    0.0000 C   0  0
    3.9914   -1.1531    0.0000 C   0  0
    5.9808    0.0000    0.0000 C   0  0
    6.6397   -1.1531    0.0000 C   0  0
    4.6503    0.0000    0.0000 C   0  0
    5.9808   -2.3062    0.0000 C   0  0
  1  2  2  0
  1  6  1  0
  2  5  1  0
  3  4  1  0
  3  5  2  0
  4  6  2  0
  4  9  1  0
  5  7  1  0
  6  8  1  0
  9 10  1  0
 10 11  2  0
 10 15  1  0
 11 14  1  0
 12 13  1  0
 12 14  2  0
 13 15  2  0
M  END
> <Name>
o-Benzyl-p-Chlorophenol

> <Substance ID>
302

> <Synonyms>
4-chloro-2-(phenylmethyl)phenol; 4-chloro-alpha-phenyl-ortho-cresol; 5-chloro-2-hydroxydiphenylmethane; Benzyl-p-chlorophenol; benzylchlorophenol; Bio-clave; Chlorophene; clorofene; ketolin-h; Cresol,
 4-chloro-alpha-phenyl-; Neosobenil; Preventol B; Santophen; santophen 1; Sentiphene; Septiphene.

> <CAS>
120-32-1

> <Reference>
NTP424

> <MolWeight>
218.68

> <Formula>
C13H11ClO

> <SMILES>
OC1=C(C=C(C=C1)Cl)CC2=CC=CC=C2

> <TD50_Rat>
NP

> <TD50_Mouse>
1350

> <Canc>
3

> <SAL>
1

> <Rat_Male_Canc>
1

> <Rat_Female_Canc>
2

> <Mouse_Male_Canc>
3

> <Mouse_Female_Canc>
1

> <Rat_Male_NTP>
NE

> <Rat_Female_NTP>
EE

> <Mouse_Male_NTP>
SE

> <Mouse_Female_NTP>
NE

> <Status>
Carcinogen

> <New_Data>
true

> <iscarc>
1

$$$$
Theophyllin
  SciTegic06161615502D

 13 14  0  0  0  0            999 V2000
    3.4555   -1.9872    0.0000 C   0  0
    3.4555   -3.3162    0.0000 C   0  0
    4.7212   -3.7339    0.0000 N   0  0
    5.5060   -2.6581    0.0000 C   0  0
    4.7212   -1.5822    0.0000 N   0  0
    1.1518   -1.9872    0.0000 N   0  0
    1.1518   -3.3162    0.0000 C   0  0
    2.3037   -3.9871    0.0000 N   0  0
    2.3037   -1.3290    0.0000 C   0  0
    0.0000   -3.9871    0.0000 O   0  0
    2.3037    0.0000    0.0000 O   0  0
    2.3037   -5.3161    0.0000 C   0  0
    0.0000   -1.3290    0.0000 C   0  0
  1  2  2  0
  1  5  1  0
  1  9  1  0
  2  3  1  0
  2  8  1  0
  3  4  1  0
  4  5  2  0
  6  7  1  0
  6  9  1  0
  6 13  1  0
  7  8  1  0
  7 10  2  0
  8 12  1  0
  9 11  2  0
M  END
> <Name>
Theophyllin

> <Substance ID>
307

> <Synonyms>
1,3-Dimethyl-2,6-dioxo-1,2,3,6-tetrahydropurine; 1,3-Dimethylxanthine; Theokin; Theolair; Theo-Organidin; Theophyl-225; Theospan; Uniphyllin continus; 1H-purine-2,6-dione; 3,7-dihydro-1,3-dimethyl-1H-
purine-2,6-dione; Aerolate; Austyn; Bronchodid Duracap; Bronkodyl; Bronkotabs; Elixicon; Elixophyllin; Hylate; Labophylline; LASMA; Mudrane; Nuelin; Nuelin SA; Pro-vent; pseudotheophylline; Quadrinal;
 Respbid; Slo-Phyllin; Synophylate; Theobid; theocin; Theo-Dur.

> <CAS>
58-55-9

> <Reference>
NTP473

> <MolWeight>
180.17

> <Formula>
C7H8N4O2

> <SMILES>
CN1C(=O)N(C)c2ncnc2C1(=O)

> <TD50_Rat>
NP

> <TD50_Mouse>
NP

> <Canc>
1

> <SAL>
1

> <Rat_Male_Canc>
1

> <Rat_Female_Canc>
1

> <Mouse_Male_Canc>
1

> <Mouse_Female_Canc>
1

> <Rat_Male_NTP>
NE

> <Rat_Female_NTP>
NE

> <Mouse_Male_NTP>
NE

> <Mouse_Female_NTP>
NE

> <Status>
Non-Carcinogen

> <CanonicalTautomer>
Yes

> <NumberOfTautomers>
3

> <New_Data>
true

> <iscarc>
0

$$$$
Pentachloroanisole
  SciTegic06161615502D

 13 13  0  0  0  0            999 V2000
    3.4573   -2.6594    0.0000 C   0  0
    3.4573   -3.9892    0.0000 C   0  0
    1.1524   -3.9892    0.0000 C   0  0
    1.1524   -2.6594    0.0000 C   0  0
    2.3049   -4.6477    0.0000 C   0  0
    2.3049   -1.9883    0.0000 C   0  0
    0.0000   -1.9883    0.0000 Cl  0  0
    0.0000   -4.6477    0.0000 Cl  0  0
    2.3049   -5.9774    0.0000 Cl  0  0
    4.6097   -1.9883    0.0000 Cl  0  0
    4.6097   -4.6477    0.0000 Cl  0  0
    2.3049   -0.6585    0.0000 O   0  0
    3.4573    0.0000    0.0000 C   0  0
  1  2  2  0
  1  6  1  0
  1 10  1  0
  2  5  1  0
  2 11  1  0
  3  4  1  0
  3  5  2  0
  3  8  1  0
  4  6  2  0
  4  7  1  0
  5  9  1  0
  6 12  1  0
 12 13  1  0
M  END
> <Name>
Pentachloroanisole

> <Substance ID>
311

> <Synonyms>
2,3,4,5,6-Pentachloroanisole; Methyl pentachlorophenate; methyl pentachlorophenyl ester; PCP methyl ether; pentachloromethoxybenzene; Pentachlorophenol methyl ester; pentachlorophenyl methyl ether.

> <CAS>
1825-21-4

> <Reference>
NTP414

> <MolWeight>
280.37

> <Formula>
C7H3Cl5O

> <SMILES>
ClC1=C(C(=C(C(=C1OC)Cl)Cl)Cl)Cl

> <TD50_Rat>
24.8

> <TD50_Mouse>
68

> <Canc>
3

> <SAL>
3

> <Rat_Male_Canc>
3

> <Rat_Female_Canc>
2

> <Mouse_Male_Canc>
3

> <Mouse_Female_Canc>
1

> <Rat_Male_NTP>
SE

> <Rat_Female_NTP>
EE

> <Mouse_Male_NTP>
SE

> <Mouse_Female_NTP>
NE

> <Status>
Carcinogen

> <New_Data>
true

> <iscarc>
1

$$$$
Chloramine
  SciTegic06161615502D

  2  1  0  0  0  0            999 V2000
    0.0000   -0.6599    0.0000 N   0  0
    1.1548    0.0000    0.0000 Cl  0  0
  1  2  1  0
M  END
> <Name>
Chloramine

> <Substance ID>
312

> <Synonyms>
Chloramide; chloramine/chlorine; monochloramide; Monochloroamine; Monochloramine; monochloroammonia.

> <CAS>
10599-90-3

> <Reference>
NTP392

> <MolWeight>
51.48

> <Formula>
H2ClN

> <SMILES>
NCl

> <TD50_Rat>
NP

> <TD50_Mouse>
NP

> <Canc>
2

> <SAL>
ND

> <Rat_Male_Canc>
1

> <Rat_Female_Canc>
2

> <Mouse_Male_Canc>
1

> <Mouse_Female_Canc>
1

> <Rat_Male_NTP>
NE

> <Rat_Female_NTP>
EE

> <Mouse_Male_NTP>
NE

> <Mouse_Female_NTP>
NE

> <Status>
Carcinogen

> <New_Data>
true

> <iscarc>
1

$$$$
4-Nitrobenzoic acid
  SciTegic06161615502D

 12 12  0  0  0  0            999 V2000
    2.3045   -2.6590    0.0000 C   0  0
    2.3045   -3.9885    0.0000 C   0  0
    0.0000   -3.9885    0.0000 C   0  0
    0.0000   -2.6590    0.0000 C   0  0
    1.1522   -4.6469    0.0000 C   0  0
    1.1522   -1.9879    0.0000 C   0  0
    1.1522   -0.6584    0.0000 C   0  0
    1.1522   -5.9764    0.0000 N   0  3
    0.0000   -6.6475    0.0000 O   0  5
    2.3045   -6.6475    0.0000 O   0  0
    2.3045    0.0000    0.0000 O   0  0
    0.0000    0.0000    0.0000 O   0  0
  1  2  2  0
  1  6  1  0
  2  5  1  0
  3  4  1  0
  3  5  2  0
  4  6  2  0
  5  8  1  0
  6  7  1  0
  7 11  2  0
  7 12  1  0
  8  9  1  0
  8 10  2  0
M  CHG  2   8   1   9  -1
M  END
> <Name>
4-Nitrobenzoic acid

> <Substance ID>
314

> <Synonyms>
1-carboxy-4-nitrobenzene; p-nitrobenzenecarboxylic acid; 4-nitrodracylic acid; PNBA.

> <CAS>
62-23-7

> <Reference>
NTP442

> <MolWeight>
167.12

> <Formula>
C7H5NO4

> <SMILES>
OC(=O)C1=CC=C(C=C1)[N+](=O)[O-]

> <TD50_Rat>
287

> <TD50_Mouse>
NP

> <Canc>
3

> <SAL>
3

> <Rat_Male_Canc>
1

> <Rat_Female_Canc>
3

> <Mouse_Male_Canc>
1

> <Mouse_Female_Canc>
1

> <Rat_Male_NTP>
NE

> <Rat_Female_NTP>
SE

> <Mouse_Male_NTP>
NE

> <Mouse_Female_NTP>
NE

> <Status>
Carcinogen

> <New_Data>
true

> <iscarc>
1

$$$$
C.I. pigment red 23
  SciTegic06161615502D

 36 39  0  0  0  0            999 V2000
    0.0000   -2.6621    0.0000 C   0  0
    1.1409   -2.0029    0.0000 C   0  0
    2.2945   -2.6621    0.0000 C   0  0
    2.2945   -3.9931    0.0000 C   0  0
    1.1409   -4.6650    0.0000 C   0  0
    0.0000   -3.9931    0.0000 C   0  0
    3.4481   -4.6650    0.0000 N   0  0
    3.4481   -5.9961    0.0000 N   0  0
    4.6016   -6.6552    0.0000 C   0  0
    1.1409   -0.6719    0.0000 N   0  3
    1.1409   -5.9961    0.0000 O   0  0
    0.0000   -6.6552    0.0000 C   0  0
    6.9088   -7.9863    0.0000 C   0  0
    6.9088   -6.6552    0.0000 C   0  0
    5.7552   -5.9961    0.0000 C   0  0
    5.7552   -8.6582    0.0000 C   0  0
    4.6016   -7.9863    0.0000 C   0  0
    3.4481   -8.6582    0.0000 C   0  0
    3.4481   -9.9892    0.0000 C   0  0
    4.6016  -10.6484    0.0000 C   0  0
    5.7552   -9.9892    0.0000 C   0  0
    5.7552   -4.6650    0.0000 O   0  0
    8.0624   -5.9961    0.0000 C   0  0
    9.2159   -6.6552    0.0000 N   0  0
    8.0624   -4.6650    0.0000 O   0  0
   10.3695   -5.9961    0.0000 C   0  0
   10.3695   -4.6650    0.0000 C   0  0
   11.5231   -3.9931    0.0000 C   0  0
   12.6767   -4.6650    0.0000 C   0  0
   12.6767   -5.9961    0.0000 C   0  0
   11.5231   -6.6552    0.0000 C   0  0
   13.8302   -6.6552    0.0000 N   0  3
    2.2945    0.0000    0.0000 O   0  5
    0.0000    0.0000    0.0000 O   0  0
   13.8302   -7.9863    0.0000 O   0  5
   14.9838   -5.9961    0.0000 O   0  0
  1  2  2  0
  1  6  1  0
  2  3  1  0
  2 10  1  0
  3  4  2  0
  4  5  1  0
  4  7  1  0
  5  6  2  0
  5 11  1  0
  7  8  2  0
  8  9  1  0
  9 17  2  0
  9 15  1  0
 10 33  1  0
 10 34  2  0
 11 12  1  0
 13 16  2  0
 13 14  1  0
 14 15  2  0
 14 23  1  0
 15 22  1  0
 16 17  1  0
 16 21  1  0
 17 18  1  0
 18 19  2  0
 19 20  1  0
 20 21  2  0
 23 24  1  0
 23 25  2  0
 24 26  1  0
 26 27  2  0
 26 31  1  0
 27 28  1  0
 28 29  2  0
 29 30  1  0
 30 31  2  0
 30 32  1  0
 32 35  1  0
 32 36  2  0
M  CHG  4  10   1  32   1  33  -1  35  -1
M  END
> <Name>
C.I. pigment red 23

> <Substance ID>
316

> <Synonyms>
1-(2-Methoxy-5-nitrophenylazo)-2-hydroxy-3-(3-nitrophenylcarbamoyl)naphthalene; 3-Hydroxy-4-[(2-methoxy-5-nitrophenyl)azo]-3'-nitro-2-naphthanilide; 3-hydroxy-4-((2-methoxy-5-nitrophenyl)azo)-N-(3-nit
rophenyl)-2-naphthalene carboxamide; alkali resistant red dark; Blue Shade Naphthol Red; calcotone 3b; carnation red toner b; C.I. 12355; C.I. Pigment Red 184 type; C.I. Pigment Red 245; conso red r-1
38; Fast Rose; fenalac red fkb extra; malta red x 2284; naphthol red b; naphthol red deep 10459; pigment red 23.

> <CAS>
6471-49-4

> <Reference>
NTP411

> <MolWeight>
487.43

> <Formula>
C24H17N5O7

> <SMILES>
[O-][N+](=O)C1=CC=CC(=C1)NC(=O)C2=CC3=CC=CC=C3C(=C2O)/N=N/C4=CC(=CC=C4OC)[N+]([O-])=O

> <TD50_Rat>
NP

> <TD50_Mouse>
NP

> <Canc>
2

> <SAL>
3

> <Rat_Male_Canc>
2

> <Rat_Female_Canc>
1

> <Mouse_Male_Canc>
1

> <Mouse_Female_Canc>
1

> <Rat_Male_NTP>
EE

> <Rat_Female_NTP>
NE

> <Mouse_Male_NTP>
NE

> <Mouse_Female_NTP>
NE

> <Status>
Non-Carcinogen

> <CanonicalTautomer>
Yes

> <NumberOfTautomers>
5

> <New_Data>
true

> <iscarc>
0

$$$$
Coumarin
  SciTegic06161615502D

 11 12  0  0  0  0            999 V2000
    0.0000   -1.1521    0.0000 C   0  0
    0.6710    0.0000    0.0000 C   0  0
    2.0003    0.0000    0.0000 C   0  0
    0.6710   -2.3041    0.0000 C   0  0
    2.0003   -2.3041    0.0000 C   0  0
    2.6586   -1.1521    0.0000 C   0  0
    3.9879   -3.4562    0.0000 C   0  0
    3.9879   -1.1521    0.0000 O   0  0
    2.6586   -3.4562    0.0000 C   0  0
    4.6589   -2.3041    0.0000 C   0  0
    5.9882   -2.3041    0.0000 O   0  0
  1  2  2  0
  1  4  1  0
  2  3  1  0
  3  6  2  0
  4  5  2  0
  5  6  1  0
  5  9  1  0
  6  8  1  0
  7 10  1  0
  7  9  2  0
  8 10  1  0
 10 11  2  0
M  END
> <Name>
Coumarin

> <Substance ID>
318

> <Synonyms>
1,2-Benzopyrone; o-coumaric acid lactone; 2H-1-Benzopyran-2-one; 2H-benzopyran-2-one; o-hydroxycinnamic acid delta-lactone; o-hydroxycinnamic acid lactone; o-hydroxycinnamic lactone; 2-oxo-1,2-benzopy
ran; 2-oxo-2H-1-benzopyran; Benzo-2-pyrone; benzo-alpha-pyrone; Benzopyran-2-one; Benzopyrone; cis-O-coumaric acid lactone; cis-O-coumarinic acid lactone; Coumaric Acid; coumarinac lactone; Coumarinic
 acid lactone; coumarinic anhydride; cumarin; CUMARINA; Propenoic acid, 3-(2-hydroxyphenyl)-, delta-lactone; rattex; Tonka Bean Camphor.

> <CAS>
91-64-5

> <Reference>
NTP422

> <MolWeight>
146.15

> <Formula>
C9H6O2

> <SMILES>
O=C1OC2=C(C=CC=C2)C=C1

> <TD50_Rat>
13.9

> <TD50_Mouse>
103

> <Canc>
3

> <SAL>
3

> <Rat_Male_Canc>
3

> <Rat_Female_Canc>
2

> <Mouse_Male_Canc>
3

> <Mouse_Female_Canc>
3

> <Rat_Male_NTP>
SE

> <Rat_Female_NTP>
EE

> <Mouse_Male_NTP>
SE

> <Mouse_Female_NTP>
CE

> <Status>
Carcinogen

> <New_Data>
true

> <iscarc>
1

$$$$
ortho-NITROANISOLE
  SciTegic06161615502D

 11 11  0  0  0  0            999 V2000
    0.6589   -2.3060    0.0000 C   0  0
    0.0000   -1.1530    0.0000 C   0  0
    1.9892    0.0000    0.0000 C   0  0
    2.6481   -1.1530    0.0000 C   0  0
    0.6589    0.0000    0.0000 C   0  0
    1.9892   -2.3060    0.0000 C   0  0
    2.6481   -3.4590    0.0000 O   0  0
    3.9785   -3.4590    0.0000 C   0  0
    3.9785   -1.1530    0.0000 N   0  3
    4.6500   -2.3060    0.0000 O   0  5
    4.6500    0.0000    0.0000 O   0  0
  1  2  2  0
  1  6  1  0
  2  5  1  0
  3  4  1  0
  3  5  2  0
  4  6  2  0
  4  9  1  0
  6  7  1  0
  7  8  1  0
  9 10  1  0
  9 11  2  0
M  CHG  2   9   1  10  -1
M  END
> <Name>
ortho-NITROANISOLE

> <Substance ID>
320

> <Synonyms>
1-methoxy-2-nitrobenzene; 2-methoxynitrobenzene; 2-Nitroanisole; o-nitrophenyl methyl ether.

> <CAS>
91-23-6

> <Reference>
NTP416

> <MolWeight>
153.14

> <Formula>
C7H7NO3

> <SMILES>
COC1=C(C=CC=C1)[N+](=O)[O-]

> <TD50_Rat>
15.6

> <TD50_Mouse>
178

> <Canc>
3

> <SAL>
3

> <Rat_Male_Canc>
3

> <Rat_Female_Canc>
3

> <Mouse_Male_Canc>
3

> <Mouse_Female_Canc>
3

> <Rat_Male_NTP>
CE

> <Rat_Female_NTP>
CE

> <Mouse_Male_NTP>
CE

> <Mouse_Female_NTP>
SE

> <Status>
Carcinogen

> <New_Data>
true

> <iscarc>
1

$$$$
Acetaminophen
  SciTegic06161615502D

 11 11  0  0  0  0            999 V2000
    1.9904   -1.1410    0.0000 C   0  0
    3.3216   -1.1410    0.0000 C   0  0
    3.3216   -3.4483    0.0000 C   0  0
    1.9904   -3.4483    0.0000 C   0  0
    3.9808   -2.2947    0.0000 C   0  0
    1.3312   -2.2947    0.0000 C   0  0
    0.0000   -2.2947    0.0000 O   0  0
    5.3120   -2.2947    0.0000 N   0  0
    5.9839   -1.1410    0.0000 C   0  0
    5.3120    0.0000    0.0000 O   0  0
    7.3150   -1.1410    0.0000 C   0  0
  1  2  2  0
  1  6  1  0
  2  5  1  0
  3  4  1  0
  3  5  2  0
  4  6  2  0
  5  8  1  0
  6  7  1  0
  8  9  1  0
  9 10  2  0
  9 11  1  0
M  END
> <Name>
Acetaminophen

> <Substance ID>
324

> <Synonyms>
4-Acetamidophenol; p-Acetaminophenol; Apap; Arthralgen; Bancap; Ben-u-ron; Dial-a-gesic; Bickie-mol; Dirox; Disprol; Calpol; Calpol infant; Capital; Cetadol; clixodyne; Dafalgan; Darvocet-n; datril; D
oliprane; Dolprone; Dristan; Dularin; Dymadon; Elixodyne; Enelfa; Eneril; Exdol; Febrilix; febro-gesic; febrolin; fendon; Finimal; G 1; Gelocatil; Hedex; Homoolan; janupap; Korum; lestemp; Liqiprine;
liquagesic; Liquiprin; lonarid; Lyteca; lyteca syrup; Momentum; multin; N-(4-Hydroxyphenyl)acetamide; N-Acetyl-4-aminophenol; NAPA; napafen; Napap; Naprinol; Nobedon; Pacemo; Paldesic; Panadol; Panale
ve; Panets; Panex; Panofen; Parmol; pedric; Percogesic; Phenaphen; phendon; Proxyphene/Acetamine; pyrinazine; Salzone; Sinutab; sk-apap; Tabalgin; Tapar; Temlo; tempanal; Tempra; Tralgon; tussapap; Ty
lenol; Valadol; Valgesic; p-Acetylaminophenol; paracetamol; p-Hydroxyacetanilide; 4'-Hydroxyacetanilide; Parapan; Paraspen; Abensanil; Acamol; Acetagesic; Acetalgin; Acetaminofen; algotropyl; Alpiny;
alpinyl; alvedon; Amadil; Anacin-3; Anaflon; anelix; Anhiba; Anuphen; apadon; Apamide.

> <CAS>
103-90-2

> <Reference>
NTP394

> <MolWeight>
151.16

> <Formula>
C8H9NO2

> <SMILES>
C1(=CC=C(C=C1)O)NC(C)=O

> <TD50_Rat>
NP

> <TD50_Mouse>
NP

> <Canc>
2

> <SAL>
1

> <Rat_Male_Canc>
1

> <Rat_Female_Canc>
2

> <Mouse_Male_Canc>
1

> <Mouse_Female_Canc>
1

> <Rat_Male_NTP>
NE

> <Rat_Female_NTP>
EE

> <Mouse_Male_NTP>
NE

> <Mouse_Female_NTP>
NE

> <Status>
Carcinogen

> <CanonicalTautomer>
Yes

> <NumberOfTautomers>
2

> <New_Data>
true

> <iscarc>
1

$$$$
Chlorinated paraffins (C23, 43% Chlorine)
  SciTegic06161615502D

  0  0  0  0  0  0            999 V2000
M  END
> <Name>
Chlorinated paraffins (C23, 43% Chlorine)

> <Substance ID>
419

> <Synonyms>
Paraffin waxes and hydrocarbon waxes, chlorinated (C23, 43% chlorine); alkanes, C22-26, chloro; chloro C22-26 alkanes.

> <CAS>
108171-27-3

> <Reference>
NTP305

> <MolWeight>
Unspecified

> <SMILES>
Unspecified

> <TD50_Rat>
ND

> <TD50_Mouse>
6540

> <Canc>
3

> <SAL>
1

> <Rat_Male_Canc>
1

> <Rat_Female_Canc>
2

> <Mouse_Male_Canc>
3

> <Mouse_Female_Canc>
2

> <Rat_Male_NTP>
NE

> <Rat_Female_NTP>
EE

> <Mouse_Male_NTP>
CE

> <Mouse_Female_NTP>
EE

> <Status>
Carcinogen

> <New_Data>
true

> <iscarc>
1

$$$$
Mirex
  SciTegic06161615503D

 22 26  0  0  0  0            999 V2000
   -0.0190    1.5468    0.0105 C   0  0
    0.0021   -0.0041    0.0020 C   0  0
    1.4657    1.9813   -0.0013 C   0  0
   -0.0535    1.9538    1.5073 C   0  0
   -1.1505    2.3485   -1.1418 Cl  0  0
    1.4980   -0.3980   -0.0144 C   0  0
   -0.0212   -0.4282    1.4942 C   0  0
   -1.1074   -0.8234   -1.1592 Cl  0  0
    1.4654    1.5685    1.4879 C   0  0
    2.1907    0.8052   -0.7147 C   0  0
    1.9004    3.6695   -0.4616 Cl  0  0
   -0.8186    0.7486    2.1573 C   0  0
   -0.5522    3.6208    1.9795 Cl  0  0
    1.4867   -0.0017    1.4793 C   0  0
    1.9782   -2.0686   -0.4932 Cl  0  0
   -0.4574   -2.1181    1.9468 Cl  0  0
    2.5819    2.4165    2.6216 Cl  0  0
    1.8617    0.8105   -2.4875 Cl  0  0
    3.9626    0.8282   -0.3817 Cl  0  0
   -0.6388    0.7411    3.9513 Cl  0  0
   -2.5551    0.7286    1.6726 Cl  0  0
    2.6259   -0.8316    2.6037 Cl  0  0
  1  2  1  0
  1  3  1  0
  1  4  1  0
  1  5  1  0
  2  6  1  0
  2  7  1  0
  2  8  1  0
  3  9  1  0
  3 10  1  0
  3 11  1  0
  4 12  1  0
  4 13  1  0
  4  9  1  0
  6 14  1  0
  6 15  1  0
  6 10  1  0
  7 16  1  0
  7 12  1  0
  7 14  1  0
  9 17  1  0
  9 14  1  0
 10 18  1  0
 10 19  1  0
 12 20  1  0
 12 21  1  0
 14 22  1  0
M  END
> <Name>
Mirex

> <Substance ID>
482

> <Synonyms>
1,1a,2,2,3,3a,4,5,5,5a,5b,6-Dodecachloro-octahydro-1,3,4-metheno-1H-cyclobuta[cd]pentalene; 1,1a,2,2,3,3a,4,5,5a,5b,6-dodecachlorooctahydro-1,3,4-metheno-1H-cyclobuta(cd)pentalene; 1,2,3,4,5,5-Hexachl
oro-1,3-cyclopentadiene dimer; bichlorendo; cg-1283; Cyclopentadiene, 1,2,3,4,5,5-hexachloro-, dimer; Dechlorane; dechlorane 4070; Dechlorane Plus; dodecachlorooctahydro-1,3,4-metheno-1H-cyclobuta(cd)
pentalene; dodecachlorooctahydro-1,3,4-metheno-2H-cyclobuta(c,d)pentalene; dodecachloropentacyclodecane; ferriamicide; gc 1283; hexachlorocyclopentadiene dimer; Hexachloropentadiene dimer; hrs 1276; M
etheno-1H-cyclobuta(cd)pentalene, 1,1a,2,2,3,3a,4,5,5,5a,5b,6-dodecachlorooctahydro-; perchlorodihomocubane; perchloropentacyclodecane.

> <CAS>
2385-85-5

> <Reference>
NTP313 & CPDB

> <MolWeight>
545.55

> <Formula>
C10Cl12

> <SMILES>
ClC53C1(Cl)C4(Cl)C2(Cl)C1(Cl)C(Cl)(Cl)C5(Cl)C2(Cl)C3(Cl)C4(Cl)Cl

> <TD50_Rat>
1.77

> <TD50_Mouse>
1.45

> <Canc>
3

> <SAL>
1

> <Rat_Male_Canc>
3

> <Rat_Female_Canc>
3

> <Mouse_Male_Canc>
3

> <Mouse_Female_Canc>
3

> <Rat_Male_NTP>
CE

> <Rat_Female_NTP>
CE

> <Mouse_Male_NTP>
ND

> <Mouse_Female_NTP>
ND

> <Status>
Carcinogen

> <New_Data>
true

> <iscarc>
1

$$$$
Ochratoxin A
  SciTegic06161615502D

 28 30  0  0  1  0            999 V2000
    3.3217   -5.7603    0.0000 C   0  0
    3.9808   -6.9071    0.0000 C   0  0
    3.3217   -8.0671    0.0000 C   0  0
    1.9904   -8.0671    0.0000 C   0  0
    1.3181   -6.9071    0.0000 C   0  0
    1.9904   -5.7603    0.0000 C   0  0
    1.3181   -4.6135    0.0000 C   0  0
    1.9904   -3.4535    0.0000 C   0  0  1  0  0  0
    1.3181   -2.3068    0.0000 C   0  0
    3.3217   -3.4535    0.0000 N   0  0
    3.9808   -2.3068    0.0000 C   0  0
    5.3121   -2.3068    0.0000 C   0  0
    3.3217   -1.1600    0.0000 O   0  0
    5.9844   -1.1600    0.0000 C   0  0
    7.3025   -1.1600    0.0000 C   0  0
    5.9844   -3.4535    0.0000 C   0  0
    7.3025   -3.4535    0.0000 C   0  0
    7.9748   -2.3068    0.0000 C   0  0
    9.3061   -2.3068    0.0000 C   0  0
    9.9652   -3.4535    0.0000 C   0  0  1  0  0  0
    9.3061   -4.6135    0.0000 O   0  0
    7.9748   -4.6135    0.0000 C   0  0
   11.2965   -3.4535    0.0000 C   0  0
    7.3025   -5.7603    0.0000 O   0  0
    5.3121   -4.6135    0.0000 O   0  0
    7.9748    0.0000    0.0000 Cl  0  0
    1.9904   -1.1600    0.0000 O   0  0
    0.0000   -2.3068    0.0000 O   0  0
  1  2  2  0
  1  6  1  0
  2  3  1  0
  3  4  2  0
  4  5  1  0
  5  6  2  0
  6  7  1  0
  7  8  1  0
  8  9  1  6
  8 10  1  1
  9 27  1  0
  9 28  2  0
 10 11  1  0
 11 12  1  0
 11 13  2  0
 12 14  2  0
 12 16  1  0
 14 15  1  0
 15 18  2  0
 15 26  1  0
 16 17  2  0
 16 25  1  0
 17 18  1  0
 17 22  1  0
 18 19  1  0
 19 20  1  0
 20 21  1  0
 20 23  1  6
 21 22  1  0
 22 24  2  0
M  END
> <Name>
Ochratoxin A

> <Substance ID>
542

> <Synonyms>
N-(((3R)-5-chloro-8-hydroxy-3-methyl-1-oxo-7-isochromanyl)carbonyl)-3-phenyl-L-alanine; (-)-N-((5-chloro-8-hydroxy-3-methyl-1-oxo-7-isochromanyl)carbonyl)-3-phenylalanine.

> <CAS>
303-47-9

> <Reference>
NTP358 & CPDB

> <MolWeight>
403.82

> <Formula>
C20H18ClNO6

> <SMILES>
O=C(O)[C@@H](NC(=O)c1c(O)c2c(c(Cl)c1)C[C@H](OC2=O)C)Cc3ccccc3

> <TD50_Rat>
0.103

> <TD50_Mouse>
6.41

> <Canc>
3

> <SAL>
1

> <Rat_Male_Canc>
3

> <Rat_Female_Canc>
3

> <Mouse_Male_Canc>
3

> <Mouse_Female_Canc>
3

> <Rat_Male_NTP>
CE

> <Rat_Female_NTP>
CE

> <Mouse_Male_NTP>
ND

> <Mouse_Female_NTP>
ND

> <Status>
Carcinogen

> <CanonicalTautomer>
Yes

> <NumberOfTautomers>
3

> <New_Data>
true

> <iscarc>
1

$$$$
Isobutyraldehyde
  SciTegic06161615502D

  5  4  0  0  0  0            999 V2000
    0.6672   -1.1513    0.0000 C   0  0
    0.0000    0.0000    0.0000 C   0  0
    0.0000   -2.3026    0.0000 C   0  0
    2.0017   -1.1513    0.0000 C   0  0
    2.6559   -2.3026    0.0000 O   0  0
  1  2  1  0
  1  3  1  0
  1  4  1  0
  4  5  2  0
M  END
> <Name>
Isobutyraldehyde

> <Substance ID>
585

> <Synonyms>
2-methyl-1-propanal; 2-Methylpropanal; 2-Methylpropionaldehyde; alpha-methylpropionaldehyde; Butyric iso aldehyde; Isobutaldehyde; Isobutanal; isobutyric aldehyde; isobutyryl aldehyde; isobutyl aldehy
de; isopropyl aldehyde; isopropyl formaldehyde; Methyl Propanal.

> <CAS>
78-84-2

> <Reference>
NTP472

> <MolWeight>
72.11

> <Formula>
C4H8O

> <SMILES>
O=CC(C)C

> <TD50_Rat>
NP

> <TD50_Mouse>
NP

> <Canc>
1

> <SAL>
2

> <Rat_Male_Canc>
1

> <Rat_Female_Canc>
1

> <Mouse_Male_Canc>
1

> <Mouse_Female_Canc>
1

> <Rat_Male_NTP>
NE

> <Rat_Female_NTP>
NE

> <Mouse_Male_NTP>
NE

> <Mouse_Female_NTP>
NE

> <Status>
Non-Carcinogen

> <New_Data>
true

> <iscarc>
0

$$$$
Ethylbenzene
  SciTegic06161615502D

  8  8  0  0  0  0            999 V2000
    3.3292   -1.1519    0.0000 C   0  0
    3.9874   -2.3038    0.0000 C   0  0
    2.0000   -3.4558    0.0000 C   0  0
    1.3291   -2.3038    0.0000 C   0  0
    3.3292   -3.4558    0.0000 C   0  0
    2.0000   -1.1519    0.0000 C   0  0
    1.3291    0.0000    0.0000 C   0  0
    0.0000    0.0000    0.0000 C   0  0
  1  2  2  0
  1  6  1  0
  2  5  1  0
  3  4  1  0
  3  5  2  0
  4  6  2  0
  6  7  1  0
  7  8  1  0
M  END
> <Name>
Ethylbenzene

> <Substance ID>
586

> <Synonyms>
EB; Ethyl Benzene; ethylbenzol; Ethylenzene; phenylethane.

> <CAS>
100-41-4

> <Reference>
NTP466

> <MolWeight>
106.17

> <Formula>
C8H10

> <SMILES>
CCC1=CC=CC=C1

> <TD50_Rat>
4350

> <TD50_Mouse>
ND

> <Canc>
3

> <SAL>
1

> <Rat_Male_Canc>
3

> <Rat_Female_Canc>
3

> <Mouse_Male_Canc>
3

> <Mouse_Female_Canc>
3

> <Rat_Male_NTP>
CE

> <Rat_Female_NTP>
SE

> <Mouse_Male_NTP>
SE

> <Mouse_Female_NTP>
SE

> <Status>
Carcinogen

> <New_Data>
true

> <iscarc>
1

$$$$
Citral
  SciTegic06161615502D

 11 10  0  0  0  0            999 V2000
    8.0744   -0.6602    0.0000 C   0  0
    6.9191    0.0000    0.0000 C   0  0
    5.7638   -0.6602    0.0000 C   0  0
    4.6085    0.0000    0.0000 C   0  0
    3.4532   -0.6602    0.0000 C   0  0
    2.2979    0.0000    0.0000 C   0  0
    1.1426   -0.6602    0.0000 C   0  0
    0.0000    0.0000    0.0000 C   0  0
    1.1426   -1.9932    0.0000 C   0  0
    9.2297    0.0000    0.0000 O   0  0
    5.7638   -1.9932    0.0000 C   0  0
  1  2  1  0
  1 10  2  0
  2  3  2  0
  3  4  1  0
  3 11  1  0
  4  5  1  0
  5  6  1  0
  6  7  2  0
  7  8  1  0
  7  9  1  0
M  END
> <Name>
Citral

> <Substance ID>
588

> <Synonyms>
3,7-Dimethyl-2,6-octadienal; cis-3,7-Dimethyl-2,6-octadienal; cis-Citral; cis/trans-3,7-Dimethyl-2,6-octadienal; Citral A; citral-b; Citral, mixture of cis and trans; CITRAL NATURAL; CITRAL SINTETICO;
 geranal; Geranial; geranialdehyde; Lemarome n; Neral; trans-3,7-Dimethyl-2,6-octadienal.

> <CAS>
5392-40-5

> <Reference>
NTP505

> <MolWeight>
152.24

> <Formula>
C10H16O

> <SMILES>
O=C/C=C(/CC/C=C(/C)C)C

> <TD50_Rat>
NP

> <TD50_Mouse>
NP

> <Canc>
2

> <SAL>
1

> <Rat_Male_Canc>
1

> <Rat_Female_Canc>
1

> <Mouse_Male_Canc>
1

> <Mouse_Female_Canc>
2

> <Rat_Male_NTP>
NE

> <Rat_Female_NTP>
NE

> <Mouse_Male_NTP>
NE

> <Mouse_Female_NTP>
EE

> <Status>
Non-Carcinogen

> <New_Data>
true

> <iscarc>
0

$$$$
9,10-Anthraquinone
  SciTegic06161615502D

 16 18  0  0  0  0            999 V2000
    0.0000   -1.1522    0.0000 C   0  0
    0.6711    0.0000    0.0000 C   0  0
    2.0006    0.0000    0.0000 C   0  0
    0.6711   -2.3045    0.0000 C   0  0
    2.0006   -2.3045    0.0000 C   0  0
    2.6590   -1.1522    0.0000 C   0  0
    3.9885   -1.1522    0.0000 C   0  0
    2.6590   -3.4567    0.0000 C   0  0
    3.9885   -3.4567    0.0000 C   0  0
    4.6596   -2.3045    0.0000 C   0  0
    6.6475   -3.4567    0.0000 C   0  0
    5.9891   -4.6089    0.0000 C   0  0
    5.9891   -2.3045    0.0000 C   0  0
    4.6596   -4.6089    0.0000 C   0  0
    2.0006   -4.6089    0.0000 O   0  0
    4.6596    0.0000    0.0000 O   0  0
  1  2  2  0
  1  4  1  0
  2  3  1  0
  3  6  2  0
  4  5  2  0
  5  6  1  0
  5  8  1  0
  6  7  1  0
  7 10  1  0
  7 16  2  0
  8  9  1  0
  8 15  2  0
  9 10  2  0
  9 14  1  0
 10 13  1  0
 11 12  1  0
 11 13  2  0
 12 14  2  0
M  END
> <Name>
9,10-Anthraquinone

> <Substance ID>
589

> <Synonyms>
9,10-Anthracenedione; 9,10-dihydro-9,10-dioxoanthracene; 9,10-Dioxoanthracene; anthradione; Anthracenedione; Anthracenequinone; Anthrapel; Anthraquinone; corbit; hoelite; morkit.

> <CAS>
84-65-1

> <Reference>
NTP494

> <MolWeight>
208.22

> <Formula>
C14H8O2

> <SMILES>
O=C1C2=C(C=CC=C2)C(=O)C3=C1C=CC=C3

> <TD50_Rat>
ND

> <TD50_Mouse>
ND

> <Canc>
3

> <SAL>
3

> <Rat_Male_Canc>
3

> <Rat_Female_Canc>
3

> <Mouse_Male_Canc>
3

> <Mouse_Female_Canc>
3

> <Rat_Male_NTP>
SE

> <Rat_Female_NTP>
CE

> <Mouse_Male_NTP>
CE

> <Mouse_Female_NTP>
CE

> <Status>
Carcinogen

> <New_Data>
true

> <iscarc>
1

$$$$
trans-Cinnamaldehyde
  SciTegic06161615502D

 10 10  0  0  0  0            999 V2000
    0.0000   -2.3084    0.0000 C   0  0
    0.6722   -1.1542    0.0000 C   0  0
    2.6635   -2.3084    0.0000 C   0  0
    2.0040   -3.4499    0.0000 C   0  0
    2.0040   -1.1542    0.0000 C   0  0
    0.6722   -3.4499    0.0000 C   0  0
    3.9952   -2.3084    0.0000 C   0  0
    4.6674   -1.1542    0.0000 C   0  0
    5.9992   -1.1542    0.0000 C   0  0
    6.6587    0.0000    0.0000 O   0  0
  1  2  2  0
  1  6  1  0
  2  5  1  0
  3  4  1  0
  3  5  2  0
  3  7  1  0
  4  6  2  0
  7  8  2  0
  8  9  1  0
  9 10  2  0
M  END
> <Name>
trans-Cinnamaldehyde

> <Substance ID>
590

> <Synonyms>
2-propenal,3-phenyl-,(E)-; (E)-3-phenylprop-2-enal; (E)-3-phenylpropenal; (E)-cinnamaldehyde; trans-3-phenyl-2-propenal; trans-Cinnamic Aldehyde; trans-cinnamylaldehyde.

> <CAS>
14371-10-9

> <Reference>
NTP514

> <MolWeight>
132.16

> <Formula>
C9H8O

> <SMILES>
O=CC=Cc(cccc1)c1

> <TD50_Rat>
NP

> <TD50_Mouse>
NP

> <Canc>
1

> <SAL>
1

> <Rat_Male_Canc>
1

> <Rat_Female_Canc>
1

> <Mouse_Male_Canc>
1

> <Mouse_Female_Canc>
1

> <Rat_Male_NTP>
NE

> <Rat_Female_NTP>
NE

> <Mouse_Male_NTP>
NE

> <Mouse_Female_NTP>
NE

> <Status>
Non-Carcinogen

> <New_Data>
true

> <iscarc>
0

$$$$
Primaclone
  SciTegic06161615502D

 16 17  0  0  0  0            999 V2000
    1.9879   -4.9569    0.0000 N   0  0
    0.6626   -4.9569    0.0000 C   0  0
    0.0000   -3.8101    0.0000 N   0  0
    0.6626   -2.6632    0.0000 C   0  0
    1.9879   -2.6632    0.0000 C   0  0
    2.6632   -3.8101    0.0000 C   0  0
    3.1475   -1.9879    0.0000 C   0  0
    1.9879   -1.3252    0.0000 C   0  0
    3.1475   -0.6626    0.0000 C   0  0
    4.2943    0.0000    0.0000 C   0  0
    5.4539   -0.6626    0.0000 C   0  0
    5.4539   -1.9879    0.0000 C   0  0
    4.2943   -2.6632    0.0000 C   0  0
    0.8410   -0.6626    0.0000 C   0  0
    3.9885   -3.8101    0.0000 O   0  0
    0.0000   -1.5036    0.0000 O   0  0
  1  2  1  0
  1  6  1  0
  2  3  1  0
  3  4  1  0
  4  5  1  0
  4 16  2  0
  5  6  1  0
  5  7  1  0
  5  8  1  0
  6 15  2  0
  7  9  2  0
  7 13  1  0
  8 14  1  0
  9 10  1  0
 10 11  2  0
 11 12  1  0
 12 13  2  0
M  END
> <Name>
Primaclone

> <Substance ID>
591

> <Synonyms>
2-deoxyphenobarbital; 5-ethyldihydro-5-phenyl-4,6(1H,5H)-pyrimidinedione; primacione; primacone; primakton; Primidone; primoline; prysoline; pyrimidone medi-pets; resimatil; roe 101; sertan; 5-ethylhe
xahydro-4,6-dioxo-5-phenylpyrimidine; 5-ethylhexahydro-5-phenylpyrimidine-4,6-dione; 5-Phenyl-5-ethyl-Hexahydropyrimidine-4,6-Dione; Cyral; desoxyphenobarbitone; hexadiona; hexamidine; hexamidine (the
 antispasmodic); lepimidin; lepsiral; liskantin; majsolin; midone; milepsin; misodine; misolyne; mizodin; mizolin; Myidone; mylepsin; mylepsinum; mysedon; Mysoline; prilepsin.

> <CAS>
125-33-7

> <Reference>
NTP476

> <MolWeight>
218.26

> <Formula>
C12H14N2O2

> <SMILES>
CCC1(C(=O)NCNC1(=O))c2ccccc2

> <TD50_Rat>
NP

> <TD50_Mouse>
ND

> <Canc>
3

> <SAL>
3

> <Rat_Male_Canc>
2

> <Rat_Female_Canc>
1

> <Mouse_Male_Canc>
3

> <Mouse_Female_Canc>
3

> <Rat_Male_NTP>
EE

> <Rat_Female_NTP>
NE

> <Mouse_Male_NTP>
CE

> <Mouse_Female_NTP>
CE

> <Status>
Non-Carcinogen

> <New_Data>
true

> <iscarc>
0

$$$$
Methyleugenol
  SciTegic06161615502D

 13 13  0  0  0  0            999 V2000
    3.4468   -4.6507    0.0000 C   0  0
    2.2936   -3.9917    0.0000 C   0  0
    4.6000   -3.9917    0.0000 C   0  0
    3.4468   -5.9812    0.0000 O   0  0
    2.2936   -2.6611    0.0000 C   0  0
    1.1532   -4.6507    0.0000 O   0  0
    4.6000   -2.6611    0.0000 C   0  0
    4.6000   -6.6528    0.0000 C   0  0
    3.4468   -1.9895    0.0000 C   0  0
    0.0000   -3.9917    0.0000 C   0  0
    5.7531   -1.9895    0.0000 C   0  0
    5.7531   -0.6589    0.0000 C   0  0
    6.9063    0.0000    0.0000 C   0  0
  1  2  2  0
  1  3  1  0
  1  4  1  0
  2  5  1  0
  2  6  1  0
  3  7  2  0
  4  8  1  0
  5  9  2  0
  6 10  1  0
  7 11  1  0
  7  9  1  0
 11 12  1  0
 12 13  2  0
M  END
> <Name>
Methyleugenol

> <Substance ID>
592

> <Synonyms>
1,2-Dimethoxy-4-(2-propenyl)benzene; 1,2-dimethoxy-4-allylbenzene; 1-(3,4-dimethoxyphenyl)-2-propene; 1,3,4-eugenol methyl ether; 1-allyl-3,4-dimethoxybenzene; 2-Methoxy-4-propenylphenol methyl ether;
 o-methyl eugenol ether; 3,4-Dimethoxyallyl benzene; 4-Allyl-1,2-dimethoxybenzene; 4-allylveratrole; Allyl veratrole; Dimethoxy-4-(2-propenyl)benzene; eugenol methyl ether; eugenyl methyl ether; Methy
l eugenyl ether; veratrole methyl ether.

> <CAS>
93-15-2

> <Reference>
NTP491

> <MolWeight>
178.23

> <Formula>
C11H14O2

> <SMILES>
O(c(c(OC)cc(c1)CC=C)c1)C

> <TD50_Rat>
ND

> <TD50_Mouse>
ND

> <Canc>
3

> <SAL>
1

> <Rat_Male_Canc>
3

> <Rat_Female_Canc>
3

> <Mouse_Male_Canc>
3

> <Mouse_Female_Canc>
3

> <Rat_Male_NTP>
CE

> <Rat_Female_NTP>
CE

> <Mouse_Male_NTP>
CE

> <Mouse_Female_NTP>
CE

> <Status>
Carcinogen

> <New_Data>
true

> <iscarc>
1

$$$$
Furfuryl alcohol
  SciTegic06161615502D

  7  7  0  0  0  0            999 V2000
    1.9646   -0.2788    0.0000 O   0  0
    2.1040   -1.5970    0.0000 C   0  0
    0.8872   -2.1420    0.0000 C   0  0
    0.0000   -1.1534    0.0000 C   0  0
    0.6718    0.0000    0.0000 C   0  0
    3.2574   -2.2688    0.0000 C   0  0
    3.2574   -3.5996    0.0000 O   0  0
  1  2  1  0
  1  5  1  0
  2  3  2  0
  2  6  1  0
  3  4  1  0
  4  5  2  0
  6  7  1  0
M  END
> <Name>
Furfuryl alcohol

> <Substance ID>
593

> <Synonyms>
2-furancarbinol; 2-furanmethanol; 2-Furylcarbinol; 2-Furylmethanol; 2-hydroxymethylfuran; alpha-furylcarbinol; FA; furfuralcohol.

> <CAS>
98-00-0

> <Reference>
NTP482

> <MolWeight>
98.1

> <Formula>
C5H6O2

> <SMILES>
c1c(CO)occ1

> <TD50_Rat>
ND

> <TD50_Mouse>
ND

> <Canc>
3

> <SAL>
1

> <Rat_Male_Canc>
3

> <Rat_Female_Canc>
2

> <Mouse_Male_Canc>
3

> <Mouse_Female_Canc>
1

> <Rat_Male_NTP>
SE

> <Rat_Female_NTP>
EE

> <Mouse_Male_NTP>
SE

> <Mouse_Female_NTP>
NE

> <Status>
Carcinogen

> <New_Data>
true

> <iscarc>
1

$$$$
Emodin
  SciTegic06161615502D

 20 22  0  0  0  0            999 V2000
    0.0000   -2.3037    0.0000 C   0  0
    0.6709   -1.1519    0.0000 C   0  0
    1.9999   -1.1519    0.0000 C   0  0
    0.6709   -3.4556    0.0000 C   0  0
    1.9999   -3.4556    0.0000 C   0  0
    2.6581   -2.3037    0.0000 C   0  0
    3.9872   -2.3037    0.0000 C   0  0
    2.6581   -4.6074    0.0000 C   0  0
    3.9872   -4.6074    0.0000 C   0  0
    4.6580   -3.4556    0.0000 C   0  0
    6.6453   -4.6074    0.0000 C   0  0
    5.9871   -5.7593    0.0000 C   0  0
    5.9871   -3.4556    0.0000 C   0  0
    4.6580   -5.7593    0.0000 C   0  0
    0.0000    0.0000    0.0000 C   0  0
    0.0000   -4.6074    0.0000 O   0  0
    3.9872   -6.9111    0.0000 O   0  0
    7.9743   -4.6074    0.0000 O   0  0
    1.9999   -5.7593    0.0000 O   0  0
    4.6580   -1.1519    0.0000 O   0  0
  1  2  2  0
  1  4  1  0
  2  3  1  0
  2 15  1  0
  3  6  2  0
  4  5  2  0
  4 16  1  0
  5  6  1  0
  5  8  1  0
  6  7  1  0
  7 10  1  0
  7 20  2  0
  8  9  1  0
  8 19  2  0
  9 10  2  0
  9 14  1  0
 10 13  1  0
 11 12  1  0
 11 13  2  0
 11 18  1  0
 12 14  2  0
 14 17  1  0
M  END
> <Name>
Emodin

> <Substance ID>
595

> <Synonyms>
1,3,8-Trihydroxy-6-methylanthraquinone; 6-methyl-1,3,8-trihydroxyanthraquinone; 9,10-anthracenedione, 1,3,8-trihydroxy-6-methyl-; C.I. 75440; C.I. natural yellow 14; emodol; frangula emodin; persian b
erry lake; rheum emodium; schuttgelb.

> <CAS>
518-82-1

> <Reference>
NTP493

> <MolWeight>
270.24

> <Formula>
C15H10O5

> <SMILES>
Cc3cc(O)c2C(=O)c1c(O)cc(O)cc1C(=O)c2c3

> <TD50_Rat>
NP

> <TD50_Mouse>
NP

> <Canc>
2

> <SAL>
3

> <Rat_Male_Canc>
1

> <Rat_Female_Canc>
2

> <Mouse_Male_Canc>
2

> <Mouse_Female_Canc>
1

> <Rat_Male_NTP>
NE

> <Rat_Female_NTP>
EE

> <Mouse_Male_NTP>
EE

> <Mouse_Female_NTP>
NE

> <Status>
Carcinogen

> <CanonicalTautomer>
Yes

> <NumberOfTautomers>
4

> <New_Data>
true

> <iscarc>
1

$$$$
Ethylene glycol mono butyl ether
  SciTegic06161615502D

  8  7  0  0  0  0            999 V2000
    8.0833    0.0000    0.0000 C   0  0
    6.9286   -0.6599    0.0000 C   0  0
    5.7738    0.0000    0.0000 C   0  0
    4.6191   -0.6599    0.0000 C   0  0
    3.4643    0.0000    0.0000 O   0  0
    2.3095   -0.6599    0.0000 C   0  0
    1.1548    0.0000    0.0000 C   0  0
    0.0000   -0.6599    0.0000 O   0  0
  1  2  1  0
  2  3  1  0
  3  4  1  0
  4  5  1  0
  5  6  1  0
  6  7  1  0
  7  8  1  0
M  END
> <Name>
Ethylene glycol mono butyl ether

> <Substance ID>
596

> <Synonyms>
2-butoxy-1-ethanol; 2-Butoxy ethanol; monobutyl ether of ethylene glycol; monobutyl glycol ether; n-butoxyethanol; n-Butyl Cellosolve; poly-solv eb; 2-BUTOXY ETHANOL (ETHYLENE GLYCOL MONOBUTYL ETHER);
 o-butyl ethylene glycol; 2-n-Butoxy-1-ethanol; 2-n-Butoxyethanol; 3-oxa-1-heptanol; Beta-butoxyethanol; BUCS; butoxyethanol; Butyl cellosolve; butyl glycol; Butyl oxitol; Dowanol EB; Ektasolve EB; Ek
tasolve EB solvent; Ethylene glycol butyl ether; Ethylene glycol monobutyl ether (EGBE)(2-Butoxyet); Ethylene Glycol Mono-n-butyl Ether; Ethylene glycol n-butyl ether; gafcol eb; glycol butyl ether; g
lycol ether eb; glycol ether eb acetate; Jeffersol EB.

> <CAS>
111-76-2

> <Reference>
NTP484

> <MolWeight>
118.18

> <Formula>
C6H14O2

> <SMILES>
O(CCCC)CCO

> <TD50_Rat>
NP

> <TD50_Mouse>
ND

> <Canc>
3

> <SAL>
1

> <Rat_Male_Canc>
1

> <Rat_Female_Canc>
2

> <Mouse_Male_Canc>
3

> <Mouse_Female_Canc>
3

> <Rat_Male_NTP>
NE

> <Rat_Female_NTP>
EE

> <Mouse_Male_NTP>
SE

> <Mouse_Female_NTP>
SE

> <Status>
Carcinogen

> <New_Data>
true

> <iscarc>
1

$$$$
Isobutene
  SciTegic06161615502D

  4  3  0  0  0  0            999 V2000
    0.0000   -1.9974    0.0000 C   0  0
    1.1504   -1.3274    0.0000 C   0  0
    2.3008   -1.9974    0.0000 C   0  0
    1.1504    0.0000    0.0000 C   0  0
  1  2  1  0
  2  3  2  0
  2  4  1  0
M  END
> <Name>
Isobutene

> <Substance ID>
597

> <Synonyms>
1,1-dimethylethylene; 2-methyl-1-propene; 2-methylpropene; 2-methylpropylene; isobutylene; isobutylene, various grades; isopropylidenemethylene; Methylpropene; unsym. dimethylethylene; gamma-butylene.

> <CAS>
115-11-7

> <Reference>
NTP487

> <MolWeight>
56.11

> <Formula>
C4H8

> <SMILES>
C(=C)(C)C

> <TD50_Rat>
ND

> <TD50_Mouse>
NP

> <Canc>
3

> <SAL>
1

> <Rat_Male_Canc>
3

> <Rat_Female_Canc>
1

> <Mouse_Male_Canc>
1

> <Mouse_Female_Canc>
1

> <Rat_Male_NTP>
SE

> <Rat_Female_NTP>
NE

> <Mouse_Male_NTP>
NE

> <Mouse_Female_NTP>
NE

> <Status>
Non-Carcinogen

> <New_Data>
true

> <iscarc>
0

$$$$
1-Chloro-2-propanol
  SciTegic06161615502D

  5  4  0  0  0  0            999 V2000
    1.1475   -1.9950    0.0000 C   0  0
    2.3080   -1.3300    0.0000 C   0  0
    3.4554   -1.9950    0.0000 C   0  0
    2.3080    0.0000    0.0000 O   0  0
    0.0000   -1.3300    0.0000 Cl  0  0
  1  2  1  0
  1  5  1  0
  2  3  1  0
  2  4  1  0
M  END
> <Name>
1-Chloro-2-propanol

> <Substance ID>
598

> <Synonyms>
1-chloro-2-hydroxypropane; 1-Chloro-2-propanol, remainder 2-chloro-1-propanol; 1-chloroisopropyl alcohol; alpha-propylene chlorohydrin; propylene chlorohydrin; sec-propylene chlorohydrin.

> <CAS>
127-00-4

> <Reference>
NTP477

> <MolWeight>
94.54

> <Formula>
C3H7ClO

> <SMILES>
OC(CCl)C

> <TD50_Rat>
NP

> <TD50_Mouse>
NP

> <Canc>
1

> <SAL>
3

> <Rat_Male_Canc>
1

> <Rat_Female_Canc>
1

> <Mouse_Male_Canc>
1

> <Mouse_Female_Canc>
1

> <Rat_Male_NTP>
NE

> <Rat_Female_NTP>
NE

> <Mouse_Male_NTP>
NE

> <Mouse_Female_NTP>
NE

> <Status>
Non-Carcinogen

> <New_Data>
true

> <iscarc>
0

$$$$
Pyridine
  SciTegic06161615502D

  6  6  0  0  0  0            999 V2000
    1.1522   -2.6590    0.0000 C   0  0
    0.0000   -1.9879    0.0000 C   0  0
    1.1522    0.0000    0.0000 C   0  0
    2.3045   -0.6584    0.0000 C   0  0
    0.0000   -0.6584    0.0000 N   0  0
    2.3045   -1.9879    0.0000 C   0  0
  1  2  2  0
  1  6  1  0
  2  5  1  0
  3  4  1  0
  3  5  2  0
  4  6  2  0
M  END
> <Name>
Pyridine

> <Substance ID>
599

> <Synonyms>
Azabenzene; Azine; Pyr.

> <CAS>
110-86-1

> <Reference>
NTP470

> <MolWeight>
79.1

> <Formula>
C5H5N

> <SMILES>
n(cccc1)c1

> <TD50_Rat>
ND

> <TD50_Mouse>
ND

> <Canc>
3

> <SAL>
1

> <Rat_Male_Canc>
3

> <Rat_Female_Canc>
2

> <Mouse_Male_Canc>
2

> <Mouse_Female_Canc>
3

> <Rat_Male_NTP>
SE

> <Rat_Female_NTP>
EE

> <Mouse_Male_NTP>
EE

> <Mouse_Female_NTP>
CE

> <Status>
Carcinogen

> <New_Data>
true

> <iscarc>
1

$$$$
Diethanolamine
  SciTegic06161615502D

  7  6  0  0  0  0            999 V2000
    0.6652   -3.4618    0.0000 N   0  0
    0.0000   -2.3079    0.0000 C   0  0
    0.6652   -1.1539    0.0000 C   0  0
    0.0000    0.0000    0.0000 O   0  0
    0.0000   -4.6022    0.0000 C   0  0
    0.6652   -5.7562    0.0000 C   0  0
    0.0000   -6.9101    0.0000 O   0  0
  1  2  1  0
  1  5  1  0
  2  3  1  0
  3  4  1  0
  5  6  1  0
  6  7  1  0
M  END
> <Name>
Diethanolamine

> <Substance ID>
600

> <Synonyms>
2,2'-Dihydroxydiethylamine; 2,2'-Iminobisethanol; Bis(2-hydroxyethyl)amine; Diethylolamine; Bis(hydroxyethyl)amine; Diolamine; DEA; iminodiethanol; N,N-Diethanolamine.

> <CAS>
111-42-2

> <Reference>
NTP478

> <MolWeight>
105.14

> <Formula>
C4H11NO2

> <SMILES>
OCCNCCO

> <TD50_Rat>
NP

> <TD50_Mouse>
ND

> <Canc>
3

> <SAL>
1

> <Rat_Male_Canc>
1

> <Rat_Female_Canc>
1

> <Mouse_Male_Canc>
3

> <Mouse_Female_Canc>
3

> <Rat_Male_NTP>
NE

> <Rat_Female_NTP>
NE

> <Mouse_Male_NTP>
CE

> <Mouse_Female_NTP>
CE

> <Status>
Non-Carcinogen

> <New_Data>
true

> <iscarc>
0

$$$$
Chloroprene
  SciTegic06161615502D

  5  4  0  0  0  0            999 V2000
    3.4627   -1.3318    0.0000 C   0  0
    2.3085   -1.9914    0.0000 C   0  0
    1.1542   -1.3318    0.0000 C   0  0
    0.0000   -1.9914    0.0000 C   0  0
    1.1542    0.0000    0.0000 Cl  0  0
  1  2  2  0
  2  3  1  0
  3  4  2  0
  3  5  1  0
M  END
> <Name>
Chloroprene

> <Substance ID>
601

> <Synonyms>
2-Chloro-1,3-butadiene; 2-chlorobuta-1,3-diene; 2-chlorobutadiene; 2-Chloroprene; alpha-Chloroprene; beta-chlorobutadiene; beta-Chloroprene; chlorobutadiene; Chloroprene (2-chloro-1,3-butadiene); CHLO
ROPRENE (NEOPRENE); Neoprene.

> <CAS>
126-99-8

> <Reference>
NTP467

> <MolWeight>
88.54

> <Formula>
C4H5Cl

> <SMILES>
C(C=C)(=C)Cl

> <TD50_Rat>
ND

> <TD50_Mouse>
ND

> <Canc>
3

> <SAL>
1

> <Rat_Male_Canc>
3

> <Rat_Female_Canc>
3

> <Mouse_Male_Canc>
3

> <Mouse_Female_Canc>
3

> <Rat_Male_NTP>
CE

> <Rat_Female_NTP>
CE

> <Mouse_Male_NTP>
CE

> <Mouse_Female_NTP>
CE

> <Status>
Carcinogen

> <New_Data>
true

> <iscarc>
1

$$$$
Rhodamine 6G
  SciTegic06161615503D

 33 36  0  0  0  0            999 V2000
    2.6216   -5.6999    0.3867 C   0  0
    1.8402   -4.6374    0.3867 C   0  0
    0.0000   -5.9907    0.3867 C   0  0
    0.7813   -7.0532    0.3867 C   0  0
    0.5295   -4.7828    0.3867 C   0  0
    2.0921   -6.9078    0.3867 C   0  0
    4.4047   -3.2073    0.0680 C   0  0
    6.9148   -3.4712    0.3950 C   0  0
    6.3240   -2.2551    0.3261 C   0  0
    5.0924   -2.1648    0.1393 C   0  0
    6.2550   -4.5268    0.3365 C   0  0
    4.8927   -4.4571    0.2335 C   0  0
    4.1989   -5.5249    0.2926 C   0  0
    6.9293   -5.6421    0.4023 O   0  0
    6.2428   -6.7316    0.3875 C   0  0
    5.0103   -6.7298    0.3653 C   0  0
    4.9040   -8.9983    0.3764 C   0  0
    6.2772   -9.0765    0.3863 C   0  0
    4.4499   -7.8970    0.3736 C   0  0
    6.9073   -7.9796    0.4074 C   0  0
    2.3697   -3.4295    0.3867 C   0  0
    1.5884   -2.3670    0.3867 O   0  0
    2.1178   -1.1591    0.3867 C   0  0
    1.3365   -0.0967    0.3867 C   0  0
    3.6805   -3.2841    0.3867 O   0  0
    3.8684  -10.0256    0.3519 C   0  0
    6.9661  -10.2126    0.3831 N   0  0
    6.3836  -11.4262    0.3885 C   0  0
    7.3017  -12.4820    0.3910 C   0  0
    6.9414   -1.2511    0.3823 N   0  0
    8.2429   -1.3165    0.5110 C   0  0
    8.7815    0.0000    0.3920 C   0  0
    4.5803   -0.8496    0.0000 C   0  0
  1  2  2  0
  1  6  1  0
  1 13  1  0
  2  5  1  0
  2 21  1  0
  3  4  1  0
  3  5  2  0
  4  6  2  0
  7 12  2  0
  7 10  1  0
  8 11  2  0
  8  9  1  0
  9 10  2  0
  9 30  1  0
 10 33  1  0
 11 12  1  0
 11 14  1  0
 12 13  1  0
 13 16  2  0
 14 15  1  0
 15 16  1  0
 15 20  2  0
 16 19  1  0
 17 18  1  0
 17 19  2  0
 17 26  1  0
 18 20  1  0
 18 27  2  0
 21 22  1  0
 21 25  2  0
 22 23  1  0
 23 24  1  0
 27 28  1  0
 28 29  1  0
 30 31  1  0
 31 32  1  0
M  END
> <Name>
Rhodamine 6G

> <Substance ID>
606

> <Synonyms>
basic red 1; Basic rhodamine yellow; calcozine red 6g; C.I. 45160; C.I. basic red 1; C.I. basic red 1, monohydrochloride; C.I. BASIC RED 1 (RHODAMINE); ethyl o-(6-(ethylamino)-3-(ethylimino)-2,7-dimet
hyl-3H-xanthen-9-yl)benzoate monohydrochloride; fanal pink gfk; rhodamine 4gh; rhodamine 6gb; rhodamine 6 gdn; rhodamine 6gex ethyl ester; rhodamine 6gx; rhodamine 6ZH; rhodamine f4g; rhodamine gdn; r
hodamine lake red 6g; rhodamine y 20-7425; rhodamine ZH; silosuper pink b; Xanthylium, 9-[2-(ethoxycarbonyl)phenyl]-3,6-bis(ethylamino)-2,7-dimethyl-, chloride.

> <CAS>
989-38-8

> <Reference>
NTP364

> <MolWeight>
442.56

> <Formula>
C28H30N2O3

> <SMILES>
CC1=CC2=C(C=C1NCC)OC3=C/C(=N/CC)\C(=C/C\3=C/2C4=CC=CC=C4C(=O)OCC)C

> <TD50_Rat>
NP

> <TD50_Mouse>
NP

> <Canc>
2

> <SAL>
1

> <Rat_Male_Canc>
2

> <Rat_Female_Canc>
2

> <Mouse_Male_Canc>
1

> <Mouse_Female_Canc>
1

> <Rat_Male_NTP>
EE

> <Rat_Female_NTP>
EE

> <Mouse_Male_NTP>
NE

> <Mouse_Female_NTP>
NE

> <Status>
Carcinogen

> <CanonicalTautomer>
Yes

> <NumberOfTautomers>
2

> <New_Data>
true

> <iscarc>
1

$$$$
Tetrahydrofuran
  SciTegic06161615502D

  5  5  0  0  0  0            999 V2000
    2.1542   -1.2704    0.0000 C   0  0
    1.0771   -2.0437    0.0000 C   0  0
    0.0000   -1.2704    0.0000 O   0  0
    0.4143    0.0000    0.0000 C   0  0
    1.7399    0.0000    0.0000 C   0  0
  1  2  1  0
  1  5  1  0
  2  3  1  0
  3  4  1  0
  4  5  1  0
M  END
> <Name>
Tetrahydrofuran

> <Substance ID>
611

> <Synonyms>
1,4-Epoxybutane; Butylene oxide; Cyclotetramethylene; Cyclotetramethylene oxide; Furanidine; Hydrofuran; oxacyclopentane; oxolane; tetramethylene oxide; THF.

> <CAS>
109-99-9

> <Reference>
NTP475

> <MolWeight>
72.11

> <Formula>
C4H8O

> <SMILES>
O(CCC1)C1

> <TD50_Rat>
ND

> <TD50_Mouse>
ND

> <Canc>
3

> <SAL>
1

> <Rat_Male_Canc>
3

> <Rat_Female_Canc>
1

> <Mouse_Male_Canc>
1

> <Mouse_Female_Canc>
3

> <Rat_Male_NTP>
SE

> <Rat_Female_NTP>
NE

> <Mouse_Male_NTP>
NE

> <Mouse_Female_NTP>
CE

> <Status>
Non-Carcinogen

> <New_Data>
true

> <iscarc>
0

$$$$
Pentaerythritol tetranitrate
  SciTegic06161615502D

 21 20  0  0  0  0            999 V2000
    5.9906   -2.8329    0.0000 O   0  0
    5.3149   -3.9894    0.0000 C   0  0
    3.9894   -3.9894    0.0000 C   0  0
    2.6639   -3.9894    0.0000 C   0  0
    2.0012   -5.1330    0.0000 O   0  0
    3.9894   -2.6510    0.0000 C   0  0
    3.9894   -5.3149    0.0000 C   0  0
    5.1460   -1.9882    0.0000 O   0  0
    5.1460   -5.9776    0.0000 O   0  0
    0.6627   -5.1330    0.0000 N   0  3
    7.3161   -2.8329    0.0000 N   0  3
    5.1460   -7.3031    0.0000 N   0  3
    5.1460   -0.6627    0.0000 N   0  3
    6.2895    0.0000    0.0000 O   0  5
    3.9894    0.0000    0.0000 O   0  0
    7.9788   -3.9894    0.0000 O   0  5
    7.9788   -1.6763    0.0000 O   0  0
    3.9894   -7.9788    0.0000 O   0  5
    6.2895   -7.9788    0.0000 O   0  0
    0.0000   -3.9894    0.0000 O   0  5
    0.0000   -6.2895    0.0000 O   0  0
  1  2  1  0
  1 11  1  0
  2  3  1  0
  3  4  1  0
  3  6  1  0
  3  7  1  0
  4  5  1  0
  5 10  1  0
  6  8  1  0
  7  9  1  0
  8 13  1  0
  9 12  1  0
 10 20  1  0
 10 21  2  0
 11 16  1  0
 11 17  2  0
 12 18  1  0
 12 19  2  0
 13 14  1  0
 13 15  2  0
M  CHG  8  10   1  11   1  12   1  13   1  14  -1  16  -1  18  -1  20  -1
M  END
> <Name>
Pentaerythritol tetranitrate

> <Substance ID>
617

> <Synonyms>
1,3-dinitrato-2,2-bis(nitratomethyl)propane; 1,3-Propanediol, 2,2-bis[(nitrooxy)methyl]-, dinitrate (ester); 2,2-bis(hydroxymethyl)-1,3-propanediol tetranitrate; angicap; antora; baritrate; CHOT; delt
rate-20; nitropentaerythrite; Nitropentaerythritol; Pentaerithrityl tetranitrate; Pentaerythrite tetranitrate; Penthrit; peridex-la; perityl; PETN; PETN, NF; quintrate; vasodiatol.

> <CAS>
78-11-5

> <Reference>
NTP365

> <MolWeight>
316.14

> <Formula>
C5H8N4O12

> <SMILES>
O(N(=O)=O)CC(CO(N(=O)=O))(CO(N(=O)=O))CO(N(=O)=O)

> <TD50_Rat>
NP

> <TD50_Mouse>
NP

> <Canc>
2

> <SAL>
1

> <Rat_Male_Canc>
2

> <Rat_Female_Canc>
2

> <Mouse_Male_Canc>
1

> <Mouse_Female_Canc>
1

> <Rat_Male_NTP>
EE

> <Rat_Female_NTP>
EE

> <Mouse_Male_NTP>
NE

> <Mouse_Female_NTP>
NE

> <Status>
Carcinogen

> <New_Data>
true

> <iscarc>
1

$$$$
Diphenhydramine Hydrochloride
  SciTegic06161615502D

 19 20  0  0  0  0            999 V2000
    3.9917   -5.7755    0.0000 C   0  0
    4.6642   -4.6204    0.0000 C   0  0
    6.6528   -5.7755    0.0000 C   0  0
    5.9948   -6.9159    0.0000 C   0  0
    5.9948   -4.6204    0.0000 C   0  0
    4.6642   -6.9159    0.0000 C   0  0
    2.0031   -9.2261    0.0000 C   0  0
    0.6580   -9.2261    0.0000 C   0  0
    0.6580   -6.9159    0.0000 C   0  0
    2.0031   -6.9159    0.0000 C   0  0
    0.0000   -8.0710    0.0000 C   0  0
    2.6611   -8.0710    0.0000 C   0  0
    2.6611   -5.7755    0.0000 C   0  0
    2.0031   -4.6204    0.0000 O   0  0
    2.6611   -3.4653    0.0000 C   0  0
    2.0031   -2.3102    0.0000 C   0  0
    2.6611   -1.1551    0.0000 N   0  0
    2.0031    0.0000    0.0000 C   0  0
    3.9917   -1.1551    0.0000 C   0  0
  1  2  2  0
  1  6  1  0
  1 13  1  0
  2  5  1  0
  3  4  1  0
  3  5  2  0
  4  6  2  0
  7  8  2  0
  7 12  1  0
  8 11  1  0
  9 10  1  0
  9 11  2  0
 10 12  2  0
 10 13  1  0
 13 14  1  0
 14 15  1  0
 15 16  1  0
 16 17  1  0
 17 18  1  0
 17 19  1  0
M  END
> <Name>
Diphenhydramine Hydrochloride

> <Substance ID>
618

> <Synonyms>
O-benzhydryldimethylaminoethanol hydrochloride; 2-benzhydryloxyethyl-N,N-dimethylammonium chloride; 2-(benzhydryloxy)-N,N-dimethylethylamine hydrochloride; 2-(diphenylmethoxy)-N,N-dimethylethanamine h
ydrochloride; 2-diphenylmethoxy-N,N-dimethylethylamine hydrochloride; alpha-(2-dimethylaminoethoxy)diphenylmethane hydrochloride; alpha-hydroxydiphenylmethane-beta-dimethylaminoethyl ether hydrochlori
de; Alledryl; allergan; Allergin; Allergina; allergival; Ambenyl; Amidryl; Bagodryl; BAX; beta-Dimethylaminoethanol diphenylmethyl ether hydrochloride; beta-dimethylaminoethyl benzhydryl ether hydroch
loride; BENA; Benadryl; benadryl hydrochloride; bendylate; benodin; Benocten; Benylan; Benylin; Benzantin; Benzehist; Benzhydramine; benzhydramine hydrochloride; Dibendrin; Dibondrin; difenhydramine h
ydrochloride; Dihidral; Dihydral; dimedrol; dimethylamine benzhydryl ester hydrochloride; Diphantine; diphenylhydramine hydrochloride; Dabylen; denydryl; Dolestan; eldadryl; Ethanamine, 2-(diphenylmet
hoxy)-N,N,dimethyl-, hydrochloride; Felben; Fenylhist; Halbmond; Histacyl; Hydryllin; N,N-dimethyl-2-(diphenylmethoxy)ethylamine hydrochloride; Noctomin; resmin; restamin; Rohydra; S 8; Secundal-D; Se
dopretten; Sekundal-D; sk-diphenhydramine; Syntedril; Valdrene; VENA; Wehydryl.

> <CAS>
147-24-0

> <Reference>
NTP355

> <MolWeight>
255.36

> <Formula>
C17H21NO

> <SMILES>
CN(C)CCOC(c1ccccc1)c2ccccc2

> <TD50_Rat>
NP

> <TD50_Mouse>
NP

> <Canc>
2

> <SAL>
1

> <Rat_Male_Canc>
2

> <Rat_Female_Canc>
2

> <Mouse_Male_Canc>
1

> <Mouse_Female_Canc>
1

> <Rat_Male_NTP>
EE

> <Rat_Female_NTP>
EE

> <Mouse_Male_NTP>
NE

> <Mouse_Female_NTP>
NE

> <Status>
Carcinogen

> <New_Data>
true

> <iscarc>
1

$$$$
Iodinated glycerol
  SciTegic06161615502D

 10 10  0  0  1  0            999 V2000
    2.9910   -0.3707    0.0000 O   0  0
    4.2180   -0.9075    0.0000 C   0  0
    4.0774   -2.2368    0.0000 C   0  0  2  0  0  0
    2.7737   -2.5052    0.0000 O   0  0
    2.1090   -1.3549    0.0000 C   0  0  2  0  0  0
    5.0616   -3.1188    0.0000 C   0  0
    6.3270   -2.7098    0.0000 O   0  0
    0.7797   -1.2143    0.0000 C   0  0
    0.2429    0.0000    0.0000 I   0  0
    0.0000   -2.2880    0.0000 C   0  0
  1  2  1  0
  1  5  1  0
  2  3  1  0
  3  4  1  0
  3  6  1  1
  4  5  1  0
  5  8  1  6
  6  7  1  0
  8  9  1  0
  8 10  1  0
M  END
> <Name>
Iodinated glycerol

> <Substance ID>
619

> <Synonyms>
2-(1-iodoethyl)-1,3-dioxolane-4-methanol; iodoglycerin; iodopropylidene glycerol; organidin.

> <CAS>
5634-39-9

> <Reference>
NTP340

> <MolWeight>
258.06

> <Formula>
C6H11IO3

> <SMILES>
IC([C@@H]1O[C@@H](CO)CO1)C

> <TD50_Rat>
101

> <TD50_Mouse>
138

> <Canc>
3

> <SAL>
3

> <Rat_Male_Canc>
3

> <Rat_Female_Canc>
1

> <Mouse_Male_Canc>
1

> <Mouse_Female_Canc>
3

> <Rat_Male_NTP>
SE

> <Rat_Female_NTP>
NE

> <Mouse_Male_NTP>
NE

> <Mouse_Female_NTP>
SE

> <Status>
Non-Carcinogen

> <New_Data>
true

> <iscarc>
0

$$$$
Dimethyl hydrogen phosphite
  SciTegic06161615502D

  6  5  0  0  0  0            999 V2000
    1.9868   -1.1643    0.0000 P   0  0  0  0  0  5
    3.3156   -1.1643    0.0000 O   0  0
    1.3288    0.0000    0.0000 O   0  0
    1.3288   -2.3158    0.0000 O   0  0
    0.0000    0.0000    0.0000 C   0  0
    0.0000   -2.3158    0.0000 C   0  0
  1  2  2  0
  1  3  1  0
  1  4  1  0
  3  5  1  0
  4  6  1  0
M  END
> <Name>
Dimethyl hydrogen phosphite

> <Substance ID>
620

> <Synonyms>
Dimethyl Phosphite; dimethyl phosphonate; DMHP.

> <CAS>
868-85-9

> <Reference>
NTP287

> <MolWeight>
110.05

> <Formula>
C2H7O3P

> <SMILES>
O=P(OC)OC

> <TD50_Rat>
139

> <TD50_Mouse>
NP

> <Canc>
3

> <SAL>
3

> <Rat_Male_Canc>
3

> <Rat_Female_Canc>
2

> <Mouse_Male_Canc>
1

> <Mouse_Female_Canc>
1

> <Rat_Male_NTP>
CE

> <Rat_Female_NTP>
EE

> <Mouse_Male_NTP>
NE

> <Mouse_Female_NTP>
NE

> <Status>
Carcinogen

> <New_Data>
true

> <iscarc>
1

$$$$
C.I. Acid Orange 3
  SciTegic06161615502D

 30 32  0  0  0  0            999 V2000
   10.3701   -2.6655    0.0000 C   0  0
    9.2277   -1.9928    0.0000 C   0  0
   10.3701    0.0000    0.0000 C   0  0
   11.5252   -0.6600    0.0000 C   0  0
    9.2277   -0.6600    0.0000 C   0  0
   11.5252   -1.9928    0.0000 C   0  0
    6.9176   -5.9910    0.0000 C   0  0
    6.9176   -4.6583    0.0000 C   0  0
    9.2277   -4.6583    0.0000 C   0  0
    9.2277   -5.9910    0.0000 C   0  0
    8.0727   -3.9856    0.0000 C   0  0
    8.0727   -6.6511    0.0000 C   0  0
    2.3101   -4.6583    0.0000 C   0  0
    3.4525   -3.9856    0.0000 C   0  0
    4.6075   -5.9910    0.0000 C   0  0
    3.4525   -6.6511    0.0000 C   0  0
    4.6075   -4.6583    0.0000 C   0  0
    2.3101   -5.9910    0.0000 C   0  0
    5.7626   -6.6511    0.0000 N   0  0
   10.3701   -3.9856    0.0000 N   0  0
   10.3701   -6.6511    0.0000 S   0  0
    9.7101   -7.8061    0.0000 O   0  0
   11.0428   -5.4960    0.0000 O   0  0
   11.5252   -7.3238    0.0000 O   0  5
    3.4525   -7.9838    0.0000 N   0  3
    1.1551   -3.9856    0.0000 N   0  3
    2.3101   -8.6439    0.0000 O   0  5
    4.6075   -8.6439    0.0000 O   0  0
    1.1551   -2.6655    0.0000 O   0  5
    0.0000   -4.6583    0.0000 O   0  0
  1  2  2  0
  1  6  1  0
  1 20  1  0
  2  5  1  0
  3  4  1  0
  3  5  2  0
  4  6  2  0
  7  8  2  0
  7 12  1  0
  7 19  1  0
  8 11  1  0
  9 10  1  0
  9 11  2  0
  9 20  1  0
 10 12  2  0
 10 21  1  0
 13 14  2  0
 13 18  1  0
 13 26  1  0
 14 17  1  0
 15 16  1  0
 15 17  2  0
 15 19  1  0
 16 18  2  0
 16 25  1  0
 21 22  2  0
 21 23  2  0
 21 24  1  0
 25 27  1  0
 25 28  2  0
 26 29  1  0
 26 30  2  0
M  CHG  5  24  -1  25   1  26   1  27  -1  29  -1
M  END
> <Name>
C.I. Acid Orange 3

> <Substance ID>
623

> <Synonyms>
5-((2,4-dinitrophenyl)amino)-2-(phenylamino)benzenesulfonic acid, monosodium salt; acid fast yellow ag; acid fast yellow E5R; acid leather light brown g; acid orange 3; acid orange no. 3; acid yellow
e; airedale yellow e; amido yellow e; amido yellow ea; amido yellow ea-cf; anthralan yellow rrt; C.I. 10385; C.I. Orange 3; derma yellow p; erio fast yellow ae; nylomine acid yellow b-rd; sodium-4-(2,
4-dinitroanilino)diphenylamine-2-sulfonate; superian yellow r; tectilon orange 3gt; tertracid light yellow 2R; vondacid fast yellow ae; xylene fast yellow es.

> <CAS>
6373-74-6

> <Reference>
NTP335

> <MolWeight>
452.39

> <Formula>
C18H13N4O7S

> <SMILES>
[Na+].[O-][N+](=O)c3ccc(Nc2ccc(Nc1ccccc1)c(c2)S([O-])(=O)=O)c(c3)[N+]([O-])=O

> <TD50_Rat>
1710

> <TD50_Mouse>
NP

> <Canc>
3

> <SAL>
3

> <Rat_Male_Canc>
1

> <Rat_Female_Canc>
3

> <Mouse_Male_Canc>
1

> <Mouse_Female_Canc>
1

> <Rat_Male_NTP>
NE

> <Rat_Female_NTP>
CE

> <Mouse_Male_NTP>
NE

> <Mouse_Female_NTP>
NE

> <Status>
Carcinogen

> <New_Data>
true

> <iscarc>
1

$$$$
HC Red no. 3
  SciTegic06161615502D

 14 14  0  0  0  0            999 V2000
    3.4571   -0.6585    0.0000 C   0  0
    4.6094    0.0000    0.0000 N   0  0
    5.7618   -0.6585    0.0000 C   0  0
    1.1524   -0.6585    0.0000 C   0  0
    1.1524   -1.9881    0.0000 C   0  0
    3.4571   -1.9881    0.0000 C   0  0
    2.3047   -2.6593    0.0000 C   0  0
    2.3047    0.0000    0.0000 C   0  0
    0.0000   -2.6593    0.0000 N   0  0
    6.9141    0.0000    0.0000 C   0  0
    8.0665   -0.6585    0.0000 O   0  0
    4.6094   -2.6593    0.0000 N   0  3
    4.6094   -3.9889    0.0000 O   0  5
    5.7618   -1.9881    0.0000 O   0  0
  1  2  1  0
  1  6  1  0
  1  8  2  0
  2  3  1  0
  3 10  1  0
  4  5  2  0
  4  8  1  0
  5  7  1  0
  5  9  1  0
  6  7  2  0
  6 12  1  0
 10 11  1  0
 12 13  1  0
 12 14  2  0
M  CHG  2  12   1  13  -1
M  END
> <Name>
HC Red no. 3

> <Substance ID>
624

> <Synonyms>
2-(4-amino-2-nitroanilino)-ethanol; 2-((4-Amino-2-nitrophenyl)amino)ethanol; hc red 3; N-(2-hydroxyethyl)-2-nitro-p-phenylenediamine.

> <CAS>
2871-01-4

> <Reference>
NTP281

> <MolWeight>
197.19

> <Formula>
C8H11N3O3

> <SMILES>
C1(=C(C=C(N)C=C1)[N+](=O)[O-])NCCO

> <TD50_Rat>
NP

> <TD50_Mouse>
NP

> <Canc>
2

> <SAL>
3

> <Rat_Male_Canc>
1

> <Rat_Female_Canc>
1

> <Mouse_Male_Canc>
2

> <Mouse_Female_Canc>
ND

> <Rat_Male_NTP>
NE

> <Rat_Female_NTP>
NE

> <Mouse_Male_NTP>
EE

> <Mouse_Female_NTP>
ND

> <Status>
Non-Carcinogen

> <New_Data>
true

> <iscarc>
0

$$$$
Tetrakis(hydroxymethyl)phosphonium sulfate
  SciTegic06161615502D

 18 16  0  0  0  0            999 V2000
   14.0607   -4.2560    0.0000 O   0  0
   13.4144   -3.1053    0.0000 C   0  0
   14.0607   -1.9704    0.0000 P   0  3
   15.2114   -2.6324    0.0000 C   0  0
   16.3463   -1.9704    0.0000 O   0  0
   14.7227   -0.8354    0.0000 C   0  0
   16.0469   -0.8354    0.0000 O   0  0
   12.9258   -1.3083    0.0000 C   0  0
   12.9258    0.0000    0.0000 O   0  0
    1.0561   -4.1142    0.0000 O   0  0
    0.4414   -3.0423    0.0000 C   0  0
    1.0561   -1.9862    0.0000 P   0  3
    2.1280   -2.6009    0.0000 C   0  0
    3.1999   -1.9862    0.0000 O   0  0
    1.6867   -0.9143    0.0000 C   0  0
    2.9162   -0.9143    0.0000 O   0  0
    0.0000   -1.3556    0.0000 C   0  0
    0.0000   -0.1261    0.0000 O   0  0
  1  2  1  0
  2  3  1  0
  3  4  1  0
  3  6  1  0
  3  8  1  0
  4  5  1  0
  6  7  1  0
  8  9  1  0
 10 11  1  0
 11 12  1  0
 12 13  1  0
 12 15  1  0
 12 17  1  0
 13 14  1  0
 15 16  1  0
 17 18  1  0
M  CHG  2   3   1  12   1
M  END
> <Name>
Tetrakis(hydroxymethyl)phosphonium sulfate

> <Substance ID>
626

> <Synonyms>
Octakis(hydroxymethyl)diphosphonium sulfate; pyroset tko; tetrakis(hydroxymethyl)phosphonium sulfate (2:1); THPS.

> <CAS>
55566-30-8

> <Reference>
NTP296

> <MolWeight>
406.31

> <Formula>
C8H24O12P2S

> <SMILES>
OC[P+](CO)(CO)CO.S(=O)(=O)([O-])[O-].OC[P+](CO)(CO)CO

> <TD50_Rat>
NP

> <TD50_Mouse>
NP

> <Canc>
1

> <SAL>
1

> <Rat_Male_Canc>
1

> <Rat_Female_Canc>
1

> <Mouse_Male_Canc>
1

> <Mouse_Female_Canc>
1

> <Rat_Male_NTP>
NE

> <Rat_Female_NTP>
NE

> <Mouse_Male_NTP>
NE

> <Mouse_Female_NTP>
NE

> <Status>
Non-Carcinogen

> <RemovedSalts>
SO4

> <New_Data>
true

> <iscarc>
0

$$$$
Bromoethane
  SciTegic06161615502D

  3  2  0  0  0  0            999 V2000
    0.0000   -0.6599    0.0000 C   0  0
    1.1548    0.0000    0.0000 C   0  0
    2.3095   -0.6599    0.0000 Br  0  0
  1  2  1  0
  2  3  1  0
M  END
> <Name>
Bromoethane

> <Substance ID>
627

> <Synonyms>
1-Bromoethane; bromic ether; Ethyl bromide; halon 2001; hydrobromic ether; Monobromoethane.

> <CAS>
74-96-4

> <Reference>
NTP363

> <MolWeight>
108.97

> <Formula>
C2H5Br

> <SMILES>
CCBr

> <TD50_Rat>
149

> <TD50_Mouse>
535

> <Canc>
3

> <SAL>
3

> <Rat_Male_Canc>
3

> <Rat_Female_Canc>
2

> <Mouse_Male_Canc>
2

> <Mouse_Female_Canc>
3

> <Rat_Male_NTP>
SE

> <Rat_Female_NTP>
EE

> <Mouse_Male_NTP>
EE

> <Mouse_Female_NTP>
CE

> <Status>
Carcinogen

> <New_Data>
true

> <iscarc>
1

$$$$
Penicillin VK
  SciTegic06161615502D

 24 26  0  0  1  0            999 V2000
    5.8277   -1.5345    0.0000 C   0  0
    5.8277   -2.8621    0.0000 C   0  0
    2.2242   -6.0864    0.0000 C   0  0
    0.9483   -6.4312    0.0000 C   0  0
    0.3448   -4.2070    0.0000 C   0  0
    1.6380   -3.8622    0.0000 C   0  0
    0.0000   -5.4829    0.0000 C   0  0
    2.5690   -4.7932    0.0000 C   0  0
    1.9828   -2.5690    0.0000 O   0  0
    3.2587   -2.2242    0.0000 C   0  0
    3.6035   -0.9483    0.0000 C   0  0
    4.8967   -0.6035    0.0000 N   0  0
    2.6725    0.0000    0.0000 O   0  0
    7.1554   -2.8621    0.0000 N   0  0
    7.1554   -1.5345    0.0000 C   0  0
    8.4313   -1.1207    0.0000 S   0  0
    9.2072   -2.2070    0.0000 C   0  0
    8.4313   -3.2760    0.0000 C   0  0  2  0  0  0
    4.8967   -3.8105    0.0000 O   0  0
   10.3624   -1.5345    0.0000 C   0  0
   10.3624   -2.8621    0.0000 C   0  0
    8.8451   -4.5519    0.0000 C   0  0
    7.9485   -5.5346    0.0000 O   0  5
   10.1382   -4.8277    0.0000 O   0  0
  1 15  1  0
  1  2  1  0
  1 12  1  0
  2 14  1  0
  2 19  2  0
  3  4  2  0
  3  8  1  0
  4  7  1  0
  5  6  1  0
  5  7  2  0
  6  8  2  0
  6  9  1  0
  9 10  1  0
 10 11  1  0
 11 12  1  0
 11 13  2  0
 14 15  1  0
 14 18  1  0
 15 16  1  0
 16 17  1  0
 17 18  1  0
 17 20  1  0
 17 21  1  0
 18 22  1  6
 22 23  1  0
 22 24  2  0
M  CHG  1  23  -1
M  END
> <Name>
Penicillin VK

> <Substance ID>
633

> <Synonyms>
3,3-dimethyl-7-oxo-6-(2-phenoxy-acetamido)-4-thia-1-azabicyclo[3.2.0]heptane-2-carboxylic acid monopotassium salt; 4-Thia-1-azabicyclo[3.2.0]heptane-2-carboxylic acid, 3,3-dimethyl-7-oxo-6-[(phenoxyac
etyl)amino]-, monopotassium salt, [2S-(2alpha,5alpha,6beta)]-; ospeneff; pedipen; penagen; pencompren; pen-vee-k; penvikal; Pen-v-k; pfizerpen vk; penicillin potassium phenoxymethyl; Penicillin V Pota
ssium; phenoxymethylpenicillin potassium; PVK; qidpen vk; robicillin vk; rocillin-vk; roscopenin; sk-penicillin vk; stabillin vk syrup 125; stabillin vk syrup 62.5; sumapen vk; suspen; uticillin vk; V
-CIL-K; v-cillin-k; veetids; Vepen; 4-thia-1-azobicyclo[3.2.0]heptane-2-carboxylic acid, 3,3-dimethyl-7-oxo-6-(2-phenoxy-acetamido)-, monopotassium salt; antibiocin; apsin vk; arcacil; arcasin; beromy
cin; beromycin 400; distakaps v-k; distaquaine v-k; betapen-vk; calciopen k; cliacil; compocillin-vk; D-alpha-phenoxymethylpencillinate k salt; dowpen v-k; DQV-K; fenoxypen; icipen; isocillin; ispenor
al; ledercillin vk; megacillin oral; oracil-vk; orapen.

> <CAS>
132-98-9

> <Reference>
NTP336

> <MolWeight>
388.48

> <Formula>
C16H17N2O5S

> <SMILES>
N12([C@@H]([C@@H](C1=O)NC(COC3=CC=CC=C3)=O)SC([C@@H]2C(=O)[O-])(C)C).[K+]

> <TD50_Rat>
NP

> <TD50_Mouse>
NP

> <Canc>
1

> <SAL>
1

> <Rat_Male_Canc>
1

> <Rat_Female_Canc>
1

> <Mouse_Male_Canc>
1

> <Mouse_Female_Canc>
1

> <Rat_Male_NTP>
NE

> <Rat_Female_NTP>
NE

> <Mouse_Male_NTP>
NE

> <Mouse_Female_NTP>
NE

> <Status>
Non-Carcinogen

> <New_Data>
true

> <iscarc>
0

$$$$
2-Amino-4-nitrophenol
  SciTegic06161615502D

 11 11  0  0  0  0            999 V2000
    3.9866   -2.3034    0.0000 C   0  0
    3.3285   -3.4551    0.0000 C   0  0
    1.3289   -2.3034    0.0000 C   0  0
    1.9996   -1.1517    0.0000 C   0  0
    1.9996   -3.4551    0.0000 C   0  0
    3.3285   -1.1517    0.0000 C   0  0
    3.9866    0.0000    0.0000 O   0  0
    1.3289    0.0000    0.0000 N   0  0
    1.3289   -4.6068    0.0000 N   0  3
    0.0000   -4.6068    0.0000 O   0  5
    1.9996   -5.7585    0.0000 O   0  0
  1  2  2  0
  1  6  1  0
  2  5  1  0
  3  4  1  0
  3  5  2  0
  4  6  2  0
  4  8  1  0
  5  9  1  0
  6  7  1  0
  9 10  1  0
  9 11  2  0
M  CHG  2   9   1  10  -1
M  END
> <Name>
2-Amino-4-nitrophenol

> <Substance ID>
637

> <Synonyms>
2-hydroxy-5-nitroaniline; 3-amino-4-hydroxynitrobenzene; p-nitro-o-aminophenol; C.I. 76530; ursol 4gl.

> <CAS>
99-57-0

> <Reference>
NTP339

> <MolWeight>
154.13

> <Formula>
C6H6N2O3

> <SMILES>
O=[N+](C1=CC(=C(C=C1)O)N)[O-]

> <TD50_Rat>
839

> <TD50_Mouse>
NP

> <Canc>
3

> <SAL>
3

> <Rat_Male_Canc>
3

> <Rat_Female_Canc>
1

> <Mouse_Male_Canc>
1

> <Mouse_Female_Canc>
1

> <Rat_Male_NTP>
SE

> <Rat_Female_NTP>
NE

> <Mouse_Male_NTP>
NE

> <Mouse_Female_NTP>
NE

> <Status>
Non-Carcinogen

> <New_Data>
true

> <iscarc>
0

$$$$
Xylenes (mixed)
  SciTegic06161615502D

 32 32  0  0  0  0            999 V2000
    1.9985   -0.4174    0.0000 C   0  0
    3.3267   -0.4174    0.0000 C   0  0
    3.3267   -2.7195    0.0000 C   0  0
    1.9985   -2.7195    0.0000 C   0  0
    3.9971   -1.5685    0.0000 C   0  0
    1.3408   -1.5685    0.0000 C   0  0
    0.0000   -1.5685    0.0000 C   0  0
    3.9971   -3.8706    0.0000 C   0  0
    7.0961   -1.9985    0.0000 C   0  0
    7.0961   -3.3267    0.0000 C   0  0
    4.7940   -3.3267    0.0000 C   0  0
    4.7940   -1.9985    0.0000 C   0  0
    5.9450   -3.9971    0.0000 C   0  0
    5.9450   -1.3281    0.0000 C   0  0
    5.9450    0.0000    0.0000 C   0  0
    5.9450   -5.3252    0.0000 C   0  0
   11.6624   -1.1258    0.0000 C   0  0
   12.8135   -1.7962    0.0000 C   0  0
   11.6624   -3.7947    0.0000 C   0  0
   10.5114   -3.1243    0.0000 C   0  0
   12.8135   -3.1243    0.0000 C   0  0
   10.5114   -1.7962    0.0000 C   0  0
    9.3603   -1.1258    0.0000 C   0  0
    9.3603   -3.7947    0.0000 C   0  0
   16.8991   -2.0112    0.0000 C   0  0
   17.5695   -3.1623    0.0000 C   0  0
   15.5710   -4.3133    0.0000 C   0  0
   14.9132   -3.1623    0.0000 C   0  0
   16.8991   -4.3133    0.0000 C   0  0
   15.5710   -2.0112    0.0000 C   0  0
   14.9132   -0.8601    0.0000 C   0  0
   13.5851   -0.8601    0.0000 C   0  0
  1  2  2  0
  1  6  1  0
  2  5  1  0
  3  4  1  0
  3  5  2  0
  3  8  1  0
  4  6  2  0
  6  7  1  0
  9 10  2  0
  9 14  1  0
 10 13  1  0
 11 12  1  0
 11 13  2  0
 12 14  2  0
 13 16  1  0
 14 15  1  0
 17 18  2  0
 17 22  1  0
 18 21  1  0
 19 20  1  0
 19 21  2  0
 20 22  2  0
 20 24  1  0
 22 23  1  0
 25 26  2  0
 25 30  1  0
 26 29  1  0
 27 28  1  0
 27 29  2  0
 28 30  2  0
 30 31  1  0
 31 32  1  0
M  END
> <Name>
Xylenes (mixed)

> <Substance ID>
638

> <Synonyms>
o-,m-,p-Xylene; m & p-xylene; m-,p-,o-Xylene; Dimethylbenzene; Dimethylbenzenes; Dimethylbenzene (mixed isomers); except p-xylene, mixed or all isomers; Socal aquatic solvent 3501; Total xylenes; Xyle
ne; Xylene (o-,m-,p-); Xylene (o-, m-, p-isomers); xylenes; Xylenes; Xylenes (o-, m-, p-isomers);  Xylenes mixed isomers; Xylene (mixed); Xylene (mixed isomers); xylene, mixed or all isomers, except p
-; Xylene mixture; Xylene mixture (m-xylene, o-xylene, p-xylene); Xylene mixture (60% m-xylene, 9% o-xylene, 14% p-xylene, 17% ethylbenzene); Xylene, (total); Xylol.

> <CAS>
1330-20-7

> <Reference>
NTP327

> <MolWeight>
106.17

> <Formula>
C32H40

> <SMILES>
c1(ccccc1)CC.c1cccc(c1C)C.c1cc(ccc1C)C.c1ccc(cc1C)C

> <TD50_Rat>
NP

> <TD50_Mouse>
NP

> <Canc>
1

> <SAL>
1

> <Rat_Male_Canc>
1

> <Rat_Female_Canc>
1

> <Mouse_Male_Canc>
1

> <Mouse_Female_Canc>
1

> <Rat_Male_NTP>
NE

> <Rat_Female_NTP>
NE

> <Mouse_Male_NTP>
NE

> <Mouse_Female_NTP>
NE

> <Status>
Non-Carcinogen

> <New_Data>
true

> <iscarc>
0

$$$$
Tetrakis(hydroxymethyl)phosphonium chloride
  SciTegic06161615502D

  9  8  0  0  1  0            999 V2000
    2.0008   -1.9881    0.0000 P   0  3  2  0  0  0
    0.6711   -1.9881    0.0000 C   0  0
    2.0008   -0.6585    0.0000 C   0  0
    3.3304   -1.9881    0.0000 C   0  0
    2.0008   -3.3177    0.0000 C   0  0
    0.0000   -3.1404    0.0000 O   0  0
    3.1531    0.0000    0.0000 O   0  0
    3.9889   -3.1404    0.0000 O   0  0
    3.1531   -3.9889    0.0000 O   0  0
  1  2  1  0
  1  3  1  0
  1  4  1  6
  1  5  1  1
  2  6  1  0
  3  7  1  0
  4  8  1  6
  5  9  1  1
M  CHG  1   1   1
M  END
> <Name>
Tetrakis(hydroxymethyl)phosphonium chloride

> <Substance ID>
639

> <Synonyms>
Tetramethylolphosphonium chloride; THPC.

> <CAS>
124-64-1

> <Reference>
NTP296

> <MolWeight>
190.61

> <Formula>
C4H12O4P

> <SMILES>
[Cl-].[P+](CO)(CO)(CO)CO

> <TD50_Rat>
NP

> <TD50_Mouse>
NP

> <Canc>
1

> <SAL>
1

> <Rat_Male_Canc>
1

> <Rat_Female_Canc>
1

> <Mouse_Male_Canc>
1

> <Mouse_Female_Canc>
1

> <Rat_Male_NTP>
NE

> <Rat_Female_NTP>
NE

> <Mouse_Male_NTP>
NE

> <Mouse_Female_NTP>
NE

> <Status>
Non-Carcinogen

> <New_Data>
true

> <iscarc>
0

$$$$
Roxarsone
  SciTegic06161615502D

 14 14  0  0  0  0            999 V2000
    3.3182   -2.3139    0.0000 C   0  0
    3.9920   -3.4581    0.0000 C   0  0
    1.9960   -4.6150    0.0000 C   0  0
    1.3222   -3.4581    0.0000 C   0  0
    3.3182   -4.6150    0.0000 C   0  0
    1.9960   -2.3139    0.0000 C   0  0
    3.9920   -5.7592    0.0000 O   0  0
    1.3222   -1.1569    0.0000 As  0  0
    2.4791   -0.4958    0.0000 O   0  0
    0.1780   -1.8180    0.0000 O   0  0
    0.6611    0.0000    0.0000 O   0  0
    1.3222   -5.7592    0.0000 N   0  3
    0.0000   -5.7592    0.0000 O   0  5
    1.9960   -6.9162    0.0000 O   0  0
  1  2  2  0
  1  6  1  0
  2  5  1  0
  3  4  1  0
  3  5  2  0
  3 12  1  0
  4  6  2  0
  5  7  1  0
  6  8  1  0
  8  9  1  0
  8 10  2  0
  8 11  1  0
 12 13  1  0
 12 14  2  0
M  CHG  2  12   1  13  -1
M  END
> <Name>
Roxarsone

> <Substance ID>
640

> <Synonyms>
2-nitro-1-hydroxybenzene-4-arsonic acid; 3n4hpa; 3-nitro-4-hydroxybenzenearsonic acid; 3-Nitro-4-hydroxyphenylarsonic acid; 4-hydroxy-3-nitrobenzenearsonic acid; 4-hydroxy-3-nitrophenyl arsonic acid;
aklomix-3; nitro acid 100 per cent; nitrophenoloarsonic acid; ren o-sal; ristat.

> <CAS>
121-19-7

> <Reference>
NTP345

> <MolWeight>
263.04

> <Formula>
C6H6AsNO6

> <SMILES>
Oc1ccc(cc1N(=O)(=O))[As](O)(O)=O

> <TD50_Rat>
NP

> <TD50_Mouse>
NP

> <Canc>
2

> <SAL>
1

> <Rat_Male_Canc>
2

> <Rat_Female_Canc>
1

> <Mouse_Male_Canc>
1

> <Mouse_Female_Canc>
1

> <Rat_Male_NTP>
EE

> <Rat_Female_NTP>
NE

> <Mouse_Male_NTP>
NE

> <Mouse_Female_NTP>
NE

> <Status>
Non-Carcinogen

> <New_Data>
true

> <iscarc>
0

$$$$
Chloroethane
  SciTegic06161615502D

  3  2  0  0  0  0            999 V2000
    0.0000   -0.6694    0.0000 C   0  0
    1.1493    0.0000    0.0000 C   0  0
    2.2986   -0.6694    0.0000 Cl  0  0
  1  2  1  0
  2  3  1  0
M  END
> <Name>
Chloroethane

> <Substance ID>
643

> <Synonyms>
Aethylis; aethylis chloridum; anodynon; chelen; chlorene; chlorethyl; chloridum; chloryl; chloryl anesthetic; cloretilo; dublofix; ether chloratus; ether hydrochloric; ether muriatic; ETHYL HLORIDE (C
HLOROETHANE; Ethyl Chloride; hydrochloric ether; kelene; monochloroethane; Muriatic Ether; narcotile.

> <CAS>
75-00-3

> <Reference>
NTP346

> <MolWeight>
64.51

> <Formula>
C2H5Cl

> <SMILES>
CCCl

> <TD50_Rat>
NP

> <TD50_Mouse>
1810

> <Canc>
3

> <SAL>
3

> <Rat_Male_Canc>
2

> <Rat_Female_Canc>
2

> <Mouse_Male_Canc>
ND

> <Mouse_Female_Canc>
3

> <Rat_Male_NTP>
EE

> <Rat_Female_NTP>
EE

> <Mouse_Male_NTP>
ND

> <Mouse_Female_NTP>
CE

> <Status>
Carcinogen

> <New_Data>
true

> <iscarc>
1

$$$$
C.I. Pigment Red 3
  SciTegic06161615502D

 23 25  0  0  0  0            999 V2000
    7.3201   -2.3049    0.0000 C   0  0
    9.9796   -2.3049    0.0000 C   0  0
    9.3084   -1.1525    0.0000 C   0  0
    7.9786   -1.1525    0.0000 C   0  0
    1.3298   -1.1525    0.0000 C   0  0
    2.0010    0.0000    0.0000 C   0  0
    3.9893   -1.1525    0.0000 C   0  0
    3.3308   -2.3049    0.0000 C   0  0
    3.3308    0.0000    0.0000 C   0  0
    2.0010   -2.3049    0.0000 C   0  0
    0.0000   -1.1525    0.0000 C   0  0
    5.3191   -1.1525    0.0000 N   0  0
    5.9903   -2.3049    0.0000 N   0  0
    9.3084   -3.4574    0.0000 C   0  0
    7.9786   -3.4574    0.0000 C   0  0
    7.9786   -5.7624    0.0000 C   0  0
    9.3084   -5.7624    0.0000 C   0  0
    7.3201   -4.6099    0.0000 C   0  0
    9.9796   -4.6099    0.0000 C   0  0
    7.3201    0.0000    0.0000 O   0  0
    3.9893   -3.4574    0.0000 N   0  3
    3.3308   -4.6099    0.0000 O   0  5
    5.3191   -3.4574    0.0000 O   0  0
  1 15  2  0
  1  4  1  0
  1 13  1  0
  2  3  1  0
  2 14  2  0
  3  4  2  0
  4 20  1  0
  5  6  2  0
  5 10  1  0
  5 11  1  0
  6  9  1  0
  7  8  1  0
  7  9  2  0
  7 12  1  0
  8 10  2  0
  8 21  1  0
 12 13  2  0
 14 15  1  0
 14 19  1  0
 15 18  1  0
 16 17  1  0
 16 18  2  0
 17 19  2  0
 21 22  1  0
 21 23  2  0
M  CHG  2  21   1  22  -1
M  END
> <Name>
C.I. Pigment Red 3

> <Substance ID>
646

> <Synonyms>
1-[(4-methyl-2-nitrophenyl)azo]-2-Naphthalenol; 1-(4-Methyl-2-nitrophenylazo)-2-naphthol; 2-Naphthalenol, 1-(4-Methyl-2-nitrophenylazo)-2-naphthol; accosperse toluidine red xl; adc toluidine red b; ca
lcotone toluidine red yp; carnelio helio red; chromotex red j; C.I. 12120; C.P. toluidine toner A-2989; C.P. toluidine toner deep X-1865; C.P. toluidine toner RT-6101; dainachi permanent red 4 r; d an
d c red no. 35; deep fastona red; duplex toluidine red l 20-3140; eljon fast scarlet rn; enialit light red rl; fastona red b; fast red r; graphtol red A-4RL; hansa red b; hansa scarlet rb; helio fast
red rl; helio red rl; hispalit fast scarlet rn; independence red; irgalite fast red P4R; isol fast red hb; isol toluidine red rnb; kromon helio fast red; lake red 4R; lithol fast scarlet rn; lutetia f
ast red 3R; Toluidine red; toluidine toner; monolite fast scarlet ca; no. 2 forthfast scarlet; oralith red P4R; permanent red 4R; pigment red 3; pigment scarlet; polymo red fgn; recolite fast red rbl;
 sanyo scarlet; scarlet pigment rn; segnale light red b; siegle red 1; silogomma red rll; silosol red rbn; siloton red brll; symuler fast scarlet 4R; syton fast scarlet rb; tertropigment red hab; vers
al scarlet prnl; vulcafor scarlet a.

> <CAS>
2425-85-6

> <Reference>
NTP407

> <MolWeight>
307.31

> <Formula>
C17H13N3O3

> <SMILES>
OC1=CC=C2C(=C1/N=N/C3=C(C=C(C=C3)C)[N+](=O)[O-])C=CC=C2

> <TD50_Rat>
1170

> <TD50_Mouse>
35500

> <Canc>
3

> <SAL>
3

> <Rat_Male_Canc>
3

> <Rat_Female_Canc>
3

> <Mouse_Male_Canc>
3

> <Mouse_Female_Canc>
1

> <Rat_Male_NTP>
SE

> <Rat_Female_NTP>
SE

> <Mouse_Male_NTP>
SE

> <Mouse_Female_NTP>
NE

> <Status>
Carcinogen

> <CanonicalTautomer>
Yes

> <NumberOfTautomers>
2

> <New_Data>
true

> <iscarc>
1

$$$$
Molybdenum trioxide
  SciTegic06161615502D

  4  3  0  0  0  0            999 V2000
    1.1541   -0.6595    0.0000 Mo  0  0
    1.1541   -1.9911    0.0000 O   0  0
    2.3081    0.0000    0.0000 O   0  0
    0.0000    0.0000    0.0000 O   0  0
  1  2  2  0
  1  3  2  0
  1  4  2  0
M  END
> <Name>
Molybdenum trioxide

> <Substance ID>
647

> <Synonyms>
mo 1202t; molybdic acid anhydride; Molybdic anhydride; Molybdic trioxide; molybdena; molybdenum anhydride; Molybdenum oxide; molybdenum peroxide; MOLYBDENUM TRIOXIDE, 99.998%; Molybdenum (VI) oxide; n
atural molybdite.

> <CAS>
1313-27-5

> <Reference>
NTP462

> <MolWeight>
143.94

> <Formula>
MoO3

> <SMILES>
O=[Mo](=O)=O

> <TD50_Rat>
NP

> <TD50_Mouse>
ND

> <Canc>
3

> <SAL>
1

> <Rat_Male_Canc>
2

> <Rat_Female_Canc>
1

> <Mouse_Male_Canc>
3

> <Mouse_Female_Canc>
3

> <Rat_Male_NTP>
EE

> <Rat_Female_NTP>
NE

> <Mouse_Male_NTP>
SE

> <Mouse_Female_NTP>
SE

> <Status>
Non-Carcinogen

> <New_Data>
true

> <iscarc>
0

$$$$
Tetrafluoroethylene
  SciTegic06161615502D

  6  5  0  0  0  0            999 V2000
    0.9802   -1.6992    0.0000 C   0  0
    3.2243   -2.2022    0.0000 F   0  0
    2.2409   -1.3026    0.0000 C   0  0
    0.0000   -0.7996    0.0000 F   0  0
    0.6932   -2.9986    0.0000 F   0  0
    2.5310    0.0000    0.0000 F   0  0
  1  3  2  0
  1  4  1  0
  1  5  1  0
  2  3  1  0
  3  6  1  0
M  END
> <Name>
Tetrafluoroethylene

> <Substance ID>
650

> <Synonyms>
Fluoroplast 4; perfluoroethene; perfluoroethylene; Tetrafluorethene; TFE.

> <CAS>
116-14-3

> <Reference>
NTP450

> <MolWeight>
100.02

> <Formula>
C2F4

> <SMILES>
FC(F)=C(F)F

> <TD50_Rat>
ND

> <TD50_Mouse>
ND

> <Canc>
3

> <SAL>
ND

> <Rat_Male_Canc>
3

> <Rat_Female_Canc>
3

> <Mouse_Male_Canc>
3

> <Mouse_Female_Canc>
3

> <Rat_Male_NTP>
CE

> <Rat_Female_NTP>
CE

> <Mouse_Male_NTP>
CE

> <Mouse_Female_NTP>
CE

> <Status>
Carcinogen

> <New_Data>
true

> <iscarc>
1

$$$$
C.I. Acid Red 114
  SciTegic06161615502D

 54 59  0  0  0  0            999 V2000
   20.6098   -2.3055    0.0000 C   0  0
   23.2700   -2.3055    0.0000 C   0  0
   22.6113   -1.1527    0.0000 C   0  0
   21.2812   -1.1527    0.0000 C   0  0
   14.6308   -1.1527    0.0000 C   0  0
   15.2895    0.0000    0.0000 C   0  0
   17.2910   -1.1527    0.0000 C   0  0
   16.6196   -2.3055    0.0000 C   0  0
   16.6196    0.0000    0.0000 C   0  0
   15.2895   -2.3055    0.0000 C   0  0
   10.6406   -1.1527    0.0000 C   0  0
   11.2993    0.0000    0.0000 C   0  0
   13.3007   -1.1527    0.0000 C   0  0
   12.6294   -2.3055    0.0000 C   0  0
   12.6294    0.0000    0.0000 C   0  0
   11.2993   -2.3055    0.0000 C   0  0
    4.6489   -2.3055    0.0000 C   0  0
    5.3203   -1.1527    0.0000 C   0  0
    7.3091   -2.3055    0.0000 C   0  0
    6.6504   -3.4582    0.0000 C   0  0
    6.6504   -1.1527    0.0000 C   0  0
    5.3203   -3.4582    0.0000 C   0  0
    0.6714   -6.9037    0.0000 C   0  0
    0.0000   -5.7637    0.0000 C   0  0
    2.0014   -4.6109    0.0000 C   0  0
    2.6601   -5.7637    0.0000 C   0  0
    0.6714   -4.6109    0.0000 C   0  0
    2.0014   -6.9037    0.0000 C   0  0
    0.0000   -8.0564    0.0000 C   0  0
    2.6601   -3.4582    0.0000 S   0  0
    3.3189   -2.3055    0.0000 O   0  0
    8.6391   -2.3055    0.0000 N   0  0
    9.3105   -1.1527    0.0000 N   0  0
   18.6210   -1.1527    0.0000 N   0  0
   19.2797   -2.3055    0.0000 N   0  0
   22.6113   -3.4582    0.0000 C   0  0
   21.2812   -3.4582    0.0000 C   0  0
   21.2812   -5.7637    0.0000 C   0  0
   22.6113   -5.7637    0.0000 C   0  0
   20.6098   -4.6109    0.0000 C   0  0
   23.2700   -4.6109    0.0000 C   0  0
   20.6098    0.0000    0.0000 O   0  0
   17.2910   -3.4582    0.0000 C   0  0
   10.6406   -3.4582    0.0000 C   0  0
    1.5074   -2.7868    0.0000 O   0  0
    3.8129   -4.1169    0.0000 O   0  0
   19.2797   -4.6109    0.0000 S   0  0
   23.2700   -6.9037    0.0000 S   0  0
   19.2797   -3.2808    0.0000 O   0  0
   19.2797   -5.9410    0.0000 O   0  0
   24.4227   -6.2450    0.0000 O   0  0
   22.1172   -7.5751    0.0000 O   0  0
   17.9497   -4.6109    0.0000 O   0  5
   23.9413   -8.0564    0.0000 O   0  5
  1 37  2  0
  1  4  1  0
  1 35  1  0
  2  3  1  0
  2 36  2  0
  3  4  2  0
  4 42  1  0
  5  6  2  0
  5 10  1  0
  5 13  1  0
  6  9  1  0
  7  8  1  0
  7  9  2  0
  7 34  1  0
  8 10  2  0
  8 43  1  0
 11 12  2  0
 11 16  1  0
 11 33  1  0
 12 15  1  0
 13 14  1  0
 13 15  2  0
 14 16  2  0
 16 44  1  0
 17 18  2  0
 17 22  1  0
 17 31  1  0
 18 21  1  0
 19 20  1  0
 19 21  2  0
 19 32  1  0
 20 22  2  0
 23 24  2  0
 23 28  1  0
 23 29  1  0
 24 27  1  0
 25 26  1  0
 25 27  2  0
 25 30  1  0
 26 28  2  0
 30 31  1  0
 30 45  2  0
 30 46  2  0
 32 33  2  0
 34 35  2  0
 36 37  1  0
 36 41  1  0
 37 40  1  0
 38 39  1  0
 38 40  2  0
 39 41  2  0
 39 48  1  0
 40 47  1  0
 47 49  2  0
 47 50  2  0
 47 53  1  0
 48 51  2  0
 48 52  2  0
 48 54  1  0
M  CHG  2  53  -1  54  -1
M  END
> <Name>
C.I. Acid Red 114

> <Substance ID>
654

> <Synonyms>
8-[[3,3'-dimethyl-4'-[[4-[[(4-methylphenyl)sulfonyl]oxy]phenyl]azo][1,1'-biphenyl]-4-yl]azo]-7-hydroxy-1,3-Naphthalenedisulfonic acid, disodium salt; acid leather red bg; Acid Red 114; benzyl red br;
C.I. 23635; C.I. Acid Red 114, disodium salt; erionyl red rs; fenafor red pb; folan red b; kayanol milling red rs; leather fast red b; Midlon Red PRS; milling fast red b; milling red b; milling red bb
; polar red rs; sella fast red rs; sulfonol red r; suminol milling red rs; supranol fast red gg; telon fast red gg; tertracid milling red b; vondamol fast red rs.

> <CAS>
6459-94-5

> <Reference>
NTP405

> <MolWeight>
830.82

> <Formula>
C37H28N4O10S3

> <SMILES>
[Na+].O=S(=O)(Oc5ccc(/N=N/c1ccc(cc1C)c4ccc(/N=N/c2c3c(ccc2O)cc(cc3S([O-])(=O)=O)S([O-])(=O)=O)c(c4)C)cc5)c6ccc(cc6)C.[Na+]

> <TD50_Rat>
3.89

> <TD50_Mouse>
ND

> <Canc>
3

> <SAL>
3

> <Rat_Male_Canc>
3

> <Rat_Female_Canc>
3

> <Mouse_Male_Canc>
ND

> <Mouse_Female_Canc>
ND

> <Rat_Male_NTP>
CE

> <Rat_Female_NTP>
CE

> <Mouse_Male_NTP>
ND

> <Mouse_Female_NTP>
ND

> <Status>
Carcinogen

> <CanonicalTautomer>
Yes

> <NumberOfTautomers>
3

> <New_Data>
true

> <iscarc>
1

$$$$
Glycidol
  SciTegic06161615502D

  5  5  0  0  0  0            999 V2000
    0.0000   -1.8225    0.0000 O   0  0
    0.0000   -0.4936    0.0000 C   0  0
    1.1517   -1.1517    0.0000 C   0  0
    2.4806   -1.1517    0.0000 C   0  0
    3.1514    0.0000    0.0000 O   0  0
  1  2  1  0
  1  3  1  0
  2  3  1  0
  3  4  1  0
  4  5  1  0
M  END
> <Name>
Glycidol

> <Substance ID>
655

> <Synonyms>
1,2-Epoxy-3-Hydroxy Propane; 2,3-Epoxy-1-propanol; 2,3-epoxypropanol; 2-hydroxymethyloxirane; 3-hydroxy-1,2-epoxypropane; 3-Hydroxypropylene oxide; allyl alcohol oxide; epihydrin alcohol; epoxypropyl
alcohol; glycide; glycidyl alcohol; Oxiranemethanol; oxiranylmethanol; (RS)-3-Hydroxy-1,2-epoxypropane.

> <CAS>
556-52-5

> <Reference>
NTP374

> <MolWeight>
74.08

> <Formula>
C3H6O2

> <SMILES>
OCC1CO1

> <TD50_Rat>
4.28

> <TD50_Mouse>
34.7

> <Canc>
3

> <SAL>
3

> <Rat_Male_Canc>
3

> <Rat_Female_Canc>
3

> <Mouse_Male_Canc>
3

> <Mouse_Female_Canc>
3

> <Rat_Male_NTP>
CE

> <Rat_Female_NTP>
CE

> <Mouse_Male_NTP>
CE

> <Mouse_Female_NTP>
CE

> <Status>
Carcinogen

> <New_Data>
true

> <iscarc>
1

$$$$
Allyl Glycidyl Ether
  SciTegic06161615502D

  8  8  0  0  0  0            999 V2000
    5.9259   -0.6740    0.0000 C   0  0
    4.7814    0.0000    0.0000 C   0  0
    3.6242   -0.6740    0.0000 O   0  0
    2.4797    0.0000    0.0000 C   0  0
    1.3225   -0.6740    0.0000 C   0  0
    7.0831    0.0000    0.0000 C   0  0
    0.6613   -1.8185    0.0000 O   0  0
    0.0000   -0.6740    0.0000 C   0  0
  1  2  1  0
  1  6  2  0
  2  3  1  0
  3  4  1  0
  4  5  1  0
  5  8  1  0
  5  7  1  0
  7  8  1  0
M  END
> <Name>
Allyl Glycidyl Ether

> <Substance ID>
657

> <Synonyms>
1,2-Epoxy-3-Allyloxypropane; 1-allyloxy-2,3-epoxypropane; [(2-propenyloxy)methyl]oxirane; AGE; Allyl 2,3-epoxypropyl ether; Allyl Glycidyl Ether-Ethylene Glycol Prepolymer(18/1).

> <CAS>
106-92-3

> <Reference>
NTP376

> <MolWeight>
114.14

> <Formula>
C6H10O2

> <SMILES>
C=CCOCC1CO1

> <TD50_Rat>
NP

> <TD50_Mouse>
182

> <Canc>
3

> <SAL>
3

> <Rat_Male_Canc>
2

> <Rat_Female_Canc>
1

> <Mouse_Male_Canc>
3

> <Mouse_Female_Canc>
2

> <Rat_Male_NTP>
EE

> <Rat_Female_NTP>
NE

> <Mouse_Male_NTP>
SE

> <Mouse_Female_NTP>
EE

> <Status>
Non-Carcinogen

> <New_Data>
true

> <iscarc>
0

$$$$
Vinyl Toluene
  SciTegic06161615502D

 18 18  0  0  0  0            999 V2000
    1.9874    0.0000    0.0000 C   0  0
    3.3165    0.0000    0.0000 C   0  0
    3.3165   -2.3039    0.0000 C   0  0
    1.9874   -2.3039    0.0000 C   0  0
    3.9874   -1.1519    0.0000 C   0  0
    1.3291   -1.1519    0.0000 C   0  0
    0.0000   -1.1519    0.0000 C   0  0
    3.9874   -3.4558    0.0000 C   0  0
    5.3166   -3.4558    0.0000 C   0  0
    7.7217   -1.2152    0.0000 C   0  0
    8.8737   -0.5570    0.0000 C   0  0
   10.0256   -2.5444    0.0000 C   0  0
    8.8737   -3.2153    0.0000 C   0  0
   10.0256   -1.2152    0.0000 C   0  0
    7.7217   -2.5444    0.0000 C   0  0
   11.1775   -3.2153    0.0000 C   0  0
   12.3294   -2.5444    0.0000 C   0  0
    6.5698   -0.5570    0.0000 C   0  0
  1  2  2  0
  1  6  1  0
  2  5  1  0
  3  4  1  0
  3  5  2  0
  3  8  1  0
  4  6  2  0
  6  7  1  0
  8  9  2  0
 10 11  2  0
 10 15  1  0
 10 18  1  0
 11 14  1  0
 12 13  1  0
 12 14  2  0
 12 16  1  0
 13 15  2  0
 16 17  2  0
M  END
> <Name>
Vinyl Toluene

> <Substance ID>
658

> <Synonyms>
ethenylmethylbenzene; methylethenylbenzene; methylstyrene; methylstyrenetolylethylene; Methylstyrene (mixed isomers); Methyl styrene (mixture); Vinyl Toluene, Mixed Isomers; Vinyltoluene, stabilized w
ith 10 to 15 ppm p-tert-butylcatechol.

> <CAS>
25013-15-4

> <Reference>
NTP375

> <MolWeight>
118.18

> <Formula>
C18H20

> <SMILES>
C=C\c1cc(ccc1)C.C=C\c1ccc(cc1)C

> <TD50_Rat>
NP

> <TD50_Mouse>
NP

> <Canc>
1

> <SAL>
1

> <Rat_Male_Canc>
1

> <Rat_Female_Canc>
1

> <Mouse_Male_Canc>
1

> <Mouse_Female_Canc>
1

> <Rat_Male_NTP>
NE

> <Rat_Female_NTP>
NE

> <Mouse_Male_NTP>
NE

> <Mouse_Female_NTP>
NE

> <Status>
Non-Carcinogen

> <New_Data>
true

> <iscarc>
0

$$$$
2-Chloroacetophenone
  SciTegic06161615502D

 10 10  0  0  0  0            999 V2000
    1.1523   -3.9889    0.0000 C   0  0
    0.0000   -3.3304    0.0000 C   0  0
    1.1523   -1.3296    0.0000 C   0  0
    2.3047   -2.0008    0.0000 C   0  0
    0.0000   -2.0008    0.0000 C   0  0
    2.3047   -3.3304    0.0000 C   0  0
    3.4570   -1.3296    0.0000 C   0  0
    4.6093   -2.0008    0.0000 C   0  0
    5.7490   -1.3296    0.0000 Cl  0  0
    3.4570    0.0000    0.0000 O   0  0
  1  2  2  0
  1  6  1  0
  2  5  1  0
  3  4  1  0
  3  5  2  0
  4  6  2  0
  4  7  1  0
  7  8  1  0
  7 10  2  0
  8  9  1  0
M  END
> <Name>
2-Chloroacetophenone

> <Substance ID>
660

> <Synonyms>
2-Chloro-1-phenylethanone; 2-Chloroacetonephenone; alpha-Chloroacetophenone; alpha-phenacyl chloride; Chloroacetophenone, 2-; chloromethyl phenyl ketone; CN; MACE; phenacylchloride; Phenyl chloromethy
l ketone; Tear gas; omega-chloroacetophenone.

> <CAS>
532-27-4

> <Reference>
NTP379

> <MolWeight>
154.6

> <Formula>
C8H7ClO

> <SMILES>
O=C(C1=CC=CC=C1)CCl

> <TD50_Rat>
NP

> <TD50_Mouse>
NP

> <Canc>
2

> <SAL>
1

> <Rat_Male_Canc>
1

> <Rat_Female_Canc>
2

> <Mouse_Male_Canc>
1

> <Mouse_Female_Canc>
1

> <Rat_Male_NTP>
NE

> <Rat_Female_NTP>
EE

> <Mouse_Male_NTP>
NE

> <Mouse_Female_NTP>
NE

> <Status>
Carcinogen

> <New_Data>
true

> <iscarc>
1

$$$$
Benzaldehyde
  SciTegic06161615502D

  8  8  0  0  0  0            999 V2000
    2.3052   -2.6599    0.0000 C   0  0
    2.3052   -3.9898    0.0000 C   0  0
    0.0000   -3.9898    0.0000 C   0  0
    0.0000   -2.6599    0.0000 C   0  0
    1.1526   -4.6484    0.0000 C   0  0
    1.1526   -1.9886    0.0000 C   0  0
    1.1526   -0.6586    0.0000 C   0  0
    0.0000    0.0000    0.0000 O   0  0
  1  2  2  0
  1  6  1  0
  2  5  1  0
  3  4  1  0
  3  5  2  0
  4  6  2  0
  6  7  1  0
  7  8  2  0
M  END
> <Name>
Benzaldehyde

> <Substance ID>
661

> <Synonyms>
Almond artificial essential oil; artificial almond oil; Artificial Bitter Almond Oil; Artificial essential oil of almond; benzenecarbonal; benzenecarboxaldehyde; Benzenemethylal; Benzoic aldehyde; Ben
zoyl hydride; oil of bitter almond; Phenylmethanal.

> <CAS>
100-52-7

> <Reference>
NTP378

> <MolWeight>
106.12

> <Formula>
C7H6O

> <SMILES>
O=CC1=CC=CC=C1

> <TD50_Rat>
NP

> <TD50_Mouse>
1490

> <Canc>
3

> <SAL>
1

> <Rat_Male_Canc>
1

> <Rat_Female_Canc>
1

> <Mouse_Male_Canc>
3

> <Mouse_Female_Canc>
3

> <Rat_Male_NTP>
NE

> <Rat_Female_NTP>
NE

> <Mouse_Male_NTP>
SE

> <Mouse_Female_NTP>
SE

> <Status>
Non-Carcinogen

> <New_Data>
true

> <iscarc>
0

$$$$
alpha-Methylbenzyl alcohol
  SciTegic06161615502D

  9  9  0  0  1  0            999 V2000
    1.1476   -4.0006    0.0000 C   0  0
    0.0000   -3.3312    0.0000 C   0  0
    1.1476   -1.3389    0.0000 C   0  0
    2.2952   -1.9923    0.0000 C   0  0
    0.0000   -1.9923    0.0000 C   0  0
    2.2952   -3.3312    0.0000 C   0  0
    3.4587   -1.3389    0.0000 C   0  0  2  0  0  0
    4.6063   -1.9923    0.0000 C   0  0
    3.4587    0.0000    0.0000 O   0  0
  1  2  2  0
  1  6  1  0
  2  5  1  0
  3  4  1  0
  3  5  2  0
  4  6  2  0
  4  7  1  0
  7  8  1  0
  7  9  1  1
M  END
> <Name>
alpha-Methylbenzyl alcohol

> <Substance ID>
665

> <Synonyms>
1-phenylethan-1-ol; 1-Phenyl ethyl alcohol; alpha-methyl-benzenemethanol; alpha-phenylethyl alcohol; beta-Hydroxyethylbenzene; beta-Phenethyl Alcohol; DL-sec-Phenethyl alcohol; methylphenylcarbinol; m
ethyl phenyl methanol; phenylmethylcarbinol; (S)-1-Phenylethyl alcohol; (S)-1-Phenylethanol; sec-phenethyl alcohol; Styralyl alcohol; styrallyl alcohol.

> <CAS>
98-85-1

> <Reference>
NTP369

> <MolWeight>
122.17

> <Formula>
C8H10O

> <SMILES>
C1=CC=C([C@@H](O)(C))C=C1

> <TD50_Rat>
458

> <TD50_Mouse>
NP

> <Canc>
3

> <SAL>
1

> <Rat_Male_Canc>
3

> <Rat_Female_Canc>
1

> <Mouse_Male_Canc>
1

> <Mouse_Female_Canc>
1

> <Rat_Male_NTP>
SE

> <Rat_Female_NTP>
NE

> <Mouse_Male_NTP>
NE

> <Mouse_Female_NTP>
NE

> <Status>
Non-Carcinogen

> <New_Data>
true

> <iscarc>
0

$$$$
Methylphenidate Hydrochloride
  SciTegic06161615502D

 17 18  0  0  1  0            999 V2000
    3.4481   -2.6617    0.0000 C   0  0  2  0  0  0
    4.5975   -1.9963    0.0000 C   0  0
    3.4481   -3.9926    0.0000 C   0  0
    2.2988   -1.9963    0.0000 C   0  0  2  0  0  0
    5.7671   -2.6617    0.0000 O   0  0
    4.5975   -0.6654    0.0000 O   0  0
    4.5975   -4.6580    0.0000 C   0  0
    2.2988   -4.6580    0.0000 C   0  0
    1.1494   -2.6617    0.0000 C   0  0
    2.2988   -0.6654    0.0000 N   0  0
    6.9165   -1.9963    0.0000 C   0  0
    4.5975   -5.9889    0.0000 C   0  0
    2.2988   -5.9889    0.0000 C   0  0
    0.0000   -1.9963    0.0000 C   0  0
    1.1494    0.0000    0.0000 C   0  0
    3.4481   -6.6543    0.0000 C   0  0
    0.0000   -0.6654    0.0000 C   0  0
  1  2  1  0
  1  3  1  0
  1  4  1  6
  2  5  1  1
  2  6  2  0
  3  7  2  0
  3  8  1  0
  4  9  1  6
  4 10  1  0
  5 11  1  0
  7 12  1  0
  8 13  2  0
  9 14  1  6
 10 15  1  6
 12 16  2  0
 13 16  1  0
 14 17  1  0
 15 17  1  6
M  END
> <Name>
Methylphenidate Hydrochloride

> <Substance ID>
666

> <Synonyms>
alpha-phenyl-2-piperidineacetic acid methyl ester hydrochloride; centedrin; methyl alpha-phenyl-2-piperidine-acetate hydrochloride; methylphenidylacetate hydrochloride; PMS-Methylphenidate; Ritalin hy
drochloride.

> <CAS>
298-59-9

> <Reference>
NTP439

> <MolWeight>
269.81

> <Formula>
C14H19NO2

> <SMILES>
O=C(O[C@@H3])[C@H](c1ccccc1)[C@@H]2[N@@H][C@@H2][C@H2][C@H2][C@@H2]2.[Cl]

> <TD50_Rat>
NP

> <TD50_Mouse>
100

> <Canc>
3

> <SAL>
1

> <Rat_Male_Canc>
1

> <Rat_Female_Canc>
1

> <Mouse_Male_Canc>
3

> <Mouse_Female_Canc>
3

> <Rat_Male_NTP>
NE

> <Rat_Female_NTP>
NE

> <Mouse_Male_NTP>
SE

> <Mouse_Female_NTP>
SE

> <Status>
Non-Carcinogen

> <New_Data>
true

> <iscarc>
0

$$$$
Nitromethane
  SciTegic06161615502D

  4  3  0  0  0  0            999 V2000
    0.0000   -1.9974    0.0000 C   0  0
    1.1504   -1.3274    0.0000 N   0  3
    2.3008   -1.9974    0.0000 O   0  5
    1.1504    0.0000    0.0000 O   0  0
  1  2  1  0
  2  3  1  0
  2  4  2  0
M  CHG  2   2   1   3  -1
M  END
> <Name>
Nitromethane

> <Substance ID>
667

> <Synonyms>
Nitrocarbol; NM.

> <CAS>
75-52-5

> <Reference>
NTP461

> <MolWeight>
61.04

> <Formula>
CH3NO2

> <SMILES>
N(=O)(=O)C

> <TD50_Rat>
ND

> <TD50_Mouse>
ND

> <Canc>
3

> <SAL>
1

> <Rat_Male_Canc>
1

> <Rat_Female_Canc>
3

> <Mouse_Male_Canc>
3

> <Mouse_Female_Canc>
3

> <Rat_Male_NTP>
NE

> <Rat_Female_NTP>
CE

> <Mouse_Male_NTP>
CE

> <Mouse_Female_NTP>
CE

> <Status>
Carcinogen

> <New_Data>
true

> <iscarc>
1

$$$$
Benzethonium Chloride
  SciTegic06161615502D

 30 31  0  0  0  0            999 V2000
   15.6043   -3.3235    0.0000 C   0  0
   16.7539   -2.6633    0.0000 C   0  0
   17.9034   -4.6551    0.0000 C   0  0
   16.7539   -5.3266    0.0000 C   0  0
   17.9034   -3.3235    0.0000 C   0  0
   15.6043   -4.6551    0.0000 C   0  0
   13.1231   -1.3317    0.0000 C   0  0
   12.4516   -2.4812    0.0000 C   0  0
   11.1199   -2.4812    0.0000 O   0  0
   10.4598   -3.6421    0.0000 C   0  0
    9.1281   -3.6421    0.0000 C   0  0
    8.4680   -4.7917    0.0000 O   0  0
    7.1363   -4.7917    0.0000 C   0  0
    4.4730   -4.7917    0.0000 C   0  0
    5.1445   -3.6421    0.0000 C   0  0
    6.4762   -5.9413    0.0000 C   0  0
    6.4762   -3.6421    0.0000 C   0  0
    5.1445   -5.9413    0.0000 C   0  0
    0.4894   -2.4812    0.0000 C   0  0
    1.1609   -3.6421    0.0000 C   0  0
    1.8211   -4.7917    0.0000 C   0  0
    3.1527   -4.7917    0.0000 C   0  0
    2.3105   -2.9706    0.0000 C   0  0
    0.0000   -4.3023    0.0000 C   0  0
    3.1527   -3.4600    0.0000 C   0  0
    3.1527   -6.1120    0.0000 C   0  0
   14.4434   -1.3317    0.0000 N   0  3
   14.4434    0.0000    0.0000 C   0  0
   15.7750   -1.3317    0.0000 C   0  0
   14.4434   -2.6633    0.0000 C   0  0
  1  2  2  0
  1  6  1  0
  1 30  1  0
  2  5  1  0
  3  4  1  0
  3  5  2  0
  4  6  2  0
  7  8  1  0
  7 27  1  0
  8  9  1  0
  9 10  1  0
 10 11  1  0
 11 12  1  0
 12 13  1  0
 13 16  1  0
 13 17  2  0
 14 15  2  0
 14 18  1  0
 14 22  1  0
 15 17  1  0
 16 18  2  0
 19 20  1  0
 20 21  1  0
 20 23  1  0
 20 24  1  0
 21 22  1  0
 22 25  1  0
 22 26  1  0
 27 28  1  0
 27 29  1  0
 27 30  1  0
M  CHG  1  27   1
M  END
> <Name>
Benzethonium Chloride

> <Substance ID>
668

> <Synonyms>
p-diisobutyl phenoxyethoxyethyl dimethyl benzylammonium chloride; p-tert-octylphenoxyethoxyethyldimethylbenzylammonium chloride; anti-germ 77; antiseptol; benzathonium chloride; benzethonium chloride
1622; Benzyldimethyl[2-[2-[4-(1,1,3,3-tetramethylbutyl)phenoxy]ethoxy]ethyl]ammonium chloride; benzyldimethyl-(p-(1,1,3,3-tetramethylbutyl)phenoxyethoxyethyl) ammonium chloride; Diapp; diisobutylpheno
xyethoxyethyl dimethyl benzyl ammonium chloride; disilyn; BZT; hyamine; hyamine 1622; N,N-dimethyl-N-(2-(2-(4-(1,1,3,3-tetramethylbutyl)phenoxy)ethoxy)ethyl)-benzenemethanaminium chloride; Octylphenox
yethoxyethyl dimethyl benzyl ammonium chloride; phemeride; phemerol; phemerol chloride; phemersol chloride; phemithyn; polymine d; quatrachlor; solamin; Solanine.

> <CAS>
121-54-0

> <Reference>
NTP438

> <MolWeight>
448.09

> <Formula>
C27H42NO2

> <SMILES>
O(c1ccc(cc1)C(C)(C)CC(C)(C)C)CCOCC[N+](Cc2ccccc2)(C)C.[Cl-]

> <TD50_Rat>
NP

> <TD50_Mouse>
NP

> <Canc>
1

> <SAL>
1

> <Rat_Male_Canc>
1

> <Rat_Female_Canc>
1

> <Mouse_Male_Canc>
1

> <Mouse_Female_Canc>
1

> <Rat_Male_NTP>
NE

> <Rat_Female_NTP>
NE

> <Mouse_Male_NTP>
NE

> <Mouse_Female_NTP>
NE

> <Status>
Non-Carcinogen

> <New_Data>
true

> <iscarc>
0

$$$$
4,4'-Diamino-2,2'-stilbenedisulfonic acid
  SciTegic06161615502D

 24 25  0  0  0  0            999 V2000
    2.3007   -3.1490    0.0000 C   0  0
    3.4574   -3.8173    0.0000 C   0  0
    4.6013   -3.1490    0.0000 C   0  0
    5.7581   -3.8173    0.0000 C   0  0
    6.9148   -3.1490    0.0000 C   0  0
    6.9148   -1.8123    0.0000 C   0  0
    5.7581   -1.1568    0.0000 S   0  0
    6.4264    0.0000    0.0000 O   0  0
    4.6013   -0.4884    0.0000 O   0  0
    5.0897   -2.3007    0.0000 O   0  5
    8.0587   -1.1568    0.0000 C   0  0
    9.2155   -1.8123    0.0000 C   0  0
    9.2155   -3.1490    0.0000 C   0  0
    8.0587   -3.8173    0.0000 C   0  0
   10.3594   -1.1568    0.0000 N   0  0
    3.4574   -5.1411    0.0000 C   0  0
    2.3007   -5.8095    0.0000 C   0  0
    1.1568   -5.1411    0.0000 C   0  0
    1.1568   -3.8173    0.0000 C   0  0
    0.0000   -5.8095    0.0000 N   0  0
    2.3007   -1.8123    0.0000 S   0  0
    3.6374   -1.8123    0.0000 O   0  0
    2.3007   -0.4884    0.0000 O   0  0
    0.9768   -1.8123    0.0000 O   0  5
  1  2  2  0
  1 19  1  0
  1 21  1  0
  2  3  1  0
  2 16  1  0
  3  4  2  0
  4  5  1  0
  5  6  2  0
  5 14  1  0
  6  7  1  0
  6 11  1  0
  7  8  2  0
  7  9  2  0
  7 10  1  0
 11 12  2  0
 12 13  1  0
 12 15  1  0
 13 14  2  0
 16 17  2  0
 17 18  1  0
 18 19  2  0
 18 20  1  0
 21 22  2  0
 21 23  2  0
 21 24  1  0
M  CHG  2  10  -1  24  -1
M  END
> <Name>
4,4'-Diamino-2,2'-stilbenedisulfonic acid

> <Substance ID>
669

> <Synonyms>
2,2'-(1,2-Ethenediyl)bis[5-aminobenzenesulfonic acid] disodium salt; 4,4'-Diamino-2,2'-Stilbenedisulfonic Acid Disodium Salt; disodium disodium 4,4'-diaminostilbene-2,2'-disulfonate.

> <CAS>
7336-20-1

> <Reference>
NTP412

> <MolWeight>
414.37

> <Formula>
C14H12N2O6S2

> <SMILES>
[Na+].C1(=C(/C=C/C2=C(S(=O)(=O)[O-])C=C(C=C2)N)C=CC(=C1)N)S(=O)(=O)[O-].[Na+]

> <TD50_Rat>
NP

> <TD50_Mouse>
NP

> <Canc>
1

> <SAL>
1

> <Rat_Male_Canc>
1

> <Rat_Female_Canc>
1

> <Mouse_Male_Canc>
1

> <Mouse_Female_Canc>
1

> <Rat_Male_NTP>
NE

> <Rat_Female_NTP>
NE

> <Mouse_Male_NTP>
NE

> <Mouse_Female_NTP>
NE

> <Status>
Non-Carcinogen

> <New_Data>
true

> <iscarc>
0

$$$$
Sodium azide
  SciTegic06161615502D

  3  2  0  0  0  0            999 V2000
    0.0000    0.0000    0.0000 N   0  5
    1.3300    0.0000    0.0000 N   0  3
    2.6600    0.0000    0.0000 N   0  5
  1  2  2  0
  2  3  2  0
M  CHG  3   1  -1   2   1   3  -1
M  END
> <Name>
Sodium azide

> <Substance ID>
670

> <Synonyms>
Azium; Smite; Hydrazoic acid, sodium salt; U-3886.

> <CAS>
26628-22-8

> <Reference>
NTP389

> <MolWeight>
65.01

> <Formula>
N3

> <SMILES>
[Na+].[N-]=N#N

> <TD50_Rat>
NP

> <TD50_Mouse>
ND

> <Canc>
1

> <SAL>
3

> <Rat_Male_Canc>
1

> <Rat_Female_Canc>
1

> <Mouse_Male_Canc>
ND

> <Mouse_Female_Canc>
ND

> <Rat_Male_NTP>
NE

> <Rat_Female_NTP>
NE

> <Mouse_Male_NTP>
ND

> <Mouse_Female_NTP>
ND

> <Status>
Non-Carcinogen

> <New_Data>
true

> <iscarc>
0

$$$$
Phenolphthalein
  SciTegic06161615502D

 24 27  0  0  0  0            999 V2000
    4.5934   -8.5062    0.0000 C   0  0
    3.4417   -9.1736    0.0000 C   0  0
    2.2901   -8.5062    0.0000 C   0  0
    4.5934   -7.1845    0.0000 C   0  0
    3.4417   -6.5171    0.0000 C   0  0
    2.2901   -7.1845    0.0000 C   0  0
    1.3086   -6.2815    0.0000 C   0  0
    1.8452   -5.0776    0.0000 O   0  0
    3.1669   -5.2084    0.0000 C   0  0
    3.4417   -3.9129    0.0000 C   0  0
    4.4363   -4.8027    0.0000 C   0  0
    2.4603   -3.0230    0.0000 C   0  0
    4.0045   -1.3086    0.0000 C   0  0
    4.9859   -2.1985    0.0000 C   0  0
    2.7351   -1.7143    0.0000 C   0  0
    4.7111   -3.4941    0.0000 C   0  0
    4.7111   -3.4941    0.0000 C   0  0
    6.9620   -3.9783    0.0000 C   0  0
    6.6872   -5.2738    0.0000 C   0  0
    5.9805   -3.0884    0.0000 C   0  0
    5.4309   -5.6926    0.0000 C   0  0
    4.2793    0.0000    0.0000 O   0  0
    8.2314   -3.5726    0.0000 O   0  0
    0.0000   -6.5694    0.0000 O   0  0
  1  2  2  0
  1  4  1  0
  2  3  1  0
  3  6  2  0
  4  5  2  0
  5  6  1  0
  5  9  1  0
  6  7  1  0
  7  8  1  0
  7 24  2  0
  8  9  1  0
  9 10  1  0
  9 11  1  0
 10 12  2  0
 10 16  1  0
 11 17  2  0
 11 21  1  0
 12 15  1  0
 13 14  1  0
 13 15  2  0
 13 22  1  0
 14 16  2  0
 17 20  1  0
 18 19  1  0
 18 20  2  0
 18 23  1  0
 19 21  2  0
M  END
> <Name>
Phenolphthalein

> <Substance ID>
672

> <Synonyms>
2-[Bis (4-hydroxyphenyl)methyl]benzoic acid; 3,3-bis(4-hydroxyphenyl)-1(3H)-isobenzofuranone; 3,3-bis(p-hydroxyphenyl)phthalide; Alophen; Espotabs; Ex-Lax; Feen-a-mint; feen-a-mint gum; Figsen; Laxett
es; Phenolax.

> <CAS>
77-09-8

> <Reference>
NTP465

> <MolWeight>
318.33

> <Formula>
C20H14O4

> <SMILES>
O=C1OC(C2=C1C=CC=C2)(C3=CC=C(C=C3)O)C4=CC=C(C=C4)O

> <TD50_Rat>
902

> <TD50_Mouse>
1170

> <Canc>
3

> <SAL>
1

> <Rat_Male_Canc>
3

> <Rat_Female_Canc>
3

> <Mouse_Male_Canc>
3

> <Mouse_Female_Canc>
3

> <Rat_Male_NTP>
CE

> <Rat_Female_NTP>
SE

> <Mouse_Male_NTP>
CE

> <Mouse_Female_NTP>
CE

> <Status>
Carcinogen

> <New_Data>
true

> <iscarc>
1

$$$$
2-tert-Butylhydroquinone
  SciTegic06161615502D

 12 12  0  0  0  0            999 V2000
    2.3041   -3.8189    0.0000 C   0  0
    1.1457   -3.1570    0.0000 C   0  0
    2.3041   -1.1584    0.0000 C   0  0
    3.4498   -1.8204    0.0000 C   0  0
    1.1457   -1.8204    0.0000 C   0  0
    3.4498   -3.1570    0.0000 C   0  0
    4.6082   -3.8189    0.0000 O   0  0
    0.0000   -1.1584    0.0000 O   0  0
    4.6082   -1.1584    0.0000 C   0  0
    3.9462    0.0000    0.0000 C   0  0
    5.7538   -0.4965    0.0000 C   0  0
    5.2701   -2.3041    0.0000 C   0  0
  1  2  2  0
  1  6  1  0
  2  5  1  0
  3  4  1  0
  3  5  2  0
  4  6  2  0
  4  9  1  0
  5  8  1  0
  6  7  1  0
  9 10  1  0
  9 11  1  0
  9 12  1  0
M  END
> <Name>
2-tert-Butylhydroquinone

> <Substance ID>
677

> <Synonyms>
1,4-Benzenediol, 2-(1,1-dimethylethyl)-; Mono-tert-butylhydroquinone; TBHQ; tert-Butylhydroquinone.

> <CAS>
1948-33-0

> <Reference>
NTP459

> <MolWeight>
166.22

> <Formula>
C10H14O2

> <SMILES>
Oc(c(cc(O)c1)C(C)(C)C)c1

> <TD50_Rat>
NP

> <TD50_Mouse>
NP

> <Canc>
1

> <SAL>
1

> <Rat_Male_Canc>
1

> <Rat_Female_Canc>
1

> <Mouse_Male_Canc>
1

> <Mouse_Female_Canc>
1

> <Rat_Male_NTP>
NE

> <Rat_Female_NTP>
NE

> <Mouse_Male_NTP>
NE

> <Mouse_Female_NTP>
NE

> <Status>
Non-Carcinogen

> <New_Data>
true

> <iscarc>
0

$$$$
C.I. Direct Blue 15
  SciTegic06161615502D

 60 65  0  0  0  0            999 V2000
   20.5985   -3.4563    0.0000 C   0  0
   21.2695   -2.3042    0.0000 C   0  0
   22.5988   -2.3042    0.0000 C   0  0
   21.2695   -4.6084    0.0000 C   0  0
   10.6347   -2.3042    0.0000 C   0  0
   11.3058   -1.1521    0.0000 C   0  0
   13.2934   -2.3042    0.0000 C   0  0
   12.6351   -3.4563    0.0000 C   0  0
   12.6351   -1.1521    0.0000 C   0  0
   11.3058   -3.4563    0.0000 C   0  0
    3.3297   -5.7605    0.0000 C   0  0
    2.6587   -4.6084    0.0000 C   0  0
    3.3297   -3.4563    0.0000 C   0  0
    4.6590   -5.7605    0.0000 C   0  0
    5.3174   -4.6084    0.0000 C   0  0
    4.6590   -3.4563    0.0000 C   0  0
    6.6467   -2.3042    0.0000 C   0  0
    7.3177   -3.4563    0.0000 C   0  0
    5.3174   -2.3042    0.0000 C   0  0
    6.6467   -4.6084    0.0000 C   0  0
    5.3174   -6.9126    0.0000 N   0  0
    1.3293   -4.6084    0.0000 S   0  0
    7.3177   -5.7605    0.0000 O   0  0
    7.3177   -1.1521    0.0000 S   0  0
    8.6471   -3.4563    0.0000 N   0  0
    9.3054   -2.3042    0.0000 N   0  0
   14.6228   -2.3042    0.0000 C   0  0
   15.2811   -1.1521    0.0000 C   0  0
   17.2815   -2.3042    0.0000 C   0  0
   16.6105   -3.4563    0.0000 C   0  0
   16.6105   -1.1521    0.0000 C   0  0
   15.2811   -3.4563    0.0000 C   0  0
   17.2815   -4.6084    0.0000 O   0  0
   10.6347   -4.6084    0.0000 O   0  0
   18.6108   -2.3042    0.0000 N   0  0
   19.2692   -3.4563    0.0000 N   0  0
   22.5988   -4.6084    0.0000 C   0  0
   23.2572   -3.4563    0.0000 C   0  0
   25.2575   -4.6084    0.0000 C   0  0
   24.5865   -5.7605    0.0000 C   0  0
   24.5865   -3.4563    0.0000 C   0  0
   23.2572   -5.7605    0.0000 C   0  0
   20.5985   -5.7605    0.0000 O   0  0
   22.5988   -6.9126    0.0000 N   0  0
   26.5869   -4.6084    0.0000 S   0  0
   20.5985   -1.1521    0.0000 S   0  0
    1.3293   -3.2790    0.0000 O   0  0
    1.3293   -5.9377    0.0000 O   0  0
    8.4698   -1.8231    0.0000 O   0  0
    6.1656   -0.4938    0.0000 O   0  0
   19.4464   -1.8231    0.0000 O   0  0
   21.7506   -0.4938    0.0000 O   0  0
   26.5869   -5.9377    0.0000 O   0  0
   26.5869   -3.2790    0.0000 O   0  0
    0.0000   -4.6084    0.0000 O   0  5
    7.9761    0.0000    0.0000 O   0  5
   19.9402    0.0000    0.0000 O   0  5
   27.9162   -4.6084    0.0000 O   0  5
   11.3058   -5.7605    0.0000 C   0  0
   16.6105   -5.7605    0.0000 C   0  0
  1  2  2  0
  1  4  1  0
  1 36  1  0
  2  3  1  0
  2 46  1  0
  3 38  2  0
  4 37  2  0
  4 43  1  0
  5  6  2  0
  5 10  1  0
  5 26  1  0
  6  9  1  0
  7  8  1  0
  7  9  2  0
  7 27  1  0
  8 10  2  0
 10 34  1  0
 11 12  2  0
 11 14  1  0
 12 13  1  0
 12 22  1  0
 13 16  2  0
 14 15  2  0
 14 21  1  0
 15 16  1  0
 15 20  1  0
 16 19  1  0
 17 18  1  0
 17 19  2  0
 17 24  1  0
 18 20  2  0
 18 25  1  0
 20 23  1  0
 22 47  2  0
 22 48  2  0
 22 55  1  0
 24 49  2  0
 24 50  2  0
 24 56  1  0
 25 26  2  0
 27 28  2  0
 27 32  1  0
 28 31  1  0
 29 30  1  0
 29 31  2  0
 29 35  1  0
 30 32  2  0
 30 33  1  0
 33 60  1  0
 34 59  1  0
 35 36  2  0
 37 38  1  0
 37 42  1  0
 38 41  1  0
 39 40  1  0
 39 41  2  0
 39 45  1  0
 40 42  2  0
 42 44  1  0
 45 53  2  0
 45 54  2  0
 45 58  1  0
 46 51  2  0
 46 52  2  0
 46 57  1  0
M  CHG  4  55  -1  56  -1  57  -1  58  -1
M  END
> <Name>
C.I. Direct Blue 15

> <Substance ID>
678

> <Synonyms>
3,3'-((3,3'-dimethoxy-4,4'-biphenylylene)bis(azo))bis(5-amino-4-hydroxy-2,7-naphthalenedisulfonic acid), tetrasodium salt; airedale blue d; aizen direct sky blue 5bh; amanil sky blue; atlantic sky blu
e a; atul direct sky blue; azine sky blue 5b; belamine sky blue a; benzanil sky blue; benzo sky blue a-cf; benzo sky blue s; diacotton sky blue 5b; diamine sky blue ci; diaphtamine pure blue; diazol p
ure blue 4b; diphenyl brilliant blue; diphenyl sky blue 6b; direct blue 10g; direct blue 15; direct blue hh; direct pure blue; direct pure blue m; DIRECT SKY BLUE; direct sky blue a; chloramine sky bl
ue 4b; chloramine sky blue a; chrome leather pure blue; C.I. 24400; C.I. Direct blue 15, tetrasodium salt; cresotine pure blue; enianil pure blue an; fenamin sky blue; hispamin sky blue 3b; kayaku dir
ect sky blue 5b; mitsui direct sky blue 5b; naphtamine blue 10g; niagara blue 4b; niagara sky blue; nippon direct sky blue; nitto direct sky blue 5b; phenamine sky blue a; pontacyl sky blue 4bx; ponta
mine sky blue 5bx; shikiso direct sky blue 5b; sky blue 4b; sky blue 5b; tertrodirect blue f; vondacel blue hh.

> <CAS>
2429-74-5

> <Reference>
NTP397

> <MolWeight>
992.81

> <Formula>
C34H24N6O16S4

> <SMILES>
[Na+].[O-]S(=O)(=O)c6cc1cc(cc(N)c1c(O)c6/N=N/c5ccc(c4cc(OC)c(/N=N/c3c(cc2cc(cc(N)c2c3O)S([O-])(=O)=O)S([O-].[Na+].)(=O)=O)cc4)cc5OC)S([O-].[Na+].)(=O)=O.[Na+]

> <TD50_Rat>
27.5

> <TD50_Mouse>
ND

> <Canc>
3

> <SAL>
3

> <Rat_Male_Canc>
3

> <Rat_Female_Canc>
3

> <Mouse_Male_Canc>
ND

> <Mouse_Female_Canc>
ND

> <Rat_Male_NTP>
CE

> <Rat_Female_NTP>
CE

> <Mouse_Male_NTP>
ND

> <Mouse_Female_NTP>
ND

> <Status>
Carcinogen

> <CanonicalTautomer>
Yes

> <NumberOfTautomers>
13

> <New_Data>
true

> <iscarc>
1

$$$$
D & C yellow no. 11
  SciTegic06161615502D

 21 24  0  0  0  0            999 V2000
    5.9846   -2.3423    0.0000 C   0  0
    6.7696   -1.2741    0.0000 C   0  0
    6.7696   -3.4234    0.0000 C   0  0
    0.0000   -1.1969    0.0000 C   0  0
    0.6692   -0.0386    0.0000 C   0  0
    1.9949   -0.0386    0.0000 C   0  0
    0.6692   -2.3423    0.0000 C   0  0
    1.9949   -2.3423    0.0000 C   0  0
    2.6641   -1.1969    0.0000 C   0  0
    4.6590   -2.3423    0.0000 C   0  0
    3.9897   -3.5007    0.0000 C   0  0
    3.9897   -1.1969    0.0000 N   0  0
    2.6641   -3.5007    0.0000 C   0  0
    8.0309   -3.0116    0.0000 C   0  0
    8.0309   -1.6860    0.0000 C   0  0
   10.3346   -1.6860    0.0000 C   0  0
   10.3346   -3.0116    0.0000 C   0  0
    9.1892   -1.0167    0.0000 C   0  0
    9.1892   -3.6808    0.0000 C   0  0
    6.3578   -4.6847    0.0000 O   0  0
    6.3578    0.0000    0.0000 O   0  0
  1  2  1  0
  1  3  1  0
  1 10  1  0
  2 15  1  0
  2 21  2  0
  3 14  1  0
  3 20  2  0
  4  5  2  0
  4  7  1  0
  5  6  1  0
  6  9  2  0
  7  8  2  0
  8  9  1  0
  8 13  1  0
  9 12  1  0
 10 11  1  0
 10 12  2  0
 11 13  2  0
 14 15  2  0
 14 19  1  0
 15 18  1  0
 16 17  1  0
 16 18  2  0
 17 19  2  0
M  END
> <Name>
D & C yellow no. 11

> <Substance ID>
681

> <Synonyms>
2-(1,3-dioxoindan-2-yl)quinoline; 2-(2-Quinolyl)-1,3-indandione; 2-(2-Quinolyl)indan-1,3-dione; arlosol yellow s; chinoline yellow d (sol. in spirits); chinoline yellow ZSS; C.I. 47000; C.I. Solvent Y
ellow 33; d & c yellow 11; nitro fast yellow sl; oil yellow sis; petrol yellow c; quinoline yellow a; quinoline yellow a spirit soluble; quinoline yellow base; Quinoline yellow, spirit soluble; quinol
ine yellow ss; solvent yellow 33; spirit soluble; waxoline yellow t.

> <CAS>
8003-22-3

> <Reference>
NTP463

> <MolWeight>
273.29

> <Formula>
C18H11NO2

> <SMILES>
c1ccc2nc(C3C(=O)c4ccccc4C3(=O))ccc2c1

> <TD50_Rat>
ND

> <TD50_Mouse>
ND

> <Canc>
3

> <SAL>
3

> <Rat_Male_Canc>
3

> <Rat_Female_Canc>
3

> <Mouse_Male_Canc>
ND

> <Mouse_Female_Canc>
ND

> <Rat_Male_NTP>
SE

> <Rat_Female_NTP>
SE

> <Mouse_Male_NTP>
ND

> <Mouse_Female_NTP>
ND

> <Status>
Carcinogen

> <New_Data>
true

> <iscarc>
1

$$$$
HC Yellow No. 4
  SciTegic06161615502D

 17 17  0  0  1  0            999 V2000
    2.3106   -1.9913    0.0000 C   0  0
    3.4565   -1.3338    0.0000 C   0  0
    4.6212   -1.9913    0.0000 C   0  0
    4.6212   -3.3250    0.0000 C   0  0
    3.4565   -3.9825    0.0000 C   0  0
    2.3106   -3.3250    0.0000 C   0  0
    3.4565   -5.3163    0.0000 O   0  0
    1.1459   -1.3338    0.0000 N   0  3
    1.1459    0.0000    0.0000 O   0  5
    0.0000   -1.9913    0.0000 O   0  0
    5.7672   -3.9825    0.0000 N   0  0
    6.9131   -3.3250    0.0000 C   0  0
    5.7672   -5.3163    0.0000 C   0  0
    6.9131   -5.9926    0.0000 C   0  0
    6.9131   -7.3264    0.0000 O   0  0
    8.0778   -3.9825    0.0000 C   0  0
    9.2237   -3.3250    0.0000 O   0  0
  1  2  2  0
  1  6  1  0
  1  8  1  0
  2  3  1  0
  3  4  2  0
  4  5  1  0
  4 11  1  0
  5  6  2  0
  5  7  1  0
  8  9  1  0
  8 10  2  0
 11 12  1  6
 11 13  1  1
 12 16  1  0
 13 14  1  1
 14 15  1  1
 16 17  1  6
M  CHG  2   8   1   9  -1
M  END
> <Name>
HC Yellow No. 4

> <Substance ID>
682

> <Synonyms>
2-(bis(2-hydroxyethyl)amino)-5-nitrophenol; HC yellow 4; N-o-di(2-hydroxyethyl)-2-amino-5-nitrophenol.

> <CAS>
59820-43-8

> <Reference>
NTP419

> <MolWeight>
242.23

> <Formula>
C10H14N2O5

> <SMILES>
C1(=CC=C(C(=C1)O)N(CCO)CCO)[N+]([O-])=O

> <TD50_Rat>
NP

> <TD50_Mouse>
NP

> <Canc>
2

> <SAL>
3

> <Rat_Male_Canc>
2

> <Rat_Female_Canc>
1

> <Mouse_Male_Canc>
1

> <Mouse_Female_Canc>
1

> <Rat_Male_NTP>
EE

> <Rat_Female_NTP>
NE

> <Mouse_Male_NTP>
NE

> <Mouse_Female_NTP>
NE

> <Status>
Non-Carcinogen

> <New_Data>
true

> <iscarc>
0

$$$$
1-trans-delta(sup 9)-tetrahydrocannabinol
  SciTegic06161615502D

 23 25  0  0  1  0            999 V2000
    1.3407    0.0000    0.0000 C   0  0
    1.3407   -1.3187    0.0000 C   0  0
    0.1758   -2.0001    0.0000 C   0  0
    0.1758   -3.3188    0.0000 C   0  0
    1.3407   -3.9782    0.0000 C   0  0  1  0  0  0
    2.4836   -3.3188    0.0000 C   0  0  2  0  0  0
    2.4836   -2.0001    0.0000 C   0  0
    1.3407   -5.2969    0.0000 C   0  0  2  0  0  0
    2.4836   -5.9782    0.0000 O   0  0
    3.6265   -5.2969    0.0000 C   0  0
    3.6265   -3.9782    0.0000 C   0  0
    0.6594   -6.4618    0.0000 C   0  0
    0.0000   -5.2969    0.0000 C   0  0
    4.7694   -5.9782    0.0000 C   0  0
    5.9343   -5.2969    0.0000 C   0  0
    5.9343   -3.9782    0.0000 C   0  0
    4.7694   -3.3188    0.0000 C   0  0
    7.0772   -5.9782    0.0000 C   0  0
    8.2201   -5.2969    0.0000 C   0  0
    9.3850   -5.9782    0.0000 C   0  0
   10.5279   -5.2969    0.0000 C   0  0
   11.6708   -5.9782    0.0000 C   0  0
    4.7694   -2.0001    0.0000 O   0  0
  1  2  1  1
  2  3  1  1
  2  7  2  0
  3  4  1  1
  4  5  1  0
  5  6  1  0
  5  8  1  1
  6  7  1  6
  6 11  1  0
  8  9  1  0
  8 12  1  0
  8 13  1  1
  9 10  1  0
 10 11  2  0
 10 14  1  0
 11 17  1  0
 14 15  2  0
 15 16  1  0
 15 18  1  0
 16 17  2  0
 17 23  1  0
 18 19  1  6
 19 20  1  0
 20 21  1  6
 21 22  1  0
M  END
> <Name>
1-trans-delta(sup 9)-tetrahydrocannabinol

> <Substance ID>
684

> <Synonyms>
1-trans-D9-Tetrahydrocannabinol; 3-pentyl-6,6,9-trimethyl-6a,7,8,10a-tetrahydro-6H-dibenzo[b,d]pyran-1-ol; 6,6,9-trimethyl-3-pentyl-6a,7,8,10a-tetrahydro-6H-dibenzo[b,d]pyran-1-ol; 6H-Dibenzo; 6H-Dibe
nzo[b,d]pyran-1-ol,6a,7,8,10a-tetrahydro-6,6,9-trimethyl-3-pentyl-, (6aR-trans)-; 9-delta-Tetrahydrocannabinol; abbott 40566; Cannabis resin; delta9-Tetrahydrocannabinol; delta-9-THC; Deltanyne; Drona
binol; delta(sup 1)-thc; delta(sup 9)-tetrahydrocannabinol; delta(sup 9)-thc; delta-THC; Ganja; Hashish; L-delta(sup 1)-tetrahydrocannabinol; Marinol; SP 104; Tetrahydro-6,6,9-trimethyl-3-pentyl-6H-di
benzo[b,d]pyran-1-ol; tetrahydrocannabinol; THC; THC-delta-9; trans-delta-9-Tetrahydrocannabinol; trans-tetrahydrocannabinol.

> <CAS>
1972-08-3

> <Reference>
NTP446

> <MolWeight>
314.47

> <Formula>
C21H30O2

> <SMILES>
Oc2cc(cc1O[C@@]([C@@H]3[C@H2][C@@H2]/C(=C\[C@H]3c12)[C@H3])([C@H3])[C@@H3])[C@H2][C@@H2][C@@H2][C@@H2][C@H3]

> <TD50_Rat>
NP

> <TD50_Mouse>
NP

> <Canc>
2

> <SAL>
1

> <Rat_Male_Canc>
1

> <Rat_Female_Canc>
1

> <Mouse_Male_Canc>
2

> <Mouse_Female_Canc>
2

> <Rat_Male_NTP>
NE

> <Rat_Female_NTP>
NE

> <Mouse_Male_NTP>
EE

> <Mouse_Female_NTP>
EE

> <Status>
Non-Carcinogen

> <New_Data>
true

> <iscarc>
0

$$$$
NNK
  SciTegic06161615502D

 15 15  0  0  0  0            999 V2000
    3.4552   -2.6578    0.0000 C   0  0
    3.4552   -3.9868    0.0000 C   0  0
    2.3035   -1.9997    0.0000 C   0  0
    4.6069   -1.9997    0.0000 C   0  0
    2.3035   -4.6575    0.0000 C   0  0
    4.6069   -4.6575    0.0000 O   0  0
    2.3035   -0.6708    0.0000 C   0  0
    4.6069   -0.6708    0.0000 N   0  0
    2.3035   -5.9865    0.0000 C   0  0
    3.4552    0.0000    0.0000 C   0  0
    1.1517   -6.6446    0.0000 C   0  0
    1.1517   -7.9735    0.0000 N   0  0
    0.0000   -8.6443    0.0000 N   0  0
    2.3035   -8.6443    0.0000 C   0  0
    0.0000   -9.9732    0.0000 O   0  0
  1  2  1  0
  1  3  2  0
  1  4  1  0
  2  5  1  0
  2  6  2  0
  3  7  1  0
  4  8  2  0
  5  9  1  0
  7 10  2  0
  8 10  1  0
  9 11  1  0
 11 12  1  0
 12 13  1  0
 12 14  1  0
 13 15  2  0
M  END
> <Name>
NNK

> <Substance ID>
685

> <Synonyms>
3-(N-methyl-N-nitrosamino)propyl 3-pyridyl ketone; 4-(Methyl-nitrosamino)-1-(3-Pyridyl)-1-butanone; 4-(methylnitrosoamino)-1-(3-pyridinyl)-1-butanone; 4-(nitrosoamino-N-methyl)-1-(3-pyridyl)-1-butanon
e; 4-(N-Methyl-N-nitrosamino)-1-(3-pyridyl)-1-butanone; 4-(N-methyl-N-nitrosamino)-4-(3-pyridyl)-1-butanone; 4-(N-methyl-N-nitrosoamino)-4-(3-pyridyl)-1-butanone; 4-(N-Nitrosomethylamino)-1-(3-pyridyl
)-1-butanone; 4-(N-nitroso-N-methylamino)-1-(3-pyridyl)-1-butanone; ketone, 3-pyridyl 3-(N-methyl-N-nitrosamino)propyl; N-methyl-N-nitroso-4-oxo-4-(3-pyridyl)butylamine.

> <CAS>
64091-91-4

> <Reference>
NTP440

> <MolWeight>
207.23

> <Formula>
C10H13N3O2

> <SMILES>
O=C(C1=CC=CN=C1)CCCN(N=O)C

> <TD50_Rat>
NP

> <TD50_Mouse>
ND

> <Canc>
3

> <SAL>
3

> <Rat_Male_Canc>
1

> <Rat_Female_Canc>
1

> <Mouse_Male_Canc>
2

> <Mouse_Female_Canc>
3

> <Rat_Male_NTP>
NE

> <Rat_Female_NTP>
NE

> <Mouse_Male_NTP>
EE

> <Mouse_Female_NTP>
SE

> <Status>
Non-Carcinogen

> <New_Data>
true

> <iscarc>
0

$$$$
Talc
  SciTegic06161615502D

  4  3  0  0  0  0            999 V2000
    2.1306   -0.6595    0.0000 Si  0  0
    3.2846    0.0000    0.0000 O   0  5
    0.9765    0.0000    0.0000 O   0  5
    2.1306   -1.9911    0.0000 O   0  0
  1  2  1  0
  1  3  1  0
  1  4  2  0
M  CHG  2   2  -1   3  -1
M  END
> <Name>
Talc

> <Substance ID>
686

> <Synonyms>
Fibrous Non-Tremolite Talc; french chalk; Hydrous magnesium silicate; Magnesium silicate talc; mineral graphite; non-asbestiform talc; non-fibrous talc; Silica,talc, non-asbestos form; steatite; Steat
ite talc; Talc (containing no asbestos); Talc (containing no asbestos fibres); Talc (Mg3H2(SiO3)4); Talc, non-asbestos form; talc, non-asbestos form, silica; Talcum.

> <CAS>
14807-96-6

> <Reference>
NTP421

> <MolWeight>
100.04

> <Formula>
MgO3Si

> <SMILES>
[Mg+2].[O-][Si]([O-])=O

> <TD50_Rat>
ND

> <TD50_Mouse>
NP

> <Canc>
3

> <SAL>
ND

> <Rat_Male_Canc>
3

> <Rat_Female_Canc>
3

> <Mouse_Male_Canc>
1

> <Mouse_Female_Canc>
1

> <Rat_Male_NTP>
SE

> <Rat_Female_NTP>
CE

> <Mouse_Male_NTP>
NE

> <Mouse_Female_NTP>
NE

> <Status>
Carcinogen

> <RemovedSalts>
Mg+2

> <New_Data>
true

> <iscarc>
1

$$$$
Furfural
  SciTegic06161615502D

  7  7  0  0  0  0            999 V2000
    1.9728   -0.2782    0.0000 O   0  0
    2.1119   -1.5934    0.0000 C   0  0
    0.8979   -2.1372    0.0000 C   0  0
    0.0000   -1.1508    0.0000 C   0  0
    0.6703    0.0000    0.0000 C   0  0
    3.2627   -2.2637    0.0000 C   0  0
    3.2627   -3.5915    0.0000 O   0  0
  1  2  1  0
  1  5  1  0
  2  3  2  0
  2  6  1  0
  3  4  1  0
  4  5  2  0
  6  7  2  0
M  END
> <Name>
Furfural

> <Substance ID>
687

> <Synonyms>
2-Formyl furan; 2-Furaldehyde; 2-furanaldehyde; 2-furancarbonal; 2-furancarboxaldehyde; 2-furfural; 2-furylmethanal; alpha-Furfuraldehyde; alpha-furole; artificial ant oil; artificial oil of ants; Fuf
ural; Fural; Furaldehyde; Furfuraldehyde; Pyromucic aldehyde; U1199.

> <CAS>
98-01-1

> <Reference>
NTP382

> <MolWeight>
96.09

> <Formula>
C5H4O2

> <SMILES>
O=CC1=CC=CO1

> <TD50_Rat>
683

> <TD50_Mouse>
197

> <Canc>
3

> <SAL>
2

> <Rat_Male_Canc>
3

> <Rat_Female_Canc>
1

> <Mouse_Male_Canc>
3

> <Mouse_Female_Canc>
3

> <Rat_Male_NTP>
SE

> <Rat_Female_NTP>
NE

> <Mouse_Male_NTP>
CE

> <Mouse_Female_NTP>
SE

> <Status>
Non-Carcinogen

> <New_Data>
true

> <iscarc>
0

$$$$
Salicylazosulfapyridine
  SciTegic06161615502D

 28 30  0  0  0  0            999 V2000
    3.4575   -9.9673    0.0000 C   0  0
    3.4575  -11.2971    0.0000 S   0  0
    2.3050   -9.3087    0.0000 C   0  0
    4.6100   -9.3087    0.0000 C   0  0
    3.4575  -12.6269    0.0000 N   0  0
    2.1277  -11.2971    0.0000 O   0  0
    4.7873  -11.2971    0.0000 O   0  0
    2.3050   -7.9789    0.0000 C   0  0
    4.6100   -7.9789    0.0000 C   0  0
    2.3050  -13.2981    0.0000 C   0  0
    3.4575   -7.3076    0.0000 C   0  0
    2.3050  -14.6279    0.0000 C   0  0
    1.1525  -12.6269    0.0000 N   0  0
    3.4575   -5.9778    0.0000 N   0  0
    1.1525  -15.2865    0.0000 C   0  0
    0.0000  -13.2981    0.0000 C   0  0
    4.6100   -5.3192    0.0000 N   0  0
    0.0000  -14.6279    0.0000 C   0  0
    4.6100   -3.9894    0.0000 C   0  0
    3.4575   -3.3182    0.0000 C   0  0
    5.7625   -3.3182    0.0000 C   0  0
    3.4575   -1.9884    0.0000 C   0  0
    5.7625   -1.9884    0.0000 C   0  0
    4.6100   -1.3298    0.0000 C   0  0
    2.3050   -1.3298    0.0000 C   0  0
    4.6100    0.0000    0.0000 O   0  0
    1.1525   -1.9884    0.0000 O   0  0
    2.3050    0.0000    0.0000 O   0  0
  1  2  1  0
  1  3  2  0
  1  4  1  0
  2  5  1  0
  2  6  2  0
  2  7  2  0
  3  8  1  0
  4  9  2  0
  5 10  1  0
  8 11  2  0
  9 11  1  0
 10 12  1  0
 10 13  2  0
 11 14  1  0
 12 15  2  0
 13 16  1  0
 14 17  2  0
 15 18  1  0
 16 18  2  0
 17 19  1  0
 19 20  2  0
 19 21  1  0
 20 22  1  0
 21 23  2  0
 22 24  2  0
 22 25  1  0
 23 24  1  0
 24 26  1  0
 25 27  1  0
 25 28  2  0
M  END
> <Name>
Salicylazosulfapyridine

> <Substance ID>
688

> <Synonyms>
2-Hydroxy-5-[[4-[(2-pyridinylamino)sulfonyl]phenyl]azo]benzoic acid; 5-(para-(2-pyridylsulfamoyl)phenylazo)salicylic acid; accucol; asulfidine; azopyrin; Azulfidine; rorasul; salazopyrin; Salazopyrin
en-tabs; salazosulfapyridine; s.a.s.-500; SASP; sulcolon; Sulfasalazine; w-t sasp oral.

> <CAS>
599-79-1

> <Reference>
NTP457

> <MolWeight>
398.4

> <Formula>
C18H14N4O5S

> <SMILES>
OC(=O)c3cc(N=Nc1ccc(cc1)S(=O)(=O)Nc2ccccn2)ccc3O

> <TD50_Rat>
ND

> <TD50_Mouse>
ND

> <Canc>
3

> <SAL>
1

> <Rat_Male_Canc>
3

> <Rat_Female_Canc>
3

> <Mouse_Male_Canc>
3

> <Mouse_Female_Canc>
3

> <Rat_Male_NTP>
SE

> <Rat_Female_NTP>
SE

> <Mouse_Male_NTP>
CE

> <Mouse_Female_NTP>
CE

> <Status>
Carcinogen

> <CanonicalTautomer>
Yes

> <NumberOfTautomers>
4

> <New_Data>
true

> <iscarc>
1

$$$$
Tetranitromethane
  SciTegic06161615502D

 13 12  0  0  0  0            999 V2000
    1.9852   -1.9986    0.0000 C   0  0
    3.3132   -1.9986    0.0000 N   0  3
    0.6573   -1.9986    0.0000 N   0  3
    1.9852   -3.3266    0.0000 N   0  3
    1.9852   -0.6707    0.0000 N   0  3
    3.1388    0.0000    0.0000 O   0  5
    0.8316    0.0000    0.0000 O   0  0
    3.9839   -3.1522    0.0000 O   0  5
    3.9839   -0.8451    0.0000 O   0  0
    0.8316   -3.9839    0.0000 O   0  5
    3.1388   -3.9839    0.0000 O   0  0
    0.0000   -0.8451    0.0000 O   0  5
    0.0000   -3.1522    0.0000 O   0  0
  1  2  1  0
  1  3  1  0
  1  4  1  0
  1  5  1  0
  2  8  1  0
  2  9  2  0
  3 12  1  0
  3 13  2  0
  4 10  1  0
  4 11  2  0
  5  6  1  0
  5  7  2  0
M  CHG  8   2   1   3   1   4   1   5   1   6  -1   8  -1  10  -1  12  -1
M  END
> <Name>
Tetranitromethane

> <Substance ID>
689

> <Synonyms>
Tetan; TNM.

> <CAS>
509-14-8

> <Reference>
NTP386

> <MolWeight>
196.03

> <Formula>
CN4O8

> <SMILES>
O=[N+](C([N+](=O)[O-])([N+](=O)[O-])[N+](=O)[O-])[O-]

> <TD50_Rat>
0.447

> <TD50_Mouse>
1.19

> <Canc>
3

> <SAL>
3

> <Rat_Male_Canc>
3

> <Rat_Female_Canc>
3

> <Mouse_Male_Canc>
3

> <Mouse_Female_Canc>
3

> <Rat_Male_NTP>
CE

> <Rat_Female_NTP>
CE

> <Mouse_Male_NTP>
CE

> <Mouse_Female_NTP>
CE

> <Status>
Carcinogen

> <New_Data>
true

> <iscarc>
1

$$$$
Scopolamine hydrobromide trihydrate
  SciTegic06161615502D

 22 25  0  0  1  0            999 V2000
    6.0823   -3.6222    0.0000 C   0  0
    5.6125   -4.8831    0.0000 N   0  0
    7.0713   -5.7238    0.0000 C   0  0  2  0  0  0
    4.1537   -5.7238    0.0000 C   0  0  1  0  0  0
    6.2553   -6.7375    0.0000 C   0  0  1  0  0  0
    6.7746   -4.4504    0.0000 C   0  0
    4.9573   -6.7375    0.0000 C   0  0  2  0  0  0
    4.4381   -4.4504    0.0000 C   0  0
    5.6125   -7.8624    0.0000 O   0  0
    5.6125   -3.8941    0.0000 C   0  0  1  0  0  0
    5.6125   -2.5961    0.0000 O   0  0
    4.4875   -1.9532    0.0000 C   0  0
    3.3626   -2.5961    0.0000 C   0  0  1  0  0  0
    4.4875   -0.6552    0.0000 O   0  0
    3.3626   -3.8941    0.0000 C   0  0
    2.2376   -1.9532    0.0000 C   0  0
    2.2376   -4.5370    0.0000 O   0  0
    1.1126   -2.5961    0.0000 C   0  0
    2.2376   -0.6552    0.0000 C   0  0
    0.0000   -1.9532    0.0000 C   0  0
    1.1126    0.0000    0.0000 C   0  0
    0.0000   -0.6552    0.0000 C   0  0
  1  2  1  0
  2  3  1  1
  2  4  1  0
  3  5  1  0
  3  6  1  1
  4  7  1  0
  4  8  1  1
  5  7  1  0
  5  9  1  6
  6 10  1  0
  7  9  1  6
  8 10  1  1
 10 11  1  1
 11 12  1  1
 12 13  1  1
 12 14  2  0
 13 15  1  1
 13 16  1  1
 15 17  1  1
 16 18  2  0
 16 19  1  1
 18 20  1  1
 19 21  2  0
 20 22  2  0
 21 22  1  0
M  END
> <Name>
Scopolamine hydrobromide trihydrate

> <Substance ID>
690

> <Synonyms>
Atroscine hydrobromide trihydrate; hyoscine hydrobromide trihydrate; Scopolamine hydrobromidetrihydrate; scopolammonium bromide trihydrate.

> <CAS>
6533-68-2

> <Reference>
NTP445

> <MolWeight>
438.32

> <Formula>
C17H21NO4

> <SMILES>
O=C(O[C@@H]1[C@H2][C@@H]2[N@@]([C@H]([C@@H2]1)[C@H]3O[C@@H]23)[C@@H3])[C@H](c4ccccc4)[C@@H2]O.[Br].[O].[O].[O]

> <TD50_Rat>
NP

> <TD50_Mouse>
NP

> <Canc>
1

> <SAL>
1

> <Rat_Male_Canc>
1

> <Rat_Female_Canc>
1

> <Mouse_Male_Canc>
1

> <Mouse_Female_Canc>
1

> <Rat_Male_NTP>
NE

> <Rat_Female_NTP>
NE

> <Mouse_Male_NTP>
NE

> <Mouse_Female_NTP>
NE

> <Status>
Non-Carcinogen

> <New_Data>
true

> <iscarc>
0

$$$$
Sodium Xylenesulfonate
  SciTegic06161615502D

 12 12  0  0  0  0            999 V2000
    3.4557   -3.3164    0.0000 C   0  0
    3.4557   -4.6455    0.0000 C   0  0
    1.1519   -4.6455    0.0000 C   0  0
    1.1519   -3.3164    0.0000 C   0  0
    2.3038   -5.3164    0.0000 C   0  0
    2.3038   -2.6582    0.0000 C   0  0
    2.3038   -1.3291    0.0000 S   0  0
    2.3038    0.0000    0.0000 O   0  5
    0.9747   -1.3291    0.0000 O   0  0
    3.6329   -1.3291    0.0000 O   0  0
    4.6075   -5.3164    0.0000 C   0  0
    0.0000   -5.3164    0.0000 C   0  0
  1  2  2  0
  1  6  1  0
  2  5  1  0
  2 11  1  0
  3  4  1  0
  3  5  2  0
  3 12  1  0
  4  6  2  0
  6  7  1  0
  7  8  1  0
  7  9  2  0
  7 10  2  0
M  CHG  1   8  -1
M  END
> <Name>
Sodium Xylenesulfonate

> <Substance ID>
692

> <Synonyms>
Alkatrope sx-40; calsoft sxs 96; carsosulf sxs; conco sxs; cyclophil sxs30; eltesol sx 30; eltesol sx93; hydrotrope; naxonate; naxonate g; reworyl nxs40; richonate sxs; Sodium m-xylenesulfonate; sodiu
m dimethylbenzenesulfonate; dimethylbenzenesulfonic acid, sodium salt; xylenesulfonic acid, sodium salt; stepanate x; surco sxs; ultrawet 40sx; witconate sxs.

> <CAS>
1300-72-7

> <Reference>
NTP464

> <MolWeight>
208.21

> <Formula>
C8H9O3S

> <SMILES>
[Na+].[O-]S(=O)(=O)c1cc(C)cc(C)c1

> <TD50_Rat>
NP

> <TD50_Mouse>
NP

> <Canc>
1

> <SAL>
1

> <Rat_Male_Canc>
1

> <Rat_Female_Canc>
1

> <Mouse_Male_Canc>
1

> <Mouse_Female_Canc>
1

> <Rat_Male_NTP>
NE

> <Rat_Female_NTP>
NE

> <Mouse_Male_NTP>
NE

> <Mouse_Female_NTP>
NE

> <Status>
Non-Carcinogen

> <New_Data>
true

> <iscarc>
0

$$$$
Oxazepam
  SciTegic06161615502D

 20 22  0  0  1  0            999 V2000
    5.4066   -7.5139    0.0000 Cl  0  0
    5.5176   -6.1830    0.0000 C   0  0
    4.4085   -5.4344    0.0000 C   0  0
    6.7098   -5.6007    0.0000 C   0  0
    4.5194   -4.1035    0.0000 C   0  0
    6.8207   -4.2976    0.0000 C   0  0
    3.2994   -3.5213    0.0000 C   0  0
    5.7116   -3.5213    0.0000 C   0  0
    3.0222   -2.2458    0.0000 N   0  0
    2.2736   -4.3530    0.0000 C   0  0
    6.0166   -2.2458    0.0000 N   0  0
    3.8540   -1.1922    0.0000 C   0  0  1  0  0  0
    2.4676   -5.6839    0.0000 C   0  0
    1.0259   -3.8817    0.0000 C   0  0
    5.1848   -1.1922    0.0000 C   0  0
    3.2717    0.0000    0.0000 O   0  0
    1.4140   -6.5157    0.0000 C   0  0
    0.0000   -4.7135    0.0000 C   0  0
    5.7671    0.0000    0.0000 O   0  0
    0.1941   -6.0166    0.0000 C   0  0
  1  2  1  0
  2  3  2  0
  2  4  1  0
  3  5  1  0
  4  6  2  0
  5  7  1  0
  5  8  2  0
  6  8  1  0
  7  9  2  0
  7 10  1  6
  8 11  1  0
  9 12  1  1
 10 13  2  0
 10 14  1  6
 11 15  1  1
 12 15  1  6
 12 16  1  1
 13 17  1  6
 14 18  2  0
 15 19  2  0
 17 20  2  0
 18 20  1  0
M  END
> <Name>
Oxazepam

> <Substance ID>
693

> <Synonyms>
7-Chloro-1,3-dihydro-3-hydroxy-5-phenyl-2H-1,4-benzodiazepin-2-one; 7-chloro-3-hydroxy-5-phenyl-1,3-dihydro-2H-1,4-benzodiazepin-2-one; Noctazepam; notaral; nozepam; OX; Oxanid; Oxa-Puren; oxazepam; p
acienx; Praxiten; Propax; psicopax; psiquiwas; QUEN; Quilibrex; ro 5-6789; Rondar; Serax; Serenal; Serenid; serenid-d; Serepax; Seresta; serpax; Sigacalm; Sobril; tarchomin; Tazepam; tranquo-buscopan-
wirkstoff; Uskan; Vaben; wy-3498; Z10-TR; Zaxopam; Abboxampam; Adumbran; Alepam; ansiolisina; ansioxacepam; anxiolit; anxiolit retard; Aplakil; Apo-astress; Azutranguil; Azutranquil; Bonare; drimuel;
droxacepam; Durazepam; Enidrel; Hilong; Isodin; Lederpam; Limbial; Murelax; N-desmethyltemazepam; Nesontil.

> <CAS>
604-75-1

> <Reference>
NTP443 & NTP468

> <MolWeight>
286.72

> <Formula>
C15H11ClN2O2

> <SMILES>
Clc3cc\1c([N@H]C(=O)[C@H](O)/N=C/1c2ccccc2)cc3

> <TD50_Rat>
NP

> <TD50_Mouse>
35.8

> <Canc>
3

> <SAL>
1

> <Rat_Male_Canc>
2

> <Rat_Female_Canc>
1

> <Mouse_Male_Canc>
3

> <Mouse_Female_Canc>
3

> <Rat_Male_NTP>
EE

> <Rat_Female_NTP>
NE

> <Mouse_Male_NTP>
CE

> <Mouse_Female_NTP>
CE

> <Status>
Non-Carcinogen

> <CanonicalTautomer>
Yes

> <NumberOfTautomers>
3

> <New_Data>
true

> <iscarc>
0

$$$$
Polybrominated biphenyl
  SciTegic06161615502D

 18 19  0  0  1  0            999 V2000
    2.6609   -2.3061    0.0000 C   0  0
    1.9893   -3.4592    0.0000 C   0  0
    0.6589   -3.4592    0.0000 C   0  0
    0.0000   -2.3061    0.0000 C   0  0
    0.6589   -1.1531    0.0000 C   0  0
    1.9893   -1.1531    0.0000 C   0  0
    6.6396   -2.3061    0.0000 C   0  0
    5.9807   -3.4592    0.0000 C   0  0
    4.6502   -3.4592    0.0000 C   0  0
    3.9787   -2.3061    0.0000 C   0  0
    4.6502   -1.1531    0.0000 C   0  0
    5.9807   -1.1531    0.0000 C   0  0
    0.0000   -4.6122    0.0000 Br  0  0
    0.0000    0.0000    0.0000 Br  0  0
    2.6609    0.0000    0.0000 Br  0  0
    3.9787    0.0000    0.0000 Br  0  0
    6.6396    0.0000    0.0000 Br  0  0
    6.6396   -4.6122    0.0000 Br  0  0
  1  2  2  0
  1  6  1  0
  1 10  1  0
  2  3  1  0
  3  4  2  0
  3 13  1  0
  4  5  1  0
  5  6  2  0
  5 14  1  0
  6 15  1  0
  7  8  2  0
  7 12  1  6
  8  9  1  0
  8 18  1  1
  9 10  2  0
 10 11  1  6
 11 12  2  0
 11 16  1  6
 12 17  1  6
M  END
> <Name>
Polybrominated biphenyl

> <Substance ID>
694

> <Synonyms>
brominated biphenyl; Firemaster FF-1; PBB; polybrominated biphenyl (ff-1); Polybrominated biphenyl mixture.

> <CAS>
67774-32-7

> <Reference>
NTP244 & NTP398

> <MolWeight>
Unspecified

> <Formula>
C12H4Br6

> <SMILES>
Unspecified

> <TD50_Rat>
0.322

> <TD50_Mouse>
0.332

> <Canc>
3

> <SAL>
ND

> <Rat_Male_Canc>
3

> <Rat_Female_Canc>
3

> <Mouse_Male_Canc>
3

> <Mouse_Female_Canc>
3

> <Rat_Male_NTP>
CE

> <Rat_Female_NTP>
CE

> <Mouse_Male_NTP>
CE

> <Mouse_Female_NTP>
CE

> <Status>
Carcinogen

> <New_Data>
true

> <iscarc>
1

$$$$
Curcumin
  SciTegic06161615502D

 27 28  0  0  0  0            999 V2000
    9.2139   -9.9733    0.0000 C   0  0
   10.3656   -9.3025    0.0000 C   0  0
    9.2139  -11.3022    0.0000 C   0  0
    8.0622   -9.3025    0.0000 C   0  0
   11.5174   -9.9733    0.0000 C   0  0
   10.3656  -11.9603    0.0000 C   0  0
    6.9104   -9.9733    0.0000 C   0  0
   11.5174  -11.3022    0.0000 C   0  0
   12.6691   -9.3025    0.0000 O   0  0
    5.7587   -9.3025    0.0000 C   0  0
   12.6691  -11.9603    0.0000 O   0  0
   12.6691   -7.9736    0.0000 C   0  0
    5.7587   -7.9736    0.0000 C   0  0
    4.6069   -9.9733    0.0000 O   0  0
    4.6069   -7.3154    0.0000 C   0  0
    4.6069   -5.9865    0.0000 C   0  0
    3.4552   -7.9736    0.0000 O   0  0
    3.4552   -5.3157    0.0000 C   0  0
    3.4552   -3.9868    0.0000 C   0  0
    2.3035   -3.3286    0.0000 C   0  0
    4.6069   -3.3286    0.0000 C   0  0
    2.3035   -1.9997    0.0000 C   0  0
    4.6069   -1.9997    0.0000 C   0  0
    3.4552   -1.3289    0.0000 C   0  0
    1.1517   -1.3289    0.0000 O   0  0
    3.4552    0.0000    0.0000 O   0  0
    0.0000   -1.9997    0.0000 C   0  0
  1  2  2  0
  1  3  1  0
  1  4  1  0
  2  5  1  0
  3  6  2  0
  4  7  2  0
  5  8  2  0
  5  9  1  0
  6  8  1  0
  7 10  1  0
  8 11  1  0
  9 12  1  0
 10 13  1  0
 10 14  2  0
 13 15  1  0
 15 16  1  0
 15 17  2  0
 16 18  2  0
 18 19  1  0
 19 20  2  0
 19 21  1  0
 20 22  1  0
 21 23  2  0
 22 24  2  0
 22 25  1  0
 23 24  1  0
 24 26  1  0
 25 27  1  0
M  END
> <Name>
Curcumin

> <Substance ID>
695

> <Synonyms>
1,6-Heptadiene-3,5-dione, 1,7-bis(4-hydroxy-3-methoxyphenyl)-, (E,E)-; 1,7-bis(4-hydroxy-3-methoxyphenyl)-1,6-heptadiene-3,5-dione; diferuloylmethane; C.I. 75300; C.I. natural yellow 3; curouma; E-100
; gelbwurz; Haidr; Halad; haldar; Halud; indian saffron; kachs haldi; merita earth; Natural Yellow 3; safra d'inde; souchet; terra merita; tumeric yellow; yellow ginger; yellow root; YO-KIN.

> <CAS>
458-37-7

> <Reference>
NTP427

> <MolWeight>
368.39

> <Formula>
C21H20O6

> <SMILES>
O=C(C=Cc(ccc(O)c1OC)c1)CC(=O)C=Cc(ccc(O)c2OC)c2

> <TD50_Rat>
NP

> <TD50_Mouse>
NP

> <Canc>
2

> <SAL>
1

> <Rat_Male_Canc>
1

> <Rat_Female_Canc>
2

> <Mouse_Male_Canc>
2

> <Mouse_Female_Canc>
2

> <Rat_Male_NTP>
NE

> <Rat_Female_NTP>
EE

> <Mouse_Male_NTP>
EE

> <Mouse_Female_NTP>
EE

> <Status>
Carcinogen

> <CanonicalTautomer>
Yes

> <NumberOfTautomers>
4

> <New_Data>
true

> <iscarc>
1

$$$$
Codeine
  SciTegic06161615502D

 22 26  0  0  0  0            999 V2000
    3.1789   -2.4346    0.0000 C   0  0
    3.0023   -1.1732    0.0000 C   0  0
    1.8418   -0.6938    0.0000 C   0  0
    0.8326   -1.4633    0.0000 C   0  0
    0.9966   -2.7122    0.0000 C   0  0
    2.1697   -3.2041    0.0000 C   0  0
    0.0000   -3.4817    0.0000 O   0  0
    5.4243   -2.9519    0.0000 C   0  0
    5.0333    0.0000    0.0000 C   0  0
    3.7844   -0.1640    0.0000 C   0  0
    4.1755   -3.2041    0.0000 C   0  0
    6.2569   -3.9106    0.0000 C   0  0
    5.8406   -5.1090    0.0000 C   0  0
    4.6044   -5.3487    0.0000 C   0  0
    4.1881   -6.5471    0.0000 O   0  0
    3.7718   -4.4026    0.0000 C   0  0
    2.5734   -4.4026    0.0000 O   0  0
    0.1640   -4.7432    0.0000 C   0  0
    6.0425   -0.7695    0.0000 N   0  0
    6.2065   -2.0310    0.0000 C   0  0
    5.4370   -3.0402    0.0000 C   0  0
    7.1400   -0.1388    0.0000 C   0  0
  1  2  2  0
  1  6  1  0
  1 11  1  0
  2  3  1  0
  2 10  1  0
  3  4  2  0
  4  5  1  0
  5  6  2  0
  5  7  1  0
  6 17  1  0
  7 18  1  0
  8  9  1  0
  8 11  1  0
  8 12  1  0
  9 10  1  0
  9 19  1  0
 11 16  1  0
 11 21  1  0
 12 13  2  0
 13 14  1  0
 14 15  1  0
 14 16  1  0
 16 17  1  0
 19 22  1  0
 19 20  1  0
 20 21  1  0
M  END
> <Name>
Codeine

> <Substance ID>
696

> <Synonyms>
3-o-methylmorphine monohydrate; 7,8-didehydro-4,5-alpha-epoxy-3-methoxy-17-methylmorphinan-6-alpha-ol; 7,8-didehydro-4,5-epoxy-3-methoxy-17-methyl-(5alpha, 6alpha)-morphinan 6-ol; 7,8-didehydro-4,5-ep
oxy-3-methoxy-17-methylmorphinan-6-ol; Actacode; Calcidrine; codicept; Codalgin Forte Codate; (-)-codeine; codeinum; coducept; Methylmorphine; metilmorfina; morphine-3-methyl ether; morphine monomethy
l ether; N-methyl norcodine; N-methylnorcodeine; Novahistine DH; Nucofed; Robitussin AC; Tussar-2; Tussi-organidin.

> <CAS>
76-57-3

> <Reference>
NTP455

> <MolWeight>
299.37

> <Formula>
C18H21NO3

> <SMILES>
O[C@@H]1C2[C@@]34C5=C(C=CC(=C5O2)OC)CC(C3C=C1)N(C)CC4

> <TD50_Rat>
NP

> <TD50_Mouse>
NP

> <Canc>
1

> <SAL>
1

> <Rat_Male_Canc>
1

> <Rat_Female_Canc>
1

> <Mouse_Male_Canc>
1

> <Mouse_Female_Canc>
1

> <Rat_Male_NTP>
NE

> <Rat_Female_NTP>
NE

> <Mouse_Male_NTP>
NE

> <Mouse_Female_NTP>
NE

> <Status>
Non-Carcinogen

> <New_Data>
true

> <iscarc>
0

$$$$
Hexachlorocyclopentadiene
  SciTegic06161615502D

 11 11  0  0  0  0            999 V2000
    2.1185   -3.4102    0.0000 C   0  0
    1.3305   -2.3381    0.0000 C   0  0
    2.1185   -1.2659    0.0000 C   0  0
    3.3715   -1.6793    0.0000 C   0  0
    3.3715   -2.9969    0.0000 C   0  0
    4.4566   -0.8913    0.0000 Cl  0  0
    4.4566   -3.7849    0.0000 Cl  0  0
    2.3898   -4.7149    0.0000 Cl  0  0
    0.0000   -2.3381    0.0000 Cl  0  0
    1.7051    0.0000    0.0000 Cl  0  0
    1.1238   -4.3016    0.0000 Cl  0  0
  1  2  1  0
  1  5  1  0
  1  8  1  0
  1 11  1  0
  2  3  2  0
  2  9  1  0
  3  4  1  0
  3 10  1  0
  4  5  2  0
  4  6  1  0
  5  7  1  0
M  END
> <Name>
Hexachlorocyclopentadiene

> <Substance ID>
703

> <Synonyms>
1,2,3,4,5,5-Hexachloro-1,3-Cyclopentadiene; 1,2,3,4,5,5-Hexachlorocyclopentadiene; C56; graphlox; HCCPD; Hexachloro-1,3-cyclopentadiene; hrs 1655; Perchloro-1,3-cyclopentadiene; Perchlorocyclopentadie
ne.

> <CAS>
77-47-4

> <Reference>
NTP437

> <MolWeight>
272.77

> <Formula>
C5Cl6

> <SMILES>
ClC1(C(=C(C(=C1Cl)Cl)Cl)Cl)Cl

> <TD50_Rat>
NP

> <TD50_Mouse>
NP

> <Canc>
1

> <SAL>
1

> <Rat_Male_Canc>
1

> <Rat_Female_Canc>
1

> <Mouse_Male_Canc>
1

> <Mouse_Female_Canc>
1

> <Rat_Male_NTP>
NE

> <Rat_Female_NTP>
NE

> <Mouse_Male_NTP>
NE

> <Mouse_Female_NTP>
NE

> <Status>
Non-Carcinogen

> <New_Data>
true

> <iscarc>
0

$$$$
Chlorinated Water
  SciTegic06161615502D

  2  1  0  0  0  0            999 V2000
    0.0000   -1.3300    0.0000 Cl  0  0
    0.0000    0.0000    0.0000 Cl  0  0
  1  2  1  0
M  END
> <Name>
Chlorinated Water

> <Substance ID>
704

> <Synonyms>
Dichlorine; Chlorine; Chlorine; Molecular Chlorine.

> <CAS>
7782-50-5

> <Reference>
NTP392

> <MolWeight>
70.91

> <Formula>
Cl2

> <SMILES>
ClCl

> <TD50_Rat>
NP

> <TD50_Mouse>
NP

> <Canc>
2

> <SAL>
1

> <Rat_Male_Canc>
1

> <Rat_Female_Canc>
2

> <Mouse_Male_Canc>
1

> <Mouse_Female_Canc>
1

> <Rat_Male_NTP>
NE

> <Rat_Female_NTP>
EE

> <Mouse_Male_NTP>
NE

> <Mouse_Female_NTP>
NE

> <Status>
Carcinogen

> <New_Data>
true

> <iscarc>
1

$$$$
C.I. Direct Blue 218
  SciTegic06161615502D

 58 63  0  0  0  0            999 V2000
   12.6726  -13.1292    0.0000 O   0  0
   12.6726  -11.7973    0.0000 C   0  0
   11.5182  -11.1376    0.0000 C   0  5
   11.5182   -9.8057    0.0000 C   0  0
   12.6726   -9.1461    0.0000 C   0  0
   13.8269   -9.8057    0.0000 C   0  0
   13.8269  -11.1376    0.0000 C   0  0
   14.9813  -11.7973    0.0000 N   0  0
   16.1356  -11.1376    0.0000 N   0  0
   17.2900  -11.7973    0.0000 C   0  0
   18.4317  -11.1376    0.0000 C   0  0
   19.5860  -11.7973    0.0000 C   0  0
   19.5860  -13.1292    0.0000 C   0  0
   20.7404  -13.8015    0.0000 C   0  0
   20.7404  -15.1335    0.0000 C   0  0
   19.5860  -15.7931    0.0000 C   0  0
   18.4317  -15.1335    0.0000 C   0  0
   17.2900  -15.7931    0.0000 N   0  0
   18.4317  -13.8015    0.0000 C   0  0
   17.2900  -13.1292    0.0000 C   0  0
   16.1356  -13.8015    0.0000 O   0  0
   21.8947  -15.7931    0.0000 S   0  0
   21.2224  -16.9475    0.0000 O   0  5
   23.0491  -16.4528    0.0000 O   0  0
   22.5544  -14.6388    0.0000 O   0  0
   18.4317   -9.8057    0.0000 S   0  0
   19.7636   -9.8057    0.0000 O   0  5
   18.4317   -8.4737    0.0000 O   0  0
   17.1124   -9.8057    0.0000 O   0  0
   10.3765   -9.1461    0.0000 C   0  0
    9.2222   -9.8057    0.0000 C   0  0
    8.0678   -9.1461    0.0000 C   0  0
    8.0678   -7.8141    0.0000 C   0  0
    6.9135   -7.1418    0.0000 N   0  0
    6.9135   -5.8098    0.0000 N   0  0
    5.7591   -5.1502    0.0000 C   0  0
    4.6047   -5.8098    0.0000 C   0  0
    3.4631   -5.1502    0.0000 C   0  0
    3.4631   -3.8183    0.0000 C   0  0
    2.3087   -3.1586    0.0000 C   0  0
    2.3087   -1.8267    0.0000 C   0  0
    3.4631   -1.1544    0.0000 C   0  0
    4.6047   -1.8267    0.0000 C   0  0
    5.7591   -1.1544    0.0000 N   0  0
    4.6047   -3.1586    0.0000 C   0  0
    5.7591   -3.8183    0.0000 C   0  0
    6.9135   -3.1586    0.0000 O   0  0
    1.1544   -1.1544    0.0000 S   0  0
    1.8140    0.0000    0.0000 O   0  5
    0.0000   -0.4947    0.0000 O   0  0
    0.4947   -2.3087    0.0000 O   0  0
    4.6047   -7.1418    0.0000 S   0  0
    3.2855   -7.1418    0.0000 O   0  5
    4.6047   -8.4737    0.0000 O   0  0
    5.9367   -7.1418    0.0000 O   0  0
    9.2222   -7.1418    0.0000 C   0  0
    9.2222   -5.8098    0.0000 O   0  0
   10.3765   -7.8141    0.0000 C   0  0
  1  2  1  0
  2  3  2  0
  2  7  1  0
  3  4  1  0
  4  5  2  0
  4 30  1  0
  5  6  1  0
  6  7  2  0
  7  8  1  0
  8  9  2  0
  9 10  1  0
 10 11  2  0
 10 20  1  0
 11 12  1  0
 11 26  1  0
 12 13  2  0
 13 14  1  0
 13 19  1  0
 14 15  2  0
 15 16  1  0
 15 22  1  0
 16 17  2  0
 17 18  1  0
 17 19  1  0
 19 20  2  0
 20 21  1  0
 22 23  1  0
 22 24  2  0
 22 25  2  0
 26 27  1  0
 26 28  2  0
 26 29  2  0
 30 31  2  0
 30 58  1  0
 31 32  1  0
 32 33  2  0
 33 34  1  0
 33 56  1  0
 34 35  2  0
 35 36  1  0
 36 37  2  0
 36 46  1  0
 37 38  1  0
 37 52  1  0
 38 39  2  0
 39 40  1  0
 39 45  1  0
 40 41  2  0
 41 42  1  0
 41 48  1  0
 42 43  2  0
 43 44  1  0
 43 45  1  0
 45 46  2  0
 46 47  1  0
 48 49  1  0
 48 50  2  0
 48 51  2  0
 52 53  1  0
 52 54  2  0
 52 55  2  0
 56 57  1  0
 56 58  2  0
M  CHG  5   3  -1  23  -1  27  -1  49  -1  53  -1
M  END
> <Name>
C.I. Direct Blue 218

> <Substance ID>
706

> <Synonyms>
Anamil supra blue 9gl; direct blue 218; C.I. 24401; fast blue 7gln; fastusol blue 9glp; [mu-[[3,3'-[(3,3'-dihydroxy[1,1'-biphenyl]-4,4'-diyl)bis(azo)]bis[5-amino-4-hydroxy-2,7-naphthalenedisulfonato]]
(4-)]]dicopper, tetrasodium salt; pontamine bond blue b.

> <CAS>
28407-37-6

> <Reference>
NTP430

> <MolWeight>
964.76

> <Formula>
C32H19N6O16S4

> <SMILES>
Oc3cc(ccc3/N=N/c2c(cc1cc(cc(N)c1c2O)S([O-])(=O)=O)S([O-])(=O)=O)c6ccc(/N=N/c5c(cc4cc(cc(N)c4c5O)S([O-])(=O)=O)S([O-])(=O)=O)c(O)c6.[Na+].[Na+].[Na+].[Na+]

> <TD50_Rat>
1570

> <TD50_Mouse>
857

> <Canc>
3

> <SAL>
1

> <Rat_Male_Canc>
3

> <Rat_Female_Canc>
1

> <Mouse_Male_Canc>
3

> <Mouse_Female_Canc>
3

> <Rat_Male_NTP>
SE

> <Rat_Female_NTP>
NE

> <Mouse_Male_NTP>
CE

> <Mouse_Female_NTP>
CE

> <Status>
Non-Carcinogen

> <CanonicalTautomer>
Yes

> <NumberOfTautomers>
24

> <New_Data>
true

> <iscarc>
0

$$$$
1,2-Dihydro-2,2,4-trimethylquinoline
  SciTegic06161615502D

 13 14  0  0  0  0            999 V2000
    0.0000   -0.6673    0.0000 C   0  0
    1.1550    0.0000    0.0000 C   0  0
    2.2972   -0.6673    0.0000 C   0  0
    0.0000   -2.0020    0.0000 C   0  0
    1.1550   -2.6694    0.0000 C   0  0
    2.2972   -2.0020    0.0000 C   0  0
    3.4522   -2.6694    0.0000 N   0  0
    3.4522   -3.9912    0.0000 C   0  0
    2.2972   -4.6586    0.0000 C   0  0
    1.1550   -3.9912    0.0000 C   0  0
    0.0000   -4.6586    0.0000 C   0  0
    4.7869   -3.9912    0.0000 C   0  0
    4.1196   -5.1462    0.0000 C   0  0
  1  2  2  0
  1  4  1  0
  2  3  1  0
  3  6  2  0
  4  5  2  0
  5  6  1  0
  5 10  1  0
  6  7  1  0
  7  8  1  0
  8  9  1  0
  8 12  1  0
  8 13  1  0
  9 10  2  0
 10 11  1  0
M  END
> <Name>
1,2-Dihydro-2,2,4-trimethylquinoline

> <Substance ID>
707

> <Synonyms>
2,2,4-trimethyl-1,2-dihydroquinoline; acetonanil; acetonanyl; Agerite resin D; DHTMQ; flectol a; Flectol H; flectol pastilles; TMQ; vulkanox hs; vulkanox hs/lg.

> <CAS>
147-47-7

> <Reference>
NTP456

> <MolWeight>
173.26

> <Formula>
C12H15N

> <SMILES>
N(c(c(C(=C1)C)ccc2)c2)C1(C)C

> <TD50_Rat>
ND

> <TD50_Mouse>
ND

> <Canc>
3

> <SAL>
1

> <Rat_Male_Canc>
3

> <Rat_Female_Canc>
1

> <Mouse_Male_Canc>
ND

> <Mouse_Female_Canc>
ND

> <Rat_Male_NTP>
SE

> <Rat_Female_NTP>
NE

> <Mouse_Male_NTP>
ND

> <Mouse_Female_NTP>
ND

> <Status>
Non-Carcinogen

> <New_Data>
true

> <iscarc>
0

$$$$
Mercuric chloride
  SciTegic06161615503D

  3  2  0  0  0  0            999 V2000
   -0.0293    2.3057    0.0147 Hg  0  0
    0.0021   -0.0041    0.0020 Cl  0  0
   -0.0606    4.6154    0.0274 Cl  0  0
  1  2  1  0
  1  3  1  0
M  END
> <Name>
Mercuric chloride

> <Substance ID>
711

> <Synonyms>
Bichloride of Mercury; dichloromercury; Corrosive mercury chloride; Corrosive Sublimate; mercury bichloride; Mercury chloride; Mercury chloride (2); Mercuric bichloride; mercuric chloride; Mercury (II
) Chloride; Mercury perchloride; perchloride of mercury; sublimate; TL 898.

> <CAS>
7487-94-7

> <Reference>
NTP408

> <MolWeight>
271.5

> <Formula>
Cl2Hg

> <SMILES>
Cl[Hg]Cl

> <TD50_Rat>
3.12

> <TD50_Mouse>
NP

> <Canc>
3

> <SAL>
1

> <Rat_Male_Canc>
3

> <Rat_Female_Canc>
2

> <Mouse_Male_Canc>
2

> <Mouse_Female_Canc>
1

> <Rat_Male_NTP>
SE

> <Rat_Female_NTP>
EE

> <Mouse_Male_NTP>
EE

> <Mouse_Female_NTP>
NE

> <Status>
Carcinogen

> <New_Data>
true

> <iscarc>
1

$$$$
Nickel Oxide
  SciTegic06161615502D

  2  1  0  0  0  0            999 V2000
    0.0000    0.0000    0.0000 Ni  0  0
    1.3300    0.0000    0.0000 O   0  0
  1  2  2  0
M  END
> <Name>
Nickel Oxide

> <Substance ID>
713

> <Synonyms>
C.I. 77777; green nickel oxide; mononickel oxide; Nickel (II) oxide; Nickelous oxide; nickel(II) oxide (1:1); nickel(II) oxide, black; Nickel (II) oxide, green; Nickel Monoxide; Nickel oxide; nickel o
xide sinter 75; Nickel oxide-tungsten oxide; nickel protoxide.

> <CAS>
1313-99-1

> <Reference>
NTP451

> <MolWeight>
74.69

> <Formula>
NiO

> <SMILES>
[Ni]=O

> <TD50_Rat>
ND

> <TD50_Mouse>
NP

> <Canc>
3

> <SAL>
ND

> <Rat_Male_Canc>
3

> <Rat_Female_Canc>
3

> <Mouse_Male_Canc>
1

> <Mouse_Female_Canc>
2

> <Rat_Male_NTP>
SE

> <Rat_Female_NTP>
SE

> <Mouse_Male_NTP>
NE

> <Mouse_Female_NTP>
EE

> <Status>
Carcinogen

> <New_Data>
true

> <iscarc>
1

$$$$
Chlorpheniramine maleate
  SciTegic06161615502D

 19 20  0  0  1  0            999 V2000
    1.1477   -7.9765    0.0000 C   0  0
    0.0000   -7.3070    0.0000 C   0  0
    0.0000   -5.9871    0.0000 C   0  0
    1.1477   -5.3176    0.0000 C   0  0
    2.2954   -5.9871    0.0000 C   0  0
    2.2954   -7.3070    0.0000 N   0  0
    3.4622   -5.3176    0.0000 C   0  0  1  0  0  0
    4.6099   -5.9871    0.0000 C   0  0
    5.7576   -5.3176    0.0000 C   0  0
    6.9053   -5.9871    0.0000 N   0  0
    3.4622   -3.9787    0.0000 C   0  0
    2.2954   -3.3283    0.0000 C   0  0
    2.2954   -1.9893    0.0000 C   0  0
    3.4622   -1.3198    0.0000 C   0  0
    4.6099   -1.9893    0.0000 C   0  0
    4.6099   -3.3283    0.0000 C   0  0
    3.4622    0.0000    0.0000 Cl  0  0
    8.0530   -5.3176    0.0000 C   0  0
    6.9053   -7.3070    0.0000 C   0  0
  1  2  2  0
  1  6  1  0
  2  3  1  0
  3  4  2  0
  4  5  1  0
  5  6  2  0
  5  7  1  0
  7  8  1  6
  7 11  1  0
  8  9  1  0
  9 10  1  6
 10 18  1  0
 10 19  1  6
 11 12  2  0
 11 16  1  6
 12 13  1  0
 13 14  2  0
 14 15  1  6
 14 17  1  0
 15 16  2  0
M  END
> <Name>
Chlorpheniramine maleate

> <Substance ID>
742

> <Synonyms>
1-p-chlorophenyl-1-(2-pyridyl)-3-dimethylaminopropane maleate; 1-(N,N-dimethylamino)-3-(p-chlorophenyl)-3-(alpha-pyridyl)propane maleate; 2-(p-chloro-alpha-(2-(dimethylamino)ethyl)benzyl)pyridine male
ate (1:1); chloropiril; chloroprophenpyridamine maleate; chlor-trimeton maleate; gamma-(4-chlorophenyl)-N,N-dimethyl-2-pyridinepropanamine(Z)-2-butenedioate (1:1).

> <CAS>
113-92-8

> <Reference>
NTP317

> <MolWeight>
274.79

> <Formula>
C16H19ClN2

> <SMILES>
C[N](CCC(C1=CC=C(C=C1)Cl)C2=NC=CC=C2)C

> <TD50_Rat>
NP

> <TD50_Mouse>
NP

> <Canc>
1

> <SAL>
1

> <Rat_Male_Canc>
1

> <Rat_Female_Canc>
1

> <Mouse_Male_Canc>
1

> <Mouse_Female_Canc>
1

> <Rat_Male_NTP>
NE

> <Rat_Female_NTP>
NE

> <Mouse_Male_NTP>
NE

> <Mouse_Female_NTP>
NE

> <Status>
Non-Carcinogen

> <New_Data>
true

> <iscarc>
0

$$$$
Fumonisin B1
  SciTegic06161615502D

 50 49  0  0  1  0            999 V2000
   10.3709  -17.9560    0.0000 C   0  0
    9.2186  -18.6145    0.0000 C   0  0
    8.0663  -17.9560    0.0000 C   0  0  2  0  0  0
    8.0663  -16.6264    0.0000 C   0  0
    6.9139  -15.9553    0.0000 C   0  0
    6.9139  -14.6256    0.0000 O   0  0
    8.0663  -13.9672    0.0000 C   0  0  2  0  0  0
    8.0663  -12.6376    0.0000 C   0  0
    9.2186  -11.9664    0.0000 C   0  0
    9.2186  -10.6368    0.0000 C   0  0
   10.3709   -9.9784    0.0000 C   0  0
   10.3709   -8.6488    0.0000 C   0  0
   11.5232   -7.9776    0.0000 C   0  0
   11.5232   -6.6480    0.0000 C   0  0
   12.6756   -5.9896    0.0000 C   0  0
   12.6756   -4.6599    0.0000 C   0  0
   13.8152   -3.9888    0.0000 C   0  0  2  0  0  0
   13.8152   -2.6592    0.0000 C   0  0
   14.9675   -2.0007    0.0000 C   0  0  2  0  0  0
   14.9675   -0.6711    0.0000 C   0  0  2  0  0  0
   11.5232  -18.6145    0.0000 O   0  0
   10.3709  -16.6264    0.0000 O   0  0
    6.9139  -18.6145    0.0000 C   0  0
    6.9139  -19.9441    0.0000 O   0  0
    5.7616  -17.9560    0.0000 O   0  0
    5.7616  -16.6264    0.0000 O   0  0
    9.2186  -14.6256    0.0000 C   0  0  1  0  0  0
    9.2186  -15.9553    0.0000 C   0  0
   10.3709  -13.9672    0.0000 C   0  0
   10.3709  -12.6376    0.0000 C   0  0
   11.5232  -11.9664    0.0000 C   0  0
   11.5232  -10.6368    0.0000 C   0  0
    6.9139  -11.9664    0.0000 O   0  0
    5.7616  -12.6376    0.0000 C   0  0
    5.7616  -13.9672    0.0000 O   0  0
    4.6093  -11.9664    0.0000 C   0  0
    3.4570  -12.6376    0.0000 C   0  0  2  0  0  0
    2.3046  -11.9664    0.0000 C   0  0
    3.4570  -13.9672    0.0000 C   0  0
    2.3046  -14.6256    0.0000 O   0  0
    4.6093  -14.6256    0.0000 O   0  0
    1.1523  -12.6376    0.0000 C   0  0
    1.1523  -13.9672    0.0000 O   0  0
    0.0000  -11.9664    0.0000 O   0  0
    8.0663   -9.9784    0.0000 C   0  0
    9.2186   -7.9776    0.0000 O   0  0
   14.9675   -4.6599    0.0000 O   0  0
   16.1199   -2.6592    0.0000 O   0  0
   13.8152    0.0000    0.0000 C   0  0
   16.1199    0.0000    0.0000 N   0  0
  1  2  1  0
  1 21  1  0
  1 22  2  0
  2  3  1  0
  3  4  1  6
  3 23  1  1
  4  5  1  0
  5  6  1  6
  5 26  2  0
  6  7  1  0
  7  8  1  6
  7 27  1  0
  8  9  1  0
  8 33  1  0
  9 10  1  6
 10 11  1  0
 10 45  1  0
 11 12  1  6
 12 13  1  0
 12 46  1  0
 13 14  1  6
 14 15  1  0
 15 16  1  6
 16 17  1  0
 17 18  1  6
 17 47  1  0
 18 19  1  0
 19 20  1  6
 19 48  1  0
 20 49  1  6
 20 50  1  0
 23 24  1  1
 23 25  2  0
 27 28  1  6
 27 29  1  0
 29 30  1  6
 30 31  1  0
 31 32  1  6
 33 34  1  0
 34 35  2  0
 34 36  1  1
 36 37  1  0
 37 38  1  1
 37 39  1  0
 38 42  1  0
 39 40  1  0
 39 41  2  0
 42 43  1  1
 42 44  2  0
M  END
> <Name>
Fumonisin B1

> <Substance ID>
764

> <Synonyms>
Fungal metabolite from Fusarium monliforme.

> <CAS>
116355-83-0

> <Reference>
NTP496

> <MolWeight>
721.84

> <Formula>
C34H59NO15

> <SMILES>
O=C(O)[C@H2][C@H](C(=O)O)[C@H2]C(=O)O[C@@H]([C@@H]([C@H3])[C@H2][C@H2][C@H2][C@@H3])[C@@H](OC(=O)[C@@H2][C@@H](C(=O)O)[C@H2]C(=O)O)[C@@H2][C@@H]([C@H3])[C@@H2][C@@H](O)[C@H2][C@@H2][C@@H2][C@@H2][C@@H
](O)[C@H2][C@@H](O)[C@H]([N@H2])[C@@H3]

> <TD50_Rat>
1.16

> <TD50_Mouse>
ND

> <Canc>
3

> <SAL>
1

> <Rat_Male_Canc>
3

> <Rat_Female_Canc>
1

> <Mouse_Male_Canc>
1

> <Mouse_Female_Canc>
3

> <Rat_Male_NTP>
CE

> <Rat_Female_NTP>
NE

> <Mouse_Male_NTP>
NE

> <Mouse_Female_NTP>
CE

> <Status>
Non-Carcinogen

> <New_Data>
true

> <iscarc>
0

$$$$
Methacrylonitrile
  SciTegic06161615502D

  5  4  0  0  0  0            999 V2000
    0.0000   -2.0034    0.0000 C   0  0
    1.1539   -1.3314    0.0000 C   0  0
    2.3077   -2.0034    0.0000 C   0  0
    3.4489   -2.6628    0.0000 N   0  0
    1.1539    0.0000    0.0000 C   0  0
  1  2  1  0
  2  3  1  0
  2  5  2  0
  3  4  3  0
M  END
> <Name>
Methacrylonitrile

> <Substance ID>
765

> <Synonyms>
2-cyanopropene; 2-cyanopropene-1; 2-Methyl-2-Propenenitrile; 2-methylpropenenitrile; alpha-Methylacrylonitrile; Isopropene Cyanide; Isopropenylcarbonitrile; MAN; Methyl Acrylonitrile.

> <CAS>
126-98-7

> <Reference>
NTP497

> <MolWeight>
67.09

> <Formula>
C4H5N

> <SMILES>
C(#N)C(=C)C

> <TD50_Rat>
NP

> <TD50_Mouse>
NP

> <Canc>
1

> <SAL>
1

> <Rat_Male_Canc>
1

> <Rat_Female_Canc>
1

> <Mouse_Male_Canc>
1

> <Mouse_Female_Canc>
1

> <Rat_Male_NTP>
NE

> <Rat_Female_NTP>
NE

> <Mouse_Male_NTP>
NE

> <Mouse_Female_NTP>
NE

> <Status>
Non-Carcinogen

> <New_Data>
true

> <iscarc>
0

$$$$
4-Nitrotoluene
  SciTegic06161615502D

 10 10  0  0  0  0            999 V2000
    1.1517    0.0000    0.0000 C   0  0
    1.1517   -1.3289    0.0000 C   0  0
    2.3035   -1.9997    0.0000 C   0  0
    2.3035   -3.3286    0.0000 C   0  0
    1.1517   -3.9868    0.0000 C   0  0
    0.0000   -3.3286    0.0000 C   0  0
    0.0000   -1.9997    0.0000 C   0  0
    1.1517   -5.3157    0.0000 N   0  3
    0.0000   -5.9865    0.0000 O   0  5
    2.3035   -5.9865    0.0000 O   0  0
  1  2  1  0
  2  3  1  0
  2  7  2  0
  3  4  2  0
  4  5  1  0
  5  6  2  0
  5  8  1  0
  6  7  1  0
  8  9  1  0
  8 10  2  0
M  CHG  2   8   1   9  -1
M  END
> <Name>
4-Nitrotoluene

> <Substance ID>
766

> <Synonyms>
4-Methylnitrobenzene; p-nitrophenylmethane; 4-nitrotoluol; Benzene, 1-methyl-4-nitro-; PNT.

> <CAS>
99-99-0

> <Reference>
NTP498

> <MolWeight>
137.14

> <Formula>
C7H7NO2

> <SMILES>
N(=O)(=O)c(ccc(c1)C)c1

> <TD50_Rat>
ND

> <TD50_Mouse>
NP

> <Canc>
3

> <SAL>
1

> <Rat_Male_Canc>
2

> <Rat_Female_Canc>
3

> <Mouse_Male_Canc>
2

> <Mouse_Female_Canc>
1

> <Rat_Male_NTP>
EE

> <Rat_Female_NTP>
SE

> <Mouse_Male_NTP>
EE

> <Mouse_Female_NTP>
NE

> <Status>
Carcinogen

> <New_Data>
true

> <iscarc>
1

$$$$
Indium phosphide
  SciTegic06161615502D

  2  1  0  0  0  0            999 V2000
    0.0000    0.0000    0.0000 In  0  0
    1.3300    0.0000    0.0000 P   0  0
  1  2  3  0
M  END
> <Name>
Indium phosphide

> <Substance ID>
767

> <Synonyms>
Indium (III) phosphide; Indium phosphide, 99.999% (metals basis).

> <CAS>
22398-80-7

> <Reference>
NTP499

> <MolWeight>
145.79

> <Formula>
InP

> <SMILES>
[In]#P

> <TD50_Rat>
ND

> <TD50_Mouse>
ND

> <Canc>
3

> <SAL>
ND

> <Rat_Male_Canc>
3

> <Rat_Female_Canc>
3

> <Mouse_Male_Canc>
3

> <Mouse_Female_Canc>
3

> <Rat_Male_NTP>
CE

> <Rat_Female_NTP>
CE

> <Mouse_Male_NTP>
CE

> <Mouse_Female_NTP>
CE

> <Status>
Carcinogen

> <New_Data>
true

> <iscarc>
1

$$$$
4,4[-Dichlorodiphenyl sulphone]
  SciTegic06161615502D

 17 18  0  0  0  0            999 V2000
    7.3039   -0.1695    0.0000 C   0  0
    8.6291   -0.1695    0.0000 C   0  0
    9.2917   -1.3252    0.0000 C   0  0
    8.6291   -2.4809    0.0000 C   0  0
    7.3039   -2.4809    0.0000 C   0  0
    6.6413   -1.3252    0.0000 C   0  0
    1.9878   -0.1695    0.0000 C   0  0
    3.3130   -0.1695    0.0000 C   0  0
    3.9910   -1.3252    0.0000 C   0  0
    3.3130   -2.4809    0.0000 C   0  0
    1.9878   -2.4809    0.0000 C   0  0
    1.3252   -1.3252    0.0000 C   0  0
    0.0000   -1.3252    0.0000 Cl  0  0
    5.3162   -1.3252    0.0000 S   0  0
    5.3162    0.0000    0.0000 O   0  0
    5.3162   -2.6504    0.0000 O   0  0
   10.6323   -1.3252    0.0000 Cl  0  0
  1  2  2  0
  1  6  1  0
  2  3  1  0
  3  4  2  0
  3 17  1  0
  4  5  1  0
  5  6  2  0
  6 14  1  0
  7  8  1  0
  7 12  2  0
  8  9  2  0
  9 10  1  0
  9 14  1  0
 10 11  2  0
 11 12  1  0
 12 13  1  0
 14 15  2  0
 14 16  2  0
M  END
> <Name>
4,4[-Dichlorodiphenyl sulphone]

> <Substance ID>
768

> <Synonyms>
1,1'-sulfonylbis(4-chlorobenzene); 4,4'-dichlorophenyl sulfone; 4-chloro-1-(4-chlorophenylsulfonyl)benzene; p-chlorophenyl sulfone; bis(p-chlorophenyl) sulfone.

> <CAS>
80-07-9

> <Reference>
NTP501

> <MolWeight>
287.16

> <Formula>
C12H8Cl2O2S

> <SMILES>
O=S(=O)(c(ccc(c1)Cl)c1)c(ccc(c2)Cl)c2

> <TD50_Rat>
NP

> <TD50_Mouse>
NP

> <Canc>
1

> <SAL>
1

> <Rat_Male_Canc>
1

> <Rat_Female_Canc>
1

> <Mouse_Male_Canc>
1

> <Mouse_Female_Canc>
1

> <Rat_Male_NTP>
NE

> <Rat_Female_NTP>
NE

> <Mouse_Male_NTP>
NE

> <Mouse_Female_NTP>
NE

> <Status>
Non-Carcinogen

> <New_Data>
true

> <iscarc>
0

$$$$
2-Nitrotoluene
  SciTegic06161615502D

 10 10  0  0  0  0            999 V2000
    2.6583    0.0000    0.0000 C   0  0
    3.9875    0.0000    0.0000 C   0  0
    4.6584   -1.1519    0.0000 C   0  0
    3.9875   -2.3039    0.0000 C   0  0
    2.6583   -2.3039    0.0000 C   0  0
    2.0001   -1.1519    0.0000 C   0  0
    2.0001   -3.4558    0.0000 C   0  0
    0.6709   -1.1519    0.0000 N   0  3
    0.0000    0.0000    0.0000 O   0  5
    0.0000   -2.3039    0.0000 O   0  0
  1  2  2  0
  1  6  1  0
  2  3  1  0
  3  4  2  0
  4  5  1  0
  5  6  2  0
  5  7  1  0
  6  8  1  0
  8  9  1  0
  8 10  2  0
M  CHG  2   8   1   9  -1
M  END
> <Name>
2-Nitrotoluene

> <Substance ID>
770

> <Synonyms>
2-Methyl-1-nitrobenzene; 2-methylnitrobenzene; o-nitrophenylmethane; 2-nitrotoluol; alpha-Methylnitrobenzene; Benzene, 1-methyl-2-nitro-; methylnitrobenzene; ONT.

> <CAS>
88-72-2

> <Reference>
NTP504

> <MolWeight>
137.14

> <Formula>
C7H7NO2

> <SMILES>
N(=O)(=O)c(c(ccc1)C)c1

> <TD50_Rat>
ND

> <TD50_Mouse>
ND

> <Canc>
3

> <SAL>
1

> <Rat_Male_Canc>
3

> <Rat_Female_Canc>
3

> <Mouse_Male_Canc>
3

> <Mouse_Female_Canc>
3

> <Rat_Male_NTP>
CE

> <Rat_Female_NTP>
CE

> <Mouse_Male_NTP>
CE

> <Mouse_Female_NTP>
CE

> <Status>
Carcinogen

> <New_Data>
true

> <iscarc>
1

$$$$
Vanadium pentoxide
  SciTegic06161615502D

  7  6  0  0  0  0            999 V2000
    1.1516   -0.6696    0.0000 V   0  0
    1.1516   -1.9953    0.0000 O   0  0
    3.4549   -1.9953    0.0000 O   0  0
    3.4549   -0.6696    0.0000 V   0  0
    2.3033    0.0000    0.0000 O   0  0
    0.0000    0.0000    0.0000 O   0  0
    4.6066    0.0000    0.0000 O   0  0
  1  2  2  0
  1  5  1  0
  1  6  2  0
  3  4  2  0
  4  5  1  0
  4  7  2  0
M  END
> <Name>
Vanadium pentoxide

> <Substance ID>
771

> <Synonyms>
C.I. 77938; Vanadic anhydride; vanadium (5) oxide; Vanadium oxide; Vanadium oxide (5); vanadium oxide (C2O5); Vanadium oxides; vanadium(V) oxide; vanadium(V) pentoxide; V-O.

> <CAS>
1314-62-1

> <Reference>
NTP507

> <MolWeight>
181.88

> <Formula>
O5V2

> <SMILES>
O=[V](=O)O[V](=O)=O

> <TD50_Rat>
ND

> <TD50_Mouse>
ND

> <Canc>
3

> <SAL>
1

> <Rat_Male_Canc>
3

> <Rat_Female_Canc>
2

> <Mouse_Male_Canc>
3

> <Mouse_Female_Canc>
3

> <Rat_Male_NTP>
SE

> <Rat_Female_NTP>
EE

> <Mouse_Male_NTP>
CE

> <Mouse_Female_NTP>
CE

> <Status>
Carcinogen

> <New_Data>
true

> <iscarc>
1

$$$$
Riddelline
  SciTegic06161615502D

 25 27  0  0  1  0            999 V2000
    6.9433   -6.4949    0.0000 C   0  0
    5.9569   -5.5982    0.0000 C   0  0
    6.4052   -7.7119    0.0000 C   0  0
    5.0729   -7.5710    0.0000 N   0  0
    4.7911   -6.2771    0.0000 C   0  0
    3.4588   -6.2771    0.0000 C   0  0
    3.0105   -7.5326    0.0000 C   0  0
    3.9328   -8.2756    0.0000 C   0  0
    2.3059   -5.5982    0.0000 O   0  0
    6.6230   -4.4452    0.0000 C   0  0
    1.6397   -4.4452    0.0000 C   0  0
    1.6397   -3.1129    0.0000 C   0  0
    0.3459   -4.7911    0.0000 O   0  0
    2.3059   -1.9600    0.0000 C   0  0
    3.4588   -1.2939    0.0000 C   0  0
    0.3459   -2.7671    0.0000 C   0  0
    0.0000   -1.4732    0.0000 C   0  0
    3.1129    0.0000    0.0000 C   0  0
    4.7911   -1.2939    0.0000 C   0  0  2  0  0  0
    5.9569   -1.9600    0.0000 C   0  0
    5.7391   -0.3459    0.0000 C   0  0
    4.4452    0.0000    0.0000 O   0  0
    7.0329   -0.6918    0.0000 O   0  0
    6.6230   -3.1129    0.0000 O   0  0
    6.8920   -1.0120    0.0000 O   0  0
  1  2  2  0
  1  3  1  0
  2  5  1  0
  2 10  1  0
  3  4  1  0
  4  5  1  0
  4  8  1  0
  5  6  1  0
  6  7  1  0
  6  9  1  0
  7  8  1  0
  9 11  1  0
 10 24  1  0
 11 12  1  0
 11 13  2  0
 12 14  1  0
 12 16  2  0
 14 15  1  0
 15 18  2  0
 15 19  1  0
 16 17  1  0
 19 20  1  0
 19 21  1  1
 19 22  1  6
 20 24  1  0
 20 25  2  0
 21 23  1  0
M  END
> <Name>
Riddelline

> <Substance ID>
772

> <Synonyms>
13,19-didehydro-12,18-dihydroxysenecionan-11,16-dione; stereoisomer of 3-ethylidene-3,4,5,6,9,11,13,14,14alpha,14beta-decahydro-6-hydroxy-6-(hydroxymethyl)-5-methylene(1,6)dioxacyclododecino[2,3,4-gh]
-pyrrolizidine-2,7-dione; trans-15-ethylidene-12beta-hydroxy-12alpha-hydroxymethyl-13-methylenesenec-1-enine.

> <CAS>
23246-96-0

> <Reference>
NTP508

> <MolWeight>
349.4

> <Formula>
C18H23NO6

> <SMILES>
O=C\1OC3CCN2C/C=C(/COC(=O)[C@@](O)(C(=C)\CC/1=C/C)CO)[C@@H]23

> <TD50_Rat>
ND

> <TD50_Mouse>
ND

> <Canc>
3

> <SAL>
3

> <Rat_Male_Canc>
3

> <Rat_Female_Canc>
3

> <Mouse_Male_Canc>
3

> <Mouse_Female_Canc>
3

> <Rat_Male_NTP>
CE

> <Rat_Female_NTP>
CE

> <Mouse_Male_NTP>
CE

> <Mouse_Female_NTP>
CE

> <Status>
Carcinogen

> <New_Data>
true

> <iscarc>
1

$$$$
2,4-Hexadienal
  SciTegic06161615502D

  7  6  0  0  0  0            999 V2000
    0.0000   -0.6703    0.0000 C   0  0
    1.1509    0.0000    0.0000 C   0  0
    2.3017   -0.6703    0.0000 C   0  0
    3.4526    0.0000    0.0000 C   0  0
    4.5908   -0.6703    0.0000 C   0  0
    5.7416    0.0000    0.0000 C   0  0
    6.8925   -0.6703    0.0000 O   0  0
  1  2  1  0
  2  3  2  0
  3  4  1  0
  4  5  2  0
  5  6  1  0
  6  7  2  0
M  END
> <Name>
2,4-Hexadienal

> <Substance ID>
773

> <Synonyms>
2,4-Hexadien-1-al; 2,4-Hexadienal, (E,E)-; 2-Propylene acrolein; (E,E)-2,4-Hexadien-1-al; Sorbic aldehyde; trans,trans-2,4-Hexadien-1-al; trans,trans-2,4-Hexadienal; trans,trans-4-Hexadienal.

> <CAS>
142-83-6

> <Reference>
NTP509

> <MolWeight>
96.13

> <Formula>
C6H8O

> <SMILES>
O=CC=CC=CC

> <TD50_Rat>
ND

> <TD50_Mouse>
ND

> <Canc>
3

> <SAL>
3

> <Rat_Male_Canc>
3

> <Rat_Female_Canc>
3

> <Mouse_Male_Canc>
3

> <Mouse_Female_Canc>
3

> <Rat_Male_NTP>
CE

> <Rat_Female_NTP>
CE

> <Mouse_Male_NTP>
CE

> <Mouse_Female_NTP>
CE

> <Status>
Carcinogen

> <New_Data>
true

> <iscarc>
1

$$$$
alpha-Methyldopa sesquihydrate
  SciTegic06161615502D

 15 15  0  0  0  0            999 V2000
    1.9936   -2.3039    0.0000 C   0  0
    1.3343   -1.1481    0.0000 C   0  0
    0.0000   -1.1481    0.0000 O   0  0
    1.9936    0.0000    0.0000 O   0  0
    3.1495   -1.6368    0.0000 C   0  0
    4.2976   -2.3039    0.0000 C   0  0
    5.4534   -1.6368    0.0000 C   0  0
    6.6015   -2.3039    0.0000 C   0  0
    6.6015   -3.6304    0.0000 C   0  0
    7.7573   -4.2976    0.0000 O   0  0
    5.4534   -4.2976    0.0000 C   0  0
    4.2976   -3.6304    0.0000 C   0  0
    7.7573   -1.6368    0.0000 O   0  0
    0.8455   -2.9633    0.0000 C   0  0
    2.6608   -3.4520    0.0000 N   0  0
  1  2  1  0
  1  5  1  0
  1 14  1  0
  1 15  1  0
  2  3  1  0
  2  4  2  0
  5  6  1  0
  6  7  2  0
  6 12  1  0
  7  8  1  0
  8  9  2  0
  8 13  1  0
  9 10  1  0
  9 11  1  0
 11 12  2  0
M  END
> <Name>
alpha-Methyldopa sesquihydrate

> <Substance ID>
990

> <Synonyms>
methyldopa; Aldomet

> <CAS>
41372-08-1

> <Reference>
NTP348

> <MolWeight>
211.217

> <Formula>
C10H13NO4

> <SMILES>
C(C(O)=O)(CC1=CC(=C(O)C=C1)O)(C)N

> <TD50_Rat>
NP

> <TD50_Mouse>
NP

> <Canc>
2

> <SAL>
1

> <Rat_Male_Canc>
1

> <Rat_Female_Canc>
1

> <Mouse_Male_Canc>
2

> <Mouse_Female_Canc>
1

> <Rat_Male_NTP>
NE

> <Rat_Female_NTP>
NE

> <Mouse_Male_NTP>
EE

> <Mouse_Female_NTP>
NE

> <Status>
Non-Carcinogen

> <New_Data>
true

> <iscarc>
0

$$$$
