CHEMBL2002182.smi
                    3D
 Structure written by MMmdl.
 25 27  0  0  1  0            999 V2000
    0.9574    0.1216    0.2711 O   0  0  0  0  0  0
    2.1774    0.1142    0.2536 C   0  0  0  0  0  0
    2.9976   -1.0096    0.3566 N   0  0  0  0  0  0
    4.3237   -0.6553    0.3012 N   0  0  0  0  0  0
    4.2979    0.6392    0.1683 C   0  0  0  0  0  0
    3.0438    1.1711    0.1317 N   0  0  0  0  0  0
    2.7567    2.4991   -0.0003 C   0  0  0  0  0  0
    3.7675    3.3722   -0.1063 C   0  0  0  0  0  0
    5.1392    2.8967   -0.0816 C   0  0  0  0  0  0
    5.4489    1.5890    0.0565 C   0  0  0  0  0  0
    6.8482    1.1292    0.0649 C   0  0  0  0  0  0
    7.2641    0.1016   -0.7927 C   0  0  0  0  0  0
    8.5915   -0.3343   -0.7913 C   0  0  0  0  0  0
    9.5179    0.2508    0.0690 C   0  0  0  0  0  0
    9.1181    1.2693    0.9311 C   0  0  0  0  0  0
    7.7908    1.7056    0.9305 C   0  0  0  0  0  0
    2.6890   -1.9660    0.4636 H   0  0  0  0  0  0
    1.7101    2.7846   -0.0133 H   0  0  0  0  0  0
    3.5856    4.4365   -0.2146 H   0  0  0  0  0  0
    5.9143    3.6506   -0.1934 H   0  0  0  0  0  0
    6.5568   -0.3729   -1.4702 H   0  0  0  0  0  0
    8.8990   -1.1343   -1.4600 H   0  0  0  0  0  0
   10.5495   -0.0917    0.0716 H   0  0  0  0  0  0
    9.8380    1.7208    1.6089 H   0  0  0  0  0  0
    7.4980    2.4923    1.6222 H   0  0  0  0  0  0
  1  2  2  0  0  0
  2  3  1  0  0  0
  2  6  1  0  0  0
  3  4  1  0  0  0
  3 17  1  0  0  0
  4  5  2  0  0  0
  5 10  1  0  0  0
  5  6  1  0  0  0
  6  7  1  0  0  0
  7  8  2  0  0  0
  7 18  1  0  0  0
  8  9  1  0  0  0
  8 19  1  0  0  0
  9 10  2  0  0  0
  9 20  1  0  0  0
 10 11  1  0  0  0
 11 12  2  0  0  0
 11 16  1  0  0  0
 12 13  1  0  0  0
 12 21  1  0  0  0
 13 14  2  0  0  0
 13 22  1  0  0  0
 14 15  1  0  0  0
 14 23  1  0  0  0
 15 16  2  0  0  0
 15 24  1  0  0  0
 16 25  1  0  0  0
M  END
> <s_m_entry_id>
200

> <s_m_entry_name>
CHEMBL2002182.1

> <s_m_job_name>
mmod_csearch_27

> <s_lp_label>
 _49

> <r_mmod_Potential_Energy-MMFF94s>
230.035873

> <b_mmod_Minimization_Converged-MMFF94s>
1

> <r_mmod_RMS_Derivative-MMFF94s>
0.008733

> <i_mmod_Times_Found-MMFF94s>
500

> <r_mmod_Relative_Potential_Energy-MMFF94s>
0

> <i_mmod_Conformation-MMFF94s>
1

> <i_mmod_Serial_Number-MMFF94s>
49

$$$$
