CHEMBL1981047.smi
                    3D
 Structure written by MMmdl.
 65 69  0  0  1  0            999 V2000
    3.3542   -0.5921    4.7416 C   0  0  0  0  0  0
    3.9835   -0.3296    3.4940 O   0  0  0  0  0  0
    3.2001   -0.7705    2.3840 C   0  0  1  0  0  0
    1.9363    0.0948    2.1117 C   0  0  0  0  0  0
    0.8340   -0.4494    1.9679 O   0  0  0  0  0  0
    2.0591    1.4645    2.0296 N   0  0  0  0  0  0
    0.8576    2.2857    1.7541 C   0  0  0  0  0  0
    1.4815    3.6012    1.7322 C   0  0  0  0  0  0
    1.0882    4.8707    1.5366 N   0  0  0  0  0  0
    0.1644    5.2444    1.3420 H   0  0  0  0  0  0
    2.1346    5.7296    1.6229 N   0  0  0  0  0  0
    3.2034    4.9496    1.8785 C   0  0  0  0  0  0
    4.4284    5.5529    2.0091 N   0  0  0  0  0  0
    5.6140    4.9169    2.2867 C   0  0  0  0  0  0
    5.7558    3.7227    2.5256 O   0  0  0  0  0  0
    6.8133    5.8015    2.3254 C   0  0  0  0  0  0
    6.9320    6.9333    1.5166 C   0  0  0  0  0  0
    8.0829    7.7297    1.5926 C   0  0  0  0  0  0
    9.1434    7.4277    2.4630 C   0  0  0  0  0  0
    9.0106    6.2690    3.2426 C   0  0  0  0  0  0
    7.8656    5.4638    3.1781 C   0  0  0  0  0  0
   10.2736    8.2364    2.5073 N   0  0  0  0  0  0
   11.5407    7.7163    3.0519 C   0  0  0  0  0  0
   12.7433    8.5681    2.5848 C   0  0  0  0  0  0
   12.5779   10.0072    2.8816 N   0  0  0  0  0  0
   13.7268   10.7680    2.3952 C   0  0  0  0  0  0
   11.3310   10.4819    2.2448 C   0  0  0  0  0  0
   10.0829    9.6886    2.6965 C   0  0  0  0  0  0
    2.8238    3.6098    1.9542 C   0  0  0  0  0  0
    3.3313    2.2499    2.1723 C   0  0  0  0  0  0
    4.0574   -0.9263    1.1301 C   0  0  0  0  0  0
    3.4967   -1.4932   -0.0284 C   0  0  0  0  0  0
    4.2582   -1.6527   -1.1879 C   0  0  0  0  0  0
    5.5921   -1.2533   -1.2066 C   0  0  0  0  0  0
    6.1662   -0.6977   -0.0659 C   0  0  0  0  0  0
    5.4066   -0.5393    1.0953 C   0  0  0  0  0  0
    4.0095   -0.2270    5.5371 H   0  0  0  0  0  0
    3.2080   -1.6676    4.8806 H   0  0  0  0  0  0
    2.3972   -0.0675    4.8154 H   0  0  0  0  0  0
    2.8434   -1.7841    2.6192 H   0  0  0  0  0  0
    0.1364    2.1533    2.5648 H   0  0  0  0  0  0
    0.4259    1.9865    0.7953 H   0  0  0  0  0  0
    4.3784    6.5558    1.9115 H   0  0  0  0  0  0
    6.1654    7.1977    0.7941 H   0  0  0  0  0  0
    8.1604    8.5812    0.9206 H   0  0  0  0  0  0
    9.7922    5.9745    3.9372 H   0  0  0  0  0  0
    7.8012    4.5749    3.8025 H   0  0  0  0  0  0
   11.7134    6.6879    2.7115 H   0  0  0  0  0  0
   11.4977    7.7124    4.1485 H   0  0  0  0  0  0
   13.6427    8.1916    3.0870 H   0  0  0  0  0  0
   12.8845    8.4179    1.5057 H   0  0  0  0  0  0
   13.6127   11.8304    2.6373 H   0  0  0  0  0  0
   13.8612   10.6743    1.3115 H   0  0  0  0  0  0
   14.6457   10.4300    2.8867 H   0  0  0  0  0  0
   11.1721   11.5377    2.4954 H   0  0  0  0  0  0
   11.4142   10.4144    1.1514 H   0  0  0  0  0  0
    9.8854    9.8861    3.7581 H   0  0  0  0  0  0
    9.2264   10.0718    2.1319 H   0  0  0  0  0  0
    4.0370    1.9345    1.4034 H   0  0  0  0  0  0
    3.7294    2.1078    3.1785 H   0  0  0  0  0  0
    2.4562   -1.8153   -0.0351 H   0  0  0  0  0  0
    3.8089   -2.0893   -2.0760 H   0  0  0  0  0  0
    6.1848   -1.3756   -2.1091 H   0  0  0  0  0  0
    7.2069   -0.3842   -0.0766 H   0  0  0  0  0  0
    5.8779   -0.0998    1.9730 H   0  0  0  0  0  0
  1  2  1  0  0  0
  1 37  1  0  0  0
  1 38  1  0  0  0
  1 39  1  0  0  0
  2  3  1  0  0  0
  3 31  1  0  0  0
  3  4  1  0  0  0
  3 40  1  0  0  0
  4  6  1  0  0  0
  4  5  2  0  0  0
  6 30  1  0  0  0
  6  7  1  0  0  0
  7  8  1  0  0  0
  7 41  1  0  0  0
  7 42  1  0  0  0
  8 29  2  0  0  0
  8  9  1  0  0  0
  9 11  1  0  0  0
  9 10  1  0  0  0
 11 12  2  0  0  0
 12 29  1  0  0  0
 12 13  1  0  0  0
 13 14  1  0  0  0
 13 43  1  0  0  0
 14 16  1  0  0  0
 14 15  2  0  0  0
 16 17  2  0  0  0
 16 21  1  0  0  0
 17 18  1  0  0  0
 17 44  1  0  0  0
 18 19  2  0  0  0
 18 45  1  0  0  0
 19 20  1  0  0  0
 19 22  1  0  0  0
 20 21  2  0  0  0
 20 46  1  0  0  0
 21 47  1  0  0  0
 22 28  1  0  0  0
 22 23  1  0  0  0
 23 24  1  0  0  0
 23 48  1  0  0  0
 23 49  1  0  0  0
 24 25  1  0  0  0
 24 50  1  0  0  0
 24 51  1  0  0  0
 25 27  1  0  0  0
 25 26  1  0  0  0
 26 52  1  0  0  0
 26 53  1  0  0  0
 26 54  1  0  0  0
 27 28  1  0  0  0
 27 55  1  0  0  0
 27 56  1  0  0  0
 28 57  1  0  0  0
 28 58  1  0  0  0
 29 30  1  0  0  0
 30 59  1  0  0  0
 30 60  1  0  0  0
 31 32  2  0  0  0
 31 36  1  0  0  0
 32 33  1  0  0  0
 32 61  1  0  0  0
 33 34  2  0  0  0
 33 62  1  0  0  0
 34 35  1  0  0  0
 34 63  1  0  0  0
 35 36  2  0  0  0
 35 64  1  0  0  0
 36 65  1  0  0  0
M  END
> <s_m_entry_id>
157

> <s_m_entry_name>
CHEMBL1981047.1

> <s_m_job_name>
mmod_csearch_27

> <s_lp_label>
 _5

> <r_mmod_Potential_Energy-MMFF94s>
538.008606

> <b_mmod_Minimization_Converged-MMFF94s>
1

> <r_mmod_RMS_Derivative-MMFF94s>
0.013857

> <i_mmod_Times_Found-MMFF94s>
96

> <r_mmod_Relative_Potential_Energy-MMFF94s>
0

> <i_mmod_Conformation-MMFF94s>
1

> <i_mmod_Serial_Number-MMFF94s>
5

$$$$
