CHEMBL1970873.smi
                    3D
 Structure written by MMmdl.
 29 31  0  0  1  0            999 V2000
    1.1301   -1.4279    0.0854 C   0  0  0  0  0  0
    2.2870   -0.5012   -0.1363 C   0  0  0  0  0  0
    2.0938    0.7794   -0.6310 C   0  0  0  0  0  0
    3.1953    1.6070   -0.8558 C   0  0  0  0  0  0
    4.5291    1.1937   -0.6091 C   0  0  0  0  0  0
    5.5147    2.1457   -0.8859 N   0  0  0  0  0  0
    6.9089    2.1572   -0.7946 C   0  0  0  0  0  0
    7.5546    3.3556   -1.1826 C   0  0  0  0  0  0
    8.9414    3.5039   -1.1420 C   0  0  0  0  0  0
    9.7236    2.4482   -0.7089 C   0  0  0  0  0  0
    9.1089    1.2589   -0.3223 C   0  0  0  0  0  0
    7.7068    1.1010   -0.3604 C   0  0  0  0  0  0
    7.2537   -0.1495    0.0590 N   0  0  0  0  0  0
    6.0303   -0.7326    0.1870 C   0  0  0  0  0  0
    6.0418   -1.8970    0.6065 O   0  0  0  0  0  0
    4.7288   -0.0990   -0.1276 C   0  0  0  0  0  0
    3.5985   -0.9297    0.0969 C   0  0  0  0  0  0
    0.2157   -0.8675    0.3071 H   0  0  0  0  0  0
    1.3191   -2.0899    0.9370 H   0  0  0  0  0  0
    0.9618   -2.0372   -0.8079 H   0  0  0  0  0  0
    1.0933    1.1476   -0.8450 H   0  0  0  0  0  0
    2.9986    2.6070   -1.2391 H   0  0  0  0  0  0
    5.1368    3.0231   -1.2238 H   0  0  0  0  0  0
    6.9663    4.2035   -1.5281 H   0  0  0  0  0  0
    9.4011    4.4397   -1.4479 H   0  0  0  0  0  0
   10.8053    2.5434   -0.6699 H   0  0  0  0  0  0
    9.7457    0.4431    0.0145 H   0  0  0  0  0  0
    7.9658   -0.8105    0.3445 H   0  0  0  0  0  0
    3.7464   -1.9453    0.4671 H   0  0  0  0  0  0
  1  2  1  0  0  0
  1 18  1  0  0  0
  1 19  1  0  0  0
  1 20  1  0  0  0
  2  3  2  0  0  0
  2 17  1  0  0  0
  3  4  1  0  0  0
  3 21  1  0  0  0
  4  5  2  0  0  0
  4 22  1  0  0  0
  5 16  1  0  0  0
  5  6  1  0  0  0
  6  7  1  0  0  0
  6 23  1  0  0  0
  7  8  2  0  0  0
  7 12  1  0  0  0
  8  9  1  0  0  0
  8 24  1  0  0  0
  9 10  2  0  0  0
  9 25  1  0  0  0
 10 11  1  0  0  0
 10 26  1  0  0  0
 11 12  2  0  0  0
 11 27  1  0  0  0
 12 13  1  0  0  0
 13 14  1  0  0  0
 13 28  1  0  0  0
 14 16  1  0  0  0
 14 15  2  0  0  0
 16 17  2  0  0  0
 17 29  1  0  0  0
M  END
> <s_m_entry_id>
144

> <s_m_entry_name>
CHEMBL1970873.1

> <s_m_job_name>
mmod_csearch_25

> <s_lp_label>
 _8

> <r_mmod_Potential_Energy-MMFF94s>
247.006653

> <b_mmod_Minimization_Converged-MMFF94s>
1

> <r_mmod_RMS_Derivative-MMFF94s>
0.011634

> <i_mmod_Times_Found-MMFF94s>
1500

> <r_mmod_Relative_Potential_Energy-MMFF94s>
0

> <i_mmod_Conformation-MMFF94s>
1

> <i_mmod_Serial_Number-MMFF94s>
8

$$$$
