CHEMBL1992371.smi
                    3D
 Structure written by MMmdl.
 33 35  0  0  1  0            999 V2000
    1.8213    2.6106   -1.1727 O   0  0  0  0  0  0
    2.6685    1.6384   -0.7000 C   0  0  0  0  0  0
    2.7313    1.4102    0.6715 C   0  0  0  0  0  0
    3.5842    0.4306    1.1546 C   0  0  0  0  0  0
    4.3677   -0.3136    0.2670 C   0  0  0  0  0  0
    4.3320   -0.1107   -1.1387 C   0  0  0  0  0  0
    5.1164   -0.8489   -2.0874 C   0  0  0  0  0  0
    6.0015   -1.8604   -1.6309 N   0  0  0  0  0  0
    6.8311   -2.6744   -2.3485 C   0  0  0  0  0  0
    6.9759   -2.6881   -3.5692 O   0  0  0  0  0  0
    7.5799   -3.5687   -1.6350 N   0  0  0  0  0  0
    7.6396   -3.7947   -0.2578 C   0  0  0  0  0  0
    8.4999   -4.7825    0.2214 C   0  0  0  0  0  0
    8.6333   -5.0812    1.5380 N   0  0  0  0  0  0
    7.8664   -4.3486    2.3718 C   0  0  0  0  0  0
    7.0090   -3.3659    1.9089 C   0  0  0  0  0  0
    6.8761   -3.0677    0.5919 N   0  0  0  0  0  0
    4.9974   -0.5604   -3.4533 C   0  0  0  0  0  0
    4.1317    0.4295   -3.9056 C   0  0  0  0  0  0
    3.3685    1.1492   -2.9960 C   0  0  0  0  0  0
    3.4502    0.8993   -1.6151 C   0  0  0  0  0  0
    1.3618    3.0202   -0.4225 H   0  0  0  0  0  0
    2.1279    1.9817    1.3691 H   0  0  0  0  0  0
    3.6458    0.2393    2.2226 H   0  0  0  0  0  0
    5.0143   -1.0649    0.7075 H   0  0  0  0  0  0
    6.0509   -2.0306   -0.6335 H   0  0  0  0  0  0
    8.1643   -4.1309   -2.2377 H   0  0  0  0  0  0
    9.1185   -5.3742   -0.4448 H   0  0  0  0  0  0
    7.9591   -4.5728    3.4285 H   0  0  0  0  0  0
    6.3990   -2.7856    2.5924 H   0  0  0  0  0  0
    5.5706   -1.0930   -4.2045 H   0  0  0  0  0  0
    4.0536    0.6383   -4.9692 H   0  0  0  0  0  0
    2.6978    1.9192   -3.3734 H   0  0  0  0  0  0
  1  2  1  0  0  0
  1 22  1  0  0  0
  2  3  2  0  0  0
  2 21  1  0  0  0
  3  4  1  0  0  0
  3 23  1  0  0  0
  4  5  2  0  0  0
  4 24  1  0  0  0
  5  6  1  0  0  0
  5 25  1  0  0  0
  6 21  1  0  0  0
  6  7  2  0  0  0
  7 18  1  0  0  0
  7  8  1  0  0  0
  8  9  1  0  0  0
  8 26  1  0  0  0
  9 11  1  0  0  0
  9 10  2  0  0  0
 11 12  1  0  0  0
 11 27  1  0  0  0
 12 13  2  0  0  0
 12 17  1  0  0  0
 13 14  1  0  0  0
 13 28  1  0  0  0
 14 15  2  0  0  0
 15 16  1  0  0  0
 15 29  1  0  0  0
 16 17  2  0  0  0
 16 30  1  0  0  0
 18 19  2  0  0  0
 18 31  1  0  0  0
 19 20  1  0  0  0
 19 32  1  0  0  0
 20 21  2  0  0  0
 20 33  1  0  0  0
M  END
> <s_m_entry_id>
10003

> <s_m_job_name>
mmod_csearch_11

> <r_mmod_Potential_Energy-MMFF94s>
38.184383

> <b_mmod_Minimization_Converged-MMFF94s>
1

> <r_mmod_RMS_Derivative-MMFF94s>
0.005675

> <i_mmod_Times_Found-MMFF94s>
215

> <r_mmod_Relative_Potential_Energy-MMFF94s>
0

> <i_mmod_Conformation-MMFF94s>
1

> <s_lp_label>
 _72

> <i_mmod_Serial_Number-MMFF94s>
72

$$$$
