CHEMBL379975.smi
                    3D
 Structure written by MMmdl.
 37 41  0  0  1  0            999 V2000
    2.2760    0.9034    2.8943 O   0  0  0  0  0  0
    2.9647    2.0710    2.7287 C   0  0  0  0  0  0
    2.4575    2.9940    1.8266 C   0  0  0  0  0  0
    3.1131    4.2077    1.6113 C   0  0  0  0  0  0
    4.2887    4.4493    2.3344 C   0  0  0  0  0  0
    5.1179    5.5442    2.3166 N   0  0  0  0  0  0
    4.9672    6.3625    1.7439 H   0  0  0  0  0  0
    6.1738    5.3766    3.1807 C   0  0  0  0  0  0
    7.2488    6.2466    3.4686 C   0  0  0  0  0  0
    8.2252    5.8614    4.4102 C   0  0  0  0  0  0
    9.3370    6.7658    4.7267 C   0  0  0  0  0  0
   10.4569    6.8036    3.8760 C   0  0  0  0  0  0
   11.5344    7.6526    4.1411 C   0  0  0  0  0  0
   11.5114    8.4806    5.2603 C   0  0  0  0  0  0
   10.4105    8.4617    6.1153 C   0  0  0  0  0  0
    9.3308    7.6125    5.8518 C   0  0  0  0  0  0
    7.9879    7.6583    6.9445 Cl  0  0  0  0  0  0
    8.0692    4.6176    5.0058 C   0  0  0  0  0  0
    8.9015    3.9242    5.9980 C   0  0  0  0  0  0
    9.9393    4.3235    6.4851 O   0  0  0  0  0  0
    8.2919    2.7360    6.2500 N   0  0  0  0  0  0
    7.1578    2.5645    5.5202 C   0  0  0  0  0  0
    6.4306    1.5926    5.5394 O   0  0  0  0  0  0
    7.0008    3.7708    4.7123 C   0  0  0  0  0  0
    6.0147    4.1231    3.7863 C   0  0  0  0  0  0
    4.8223    3.5377    3.2484 C   0  0  0  0  0  0
    4.1371    2.3187    3.4463 C   0  0  0  0  0  0
    2.7434    0.3655    3.5558 H   0  0  0  0  0  0
    1.5422    2.7693    1.2850 H   0  0  0  0  0  0
    2.7170    4.9320    0.9068 H   0  0  0  0  0  0
    7.3165    7.2141    2.9741 H   0  0  0  0  0  0
   10.5006    6.1582    3.0005 H   0  0  0  0  0  0
   12.3954    7.6605    3.4769 H   0  0  0  0  0  0
   12.3525    9.1365    5.4708 H   0  0  0  0  0  0
   10.3999    9.1082    6.9891 H   0  0  0  0  0  0
    8.6494    2.0530    6.8981 H   0  0  0  0  0  0
    4.5178    1.5851    4.1474 H   0  0  0  0  0  0
  1  2  1  0  0  0
  1 28  1  0  0  0
  2  3  2  0  0  0
  2 27  1  0  0  0
  3  4  1  0  0  0
  3 29  1  0  0  0
  4  5  2  0  0  0
  4 30  1  0  0  0
  5  6  1  0  0  0
  5 26  1  0  0  0
  6  8  1  0  0  0
  6  7  1  0  0  0
  8  9  2  0  0  0
  8 25  1  0  0  0
  9 10  1  0  0  0
  9 31  1  0  0  0
 10 18  2  0  0  0
 10 11  1  0  0  0
 11 12  2  0  0  0
 11 16  1  0  0  0
 12 13  1  0  0  0
 12 32  1  0  0  0
 13 14  2  0  0  0
 13 33  1  0  0  0
 14 15  1  0  0  0
 14 34  1  0  0  0
 15 16  2  0  0  0
 15 35  1  0  0  0
 16 17  1  0  0  0
 18 19  1  0  0  0
 18 24  1  0  0  0
 19 21  1  0  0  0
 19 20  2  0  0  0
 21 22  1  0  0  0
 21 36  1  0  0  0
 22 23  2  0  0  0
 22 24  1  0  0  0
 24 25  2  0  0  0
 25 26  1  0  0  0
 26 27  2  0  0  0
 27 37  1  0  0  0
M  END
> <s_m_entry_id>
10010

> <s_m_job_name>
mmod_csearch_11

> <r_mmod_Potential_Energy-MMFF94s>
33.152393

> <b_mmod_Minimization_Converged-MMFF94s>
1

> <r_mmod_RMS_Derivative-MMFF94s>
0.007723

> <i_mmod_Times_Found-MMFF94s>
270

> <r_mmod_Relative_Potential_Energy-MMFF94s>
0

> <i_mmod_Conformation-MMFF94s>
1

> <s_lp_label>
 _79

> <i_mmod_Serial_Number-MMFF94s>
79

$$$$
