CHEMBL1989708.smi
                    3D
 Structure written by MMmdl.
 62 66  0  0  1  0            999 V2000
   -0.4392    0.8009   -0.1268 C   0  0  0  0  0  0
    0.6416   -0.1195    0.4221 C   0  0  1  0  0  0
    0.8369   -1.1652   -0.5345 O   0  0  0  0  0  0
    1.9471    0.6469    0.6595 C   0  0  0  0  0  0
    2.8959   -0.1351    1.4384 N   0  0  0  0  0  0
    3.4990    0.2304    2.6076 C   0  0  0  0  0  0
    4.2956   -0.8331    2.9790 C   0  0  0  0  0  0
    4.1121   -1.7816    1.9484 C   0  0  0  0  0  0
    3.2595   -1.3613    1.0090 N   0  0  0  0  0  0
    5.1224   -0.8587    4.1629 C   0  0  0  0  0  0
    5.9916    0.1751    4.4653 C   0  0  0  0  0  0
    6.7966    0.2111    5.5420 N   0  0  0  0  0  0
    6.7928   -0.8146    6.4180 C   0  0  0  0  0  0
    7.6708   -0.6866    7.4661 N   0  0  0  0  0  0
    5.9268   -1.9253    6.2192 C   0  0  0  0  0  0
    5.7161   -3.1261    7.0111 C   0  0  0  0  0  0
    4.7744   -3.9690    6.4663 C   0  0  0  0  0  0
    4.1183   -3.3554    5.0293 S   0  0  0  0  0  0
    5.1002   -1.9285    5.0792 C   0  0  0  0  0  0
    6.3533   -3.4922    8.2649 C   0  0  0  0  0  0
    7.4690   -4.3316    8.2699 C   0  0  0  0  0  0
    8.0917   -4.6692    9.4777 C   0  0  0  0  0  0
    7.6084   -4.1730   10.6904 C   0  0  0  0  0  0
    8.1753   -4.4631   11.9497 N   0  0  0  0  0  0
    9.2915   -5.2450   12.2221 C   0  0  0  0  0  0
    9.9794   -5.7971   11.3743 O   0  0  0  0  0  0
    9.5128   -5.3073   13.5919 N   0  0  0  0  0  0
   10.5513   -5.9804   14.2721 C   0  0  0  0  0  0
   11.5636   -6.7028   13.6408 C   0  0  0  0  0  0
   12.5512   -7.3442   14.3940 C   0  0  0  0  0  0
   12.5394   -7.2654   15.7852 C   0  0  0  0  0  0
   11.5440   -6.5340   16.4378 C   0  0  0  0  0  0
   11.5053   -6.4723   17.9360 C   0  0  0  0  0  0
   10.5483   -5.9060   15.6736 C   0  0  0  0  0  0
    6.4870   -3.3318   10.6760 C   0  0  0  0  0  0
    5.8620   -2.9915    9.4723 C   0  0  0  0  0  0
   -0.6665    1.6104    0.5734 H   0  0  0  0  0  0
   -1.3591    0.2382   -0.3193 H   0  0  0  0  0  0
   -0.1325    1.2389   -1.0832 H   0  0  0  0  0  0
    0.2856   -0.5805    1.3509 H   0  0  0  0  0  0
    1.6265   -1.6674   -0.2308 H   0  0  0  0  0  0
    1.7623    1.5754    1.2108 H   0  0  0  0  0  0
    2.4505    0.8856   -0.2843 H   0  0  0  0  0  0
    3.3065    1.1884    3.0713 H   0  0  0  0  0  0
    4.5688   -2.7577    1.8402 H   0  0  0  0  0  0
    6.0804    1.0410    3.8136 H   0  0  0  0  0  0
    8.2516    0.1386    7.4587 H   0  0  0  0  0  0
    7.8197   -1.4163    8.1421 H   0  0  0  0  0  0
    4.4316   -4.9200    6.8533 H   0  0  0  0  0  0
    7.8686   -4.7281    7.3387 H   0  0  0  0  0  0
    8.9550   -5.3261    9.4312 H   0  0  0  0  0  0
    7.7187   -4.0402   12.7415 H   0  0  0  0  0  0
    8.8523   -4.8268   14.1803 H   0  0  0  0  0  0
   11.6159   -6.7926   12.5607 H   0  0  0  0  0  0
   13.3301   -7.9092   13.8878 H   0  0  0  0  0  0
   13.3123   -7.7775   16.3539 H   0  0  0  0  0  0
   11.0838   -5.5206   18.2763 H   0  0  0  0  0  0
   12.5132   -6.5493   18.3572 H   0  0  0  0  0  0
   10.8947   -7.2912   18.3285 H   0  0  0  0  0  0
    9.7657   -5.3547   16.1892 H   0  0  0  0  0  0
    6.0820   -2.9261   11.5996 H   0  0  0  0  0  0
    4.9966   -2.3323    9.4839 H   0  0  0  0  0  0
  1  2  1  0  0  0
  1 37  1  0  0  0
  1 38  1  0  0  0
  1 39  1  0  0  0
  2  4  1  0  0  0
  2  3  1  0  0  0
  2 40  1  0  0  0
  3 41  1  0  0  0
  4  5  1  0  0  0
  4 42  1  0  0  0
  4 43  1  0  0  0
  5  6  1  0  0  0
  5  9  1  0  0  0
  6  7  2  0  0  0
  6 44  1  0  0  0
  7  8  1  0  0  0
  7 10  1  0  0  0
  8  9  2  0  0  0
  8 45  1  0  0  0
 10 11  2  0  0  0
 10 19  1  0  0  0
 11 12  1  0  0  0
 11 46  1  0  0  0
 12 13  2  0  0  0
 13 15  1  0  0  0
 13 14  1  0  0  0
 14 47  1  0  0  0
 14 48  1  0  0  0
 15 19  2  0  0  0
 15 16  1  0  0  0
 16 17  2  0  0  0
 16 20  1  0  0  0
 17 18  1  0  0  0
 17 49  1  0  0  0
 18 19  1  0  0  0
 20 21  2  0  0  0
 20 36  1  0  0  0
 21 22  1  0  0  0
 21 50  1  0  0  0
 22 23  2  0  0  0
 22 51  1  0  0  0
 23 35  1  0  0  0
 23 24  1  0  0  0
 24 25  1  0  0  0
 24 52  1  0  0  0
 25 27  1  0  0  0
 25 26  2  0  0  0
 27 28  1  0  0  0
 27 53  1  0  0  0
 28 29  2  0  0  0
 28 34  1  0  0  0
 29 30  1  0  0  0
 29 54  1  0  0  0
 30 31  2  0  0  0
 30 55  1  0  0  0
 31 32  1  0  0  0
 31 56  1  0  0  0
 32 34  2  0  0  0
 32 33  1  0  0  0
 33 57  1  0  0  0
 33 58  1  0  0  0
 33 59  1  0  0  0
 34 60  1  0  0  0
 35 36  2  0  0  0
 35 61  1  0  0  0
 36 62  1  0  0  0
M  END
> <s_m_entry_id>
172

> <s_m_entry_name>
CHEMBL1989708.1

> <s_m_job_name>
mmod_csearch_27

> <s_lp_label>
 _20

> <r_mmod_Potential_Energy-MMFF94s>
-26.904816

> <b_mmod_Minimization_Converged-MMFF94s>
1

> <r_mmod_RMS_Derivative-MMFF94s>
0.011717

> <i_mmod_Times_Found-MMFF94s>
15

> <r_mmod_Relative_Potential_Energy-MMFF94s>
0

> <i_mmod_Conformation-MMFF94s>
1

> <i_mmod_Serial_Number-MMFF94s>
20

$$$$
