CHEMBL2005478.smi
                    3D
 Structure written by MMmdl.
 35 38  0  0  1  0            999 V2000
    2.0501    5.4009    2.5765 C   0  0  0  0  0  0
    3.4212    5.0486    2.4437 O   0  0  0  0  0  0
    4.3391    6.0502    2.6174 C   0  0  0  0  0  0
    4.0502    7.3841    2.8895 C   0  0  0  0  0  0
    5.0741    8.3246    3.0578 C   0  0  0  0  0  0
    6.4035    7.8913    2.9371 C   0  0  0  0  0  0
    6.7289    6.5611    2.6478 C   0  0  0  0  0  0
    5.6726    5.6352    2.4997 C   0  0  0  0  0  0
    8.1532    6.4863    2.5876 C   0  0  0  0  0  0
    8.6534    7.7395    2.8609 C   0  0  0  0  0  0
    7.5921    8.5801    3.0634 N   0  0  0  0  0  0
    7.7063    9.9890    3.3680 C   0  0  0  0  0  0
    9.0022    5.3200    2.2834 C   0  0  0  0  0  0
   10.3060    5.1085    2.6955 C   0  0  0  0  0  0
   10.7219    3.8685    2.1593 C   0  0  0  0  0  0
   11.9050    3.2089    2.2703 N   0  0  0  0  0  0
   11.9163    2.0332    1.5991 C   0  0  0  0  0  0
   13.5071    1.0003    1.6662 Br  0  0  0  0  0  0
   10.8322    1.5484    0.8688 C   0  0  0  0  0  0
    9.6405    2.1910    0.7424 N   0  0  0  0  0  0
    9.6568    3.3564    1.4227 C   0  0  0  0  0  0
    8.6270    4.2502    1.5075 N   0  0  0  0  0  0
    7.7409    4.1386    1.0390 H   0  0  0  0  0  0
    1.8332    5.7726    3.5834 H   0  0  0  0  0  0
    1.4558    4.4953    2.4213 H   0  0  0  0  0  0
    1.7539    6.1280    1.8132 H   0  0  0  0  0  0
    3.0278    7.7354    2.9854 H   0  0  0  0  0  0
    4.8345    9.3599    3.2789 H   0  0  0  0  0  0
    5.8792    4.5871    2.3093 H   0  0  0  0  0  0
    9.6717    8.1021    2.9117 H   0  0  0  0  0  0
    7.2351   10.1726    4.3370 H   0  0  0  0  0  0
    7.2045   10.5550    2.5790 H   0  0  0  0  0  0
    8.7614   10.2710    3.4111 H   0  0  0  0  0  0
   10.8982    5.7632    3.3191 H   0  0  0  0  0  0
   10.8895    0.5987    0.3459 H   0  0  0  0  0  0
  1  2  1  0  0  0
  1 24  1  0  0  0
  1 25  1  0  0  0
  1 26  1  0  0  0
  2  3  1  0  0  0
  3  4  2  0  0  0
  3  8  1  0  0  0
  4  5  1  0  0  0
  4 27  1  0  0  0
  5  6  2  0  0  0
  5 28  1  0  0  0
  6  7  1  0  0  0
  6 11  1  0  0  0
  7  9  1  0  0  0
  7  8  2  0  0  0
  8 29  1  0  0  0
  9 13  1  0  0  0
  9 10  2  0  0  0
 10 11  1  0  0  0
 10 30  1  0  0  0
 11 12  1  0  0  0
 12 31  1  0  0  0
 12 32  1  0  0  0
 12 33  1  0  0  0
 13 14  2  0  0  0
 13 22  1  0  0  0
 14 15  1  0  0  0
 14 34  1  0  0  0
 15 16  2  0  0  0
 15 21  1  0  0  0
 16 17  1  0  0  0
 17 19  2  0  0  0
 17 18  1  0  0  0
 19 20  1  0  0  0
 19 35  1  0  0  0
 20 21  2  0  0  0
 21 22  1  0  0  0
 22 23  1  0  0  0
M  END
> <s_m_entry_id>
10111

> <s_m_job_name>
mmod_csearch_12

> <r_mmod_Potential_Energy-MMFF94s>
258.889313

> <b_mmod_Minimization_Converged-MMFF94s>
1

> <r_mmod_RMS_Derivative-MMFF94s>
0.008651

> <i_mmod_Times_Found-MMFF94s>
141

> <r_mmod_Relative_Potential_Energy-MMFF94s>
0

> <i_mmod_Conformation-MMFF94s>
1

> <s_lp_label>
 _80

> <i_mmod_Serial_Number-MMFF94s>
80

$$$$
