CHEMBL1993877.smi
                    3D
 Structure written by MMmdl.
 31 33  0  0  1  0            999 V2000
    3.3960   -2.7886   -1.4899 N   0  0  0  0  0  0
    4.5294   -2.5429   -0.7529 C   0  0  0  0  0  0
    5.5889   -3.3460   -0.9790 N   0  0  0  0  0  0
    6.7146   -3.1338   -0.2730 C   0  0  0  0  0  0
    6.9439   -2.1985    0.6615 N   0  0  0  0  0  0
    5.8672   -1.4176    0.8576 C   0  0  0  0  0  0
    4.6433   -1.5223    0.2047 C   0  0  0  0  0  0
    3.8134   -0.4970    0.7381 C   0  0  0  0  0  0
    4.5405    0.1917    1.6853 C   0  0  0  0  0  0
    5.7930   -0.3719    1.7479 N   0  0  0  0  0  0
    6.8741    0.0519    2.6242 C   0  0  0  0  0  0
    7.1972    1.5558    2.5372 C   0  0  0  0  0  0
    6.8434    2.1256    3.9053 C   0  0  0  0  0  0
    7.1255    0.9737    4.8541 C   0  0  0  0  0  0
    6.5836   -0.2362    4.1068 C   0  0  0  0  0  0
    2.4629   -0.1891    0.3980 C   0  0  0  0  0  0
    1.3262    0.0735    0.1148 C   0  0  0  0  0  0
    2.5646   -2.2330   -1.3779 H   0  0  0  0  0  0
    3.4368   -3.5519   -2.1477 H   0  0  0  0  0  0
    7.5406   -3.8047   -0.4879 H   0  0  0  0  0  0
    4.2685    1.0295    2.3140 H   0  0  0  0  0  0
    7.7733   -0.4993    2.3229 H   0  0  0  0  0  0
    6.6790    2.0823    1.7296 H   0  0  0  0  0  0
    8.2739    1.6809    2.3656 H   0  0  0  0  0  0
    7.4295    3.0169    4.1466 H   0  0  0  0  0  0
    5.7814    2.3947    3.9406 H   0  0  0  0  0  0
    8.2051    0.8679    5.0136 H   0  0  0  0  0  0
    6.6467    1.1084    5.8281 H   0  0  0  0  0  0
    7.0616   -1.1633    4.4402 H   0  0  0  0  0  0
    5.5090   -0.3380    4.3006 H   0  0  0  0  0  0
    0.3179    0.3124   -0.1311 H   0  0  0  0  0  0
  1  2  1  0  0  0
  1 18  1  0  0  0
  1 19  1  0  0  0
  2  3  2  0  0  0
  2  7  1  0  0  0
  3  4  1  0  0  0
  4  5  2  0  0  0
  4 20  1  0  0  0
  5  6  1  0  0  0
  6 10  1  0  0  0
  6  7  2  0  0  0
  7  8  1  0  0  0
  8  9  2  0  0  0
  8 16  1  0  0  0
  9 10  1  0  0  0
  9 21  1  0  0  0
 10 11  1  0  0  0
 11 15  1  0  0  0
 11 12  1  0  0  0
 11 22  1  0  0  0
 12 13  1  0  0  0
 12 23  1  0  0  0
 12 24  1  0  0  0
 13 14  1  0  0  0
 13 25  1  0  0  0
 13 26  1  0  0  0
 14 15  1  0  0  0
 14 27  1  0  0  0
 14 28  1  0  0  0
 15 29  1  0  0  0
 15 30  1  0  0  0
 16 17  3  0  0  0
 17 31  1  0  0  0
M  END
> <s_m_entry_id>
179

> <s_m_entry_name>
CHEMBL1993877.1

> <s_m_job_name>
mmod_csearch_27

> <s_lp_label>
 _28

> <r_mmod_Potential_Energy-MMFF94s>
-102.456795

> <b_mmod_Minimization_Converged-MMFF94s>
1

> <r_mmod_RMS_Derivative-MMFF94s>
0.012171

> <i_mmod_Times_Found-MMFF94s>
1713

> <r_mmod_Relative_Potential_Energy-MMFF94s>
0

> <i_mmod_Conformation-MMFF94s>
1

> <i_mmod_Serial_Number-MMFF94s>
27

$$$$
