CHEMBL1994318.smi
                    3D
 Structure written by MMmdl.
 77 80  0  0  1  0            999 V2000
    3.0040   -9.2823    2.5866 C   0  0  0  0  0  0
    1.6861   -9.0450    3.3260 C   0  0  0  0  0  0
    1.8961   -8.9679    4.8397 C   0  0  0  0  0  0
    0.9578   -7.8582    2.8260 N   0  0  0  0  0  0
    1.6585   -6.5657    2.8224 C   0  0  0  0  0  0
    2.0094   -6.0729    1.4175 C   0  0  0  0  0  0
    2.5485   -4.6439    1.4236 C   0  0  0  0  0  0
    1.5418   -3.6763    1.8852 N   0  0  0  0  0  0
   -0.3710   -8.0458    2.4112 C   0  0  0  0  0  0
   -0.9241   -9.1448    2.3930 O   0  0  0  0  0  0
   -1.1759   -6.9051    1.9080 C   0  0  0  0  0  0
   -1.7621   -7.0309    0.6418 C   0  0  0  0  0  0
   -2.5890   -6.0225    0.1477 C   0  0  0  0  0  0
   -2.8319   -4.8823    0.9148 C   0  0  0  0  0  0
   -2.2361   -4.7415    2.1769 C   0  0  0  0  0  0
   -1.4382   -5.7755    2.6900 C   0  0  0  0  0  0
   -2.5065   -3.5772    2.9493 N   0  0  0  0  0  0
   -3.6522   -2.8808    2.7425 N   0  0  0  0  0  0
   -3.7751   -2.0976    3.8219 C   0  0  0  0  0  0
   -2.6108   -2.1604    4.6267 C   0  0  0  0  0  0
   -1.7487   -3.0116    3.9710 C   0  0  0  0  0  0
   -0.3967   -3.2614    4.1668 N   0  0  0  0  0  0
    0.3016   -2.8602    5.2957 C   0  0  0  0  0  0
   -0.2149   -2.3808    6.2976 O   0  0  0  0  0  0
    1.6589   -3.0904    5.1245 N   0  0  0  0  0  0
    2.6703   -3.0489    6.1201 C   0  0  0  0  0  0
    2.3341   -3.1108    7.4795 C   0  0  0  0  0  0
    3.3199   -3.1517    8.4615 C   0  0  0  0  0  0
    4.6613   -3.1384    8.0996 C   0  0  0  0  0  0
    5.0387   -3.0676    6.7532 C   0  0  0  0  0  0
    6.4035   -3.0462    6.4197 C   0  0  0  0  0  0
    6.8191   -2.9514    5.0943 C   0  0  0  0  0  0
    5.8727   -2.8652    4.0849 C   0  0  0  0  0  0
    4.5112   -2.8885    4.4022 C   0  0  0  0  0  0
    4.0477   -3.0094    5.7368 C   0  0  0  0  0  0
   -5.0043   -1.2284    4.0368 C   0  0  0  0  0  0
   -4.6404    0.2515    3.8065 C   0  0  0  0  0  0
   -6.1525   -1.5987    3.0727 C   0  0  0  0  0  0
   -5.5311   -1.3953    5.4772 C   0  0  0  0  0  0
    2.8366   -9.3326    1.5054 H   0  0  0  0  0  0
    3.4561  -10.2288    2.9021 H   0  0  0  0  0  0
    3.7341   -8.4895    2.7769 H   0  0  0  0  0  0
    1.0731   -9.9355    3.1461 H   0  0  0  0  0  0
    2.5544   -8.1399    5.1209 H   0  0  0  0  0  0
    2.3454   -9.8935    5.2149 H   0  0  0  0  0  0
    0.9408   -8.8221    5.3554 H   0  0  0  0  0  0
    2.5765   -6.6437    3.4145 H   0  0  0  0  0  0
    1.0414   -5.8440    3.3554 H   0  0  0  0  0  0
    1.1470   -6.1277    0.7459 H   0  0  0  0  0  0
    2.7671   -6.7363    0.9831 H   0  0  0  0  0  0
    2.8584   -4.3720    0.4085 H   0  0  0  0  0  0
    3.4336   -4.5817    2.0633 H   0  0  0  0  0  0
    1.9133   -2.7358    1.7093 H   0  0  0  0  0  0
    0.7471   -3.7346    1.2356 H   0  0  0  0  0  0
   -1.5947   -7.9310    0.0530 H   0  0  0  0  0  0
   -3.0588   -6.1322   -0.8269 H   0  0  0  0  0  0
   -3.4885   -4.1083    0.5190 H   0  0  0  0  0  0
   -1.0831   -5.7525    3.7169 H   0  0  0  0  0  0
   -2.3979   -1.5728    5.5094 H   0  0  0  0  0  0
    0.1243   -3.7430    3.4398 H   0  0  0  0  0  0
    1.9486   -3.2303    4.1672 H   0  0  0  0  0  0
    1.3001   -3.1584    7.8087 H   0  0  0  0  0  0
    3.0368   -3.2048    9.5097 H   0  0  0  0  0  0
    5.4135   -3.1775    8.8849 H   0  0  0  0  0  0
    7.1608   -3.0967    7.2000 H   0  0  0  0  0  0
    7.8792   -2.9305    4.8562 H   0  0  0  0  0  0
    6.1896   -2.7683    3.0498 H   0  0  0  0  0  0
    3.8146   -2.7795    3.5792 H   0  0  0  0  0  0
   -4.2623    0.4125    2.7899 H   0  0  0  0  0  0
   -3.8618    0.5869    4.5016 H   0  0  0  0  0  0
   -5.5114    0.9018    3.9468 H   0  0  0  0  0  0
   -6.4519   -2.6466    3.1929 H   0  0  0  0  0  0
   -5.8617   -1.4541    2.0254 H   0  0  0  0  0  0
   -7.0381   -0.9785    3.2539 H   0  0  0  0  0  0
   -5.7800   -2.4421    5.6883 H   0  0  0  0  0  0
   -6.4345   -0.7966    5.6417 H   0  0  0  0  0  0
   -4.7900   -1.0778    6.2197 H   0  0  0  0  0  0
  1  2  1  0  0  0
  1 40  1  0  0  0
  1 41  1  0  0  0
  1 42  1  0  0  0
  2  4  1  0  0  0
  2  3  1  0  0  0
  2 43  1  0  0  0
  3 44  1  0  0  0
  3 45  1  0  0  0
  3 46  1  0  0  0
  4  9  1  0  0  0
  4  5  1  0  0  0
  5  6  1  0  0  0
  5 47  1  0  0  0
  5 48  1  0  0  0
  6  7  1  0  0  0
  6 49  1  0  0  0
  6 50  1  0  0  0
  7  8  1  0  0  0
  7 51  1  0  0  0
  7 52  1  0  0  0
  8 53  1  0  0  0
  8 54  1  0  0  0
  9 11  1  0  0  0
  9 10  2  0  0  0
 11 12  2  0  0  0
 11 16  1  0  0  0
 12 13  1  0  0  0
 12 55  1  0  0  0
 13 14  2  0  0  0
 13 56  1  0  0  0
 14 15  1  0  0  0
 14 57  1  0  0  0
 15 16  2  0  0  0
 15 17  1  0  0  0
 16 58  1  0  0  0
 17 18  1  0  0  0
 17 21  1  0  0  0
 18 19  2  0  0  0
 19 20  1  0  0  0
 19 36  1  0  0  0
 20 21  2  0  0  0
 20 59  1  0  0  0
 21 22  1  0  0  0
 22 23  1  0  0  0
 22 60  1  0  0  0
 23 25  1  0  0  0
 23 24  2  0  0  0
 25 26  1  0  0  0
 25 61  1  0  0  0
 26 27  2  0  0  0
 26 35  1  0  0  0
 27 28  1  0  0  0
 27 62  1  0  0  0
 28 29  2  0  0  0
 28 63  1  0  0  0
 29 30  1  0  0  0
 29 64  1  0  0  0
 30 31  2  0  0  0
 30 35  1  0  0  0
 31 32  1  0  0  0
 31 65  1  0  0  0
 32 33  2  0  0  0
 32 66  1  0  0  0
 33 34  1  0  0  0
 33 67  1  0  0  0
 34 35  2  0  0  0
 34 68  1  0  0  0
 36 39  1  0  0  0
 36 38  1  0  0  0
 36 37  1  0  0  0
 37 69  1  0  0  0
 37 70  1  0  0  0
 37 71  1  0  0  0
 38 72  1  0  0  0
 38 73  1  0  0  0
 38 74  1  0  0  0
 39 75  1  0  0  0
 39 76  1  0  0  0
 39 77  1  0  0  0
M  END
> <s_m_entry_id>
180

> <s_m_entry_name>
CHEMBL1994318.1

> <s_m_job_name>
mmod_csearch_27

> <s_lp_label>
 _29

> <r_mmod_Potential_Energy-MMFF94s>
288.083771

> <b_mmod_Minimization_Converged-MMFF94s>
1

> <r_mmod_RMS_Derivative-MMFF94s>
0.012285

> <i_mmod_Times_Found-MMFF94s>
32

> <r_mmod_Relative_Potential_Energy-MMFF94s>
0

> <i_mmod_Conformation-MMFF94s>
1

> <i_mmod_Serial_Number-MMFF94s>
29

$$$$
