CHEMBL451401.smi
                    3D
 Structure written by MMmdl.
 19 20  0  0  1  0            999 V2000
    2.6487   -0.0725   -1.3563 N   0  0  0  0  0  0
    2.1616    0.3125   -0.1411 C   0  0  0  0  0  0
    1.0872   -0.1211    0.2639 O   0  0  0  0  0  0
    2.9544    1.2640    0.6801 C   0  0  0  0  0  0
    4.1913    1.8125    0.3016 C   0  0  0  0  0  0
    4.8747    2.7042    1.1362 C   0  0  0  0  0  0
    4.3476    3.0798    2.3783 C   0  0  0  0  0  0
    3.1124    2.5432    2.7762 C   0  0  0  0  0  0
    2.2639    2.6544    3.9004 C   0  0  0  0  0  0
    1.1589    1.9122    3.7914 N   0  0  0  0  0  0
    1.2986    1.3207    2.5897 N   0  0  0  0  0  0
    0.5777    0.6865    2.2526 H   0  0  0  0  0  0
    2.4539    1.6606    1.9303 C   0  0  0  0  0  0
    3.5185    0.2361   -1.7596 H   0  0  0  0  0  0
    2.0849   -0.7213   -1.8910 H   0  0  0  0  0  0
    4.6503    1.5596   -0.6484 H   0  0  0  0  0  0
    5.8314    3.1142    0.8181 H   0  0  0  0  0  0
    4.8860    3.7726    3.0187 H   0  0  0  0  0  0
    2.4089    3.2475    4.7939 H   0  0  0  0  0  0
  1  2  1  0  0  0
  1 14  1  0  0  0
  1 15  1  0  0  0
  2  4  1  0  0  0
  2  3  2  0  0  0
  4  5  2  0  0  0
  4 13  1  0  0  0
  5  6  1  0  0  0
  5 16  1  0  0  0
  6  7  2  0  0  0
  6 17  1  0  0  0
  7  8  1  0  0  0
  7 18  1  0  0  0
  8  9  1  0  0  0
  8 13  2  0  0  0
  9 10  2  0  0  0
  9 19  1  0  0  0
 10 11  1  0  0  0
 11 13  1  0  0  0
 11 12  1  0  0  0
M  END
> <s_m_entry_id>
115

> <s_m_entry_name>
CHEMBL451401.1

> <s_m_job_name>
mmod_csearch_22

> <s_lp_label>
 _3

> <r_mmod_Potential_Energy-MMFF94s>
15.82337

> <b_mmod_Minimization_Converged-MMFF94s>
1

> <r_mmod_RMS_Derivative-MMFF94s>
0.002619

> <i_mmod_Times_Found-MMFF94s>
358

> <r_mmod_Relative_Potential_Energy-MMFF94s>
0

> <i_mmod_Conformation-MMFF94s>
1

> <i_mmod_Serial_Number-MMFF94s>
3

$$$$
