CHEMBL1972934.smi
                    3D
 Structure written by MMmdl.
 15 16  0  0  1  0            999 V2000
    0.9703   -0.0112   -0.0372 N   0  0  0  0  0  0
    2.3429   -0.0790   -0.0382 C   0  0  0  0  0  0
    3.0112    1.0885   -0.0398 N   0  0  0  0  0  0
    4.3538    1.0565   -0.0408 C   0  0  0  0  0  0
    5.1474   -0.0187   -0.0404 N   0  0  0  0  0  0
    4.4449   -1.1638   -0.0388 C   0  0  0  0  0  0
    5.2403   -2.6723   -0.0381 S   0  0  0  0  0  0
    3.7563   -3.5225   -0.0362 C   0  0  0  0  0  0
    2.6750   -2.6680   -0.0361 C   0  0  0  0  0  0
    3.0637   -1.2846   -0.0377 C   0  0  0  0  0  0
    0.5657    0.9141   -0.0377 H   0  0  0  0  0  0
    0.3893   -0.8316   -0.0360 H   0  0  0  0  0  0
    4.8531    2.0206   -0.0420 H   0  0  0  0  0  0
    3.7492   -4.6040   -0.0352 H   0  0  0  0  0  0
    1.6493   -3.0141   -0.0350 H   0  0  0  0  0  0
  1  2  1  0  0  0
  1 11  1  0  0  0
  1 12  1  0  0  0
  2  3  2  0  0  0
  2 10  1  0  0  0
  3  4  1  0  0  0
  4  5  2  0  0  0
  4 13  1  0  0  0
  5  6  1  0  0  0
  6  7  1  0  0  0
  6 10  2  0  0  0
  7  8  1  0  0  0
  8  9  2  0  0  0
  8 14  1  0  0  0
  9 10  1  0  0  0
  9 15  1  0  0  0
M  END
> <s_m_entry_id>
785

> <s_m_job_name>
mmod_csearch_9

> <r_mmod_Potential_Energy-MMFF94s>
-155.392624

> <b_mmod_Minimization_Converged-MMFF94s>
1

> <r_mmod_RMS_Derivative-MMFF94s>
0.002711

> <i_mmod_Times_Found-MMFF94s>
999

> <r_mmod_Relative_Potential_Energy-MMFF94s>
0

> <i_mmod_Conformation-MMFF94s>
1

> <s_lp_label>
 _28

> <i_mmod_Serial_Number-MMFF94s>
28

$$$$
