CHEMBL1986590.smi
                    3D
 Structure written by MMmdl.
 32 35  0  0  1  0            999 V2000
    2.4470    0.1898    2.0248 O   0  0  0  0  0  0
    3.2353    0.0328    1.1123 C   0  0  0  0  0  0
    3.7390    1.0038    0.2634 N   0  0  0  0  0  0
    4.6297    0.4582   -0.6573 C   0  0  0  0  0  0
    5.3230    1.1452   -1.6341 C   0  0  0  0  0  0
    6.1893    0.4081   -2.4430 C   0  0  0  0  0  0
    6.3437   -0.9766   -2.2527 C   0  0  0  0  0  0
    5.6305   -1.6509   -1.2537 C   0  0  0  0  0  0
    4.7603   -0.9228   -0.4631 C   0  0  0  0  0  0
    3.8703   -1.2535    0.6540 C   0  0  0  0  0  0
    3.5609   -2.4047    1.2691 C   0  0  0  0  0  0
    4.0266   -3.7088    0.9427 C   0  0  0  0  0  0
    4.8009   -4.4752    1.7834 C   0  0  0  0  0  0
    5.0432   -5.6678    1.1537 N   0  0  0  0  0  0
    5.5900   -6.4270    1.5351 H   0  0  0  0  0  0
    4.4174   -5.6971   -0.0729 C   0  0  0  0  0  0
    4.3825   -6.7057   -1.0433 C   0  0  0  0  0  0
    3.6446   -6.4619   -2.2055 C   0  0  0  0  0  0
    2.9667   -5.2588   -2.3867 C   0  0  0  0  0  0
    3.0112   -4.2608   -1.4068 C   0  0  0  0  0  0
    3.7550   -4.4772   -0.2278 C   0  0  0  0  0  0
    3.4831    1.9761    0.3338 H   0  0  0  0  0  0
    5.2081    2.2140   -1.7708 H   0  0  0  0  0  0
    6.7562    0.9081   -3.2253 H   0  0  0  0  0  0
    7.0294   -1.5331   -2.8885 H   0  0  0  0  0  0
    5.7738   -2.7165   -1.1148 H   0  0  0  0  0  0
    2.8803   -2.3570    2.1193 H   0  0  0  0  0  0
    5.2059   -4.2777    2.7671 H   0  0  0  0  0  0
    4.9033   -7.6473   -0.9035 H   0  0  0  0  0  0
    3.5959   -7.2262   -2.9778 H   0  0  0  0  0  0
    2.3950   -5.0911   -3.2962 H   0  0  0  0  0  0
    2.4789   -3.3259   -1.5567 H   0  0  0  0  0  0
  1  2  2  0  0  0
  2 10  1  0  0  0
  2  3  1  0  0  0
  3  4  1  0  0  0
  3 22  1  0  0  0
  4  9  1  0  0  0
  4  5  2  0  0  0
  5  6  1  0  0  0
  5 23  1  0  0  0
  6  7  2  0  0  0
  6 24  1  0  0  0
  7  8  1  0  0  0
  7 25  1  0  0  0
  8  9  2  0  0  0
  8 26  1  0  0  0
  9 10  1  0  0  0
 10 11  2  0  0  0
 11 12  1  0  0  0
 11 27  1  0  0  0
 12 21  1  0  0  0
 12 13  2  0  0  0
 13 14  1  0  0  0
 13 28  1  0  0  0
 14 16  1  0  0  0
 14 15  1  0  0  0
 16 21  1  0  0  0
 16 17  2  0  0  0
 17 18  1  0  0  0
 17 29  1  0  0  0
 18 19  2  0  0  0
 18 30  1  0  0  0
 19 20  1  0  0  0
 19 31  1  0  0  0
 20 21  2  0  0  0
 20 32  1  0  0  0
M  END
> <s_m_entry_id>
165

> <s_m_entry_name>
CHEMBL1986590.1

> <s_m_job_name>
mmod_csearch_27

> <s_lp_label>
 _13

> <r_mmod_Potential_Energy-MMFF94s>
146.255814

> <b_mmod_Minimization_Converged-MMFF94s>
1

> <r_mmod_RMS_Derivative-MMFF94s>
0.011967

> <i_mmod_Times_Found-MMFF94s>
495

> <r_mmod_Relative_Potential_Energy-MMFF94s>
0

> <i_mmod_Conformation-MMFF94s>
1

> <i_mmod_Serial_Number-MMFF94s>
13

$$$$
