CHEMBL1988622.smi
                    3D
 Structure written by MMmdl.
 28 30  0  0  1  0            999 V2000
    1.2816    0.4743   -0.3297 C   0  0  0  0  0  0
    0.1019    0.4757    0.3100 C   0  0  0  0  0  0
   -1.0146   -0.3958   -0.1575 C   0  0  0  0  0  0
   -2.2655   -0.2312    0.6458 C   0  0  0  0  0  0
   -3.3261   -0.9741    0.3038 C   0  0  0  0  0  0
   -3.2214   -1.8676   -0.7828 C   0  0  0  0  0  0
   -4.0953   -2.6966   -1.3155 N   0  0  0  0  0  0
   -3.4251   -3.3046   -2.3483 C   0  0  0  0  0  0
   -2.1346   -2.8399   -2.4419 C   0  0  0  0  0  0
   -2.0042   -1.9195   -1.4392 N   0  0  0  0  0  0
   -0.8784   -1.2067   -1.1642 N   0  0  0  0  0  0
    2.4194    1.3164    0.0611 C   0  0  0  0  0  0
    3.2040    1.9004   -0.9416 C   0  0  0  0  0  0
    4.3089    2.6890   -0.6115 C   0  0  0  0  0  0
    4.6471    2.8914    0.7247 C   0  0  0  0  0  0
    3.8847    2.3015    1.7308 C   0  0  0  0  0  0
    2.7789    1.5134    1.4010 C   0  0  0  0  0  0
    1.4371   -0.1522   -1.2061 H   0  0  0  0  0  0
   -0.0758    1.1166    1.1657 H   0  0  0  0  0  0
   -2.2994    0.4681    1.4706 H   0  0  0  0  0  0
   -4.2671   -0.9103    0.8372 H   0  0  0  0  0  0
   -3.9086   -4.0464   -2.9709 H   0  0  0  0  0  0
   -1.3172   -3.0693   -3.1076 H   0  0  0  0  0  0
    2.9567    1.7522   -1.9907 H   0  0  0  0  0  0
    4.9060    3.1423   -1.3986 H   0  0  0  0  0  0
    5.5084    3.5028    0.9815 H   0  0  0  0  0  0
    4.1550    2.4483    2.7733 H   0  0  0  0  0  0
    2.2135    1.0452    2.2026 H   0  0  0  0  0  0
  1 12  1  0  0  0
  1  2  2  0  0  0
  1 18  1  0  0  0
  2  3  1  0  0  0
  2 19  1  0  0  0
  3  4  1  0  0  0
  3 11  2  0  0  0
  4  5  2  0  0  0
  4 20  1  0  0  0
  5  6  1  0  0  0
  5 21  1  0  0  0
  6  7  2  0  0  0
  6 10  1  0  0  0
  7  8  1  0  0  0
  8  9  2  0  0  0
  8 22  1  0  0  0
  9 10  1  0  0  0
  9 23  1  0  0  0
 10 11  1  0  0  0
 12 13  2  0  0  0
 12 17  1  0  0  0
 13 14  1  0  0  0
 13 24  1  0  0  0
 14 15  2  0  0  0
 14 25  1  0  0  0
 15 16  1  0  0  0
 15 26  1  0  0  0
 16 17  2  0  0  0
 16 27  1  0  0  0
 17 28  1  0  0  0
M  END
> <s_m_entry_id>
168

> <s_m_entry_name>
CHEMBL1988622.1

> <s_m_job_name>
mmod_csearch_27

> <s_lp_label>
 _16

> <r_mmod_Potential_Energy-MMFF94s>
133.72908

> <b_mmod_Minimization_Converged-MMFF94s>
1

> <r_mmod_RMS_Derivative-MMFF94s>
0.008673

> <i_mmod_Times_Found-MMFF94s>
563

> <r_mmod_Relative_Potential_Energy-MMFF94s>
0

> <i_mmod_Conformation-MMFF94s>
1

> <i_mmod_Serial_Number-MMFF94s>
16

$$$$
