CHEMBL1984296.smi
                    3D
 Structure written by MMmdl.
 44 47  0  0  1  0            999 V2000
   13.5030   -5.9125   -2.2941 C   0  0  0  0  0  0
   12.4823   -5.1941   -1.4615 C   0  0  0  0  0  0
   12.8776   -4.2730   -0.4923 C   0  0  0  0  0  0
   11.9225   -3.6342    0.2966 C   0  0  0  0  0  0
   10.5534   -3.9109    0.1404 C   0  0  0  0  0  0
    9.5759   -3.1837    1.0249 C   0  0  0  0  0  0
   10.1444   -4.8552   -0.8263 C   0  0  0  0  0  0
    8.7633   -5.1263   -0.9709 N   0  0  0  0  0  0
    8.1578   -6.0132   -1.8400 C   0  0  0  0  0  0
    8.6828   -6.7917   -2.6229 O   0  0  0  0  0  0
    6.6808   -6.0216   -1.7436 C   0  0  0  0  0  0
    6.0943   -7.2174   -1.3355 C   0  0  0  0  0  0
    4.7232   -7.2411   -1.1836 C   0  0  0  0  0  0
    3.9432   -6.1571   -1.4169 N   0  0  0  0  0  0
    4.5132   -5.0170   -1.8405 C   0  0  0  0  0  0
    3.6926   -3.9265   -2.0967 C   0  0  0  0  0  0
    4.2006   -2.7084   -2.5540 C   0  0  0  0  0  0
    5.5638   -2.5701   -2.7704 C   0  0  0  0  0  0
    6.4101   -3.6477   -2.5182 C   0  0  0  0  0  0
    5.9005   -4.8810   -2.0361 C   0  0  0  0  0  0
    3.9980   -8.4260   -0.7461 C   0  0  0  0  0  0
    4.7425   -9.5343   -0.4447 O   0  0  0  0  0  0
    3.8773  -10.5096   -0.0646 C   0  0  0  0  0  0
    2.5827  -10.0507   -0.1114 C   0  0  0  0  0  0
    2.6591   -8.7069   -0.5498 C   0  0  0  0  0  0
   11.1179   -5.4863   -1.6117 C   0  0  0  0  0  0
   14.4100   -5.3097   -2.4095 H   0  0  0  0  0  0
   13.1160   -6.1110   -3.2991 H   0  0  0  0  0  0
   13.7694   -6.8629   -1.8214 H   0  0  0  0  0  0
   13.9310   -4.0458   -0.3450 H   0  0  0  0  0  0
   12.2580   -2.9157    1.0418 H   0  0  0  0  0  0
   10.0826   -2.4895    1.7038 H   0  0  0  0  0  0
    9.0185   -3.8963    1.6415 H   0  0  0  0  0  0
    8.8787   -2.5964    0.4184 H   0  0  0  0  0  0
    8.1439   -4.6156   -0.3558 H   0  0  0  0  0  0
    6.7012   -8.0955   -1.1380 H   0  0  0  0  0  0
    2.6203   -4.0298   -1.9423 H   0  0  0  0  0  0
    3.5265   -1.8784   -2.7499 H   0  0  0  0  0  0
    5.9678   -1.6320   -3.1432 H   0  0  0  0  0  0
    7.4728   -3.5223   -2.7208 H   0  0  0  0  0  0
    4.3281  -11.4551    0.2035 H   0  0  0  0  0  0
    1.6950  -10.6144    0.1380 H   0  0  0  0  0  0
    1.8445   -8.0140   -0.7102 H   0  0  0  0  0  0
   10.8399   -6.2213   -2.3614 H   0  0  0  0  0  0
  1  2  1  0  0  0
  1 27  1  0  0  0
  1 28  1  0  0  0
  1 29  1  0  0  0
  2  3  2  0  0  0
  2 26  1  0  0  0
  3  4  1  0  0  0
  3 30  1  0  0  0
  4  5  2  0  0  0
  4 31  1  0  0  0
  5  7  1  0  0  0
  5  6  1  0  0  0
  6 32  1  0  0  0
  6 33  1  0  0  0
  6 34  1  0  0  0
  7 26  2  0  0  0
  7  8  1  0  0  0
  8  9  1  0  0  0
  8 35  1  0  0  0
  9 11  1  0  0  0
  9 10  2  0  0  0
 11 12  2  0  0  0
 11 20  1  0  0  0
 12 13  1  0  0  0
 12 36  1  0  0  0
 13 14  2  0  0  0
 13 21  1  0  0  0
 14 15  1  0  0  0
 15 16  2  0  0  0
 15 20  1  0  0  0
 16 17  1  0  0  0
 16 37  1  0  0  0
 17 18  2  0  0  0
 17 38  1  0  0  0
 18 19  1  0  0  0
 18 39  1  0  0  0
 19 20  2  0  0  0
 19 40  1  0  0  0
 21 22  1  0  0  0
 21 25  2  0  0  0
 22 23  1  0  0  0
 23 24  2  0  0  0
 23 41  1  0  0  0
 24 25  1  0  0  0
 24 42  1  0  0  0
 25 43  1  0  0  0
 26 44  1  0  0  0
M  END
> <s_m_entry_id>
9946

> <s_m_job_name>
mmod_csearch_11

> <r_mmod_Potential_Energy-MMFF94s>
192.212143

> <b_mmod_Minimization_Converged-MMFF94s>
1

> <r_mmod_RMS_Derivative-MMFF94s>
0.007366

> <i_mmod_Times_Found-MMFF94s>
252

> <r_mmod_Relative_Potential_Energy-MMFF94s>
0

> <i_mmod_Conformation-MMFF94s>
1

> <s_lp_label>
 _15

> <i_mmod_Serial_Number-MMFF94s>
15

$$$$
