CHEMBL1971289.smi
                    3D
 Structure written by MMmdl.
 30 31  0  0  1  0            999 V2000
    0.9348   -2.3518   -0.1774 C   0  0  0  0  0  0
    2.2916   -1.6806   -0.2931 C   0  0  0  0  0  0
    2.5206   -0.9423    0.9064 O   0  0  0  0  0  0
    3.6960   -0.2493    0.9928 C   0  0  0  0  0  0
    3.8611    0.4754    2.1739 C   0  0  0  0  0  0
    5.0145    1.2375    2.3901 C   0  0  0  0  0  0
    6.0399    1.2774    1.4349 C   0  0  0  0  0  0
    7.1686    2.1845    1.7053 C   0  0  0  0  0  0
    8.4876    1.9445    1.6890 C   0  0  0  0  0  0
    9.6506    3.1565    2.1429 S   0  0  0  0  0  0
   10.9732    2.0521    1.9761 C   0  0  0  0  0  0
   12.1944    2.3510    2.2061 N   0  0  0  0  0  0
   10.5536    0.8362    1.5712 N   0  0  0  0  0  0
    9.2130    0.6850    1.3555 C   0  0  0  0  0  0
    8.7121   -0.3337    0.9021 O   0  0  0  0  0  0
    5.8581    0.5387    0.2600 C   0  0  0  0  0  0
    6.8097    0.5023   -0.7216 O   0  0  0  0  0  0
    4.7017   -0.2124    0.0306 C   0  0  0  0  0  0
    0.9068   -3.0174    0.6917 H   0  0  0  0  0  0
    0.7098   -2.9338   -1.0755 H   0  0  0  0  0  0
    0.1465   -1.6055   -0.0329 H   0  0  0  0  0  0
    2.2853   -1.0083   -1.1589 H   0  0  0  0  0  0
    3.0617   -2.4504   -0.4185 H   0  0  0  0  0  0
    3.0793    0.4562    2.9297 H   0  0  0  0  0  0
    5.0962    1.8044    3.3155 H   0  0  0  0  0  0
    6.8350    3.1808    1.9989 H   0  0  0  0  0  0
   12.8023    1.5472    2.0426 H   0  0  0  0  0  0
   11.1743    0.0649    1.3935 H   0  0  0  0  0  0
    7.5480   -0.0077   -0.3210 H   0  0  0  0  0  0
    4.6239   -0.7561   -0.9041 H   0  0  0  0  0  0
  1  2  1  0  0  0
  1 19  1  0  0  0
  1 20  1  0  0  0
  1 21  1  0  0  0
  2  3  1  0  0  0
  2 22  1  0  0  0
  2 23  1  0  0  0
  3  4  1  0  0  0
  4  5  2  0  0  0
  4 18  1  0  0  0
  5  6  1  0  0  0
  5 24  1  0  0  0
  6  7  2  0  0  0
  6 25  1  0  0  0
  7 16  1  0  0  0
  7  8  1  0  0  0
  8  9  2  0  0  0
  8 26  1  0  0  0
  9 14  1  0  0  0
  9 10  1  0  0  0
 10 11  1  0  0  0
 11 13  1  0  0  0
 11 12  2  0  0  0
 12 27  1  0  0  0
 13 14  1  0  0  0
 13 28  1  0  0  0
 14 15  2  0  0  0
 16 18  2  0  0  0
 16 17  1  0  0  0
 17 29  1  0  0  0
 18 30  1  0  0  0
M  END
> <s_m_entry_id>
145

> <s_m_entry_name>
CHEMBL1971289.1

> <s_m_job_name>
mmod_csearch_26

> <s_lp_label>
 _1

> <r_mmod_Potential_Energy-MMFF94s>
-169.894196

> <b_mmod_Minimization_Converged-MMFF94s>
1

> <r_mmod_RMS_Derivative-MMFF94s>
0.011721

> <i_mmod_Times_Found-MMFF94s>
147

> <r_mmod_Relative_Potential_Energy-MMFF94s>
0

> <i_mmod_Conformation-MMFF94s>
1

> <i_mmod_Serial_Number-MMFF94s>
1

$$$$
