CHEMBL1998470.smi
                    3D
 Structure written by MMmdl.
 37 39  0  0  1  0            999 V2000
    3.9008    0.1893   -2.3999 C   0  0  0  0  0  0
    3.2799    0.2703   -1.0150 C   0  0  0  0  0  0
    4.1487    1.0821   -0.0586 C   0  0  0  0  0  0
    3.5508    1.1757    1.3370 C   0  0  0  0  0  0
    2.4754    0.6653    1.6279 O   0  0  0  0  0  0
    4.3591    1.8983    2.1857 N   0  0  0  0  0  0
    4.1619    2.1852    3.5374 C   0  0  0  0  0  0
    3.0983    1.7093    4.2911 C   0  0  0  0  0  0
    3.0001    2.0765    5.6374 C   0  0  0  0  0  0
    3.9783    2.9036    6.1823 C   0  0  0  0  0  0
    5.0003    3.3146    5.3524 C   0  0  0  0  0  0
    6.2507    4.3336    5.9374 Cl  0  0  0  0  0  0
    5.1199    2.9789    4.0528 N   0  0  0  0  0  0
    1.8910    1.6017    6.4518 C   0  0  0  0  0  0
    2.0516    1.1427    7.7489 C   0  0  0  0  0  0
    0.8222    0.7597    8.2220 N   0  0  0  0  0  0
    0.6191    0.3775    9.1338 H   0  0  0  0  0  0
   -0.1288    0.9624    7.2630 C   0  0  0  0  0  0
   -1.4356    0.6861    7.4261 N   0  0  0  0  0  0
   -2.1734    0.9741    6.3301 C   0  0  0  0  0  0
   -1.6869    1.5033    5.1424 C   0  0  0  0  0  0
   -0.3223    1.7738    5.0304 C   0  0  0  0  0  0
    0.4984    1.4871    6.1369 C   0  0  0  0  0  0
    4.0226    1.1868   -2.8342 H   0  0  0  0  0  0
    3.2617   -0.3963   -3.0682 H   0  0  0  0  0  0
    4.8834   -0.2916   -2.3618 H   0  0  0  0  0  0
    3.1382   -0.7437   -0.6222 H   0  0  0  0  0  0
    2.2839    0.7227   -1.0912 H   0  0  0  0  0  0
    4.2781    2.1007   -0.4439 H   0  0  0  0  0  0
    5.1417    0.6242    0.0244 H   0  0  0  0  0  0
    5.2077    2.3146    1.8250 H   0  0  0  0  0  0
    2.3560    1.0463    3.8625 H   0  0  0  0  0  0
    3.9425    3.2264    7.2162 H   0  0  0  0  0  0
    2.9288    1.0400    8.3740 H   0  0  0  0  0  0
   -3.2342    0.7567    6.4332 H   0  0  0  0  0  0
   -2.3581    1.7023    4.3139 H   0  0  0  0  0  0
    0.0846    2.1896    4.1144 H   0  0  0  0  0  0
  1  2  1  0  0  0
  1 24  1  0  0  0
  1 25  1  0  0  0
  1 26  1  0  0  0
  2  3  1  0  0  0
  2 27  1  0  0  0
  2 28  1  0  0  0
  3  4  1  0  0  0
  3 29  1  0  0  0
  3 30  1  0  0  0
  4  6  1  0  0  0
  4  5  2  0  0  0
  6  7  1  0  0  0
  6 31  1  0  0  0
  7 13  1  0  0  0
  7  8  2  0  0  0
  8  9  1  0  0  0
  8 32  1  0  0  0
  9 10  2  0  0  0
  9 14  1  0  0  0
 10 11  1  0  0  0
 10 33  1  0  0  0
 11 13  2  0  0  0
 11 12  1  0  0  0
 14 23  1  0  0  0
 14 15  2  0  0  0
 15 16  1  0  0  0
 15 34  1  0  0  0
 16 18  1  0  0  0
 16 17  1  0  0  0
 18 23  1  0  0  0
 18 19  2  0  0  0
 19 20  1  0  0  0
 20 21  2  0  0  0
 20 35  1  0  0  0
 21 22  1  0  0  0
 21 36  1  0  0  0
 22 23  2  0  0  0
 22 37  1  0  0  0
M  END
> <s_m_entry_id>
191

> <s_m_entry_name>
CHEMBL1998470.1

> <s_m_job_name>
mmod_csearch_27

> <s_lp_label>
 _40

> <r_mmod_Potential_Energy-MMFF94s>
-167.976547

> <b_mmod_Minimization_Converged-MMFF94s>
1

> <r_mmod_RMS_Derivative-MMFF94s>
0.014794

> <i_mmod_Times_Found-MMFF94s>
125

> <r_mmod_Relative_Potential_Energy-MMFF94s>
0

> <i_mmod_Conformation-MMFF94s>
1

> <i_mmod_Serial_Number-MMFF94s>
40

$$$$
