CHEMBL482538.smi
                    3D
 Structure written by MMmdl.
 25 27  0  0  1  0            999 V2000
   -1.4750    0.0385    0.4066 C   0  0  0  0  0  0
   -0.5885   -0.6562    1.2259 C   0  0  0  0  0  0
    0.7867   -0.5784    0.9921 C   0  0  0  0  0  0
    1.2978    0.1958   -0.0622 C   0  0  0  0  0  0
    0.3878    0.8857   -0.8792 C   0  0  0  0  0  0
   -0.9879    0.8095   -0.6461 C   0  0  0  0  0  0
    2.7380    0.2714   -0.3150 C   0  0  0  0  0  0
    3.3137   -0.1812   -1.5117 C   0  0  0  0  0  0
    4.6874   -0.0862   -1.6893 C   0  0  0  0  0  0
    5.5646    0.4207   -0.7961 N   0  0  0  0  0  0
    4.9713    0.8485    0.3327 C   0  0  0  0  0  0
    5.6421    1.4071    1.3858 N   0  0  0  0  0  0
    6.6421    1.5422    1.3996 H   0  0  0  0  0  0
    4.7570    1.7468    2.3759 C   0  0  0  0  0  0
    3.4942    1.3961    1.9466 C   0  0  0  0  0  0
    3.6161    0.8157    0.6488 C   0  0  0  0  0  0
   -2.5449   -0.0208    0.5885 H   0  0  0  0  0  0
   -0.9653   -1.2608    2.0467 H   0  0  0  0  0  0
    1.4641   -1.1344    1.6377 H   0  0  0  0  0  0
    0.7499    1.5003   -1.7010 H   0  0  0  0  0  0
   -1.6771    1.3547   -1.2856 H   0  0  0  0  0  0
    2.6978   -0.6144   -2.2936 H   0  0  0  0  0  0
    5.1407   -0.4404   -2.6125 H   0  0  0  0  0  0
    5.0992    2.2093    3.2919 H   0  0  0  0  0  0
    2.5769    1.5433    2.5022 H   0  0  0  0  0  0
  1  2  2  0  0  0
  1  6  1  0  0  0
  1 17  1  0  0  0
  2  3  1  0  0  0
  2 18  1  0  0  0
  3  4  2  0  0  0
  3 19  1  0  0  0
  4  5  1  0  0  0
  4  7  1  0  0  0
  5  6  2  0  0  0
  5 20  1  0  0  0
  6 21  1  0  0  0
  7  8  2  0  0  0
  7 16  1  0  0  0
  8  9  1  0  0  0
  8 22  1  0  0  0
  9 10  2  0  0  0
  9 23  1  0  0  0
 10 11  1  0  0  0
 11 12  1  0  0  0
 11 16  2  0  0  0
 12 14  1  0  0  0
 12 13  1  0  0  0
 14 15  2  0  0  0
 14 24  1  0  0  0
 15 16  1  0  0  0
 15 25  1  0  0  0
M  END
> <s_m_entry_id>
119

> <s_m_entry_name>
CHEMBL482538.1

> <s_m_job_name>
mmod_csearch_22

> <s_lp_label>
 _7

> <r_mmod_Potential_Energy-MMFF94s>
162.143646

> <b_mmod_Minimization_Converged-MMFF94s>
1

> <r_mmod_RMS_Derivative-MMFF94s>
0.009729

> <i_mmod_Times_Found-MMFF94s>
500

> <r_mmod_Relative_Potential_Energy-MMFF94s>
0

> <i_mmod_Conformation-MMFF94s>
1

> <i_mmod_Serial_Number-MMFF94s>
7

$$$$
