CHEMBL1978195.smi
                    3D
 Structure written by MMmdl.
 28 30  0  0  1  0            999 V2000
    2.7562   -0.8297   -1.3098 N   0  0  0  0  0  0
    2.7160   -0.0189   -0.2101 C   0  0  0  0  0  0
    2.2847    1.1250   -0.3287 O   0  0  0  0  0  0
    3.1941   -0.5783    1.0427 C   0  0  0  0  0  0
    3.2519    0.0692    2.2602 C   0  0  0  0  0  0
    3.7669   -0.7447    3.3315 C   0  0  0  0  0  0
    3.9832   -0.4656    4.7060 C   0  0  0  0  0  0
    4.5278   -1.4952    5.4721 C   0  0  0  0  0  0
    4.8527   -2.7182    5.0064 N   0  0  0  0  0  0
    4.6423   -2.9900    3.7008 C   0  0  0  0  0  0
    4.1039   -2.0160    2.8571 C   0  0  0  0  0  0
    3.7713   -2.1775    1.1761 S   0  0  0  0  0  0
    3.6536    0.8405    5.2762 C   0  0  0  0  0  0
    2.3188    1.2643    5.3880 C   0  0  0  0  0  0
    2.0046    2.5101    5.9389 C   0  0  0  0  0  0
    3.0258    3.3438    6.3868 C   0  0  0  0  0  0
    2.6040    5.0284    7.1326 Br  0  0  0  0  0  0
    4.3560    2.9437    6.2896 C   0  0  0  0  0  0
    4.6665    1.6971    5.7381 C   0  0  0  0  0  0
    3.1017   -1.7774   -1.2672 H   0  0  0  0  0  0
    2.4273   -0.4532   -2.1875 H   0  0  0  0  0  0
    2.9341    1.1001    2.3794 H   0  0  0  0  0  0
    4.7188   -1.3536    6.5339 H   0  0  0  0  0  0
    4.9122   -3.9824    3.3581 H   0  0  0  0  0  0
    1.5095    0.6205    5.0468 H   0  0  0  0  0  0
    0.9645    2.8164    6.0131 H   0  0  0  0  0  0
    5.1572    3.5912    6.6360 H   0  0  0  0  0  0
    5.7116    1.4014    5.6621 H   0  0  0  0  0  0
  1  2  1  0  0  0
  1 20  1  0  0  0
  1 21  1  0  0  0
  2  4  1  0  0  0
  2  3  2  0  0  0
  4 12  1  0  0  0
  4  5  2  0  0  0
  5  6  1  0  0  0
  5 22  1  0  0  0
  6 11  1  0  0  0
  6  7  2  0  0  0
  7  8  1  0  0  0
  7 13  1  0  0  0
  8  9  2  0  0  0
  8 23  1  0  0  0
  9 10  1  0  0  0
 10 11  2  0  0  0
 10 24  1  0  0  0
 11 12  1  0  0  0
 13 14  2  0  0  0
 13 19  1  0  0  0
 14 15  1  0  0  0
 14 25  1  0  0  0
 15 16  2  0  0  0
 15 26  1  0  0  0
 16 18  1  0  0  0
 16 17  1  0  0  0
 18 19  2  0  0  0
 18 27  1  0  0  0
 19 28  1  0  0  0
M  END
> <s_m_entry_id>
10205

> <s_m_job_name>
mmod_csearch_13

> <r_mmod_Potential_Energy-MMFF94s>
102.308273

> <b_mmod_Minimization_Converged-MMFF94s>
1

> <r_mmod_RMS_Derivative-MMFF94s>
0.009506

> <i_mmod_Times_Found-MMFF94s>
265

> <r_mmod_Relative_Potential_Energy-MMFF94s>
0

> <i_mmod_Conformation-MMFF94s>
1

> <s_lp_label>
 _74

> <i_mmod_Serial_Number-MMFF94s>
74

$$$$
