CHEMBL1995765.smi
                    3D
 Structure written by MMmdl.
 21 22  0  0  1  0            999 V2000
    1.1237   -0.2429    0.7377 N   0  0  0  0  0  0
    2.4079    0.0260    0.3678 C   0  0  0  0  0  0
    3.4472   -0.7440    0.7479 C   0  0  0  0  0  0
    4.6461   -0.2047    0.0675 C   0  0  0  0  0  0
    5.7703   -0.6577    0.1717 O   0  0  0  0  0  0
    4.2180    0.8587   -0.6809 N   0  0  0  0  0  0
    2.8667    1.0288   -0.4704 N   0  0  0  0  0  0
    2.3124    2.2109   -1.0023 C   0  0  0  0  0  0
    1.0957    2.7231   -0.5512 C   0  0  0  0  0  0
    0.5859    3.9006   -1.1008 C   0  0  0  0  0  0
    1.3022    4.5564   -2.0893 C   0  0  0  0  0  0
    2.5090    4.0104   -2.4790 C   0  0  0  0  0  0
    3.0243    2.8743   -1.9587 N   0  0  0  0  0  0
    0.3760    0.1118    0.1566 H   0  0  0  0  0  0
    0.9364   -1.0525    1.3166 H   0  0  0  0  0  0
    3.4652   -1.6144    1.3748 H   0  0  0  0  0  0
    4.7330    1.4793   -1.2916 H   0  0  0  0  0  0
    0.5497    2.2461    0.2528 H   0  0  0  0  0  0
   -0.3586    4.3044   -0.7468 H   0  0  0  0  0  0
    0.9362    5.4736   -2.5362 H   0  0  0  0  0  0
    3.1174    4.4858   -3.2432 H   0  0  0  0  0  0
  1  2  1  0  0  0
  1 14  1  0  0  0
  1 15  1  0  0  0
  2  3  2  0  0  0
  2  7  1  0  0  0
  3  4  1  0  0  0
  3 16  1  0  0  0
  4  6  1  0  0  0
  4  5  2  0  0  0
  6  7  1  0  0  0
  6 17  1  0  0  0
  7  8  1  0  0  0
  8  9  2  0  0  0
  8 13  1  0  0  0
  9 10  1  0  0  0
  9 18  1  0  0  0
 10 11  2  0  0  0
 10 19  1  0  0  0
 11 12  1  0  0  0
 11 20  1  0  0  0
 12 13  2  0  0  0
 12 21  1  0  0  0
M  END
> <s_m_entry_id>
780

> <s_m_job_name>
mmod_csearch_9

> <r_mmod_Potential_Energy-MMFF94s>
4.201466

> <b_mmod_Minimization_Converged-MMFF94s>
1

> <r_mmod_RMS_Derivative-MMFF94s>
0.003013

> <i_mmod_Times_Found-MMFF94s>
596

> <r_mmod_Relative_Potential_Energy-MMFF94s>
0

> <i_mmod_Conformation-MMFF94s>
1

> <s_lp_label>
 _25

> <i_mmod_Serial_Number-MMFF94s>
25

$$$$
