CHEMBL522892.smi
                    3D
 Structure written by MMmdl.
 50 54  0  0  1  0            999 V2000
    0.4257    1.4633   -0.2312 C   0  0  0  0  0  0
    1.3639    0.5516   -0.8820 N   0  0  0  0  0  0
    0.7842    0.0122   -2.1311 C   0  0  0  0  0  0
    1.7488   -0.9362   -2.8798 C   0  0  0  0  0  0
    3.0465   -0.2858   -3.1278 N   0  0  0  0  0  0
    3.6479    0.3451   -1.9362 C   0  0  0  0  0  0
    2.6266    1.2498   -1.2082 C   0  0  0  0  0  0
    3.9091   -0.7852   -4.1026 C   0  0  0  0  0  0
    4.8994    0.0471   -4.6587 C   0  0  0  0  0  0
    5.7976   -0.3937   -5.6459 C   0  0  0  0  0  0
    5.6972   -1.7132   -6.0947 C   0  0  0  0  0  0
    6.4384   -2.3866   -7.0338 N   0  0  0  0  0  0
    5.9398   -3.6155   -7.0914 C   0  0  0  0  0  0
    4.8913   -3.7273   -6.2005 N   0  0  0  0  0  0
    4.3453   -4.5695   -6.0577 H   0  0  0  0  0  0
    4.7182   -2.5311   -5.5578 C   0  0  0  0  0  0
    3.8135   -2.1076   -4.5767 C   0  0  0  0  0  0
    6.3205   -4.7465   -7.8945 C   0  0  0  0  0  0
    7.3544   -4.6442   -8.7709 C   0  0  0  0  0  0
    8.0898   -3.4967   -8.9521 N   0  0  0  0  0  0
    7.7397   -5.8238   -9.5985 C   0  0  0  0  0  0
    8.7899   -5.8223  -10.5313 C   0  0  0  0  0  0
    9.5305   -4.7202  -10.7363 F   0  0  0  0  0  0
    9.1127   -6.9537  -11.2836 C   0  0  0  0  0  0
    8.3857   -8.1278  -11.1204 C   0  0  0  0  0  0
    7.3382   -8.1627  -10.2037 C   0  0  0  0  0  0
    7.0248   -7.0207   -9.4555 C   0  0  0  0  0  0
    5.9699   -7.0907   -8.5470 N   0  0  0  0  0  0
    5.5740   -6.0454   -7.7656 C   0  0  0  0  0  0
    4.6302   -6.1895   -6.9869 O   0  0  0  0  0  0
    0.8482    1.8433    0.7055 H   0  0  0  0  0  0
    0.1676    2.3196   -0.8649 H   0  0  0  0  0  0
   -0.4993    0.9380    0.0309 H   0  0  0  0  0  0
    0.5035    0.8339   -2.8041 H   0  0  0  0  0  0
   -0.1305   -0.5464   -1.8987 H   0  0  0  0  0  0
    1.8980   -1.8483   -2.2880 H   0  0  0  0  0  0
    1.2707   -1.2159   -3.8267 H   0  0  0  0  0  0
    3.9954   -0.4413   -1.2537 H   0  0  0  0  0  0
    4.5168    0.9626   -2.1874 H   0  0  0  0  0  0
    3.0919    1.6130   -0.2838 H   0  0  0  0  0  0
    2.4224    2.1266   -1.8379 H   0  0  0  0  0  0
    4.9676    1.0863   -4.3460 H   0  0  0  0  0  0
    6.5464    0.2719   -6.0587 H   0  0  0  0  0  0
    3.0798   -2.8014   -4.1841 H   0  0  0  0  0  0
    7.8399   -2.6753   -8.3951 H   0  0  0  0  0  0
    8.8540   -3.4474   -9.6152 H   0  0  0  0  0  0
    9.9337   -6.9043  -11.9930 H   0  0  0  0  0  0
    8.6342   -9.0105  -11.7043 H   0  0  0  0  0  0
    6.7730   -9.0830  -10.0799 H   0  0  0  0  0  0
    5.4456   -7.9483   -8.4342 H   0  0  0  0  0  0
  1  2  1  0  0  0
  1 31  1  0  0  0
  1 32  1  0  0  0
  1 33  1  0  0  0
  2  7  1  0  0  0
  2  3  1  0  0  0
  3  4  1  0  0  0
  3 34  1  0  0  0
  3 35  1  0  0  0
  4  5  1  0  0  0
  4 36  1  0  0  0
  4 37  1  0  0  0
  5  6  1  0  0  0
  5  8  1  0  0  0
  6  7  1  0  0  0
  6 38  1  0  0  0
  6 39  1  0  0  0
  7 40  1  0  0  0
  7 41  1  0  0  0
  8  9  2  0  0  0
  8 17  1  0  0  0
  9 10  1  0  0  0
  9 42  1  0  0  0
 10 11  2  0  0  0
 10 43  1  0  0  0
 11 12  1  0  0  0
 11 16  1  0  0  0
 12 13  2  0  0  0
 13 14  1  0  0  0
 13 18  1  0  0  0
 14 16  1  0  0  0
 14 15  1  0  0  0
 16 17  2  0  0  0
 17 44  1  0  0  0
 18 29  1  0  0  0
 18 19  2  0  0  0
 19 21  1  0  0  0
 19 20  1  0  0  0
 20 45  1  0  0  0
 20 46  1  0  0  0
 21 27  1  0  0  0
 21 22  2  0  0  0
 22 24  1  0  0  0
 22 23  1  0  0  0
 24 25  2  0  0  0
 24 47  1  0  0  0
 25 26  1  0  0  0
 25 48  1  0  0  0
 26 27  2  0  0  0
 26 49  1  0  0  0
 27 28  1  0  0  0
 28 29  1  0  0  0
 28 50  1  0  0  0
 29 30  2  0  0  0
M  END
> <s_m_entry_id>
122

> <s_m_entry_name>
CHEMBL522892.1

> <s_m_job_name>
mmod_csearch_23

> <s_lp_label>
 _2

> <r_mmod_Potential_Energy-MMFF94s>
500.145203

> <b_mmod_Minimization_Converged-MMFF94s>
1

> <r_mmod_RMS_Derivative-MMFF94s>
0.014518

> <i_mmod_Times_Found-MMFF94s>
524

> <r_mmod_Relative_Potential_Energy-MMFF94s>
0

> <i_mmod_Conformation-MMFF94s>
1

> <i_mmod_Serial_Number-MMFF94s>
2

$$$$
