CHEMBL1967878.smi
                    3D
 Structure written by MMmdl.
 63 67  0  0  1  0            999 V2000
   14.3068    8.2467  -13.9805 C   0  0  0  0  0  0
   13.1635    7.4420  -13.5561 N   0  0  0  0  0  0
   12.7527    6.5113  -14.6328 C   0  0  0  0  0  0
   11.5183    5.6626  -14.2481 C   0  0  0  0  0  0
   10.4065    6.5352  -13.8438 N   0  0  0  0  0  0
   10.7548    7.5161  -12.8000 C   0  0  0  0  0  0
   12.0162    8.3129  -13.2071 C   0  0  0  0  0  0
    9.1207    6.0084  -13.7723 C   0  0  0  0  0  0
    8.8754    4.7608  -13.1839 C   0  0  0  0  0  0
    7.5761    4.2553  -13.0556 C   0  0  0  0  0  0
    6.4718    4.9778  -13.5136 C   0  0  0  0  0  0
    5.1883    4.4783  -13.2760 N   0  0  0  0  0  0
    3.9363    5.0810  -13.2231 C   0  0  0  0  0  0
    2.8957    4.2349  -13.1549 N   0  0  0  0  0  0
    1.6687    4.7876  -13.0928 C   0  0  0  0  0  0
    1.4546    6.1406  -13.0799 C   0  0  0  0  0  0
    0.2138    6.6440  -13.0180 F   0  0  0  0  0  0
    2.5731    6.9540  -13.1180 C   0  0  0  0  0  0
    2.4159    8.3295  -13.1437 N   0  0  0  0  0  0
    3.5415    9.2549  -13.2263 C   0  0  1  0  0  0
    3.0904   10.6139  -13.8537 C   0  0  2  0  0  0
    4.1998   11.5381  -13.3494 C   0  0  0  0  0  0
    3.9051   11.2407  -11.8717 C   0  0  1  0  0  0
    2.4265   11.5657  -11.8662 C   0  0  0  0  0  0
    1.9374   11.2014  -13.0604 C   0  0  0  0  0  0
    4.0577    9.6966  -11.8189 C   0  0  2  0  0  0
    5.5079    9.3068  -11.5957 C   0  0  0  0  0  0
    6.4139   10.1074  -11.3899 O   0  0  0  0  0  0
    5.7542    7.9703  -11.5885 N   0  0  0  0  0  0
    3.8104    6.4236  -13.1831 N   0  0  0  0  0  0
    6.7151    6.2129  -14.1190 C   0  0  0  0  0  0
    8.0180    6.7311  -14.2647 C   0  0  0  0  0  0
    8.1806    8.0757  -14.9231 C   0  0  0  0  0  0
   14.6250    8.9157  -13.1734 H   0  0  0  0  0  0
   14.0840    8.8550  -14.8646 H   0  0  0  0  0  0
   15.1628    7.6034  -14.2123 H   0  0  0  0  0  0
   13.5798    5.8281  -14.8606 H   0  0  0  0  0  0
   12.5260    7.0709  -15.5506 H   0  0  0  0  0  0
   11.2296    5.0548  -15.1143 H   0  0  0  0  0  0
   11.7879    4.9836  -13.4296 H   0  0  0  0  0  0
    9.9379    8.2261  -12.6278 H   0  0  0  0  0  0
   10.9390    6.9922  -11.8530 H   0  0  0  0  0  0
   11.7630    8.9610  -14.0572 H   0  0  0  0  0  0
   12.2943    8.9642  -12.3698 H   0  0  0  0  0  0
    9.6972    4.1768  -12.7792 H   0  0  0  0  0  0
    7.4390    3.2967  -12.5617 H   0  0  0  0  0  0
    5.0983    3.4794  -13.1605 H   0  0  0  0  0  0
    0.8365    4.0934  -13.0541 H   0  0  0  0  0  0
    1.5341    8.6891  -12.7925 H   0  0  0  0  0  0
    4.3465    8.8457  -13.8507 H   0  0  0  0  0  0
    2.9412   10.6104  -14.9345 H   0  0  0  0  0  0
    5.2005   11.2306  -13.6717 H   0  0  0  0  0  0
    4.0504   12.5914  -13.6204 H   0  0  0  0  0  0
    4.4975   11.8257  -11.1663 H   0  0  0  0  0  0
    1.8759   11.9870  -11.0384 H   0  0  0  0  0  0
    0.9121   11.2669  -13.3917 H   0  0  0  0  0  0
    3.4671    9.2650  -11.0003 H   0  0  0  0  0  0
    5.0663    7.2861  -11.8966 H   0  0  0  0  0  0
    6.7044    7.6457  -11.4637 H   0  0  0  0  0  0
    5.8823    6.7971  -14.5030 H   0  0  0  0  0  0
    8.1929    8.8663  -14.1668 H   0  0  0  0  0  0
    7.3553    8.2748  -15.6156 H   0  0  0  0  0  0
    9.1017    8.1232  -15.5128 H   0  0  0  0  0  0
  1  2  1  0  0  0
  1 34  1  0  0  0
  1 35  1  0  0  0
  1 36  1  0  0  0
  2  7  1  0  0  0
  2  3  1  0  0  0
  3  4  1  0  0  0
  3 37  1  0  0  0
  3 38  1  0  0  0
  4  5  1  0  0  0
  4 39  1  0  0  0
  4 40  1  0  0  0
  5  6  1  0  0  0
  5  8  1  0  0  0
  6  7  1  0  0  0
  6 41  1  0  0  0
  6 42  1  0  0  0
  7 43  1  0  0  0
  7 44  1  0  0  0
  8  9  2  0  0  0
  8 32  1  0  0  0
  9 10  1  0  0  0
  9 45  1  0  0  0
 10 11  2  0  0  0
 10 46  1  0  0  0
 11 31  1  0  0  0
 11 12  1  0  0  0
 12 13  1  0  0  0
 12 47  1  0  0  0
 13 30  1  0  0  0
 13 14  2  0  0  0
 14 15  1  0  0  0
 15 16  2  0  0  0
 15 48  1  0  0  0
 16 18  1  0  0  0
 16 17  1  0  0  0
 18 30  2  0  0  0
 18 19  1  0  0  0
 19 20  1  0  0  0
 19 49  1  0  0  0
 20 26  1  0  0  0
 20 21  1  0  0  0
 20 50  1  0  0  0
 21 25  1  0  0  0
 21 22  1  0  0  0
 21 51  1  0  0  0
 22 23  1  0  0  0
 22 52  1  0  0  0
 22 53  1  0  0  0
 23 26  1  0  0  0
 23 24  1  0  0  0
 23 54  1  0  0  0
 24 25  2  0  0  0
 24 55  1  0  0  0
 25 56  1  0  0  0
 26 27  1  0  0  0
 26 57  1  0  0  0
 27 29  1  0  0  0
 27 28  2  0  0  0
 29 58  1  0  0  0
 29 59  1  0  0  0
 31 32  2  0  0  0
 31 60  1  0  0  0
 32 33  1  0  0  0
 33 61  1  0  0  0
 33 62  1  0  0  0
 33 63  1  0  0  0
M  END
> <s_m_entry_id>
140

> <s_m_entry_name>
CHEMBL1967878.1

> <s_m_job_name>
mmod_csearch_25

> <s_lp_label>
 _4

> <r_mmod_Potential_Energy-MMFF94s>
237.28685

> <b_mmod_Minimization_Converged-MMFF94s>
1

> <r_mmod_RMS_Derivative-MMFF94s>
0.009532

> <i_mmod_Times_Found-MMFF94s>
210

> <r_mmod_Relative_Potential_Energy-MMFF94s>
0

> <i_mmod_Conformation-MMFF94s>
1

> <i_mmod_Serial_Number-MMFF94s>
4

$$$$
