CHEMBL1985042.smi
                    3D
 Structure written by MMmdl.
 29 31  0  0  1  0            999 V2000
    1.1715   -0.1572    0.8975 C   0  0  0  0  0  0
    2.5162   -0.1316    0.2422 C   0  0  0  0  0  0
    3.1977   -1.2482   -0.0813 C   0  0  0  0  0  0
    4.5400   -1.1599   -0.7342 C   0  0  0  0  0  0
    5.1682   -2.1699   -1.0276 O   0  0  0  0  0  0
    5.0187    0.1077   -0.9772 N   0  0  0  0  0  0
    4.3265    1.2373   -0.6614 C   0  0  0  0  0  0
    3.1270    1.1343   -0.0678 C   0  0  0  0  0  0
    2.6903    2.5349    0.2048 C   0  0  0  0  0  0
    1.6409    2.8297    0.7526 O   0  0  0  0  0  0
    3.7186    3.3534   -0.2929 N   0  0  0  0  0  0
    4.7104    2.5374   -0.8317 N   0  0  0  0  0  0
    3.8166    4.7603   -0.3287 C   0  0  0  0  0  0
    2.8651    5.5685    0.3071 C   0  0  0  0  0  0
    2.9676    6.9637    0.2767 C   0  0  0  0  0  0
    4.0224    7.5736   -0.3947 C   0  0  0  0  0  0
    4.9733    6.7891   -1.0393 C   0  0  0  0  0  0
    4.8706    5.3940   -1.0073 C   0  0  0  0  0  0
    0.8211   -1.1825    1.0598 H   0  0  0  0  0  0
    0.4260    0.3480    0.2744 H   0  0  0  0  0  0
    1.2065    0.3348    1.8752 H   0  0  0  0  0  0
    2.8268   -2.2480    0.1074 H   0  0  0  0  0  0
    5.9198    0.1683   -1.4291 H   0  0  0  0  0  0
    5.6872    2.7772   -0.7082 H   0  0  0  0  0  0
    2.0264    5.1367    0.8465 H   0  0  0  0  0  0
    2.2181    7.5701    0.7795 H   0  0  0  0  0  0
    4.0990    8.6575   -0.4199 H   0  0  0  0  0  0
    5.7932    7.2611   -1.5748 H   0  0  0  0  0  0
    5.6193    4.8212   -1.5451 H   0  0  0  0  0  0
  1  2  1  0  0  0
  1 19  1  0  0  0
  1 20  1  0  0  0
  1 21  1  0  0  0
  2  3  2  0  0  0
  2  8  1  0  0  0
  3  4  1  0  0  0
  3 22  1  0  0  0
  4  6  1  0  0  0
  4  5  2  0  0  0
  6  7  1  0  0  0
  6 23  1  0  0  0
  7  8  2  0  0  0
  7 12  1  0  0  0
  8  9  1  0  0  0
  9 11  1  0  0  0
  9 10  2  0  0  0
 11 12  1  0  0  0
 11 13  1  0  0  0
 12 24  1  0  0  0
 13 14  2  0  0  0
 13 18  1  0  0  0
 14 15  1  0  0  0
 14 25  1  0  0  0
 15 16  2  0  0  0
 15 26  1  0  0  0
 16 17  1  0  0  0
 16 27  1  0  0  0
 17 18  2  0  0  0
 17 28  1  0  0  0
 18 29  1  0  0  0
M  END
> <s_m_entry_id>
163

> <s_m_entry_name>
CHEMBL1985042.1

> <s_m_job_name>
mmod_csearch_27

> <s_lp_label>
 _11

> <r_mmod_Potential_Energy-MMFF94s>
171.524963

> <b_mmod_Minimization_Converged-MMFF94s>
1

> <r_mmod_RMS_Derivative-MMFF94s>
0.00693

> <i_mmod_Times_Found-MMFF94s>
500

> <r_mmod_Relative_Potential_Energy-MMFF94s>
0

> <i_mmod_Conformation-MMFF94s>
1

> <i_mmod_Serial_Number-MMFF94s>
11

$$$$
