CHEMBL1992581.smi
                    3D
 Structure written by MMmdl.
 42 44  0  0  1  0            999 V2000
    6.0593    8.4999    0.1336 F   0  0  0  0  0  0
    5.7935    7.4342    0.9326 C   0  0  0  0  0  0
    5.0095    7.8992    1.9395 F   0  0  0  0  0  0
    4.9132    6.1531    0.0145 S   0  0  0  0  0  0
    6.2268    5.6065   -1.0553 C   0  0  0  0  0  0
    6.7986    6.4564   -2.0036 C   0  0  0  0  0  0
    7.8247    5.9973   -2.8369 C   0  0  0  0  0  0
    8.2909    4.6809   -2.7404 C   0  0  0  0  0  0
    9.3261    4.2997   -3.6164 N   0  0  0  0  0  0
    9.9880    3.0834   -3.6676 C   0  0  0  0  0  0
    9.7978    2.1192   -2.9318 O   0  0  0  0  0  0
   11.0047    3.0048   -4.7992 C   0  0  0  0  0  0
   12.0736    4.0710   -4.7345 C   0  0  0  0  0  0
   12.8902    4.1920   -3.6043 C   0  0  0  0  0  0
   13.8784    5.1796   -3.5449 C   0  0  0  0  0  0
   14.0836    6.0678   -4.6124 C   0  0  0  0  0  0
   13.2663    5.9294   -5.7458 C   0  0  0  0  0  0
   12.2762    4.9431   -5.8097 C   0  0  0  0  0  0
   15.1244    7.1042   -4.5482 C   0  0  0  0  0  0
   16.4477    6.8047   -4.1992 C   0  0  0  0  0  0
   17.4101    7.8123   -4.1515 C   0  0  0  0  0  0
   17.0230    9.1054   -4.4567 C   0  0  0  0  0  0
   15.7638    9.4471   -4.7977 N   0  0  0  0  0  0
   14.8521    8.4439   -4.8324 C   0  0  0  0  0  0
    7.7056    3.8293   -1.8034 C   0  0  0  0  0  0
    6.6766    4.2875   -0.9704 C   0  0  0  0  0  0
    6.7287    7.0651    1.3628 H   0  0  0  0  0  0
    6.4500    7.4814   -2.1139 H   0  0  0  0  0  0
    8.2495    6.6876   -3.5616 H   0  0  0  0  0  0
    9.6507    5.0137   -4.2581 H   0  0  0  0  0  0
   10.4517    3.0655   -5.7446 H   0  0  0  0  0  0
   11.4871    2.0202   -4.7749 H   0  0  0  0  0  0
   12.7636    3.5198   -2.7564 H   0  0  0  0  0  0
   14.4857    5.2552   -2.6443 H   0  0  0  0  0  0
   13.4080    6.5823   -6.6059 H   0  0  0  0  0  0
   11.6750    4.8609   -6.7131 H   0  0  0  0  0  0
   16.7404    5.7816   -3.9746 H   0  0  0  0  0  0
   18.4377    7.5908   -3.8860 H   0  0  0  0  0  0
   17.7364    9.9242   -4.4348 H   0  0  0  0  0  0
   13.8486    8.7668   -5.0990 H   0  0  0  0  0  0
    8.0181    2.7951   -1.6968 H   0  0  0  0  0  0
    6.2343    3.5949   -0.2570 H   0  0  0  0  0  0
  1  2  1  0  0  0
  2  4  1  0  0  0
  2  3  1  0  0  0
  2 27  1  0  0  0
  4  5  1  0  0  0
  5  6  2  0  0  0
  5 26  1  0  0  0
  6  7  1  0  0  0
  6 28  1  0  0  0
  7  8  2  0  0  0
  7 29  1  0  0  0
  8 25  1  0  0  0
  8  9  1  0  0  0
  9 10  1  0  0  0
  9 30  1  0  0  0
 10 12  1  0  0  0
 10 11  2  0  0  0
 12 13  1  0  0  0
 12 31  1  0  0  0
 12 32  1  0  0  0
 13 14  2  0  0  0
 13 18  1  0  0  0
 14 15  1  0  0  0
 14 33  1  0  0  0
 15 16  2  0  0  0
 15 34  1  0  0  0
 16 17  1  0  0  0
 16 19  1  0  0  0
 17 18  2  0  0  0
 17 35  1  0  0  0
 18 36  1  0  0  0
 19 20  2  0  0  0
 19 24  1  0  0  0
 20 21  1  0  0  0
 20 37  1  0  0  0
 21 22  2  0  0  0
 21 38  1  0  0  0
 22 23  1  0  0  0
 22 39  1  0  0  0
 23 24  2  0  0  0
 24 40  1  0  0  0
 25 26  2  0  0  0
 25 41  1  0  0  0
 26 42  1  0  0  0
M  END
> <s_m_entry_id>
177

> <s_m_entry_name>
CHEMBL1992581.1

> <s_m_job_name>
mmod_csearch_27

> <s_lp_label>
 _25

> <r_mmod_Potential_Energy-MMFF94s>
258.678192

> <b_mmod_Minimization_Converged-MMFF94s>
1

> <r_mmod_RMS_Derivative-MMFF94s>
0.01055

> <i_mmod_Times_Found-MMFF94s>
100

> <r_mmod_Relative_Potential_Energy-MMFF94s>
0

> <i_mmod_Conformation-MMFF94s>
1

> <i_mmod_Serial_Number-MMFF94s>
25

$$$$
