CHEMBL2000029.smi
                    3D
 Structure written by MMmdl.
 49 53  0  0  1  0            999 V2000
    1.6854   -0.3655    2.4693 C   0  0  0  0  0  0
    2.4649    0.2722    1.3500 C   0  0  0  0  0  0
    3.3902    1.2826    1.6601 C   0  0  0  0  0  0
    4.1482    1.8922    0.6598 C   0  0  0  0  0  0
    4.0010    1.4944   -0.6647 C   0  0  0  0  0  0
    3.0965    0.4839   -0.9882 C   0  0  0  0  0  0
    2.3249   -0.1359    0.0091 C   0  0  0  0  0  0
    1.3998   -1.1936   -0.3846 C   0  0  0  0  0  0
    1.4252   -2.5763   -0.2572 C   0  0  0  0  0  0
    0.2621   -3.1027   -0.7670 N   0  0  0  0  0  0
   -0.4898   -2.1092   -1.2102 N   0  0  0  0  0  0
    0.1676   -0.9607   -0.9585 N   0  0  0  0  0  0
   -0.4495    0.3055   -1.3195 C   0  0  0  0  0  0
   -1.0380    1.0125   -0.1236 C   0  0  0  0  0  0
   -2.1621    0.4887    0.5334 C   0  0  0  0  0  0
   -2.7007    1.1389    1.6443 C   0  0  0  0  0  0
   -2.1245    2.3189    2.1098 C   0  0  0  0  0  0
   -1.0096    2.8506    1.4652 C   0  0  0  0  0  0
   -0.4694    2.2031    0.3529 C   0  0  0  0  0  0
    2.4546   -3.4174    0.3383 C   0  0  0  0  0  0
    2.0753   -4.6370    0.9242 C   0  0  0  0  0  0
    3.0046   -5.4998    1.5209 C   0  0  0  0  0  0
    4.3396   -5.0934    1.5084 C   0  0  0  0  0  0
    5.4781   -5.6805    1.9909 N   0  0  0  0  0  0
    5.5578   -6.5683    2.4720 H   0  0  0  0  0  0
    6.5982   -4.9685    1.7845 N   0  0  0  0  0  0
    6.1696   -3.8849    1.1440 C   0  0  0  0  0  0
    6.9831   -2.9001    0.7526 N   0  0  0  0  0  0
    4.7646   -3.9013    0.9361 C   0  0  0  0  0  0
    3.8119   -3.0540    0.3334 C   0  0  0  0  0  0
    0.6353   -0.5033    2.1951 H   0  0  0  0  0  0
    1.6953    0.2644    3.3655 H   0  0  0  0  0  0
    2.1236   -1.3336    2.7297 H   0  0  0  0  0  0
    3.5255    1.6018    2.6918 H   0  0  0  0  0  0
    4.8576    2.6745    0.9187 H   0  0  0  0  0  0
    4.5954    1.9643   -1.4440 H   0  0  0  0  0  0
    3.0053    0.1705   -2.0266 H   0  0  0  0  0  0
   -1.2345    0.1069   -2.0594 H   0  0  0  0  0  0
    0.3086    0.9162   -1.8210 H   0  0  0  0  0  0
   -2.6207   -0.4369    0.1874 H   0  0  0  0  0  0
   -3.5690    0.7218    2.1482 H   0  0  0  0  0  0
   -2.5438    2.8231    2.9766 H   0  0  0  0  0  0
   -0.5577    3.7691    1.8308 H   0  0  0  0  0  0
    0.4077    2.6306   -0.1292 H   0  0  0  0  0  0
    1.0254   -4.9315    0.9238 H   0  0  0  0  0  0
    2.6905   -6.4367    1.9686 H   0  0  0  0  0  0
    6.6674   -2.0621    0.2850 H   0  0  0  0  0  0
    7.9742   -2.9706    0.9443 H   0  0  0  0  0  0
    4.1535   -2.1378   -0.1324 H   0  0  0  0  0  0
  1  2  1  0  0  0
  1 31  1  0  0  0
  1 32  1  0  0  0
  1 33  1  0  0  0
  2  3  2  0  0  0
  2  7  1  0  0  0
  3  4  1  0  0  0
  3 34  1  0  0  0
  4  5  2  0  0  0
  4 35  1  0  0  0
  5  6  1  0  0  0
  5 36  1  0  0  0
  6  7  2  0  0  0
  6 37  1  0  0  0
  7  8  1  0  0  0
  8  9  2  0  0  0
  8 12  1  0  0  0
  9 20  1  0  0  0
  9 10  1  0  0  0
 10 11  2  0  0  0
 11 12  1  0  0  0
 12 13  1  0  0  0
 13 14  1  0  0  0
 13 38  1  0  0  0
 13 39  1  0  0  0
 14 15  2  0  0  0
 14 19  1  0  0  0
 15 16  1  0  0  0
 15 40  1  0  0  0
 16 17  2  0  0  0
 16 41  1  0  0  0
 17 18  1  0  0  0
 17 42  1  0  0  0
 18 19  2  0  0  0
 18 43  1  0  0  0
 19 44  1  0  0  0
 20 21  2  0  0  0
 20 30  1  0  0  0
 21 22  1  0  0  0
 21 45  1  0  0  0
 22 23  2  0  0  0
 22 46  1  0  0  0
 23 24  1  0  0  0
 23 29  1  0  0  0
 24 26  1  0  0  0
 24 25  1  0  0  0
 26 27  2  0  0  0
 27 28  1  0  0  0
 27 29  1  0  0  0
 28 47  1  0  0  0
 28 48  1  0  0  0
 29 30  2  0  0  0
 30 49  1  0  0  0
M  END
> <s_m_entry_id>
10190

> <s_m_job_name>
mmod_csearch_13

> <r_mmod_Potential_Energy-MMFF94s>
193.553467

> <b_mmod_Minimization_Converged-MMFF94s>
1

> <r_mmod_RMS_Derivative-MMFF94s>
0.006359

> <i_mmod_Times_Found-MMFF94s>
307

> <r_mmod_Relative_Potential_Energy-MMFF94s>
0

> <i_mmod_Conformation-MMFF94s>
1

> <s_lp_label>
 _59

> <i_mmod_Serial_Number-MMFF94s>
59

$$$$
