CHEMBL1997335.smi
                    3D
 Structure written by MMmdl.
 43 46  0  0  1  0            999 V2000
    6.4837    2.8776    1.4729 C   0  0  0  0  0  0
    6.5581    1.8599    0.4784 O   0  0  0  0  0  0
    6.5138    0.5756    0.9614 C   0  0  0  0  0  0
    7.4229   -0.2930    0.3419 C   0  0  0  0  0  0
    7.4853   -1.6334    0.7125 C   0  0  0  0  0  0
    6.6092   -2.1070    1.6881 C   0  0  0  0  0  0
    5.6941   -1.2516    2.3135 C   0  0  0  0  0  0
    5.6256    0.0967    1.9443 C   0  0  0  0  0  0
    4.7192    0.9840    2.4618 O   0  0  0  0  0  0
    3.8376    0.5166    3.4748 C   0  0  0  0  0  0
    6.6576   -3.5265    2.1068 C   0  0  0  0  0  0
    7.0415   -3.7607    3.3302 N   0  0  0  0  0  0
    7.1344   -5.0465    3.7459 N   0  0  0  0  0  0
    6.8506   -6.1375    2.9120 C   0  0  0  0  0  0
    6.9935   -7.4447    3.3866 C   0  0  0  0  0  0
    6.6953   -8.5285    2.5651 C   0  0  0  0  0  0
    6.2433   -8.3105    1.2633 C   0  0  0  0  0  0
    6.0823   -7.0056    0.7522 C   0  0  0  0  0  0
    5.6095   -6.7375   -0.5571 C   0  0  0  0  0  0
    5.3153   -7.8347   -1.3301 O   0  0  0  0  0  0
    4.8562   -7.6057   -2.6559 C   0  0  0  0  0  0
    5.4583   -5.4141   -0.9843 C   0  0  0  0  0  0
    5.7840   -4.3525   -0.1361 C   0  0  0  0  0  0
    6.2755   -4.6050    1.1478 C   0  0  0  0  0  0
    6.4063   -5.9189    1.6019 C   0  0  0  0  0  0
    6.9490    2.5793    2.4193 H   0  0  0  0  0  0
    5.4453    3.1865    1.6235 H   0  0  0  0  0  0
    7.0318    3.7471    1.0966 H   0  0  0  0  0  0
    8.0954    0.0896   -0.4221 H   0  0  0  0  0  0
    8.2145   -2.2929    0.2501 H   0  0  0  0  0  0
    5.0471   -1.6733    3.0761 H   0  0  0  0  0  0
    3.1794   -0.2705    3.0926 H   0  0  0  0  0  0
    3.2068    1.3567    3.7810 H   0  0  0  0  0  0
    4.3918    0.1792    4.3568 H   0  0  0  0  0  0
    7.4597   -5.2308    4.6896 H   0  0  0  0  0  0
    7.3375   -7.6260    4.4010 H   0  0  0  0  0  0
    6.8088   -9.5432    2.9374 H   0  0  0  0  0  0
    6.0088   -9.1724    0.6410 H   0  0  0  0  0  0
    4.6884   -8.5804   -3.1240 H   0  0  0  0  0  0
    5.6095   -7.0775   -3.2495 H   0  0  0  0  0  0
    3.9019   -7.0689   -2.6555 H   0  0  0  0  0  0
    5.0845   -5.1709   -1.9737 H   0  0  0  0  0  0
    5.6377   -3.3399   -0.5005 H   0  0  0  0  0  0
  1  2  1  0  0  0
  1 26  1  0  0  0
  1 27  1  0  0  0
  1 28  1  0  0  0
  2  3  1  0  0  0
  3  4  2  0  0  0
  3  8  1  0  0  0
  4  5  1  0  0  0
  4 29  1  0  0  0
  5  6  2  0  0  0
  5 30  1  0  0  0
  6  7  1  0  0  0
  6 11  1  0  0  0
  7  8  2  0  0  0
  7 31  1  0  0  0
  8  9  1  0  0  0
  9 10  1  0  0  0
 10 32  1  0  0  0
 10 33  1  0  0  0
 10 34  1  0  0  0
 11 12  2  0  0  0
 11 24  1  0  0  0
 12 13  1  0  0  0
 13 14  1  0  0  0
 13 35  1  0  0  0
 14 15  2  0  0  0
 14 25  1  0  0  0
 15 16  1  0  0  0
 15 36  1  0  0  0
 16 17  2  0  0  0
 16 37  1  0  0  0
 17 18  1  0  0  0
 17 38  1  0  0  0
 18 19  2  0  0  0
 18 25  1  0  0  0
 19 22  1  0  0  0
 19 20  1  0  0  0
 20 21  1  0  0  0
 21 39  1  0  0  0
 21 40  1  0  0  0
 21 41  1  0  0  0
 22 23  2  0  0  0
 22 42  1  0  0  0
 23 24  1  0  0  0
 23 43  1  0  0  0
 24 25  2  0  0  0
M  END
> <s_m_entry_id>
189

> <s_m_entry_name>
CHEMBL1997335.1

> <s_m_job_name>
mmod_csearch_27

> <s_lp_label>
 _38

> <r_mmod_Potential_Energy-MMFF94s>
555.219482

> <b_mmod_Minimization_Converged-MMFF94s>
1

> <r_mmod_RMS_Derivative-MMFF94s>
0.013331

> <i_mmod_Times_Found-MMFF94s>
366

> <r_mmod_Relative_Potential_Energy-MMFF94s>
0

> <i_mmod_Conformation-MMFF94s>
1

> <i_mmod_Serial_Number-MMFF94s>
38

$$$$
