CHEMBL1980763.smi
                    3D
 Structure written by MMmdl.
 51 54  0  0  1  0            999 V2000
    2.8870   -0.7634   -2.2974 C   0  0  0  0  0  0
    2.5330   -0.2113   -3.6803 C   0  0  0  0  0  0
    1.0171   -0.0258   -3.7887 C   0  0  0  0  0  0
    3.2961    1.1032   -3.9280 C   0  0  0  0  0  0
    3.1804    1.5985   -5.3445 C   0  0  0  0  0  0
    2.2764    2.5903   -5.5927 N   0  0  0  0  0  0
    2.1125    3.0727   -6.8451 C   0  0  0  0  0  0
    1.1530    4.0802   -6.9354 N   0  0  0  0  0  0
    0.6472    4.8574   -7.9807 C   0  0  0  0  0  0
   -0.3390    5.8091   -7.6904 C   0  0  0  0  0  0
   -0.8896    6.6255   -8.6882 C   0  0  0  0  0  0
   -0.4755    6.5299  -10.0226 C   0  0  0  0  0  0
   -1.0131    7.3626  -11.0007 N   0  0  0  0  0  0
   -0.1508    8.4558  -11.4848 C   0  0  0  0  0  0
   -0.6774    8.9749  -12.8321 C   0  0  0  0  0  0
   -2.0602    9.3632  -12.7466 O   0  0  0  0  0  0
   -2.8645    8.2349  -12.3616 C   0  0  0  0  0  0
   -2.4461    7.6883  -10.9871 C   0  0  0  0  0  0
    0.5121    5.5656  -10.3116 C   0  0  0  0  0  0
    1.0609    5.2909  -11.9366 Cl  0  0  0  0  0  0
    1.0600    4.7493   -9.3087 C   0  0  0  0  0  0
    2.7866    2.6509   -7.9232 N   0  0  0  0  0  0
    3.6640    1.6784   -7.6532 C   0  0  0  0  0  0
    4.4695    1.0783   -8.5815 N   0  0  0  0  0  0
    4.4722    1.3198   -9.5622 H   0  0  0  0  0  0
    5.2445    0.1237   -7.9722 C   0  0  0  0  0  0
    4.9251    0.1176   -6.6299 C   0  0  0  0  0  0
    3.9216    1.1038   -6.4222 C   0  0  0  0  0  0
    3.9636   -0.9465   -2.2157 H   0  0  0  0  0  0
    2.3735   -1.7132   -2.1141 H   0  0  0  0  0  0
    2.6002   -0.0641   -1.5046 H   0  0  0  0  0  0
    2.8380   -0.9566   -4.4260 H   0  0  0  0  0  0
    0.6589    0.7361   -3.0881 H   0  0  0  0  0  0
    0.4953   -0.9624   -3.5642 H   0  0  0  0  0  0
    0.7240    0.2756   -4.7992 H   0  0  0  0  0  0
    4.3611    0.9631   -3.7032 H   0  0  0  0  0  0
    2.9383    1.8821   -3.2425 H   0  0  0  0  0  0
    0.7756    4.2388   -6.0125 H   0  0  0  0  0  0
   -0.6939    5.9340   -6.6696 H   0  0  0  0  0  0
   -1.6364    7.3583   -8.3954 H   0  0  0  0  0  0
    0.8921    8.1446  -11.6044 H   0  0  0  0  0  0
   -0.1734    9.2690  -10.7483 H   0  0  0  0  0  0
   -0.1051    9.8556  -13.1399 H   0  0  0  0  0  0
   -0.5695    8.2152  -13.6156 H   0  0  0  0  0  0
   -3.9069    8.5669  -12.3274 H   0  0  0  0  0  0
   -2.7849    7.4608  -13.1344 H   0  0  0  0  0  0
   -2.6403    8.4517  -10.2240 H   0  0  0  0  0  0
   -3.0469    6.8007  -10.7577 H   0  0  0  0  0  0
    1.8114    4.0208   -9.5946 H   0  0  0  0  0  0
    5.9505   -0.4640   -8.5441 H   0  0  0  0  0  0
    5.3661   -0.5276   -5.8811 H   0  0  0  0  0  0
  1  2  1  0  0  0
  1 29  1  0  0  0
  1 30  1  0  0  0
  1 31  1  0  0  0
  2  4  1  0  0  0
  2  3  1  0  0  0
  2 32  1  0  0  0
  3 33  1  0  0  0
  3 34  1  0  0  0
  3 35  1  0  0  0
  4  5  1  0  0  0
  4 36  1  0  0  0
  4 37  1  0  0  0
  5  6  2  0  0  0
  5 28  1  0  0  0
  6  7  1  0  0  0
  7 22  2  0  0  0
  7  8  1  0  0  0
  8  9  1  0  0  0
  8 38  1  0  0  0
  9 10  2  0  0  0
  9 21  1  0  0  0
 10 11  1  0  0  0
 10 39  1  0  0  0
 11 12  2  0  0  0
 11 40  1  0  0  0
 12 19  1  0  0  0
 12 13  1  0  0  0
 13 18  1  0  0  0
 13 14  1  0  0  0
 14 15  1  0  0  0
 14 41  1  0  0  0
 14 42  1  0  0  0
 15 16  1  0  0  0
 15 43  1  0  0  0
 15 44  1  0  0  0
 16 17  1  0  0  0
 17 18  1  0  0  0
 17 45  1  0  0  0
 17 46  1  0  0  0
 18 47  1  0  0  0
 18 48  1  0  0  0
 19 21  2  0  0  0
 19 20  1  0  0  0
 21 49  1  0  0  0
 22 23  1  0  0  0
 23 24  1  0  0  0
 23 28  2  0  0  0
 24 26  1  0  0  0
 24 25  1  0  0  0
 26 27  2  0  0  0
 26 50  1  0  0  0
 27 28  1  0  0  0
 27 51  1  0  0  0
M  END
> <s_m_entry_id>
156

> <s_m_entry_name>
CHEMBL1980763.1

> <s_m_job_name>
mmod_csearch_27

> <s_lp_label>
 _4

> <r_mmod_Potential_Energy-MMFF94s>
277.160156

> <b_mmod_Minimization_Converged-MMFF94s>
1

> <r_mmod_RMS_Derivative-MMFF94s>
0.010908

> <i_mmod_Times_Found-MMFF94s>
82

> <r_mmod_Relative_Potential_Energy-MMFF94s>
0

> <i_mmod_Conformation-MMFF94s>
1

> <i_mmod_Serial_Number-MMFF94s>
4

$$$$
