CHEMBL1967612.smi
                    3D
 Structure written by MMmdl.
 17 18  0  0  1  0            999 V2000
    1.0304   -0.1758    0.0505 Cl  0  0  0  0  0  0
    2.7505   -0.1217    0.0450 C   0  0  0  0  0  0
    3.4784   -1.3271    0.0758 C   0  0  0  0  0  0
    4.8763   -1.3141    0.0765 C   0  0  0  0  0  0
    5.4942   -0.0777    0.0477 C   0  0  0  0  0  0
    4.7829    1.1151    0.0050 C   0  0  0  0  0  0
    3.3975    1.1162    0.0120 C   0  0  0  0  0  0
    5.6599    2.2979    0.0038 C   0  0  0  0  0  0
    5.3003    3.4484    0.1447 O   0  0  0  0  0  0
    7.0023    1.8866   -0.0959 N   0  0  0  0  0  0
    7.2075    0.2305    0.0180 S   0  0  0  0  0  0
    7.7422   -0.2687   -1.2238 O   0  0  0  0  0  0
    7.7535   -0.0706    1.3179 O   0  0  0  0  0  0
    2.9508   -2.2793    0.0991 H   0  0  0  0  0  0
    5.4501   -2.2358    0.0968 H   0  0  0  0  0  0
    2.8398    2.0480   -0.0056 H   0  0  0  0  0  0
    7.7079    2.4989    0.3019 H   0  0  0  0  0  0
  1  2  1  0  0  0
  2  3  2  0  0  0
  2  7  1  0  0  0
  3  4  1  0  0  0
  3 14  1  0  0  0
  4  5  2  0  0  0
  4 15  1  0  0  0
  5  6  1  0  0  0
  5 11  1  0  0  0
  6  7  2  0  0  0
  6  8  1  0  0  0
  7 16  1  0  0  0
  8 10  1  0  0  0
  8  9  2  0  0  0
 10 11  1  0  0  0
 10 17  1  0  0  0
 11 13  2  0  0  0
 11 12  2  0  0  0
M  END
> <s_m_entry_id>
139

> <s_m_entry_name>
CHEMBL1967612.1

> <s_m_job_name>
mmod_csearch_25

> <s_lp_label>
 _3

> <r_mmod_Potential_Energy-MMFF94s>
-400.72464

> <b_mmod_Minimization_Converged-MMFF94s>
1

> <r_mmod_RMS_Derivative-MMFF94s>
0.002173

> <i_mmod_Times_Found-MMFF94s>
1

> <r_mmod_Relative_Potential_Energy-MMFF94s>
0

> <i_mmod_Conformation-MMFF94s>
1

> <i_mmod_Serial_Number-MMFF94s>
3

$$$$
