CHEMBL1967992.smi
                    3D
 Structure written by MMmdl.
 37 39  0  0  1  0            999 V2000
    1.2882   -0.9182   -3.1326 N   0  0  0  0  0  0
    2.3339   -0.6444   -2.7084 C   0  0  0  0  0  0
    3.6283   -0.3029   -2.1892 C   0  0  0  0  0  0
    4.4783    0.4604   -3.0044 C   0  0  0  0  0  0
    5.7473    0.8244   -2.5572 C   0  0  0  0  0  0
    6.1911    0.4355   -1.2888 C   0  0  0  0  0  0
    5.3236   -0.3320   -0.4847 C   0  0  0  0  0  0
    4.0366   -0.7188   -0.9041 C   0  0  0  0  0  0
    3.2040   -1.4761   -0.0940 N   0  0  0  0  0  0
    3.5499   -1.9580    1.2297 C   0  0  0  0  0  0
    2.3921   -2.7446    1.7948 C   0  0  0  0  0  0
    1.3800   -2.0996    2.5206 C   0  0  0  0  0  0
    0.2965   -2.8236    3.0204 C   0  0  0  0  0  0
    0.2091   -4.1957    2.7924 C   0  0  0  0  0  0
    1.2014   -4.8450    2.0601 C   0  0  0  0  0  0
    2.2859   -4.1232    1.5592 C   0  0  0  0  0  0
    7.5269    0.8176   -0.8059 C   0  0  0  0  0  0
    7.6887    1.5195    0.3944 C   0  0  0  0  0  0
    8.9675    1.8588    0.8083 C   0  0  0  0  0  0
   10.0855    1.5487    0.1208 N   0  0  0  0  0  0
    9.9164    0.8719   -1.0334 C   0  0  0  0  0  0
    8.6793    0.4922   -1.5307 C   0  0  0  0  0  0
    4.1524    0.7782   -3.9936 H   0  0  0  0  0  0
    6.3837    1.4267   -3.2031 H   0  0  0  0  0  0
    5.6850   -0.6397    0.4942 H   0  0  0  0  0  0
    2.2800   -1.7361   -0.4292 H   0  0  0  0  0  0
    3.7796   -1.1208    1.9002 H   0  0  0  0  0  0
    4.4386   -2.5998    1.1895 H   0  0  0  0  0  0
    1.4286   -1.0267    2.6944 H   0  0  0  0  0  0
   -0.4831   -2.3161    3.5828 H   0  0  0  0  0  0
   -0.6369   -4.7581    3.1789 H   0  0  0  0  0  0
    1.1273   -5.9134    1.8738 H   0  0  0  0  0  0
    3.0464   -4.6404    0.9780 H   0  0  0  0  0  0
    6.8343    1.8118    0.9964 H   0  0  0  0  0  0
    9.1292    2.4076    1.7317 H   0  0  0  0  0  0
   10.8313    0.6317   -1.5676 H   0  0  0  0  0  0
    8.6221   -0.0596   -2.4634 H   0  0  0  0  0  0
  1  2  3  0  0  0
  2  3  1  0  0  0
  3  4  2  0  0  0
  3  8  1  0  0  0
  4  5  1  0  0  0
  4 23  1  0  0  0
  5  6  2  0  0  0
  5 24  1  0  0  0
  6  7  1  0  0  0
  6 17  1  0  0  0
  7  8  2  0  0  0
  7 25  1  0  0  0
  8  9  1  0  0  0
  9 10  1  0  0  0
  9 26  1  0  0  0
 10 11  1  0  0  0
 10 27  1  0  0  0
 10 28  1  0  0  0
 11 12  2  0  0  0
 11 16  1  0  0  0
 12 13  1  0  0  0
 12 29  1  0  0  0
 13 14  2  0  0  0
 13 30  1  0  0  0
 14 15  1  0  0  0
 14 31  1  0  0  0
 15 16  2  0  0  0
 15 32  1  0  0  0
 16 33  1  0  0  0
 17 18  2  0  0  0
 17 22  1  0  0  0
 18 19  1  0  0  0
 18 34  1  0  0  0
 19 20  2  0  0  0
 19 35  1  0  0  0
 20 21  1  0  0  0
 21 22  2  0  0  0
 21 36  1  0  0  0
 22 37  1  0  0  0
M  END
> <s_m_entry_id>
10070

> <s_m_job_name>
mmod_csearch_12

> <r_mmod_Potential_Energy-MMFF94s>
312.325653

> <b_mmod_Minimization_Converged-MMFF94s>
0

> <r_mmod_RMS_Derivative-MMFF94s>
0.071952

> <i_mmod_Times_Found-MMFF94s>
180

> <r_mmod_Relative_Potential_Energy-MMFF94s>
0

> <i_mmod_Conformation-MMFF94s>
1

> <s_lp_label>
 _39

> <i_mmod_Serial_Number-MMFF94s>
39

$$$$
