CHEMBL1970352.smi
                    3D
 Structure written by MMmdl.
 45 48  0  0  1  0            999 V2000
    5.1074    0.1169   -0.5732 C   0  0  0  0  0  0
    6.4525   -0.2170    0.0418 C   0  0  0  0  0  0
    6.2242   -0.7279    1.3595 O   0  0  0  0  0  0
    7.3564   -1.0879    2.0316 C   0  0  0  0  0  0
    8.4845   -0.9761    1.5640 O   0  0  0  0  0  0
    7.0913   -1.5854    3.3854 C   0  0  0  0  0  0
    5.8874   -2.0630    3.8955 C   0  0  0  0  0  0
    4.5978   -2.3026    3.1704 C   0  0  0  0  0  0
    6.0926   -2.4190    5.2280 N   0  0  0  0  0  0
    5.1395   -3.1179    6.0200 C   0  0  0  0  0  0
    3.8543   -2.5926    6.1989 C   0  0  0  0  0  0
    2.9218   -3.2963    6.9644 C   0  0  0  0  0  0
    3.2745   -4.5193    7.5386 C   0  0  0  0  0  0
    1.8824   -5.5622    8.6772 I   0  0  0  0  0  0
    4.5536   -5.0475    7.3558 C   0  0  0  0  0  0
    5.4910   -4.3472    6.5938 C   0  0  0  0  0  0
    7.4041   -2.1046    5.6056 C   0  0  0  0  0  0
    8.0941   -2.1077    6.8746 C   0  0  0  0  0  0
    7.4474   -2.3041    8.1189 C   0  0  0  0  0  0
    8.1642   -2.3361    9.3171 C   0  0  0  0  0  0
    9.5393   -2.1546    9.3068 C   0  0  0  0  0  0
   10.1937   -1.9119    8.1002 C   0  0  0  0  0  0
    9.4933   -1.8627    6.8770 C   0  0  0  0  0  0
   10.1438   -1.5531    5.6784 C   0  0  0  0  0  0
   11.4966   -1.3169    5.6843 O   0  0  0  0  0  0
    9.4457   -1.4358    4.4787 C   0  0  0  0  0  0
    8.0595   -1.6990    4.4354 C   0  0  0  0  0  0
    5.2283    0.5125   -1.5855 H   0  0  0  0  0  0
    4.5786    0.8578    0.0355 H   0  0  0  0  0  0
    4.4711   -0.7734   -0.6146 H   0  0  0  0  0  0
    7.0687    0.6873    0.0972 H   0  0  0  0  0  0
    6.9591   -0.9741   -0.5672 H   0  0  0  0  0  0
    4.7734   -2.5278    2.1141 H   0  0  0  0  0  0
    3.9571   -1.4178    3.2337 H   0  0  0  0  0  0
    4.0512   -3.1664    3.5586 H   0  0  0  0  0  0
    3.5757   -1.6314    5.7738 H   0  0  0  0  0  0
    1.9283   -2.8784    7.1072 H   0  0  0  0  0  0
    4.8349   -6.0005    7.7972 H   0  0  0  0  0  0
    6.4821   -4.7724    6.4460 H   0  0  0  0  0  0
    6.3701   -2.4036    8.1898 H   0  0  0  0  0  0
    7.6424   -2.4942   10.2572 H   0  0  0  0  0  0
   10.1032   -2.1782   10.2351 H   0  0  0  0  0  0
   11.2690   -1.7411    8.1168 H   0  0  0  0  0  0
   11.7840   -1.1265    4.7761 H   0  0  0  0  0  0
    9.9605   -1.1391    3.5695 H   0  0  0  0  0  0
  1  2  1  0  0  0
  1 28  1  0  0  0
  1 29  1  0  0  0
  1 30  1  0  0  0
  2  3  1  0  0  0
  2 31  1  0  0  0
  2 32  1  0  0  0
  3  4  1  0  0  0
  4  6  1  0  0  0
  4  5  2  0  0  0
  6 27  1  0  0  0
  6  7  2  0  0  0
  7  9  1  0  0  0
  7  8  1  0  0  0
  8 33  1  0  0  0
  8 34  1  0  0  0
  8 35  1  0  0  0
  9 17  1  0  0  0
  9 10  1  0  0  0
 10 11  2  0  0  0
 10 16  1  0  0  0
 11 12  1  0  0  0
 11 36  1  0  0  0
 12 13  2  0  0  0
 12 37  1  0  0  0
 13 15  1  0  0  0
 13 14  1  0  0  0
 15 16  2  0  0  0
 15 38  1  0  0  0
 16 39  1  0  0  0
 17 27  1  0  0  0
 17 18  2  0  0  0
 18 23  1  0  0  0
 18 19  1  0  0  0
 19 20  2  0  0  0
 19 40  1  0  0  0
 20 21  1  0  0  0
 20 41  1  0  0  0
 21 22  2  0  0  0
 21 42  1  0  0  0
 22 23  1  0  0  0
 22 43  1  0  0  0
 23 24  2  0  0  0
 24 26  1  0  0  0
 24 25  1  0  0  0
 25 44  1  0  0  0
 26 27  2  0  0  0
 26 45  1  0  0  0
M  END
> <s_m_entry_id>
9833

> <s_m_job_name>
mmod_csearch_10

> <r_mmod_Potential_Energy-MMFF94s>
377.333618

> <b_mmod_Minimization_Converged-MMFF94s>
1

> <r_mmod_RMS_Derivative-MMFF94s>
0.008361

> <i_mmod_Times_Found-MMFF94s>
133

> <r_mmod_Relative_Potential_Energy-MMFF94s>
0

> <i_mmod_Conformation-MMFF94s>
1

> <s_lp_label>
 _2

> <i_mmod_Serial_Number-MMFF94s>
2

$$$$
