CHEMBL461876.smi
                    3D
 Structure written by MMmdl.
 65 69  0  0  1  0            999 V2000
    4.8873    1.5195    6.5971 C   0  0  0  0  0  0
    3.6779    2.2666    6.6005 O   0  0  0  0  0  0
    3.7826    3.6319    6.7644 C   0  0  0  0  0  0
    4.9913    4.3222    6.9011 C   0  0  0  0  0  0
    4.9504    5.6995    7.0618 C   0  0  0  0  0  0
    6.1169    6.6251    7.1843 C   0  0  0  0  0  0
    5.4300    7.9674    7.4570 C   0  0  0  0  0  0
    3.9826    7.7739    7.2599 N   0  0  0  0  0  0
    3.0191    8.7708    7.3137 C   0  0  0  0  0  0
    1.8036    8.5825    7.2118 O   0  0  0  0  0  0
    3.5286   10.2127    7.4827 C   0  0  0  0  0  0
    4.0943   10.4586    8.8305 N   0  0  0  0  0  0
    4.6579   11.8088    8.8884 C   0  0  0  0  0  0
    3.0653   10.3058    9.8653 C   0  0  0  0  0  0
    3.7433    6.3955    7.0836 C   0  0  0  0  0  0
    2.5393    5.7232    6.9420 C   0  0  0  0  0  0
    2.5384    4.3279    6.7814 C   0  0  0  0  0  0
    1.3633    3.5673    6.6335 N   0  0  0  0  0  0
    0.0044    3.8583    6.5938 C   0  0  0  0  0  0
   -0.7941    2.7805    6.4314 N   0  0  0  0  0  0
   -2.1466    2.9109    6.3738 C   0  0  0  0  0  0
   -2.9999    1.8127    6.2063 N   0  0  0  0  0  0
   -2.8066    0.4217    6.0620 C   0  0  0  0  0  0
   -1.5224   -0.1505    6.0667 C   0  0  0  0  0  0
   -1.3269   -1.5271    5.9240 C   0  0  0  0  0  0
   -2.4199   -2.3671    5.7724 C   0  0  0  0  0  0
   -3.7022   -1.8278    5.7642 C   0  0  0  0  0  0
   -4.7256   -2.6851    5.6144 F   0  0  0  0  0  0
   -3.9208   -0.4490    5.9059 C   0  0  0  0  0  0
   -5.3124    0.1048    5.8934 C   0  0  0  0  0  0
   -5.5315    1.3078    6.0155 O   0  0  0  0  0  0
   -6.3641   -0.7535    5.7420 N   0  0  0  0  0  0
   -2.6703    4.2102    6.4902 C   0  0  0  0  0  0
   -3.9596    4.8194    6.4891 C   0  0  0  0  0  0
   -3.7821    6.1791    6.6495 C   0  0  0  0  0  0
   -2.4339    6.4139    6.7473 N   0  0  0  0  0  0
   -1.9803    7.3087    6.8706 H   0  0  0  0  0  0
   -1.7554    5.2311    6.6522 C   0  0  0  0  0  0
   -0.4284    5.1172    6.7103 N   0  0  0  0  0  0
    5.4171    1.6201    7.5500 H   0  0  0  0  0  0
    5.5257    1.8059    5.7549 H   0  0  0  0  0  0
    4.6269    0.4640    6.4720 H   0  0  0  0  0  0
    5.9521    3.8233    6.8811 H   0  0  0  0  0  0
    6.6791    6.6574    6.2454 H   0  0  0  0  0  0
    6.7842    6.3437    8.0042 H   0  0  0  0  0  0
    5.8068    8.7531    6.7948 H   0  0  0  0  0  0
    5.5995    8.2782    8.4937 H   0  0  0  0  0  0
    2.6949   10.8970    7.2772 H   0  0  0  0  0  0
    4.2827   10.3945    6.7079 H   0  0  0  0  0  0
    5.4555   11.9237    8.1459 H   0  0  0  0  0  0
    5.1140   11.9937    9.8674 H   0  0  0  0  0  0
    3.9029   12.5825    8.7072 H   0  0  0  0  0  0
    2.6913    9.2774    9.9029 H   0  0  0  0  0  0
    2.2158   10.9803    9.7075 H   0  0  0  0  0  0
    3.4871   10.5121   10.8557 H   0  0  0  0  0  0
    1.6086    6.2741    6.9604 H   0  0  0  0  0  0
    1.5199    2.5737    6.5298 H   0  0  0  0  0  0
   -3.9878    2.0815    6.1835 H   0  0  0  0  0  0
   -0.6393    0.4705    6.1826 H   0  0  0  0  0  0
   -0.3182   -1.9327    5.9325 H   0  0  0  0  0  0
   -2.2845   -3.4384    5.6605 H   0  0  0  0  0  0
   -6.2525   -1.7549    5.6366 H   0  0  0  0  0  0
   -7.2989   -0.3681    5.7351 H   0  0  0  0  0  0
   -4.9131    4.3168    6.3825 H   0  0  0  0  0  0
   -4.4921    6.9936    6.7019 H   0  0  0  0  0  0
  1  2  1  0  0  0
  1 40  1  0  0  0
  1 41  1  0  0  0
  1 42  1  0  0  0
  2  3  1  0  0  0
  3  4  2  0  0  0
  3 17  1  0  0  0
  4  5  1  0  0  0
  4 43  1  0  0  0
  5 15  2  0  0  0
  5  6  1  0  0  0
  6  7  1  0  0  0
  6 44  1  0  0  0
  6 45  1  0  0  0
  7  8  1  0  0  0
  7 46  1  0  0  0
  7 47  1  0  0  0
  8 15  1  0  0  0
  8  9  1  0  0  0
  9 11  1  0  0  0
  9 10  2  0  0  0
 11 12  1  0  0  0
 11 48  1  0  0  0
 11 49  1  0  0  0
 12 14  1  0  0  0
 12 13  1  0  0  0
 13 50  1  0  0  0
 13 51  1  0  0  0
 13 52  1  0  0  0
 14 53  1  0  0  0
 14 54  1  0  0  0
 14 55  1  0  0  0
 15 16  1  0  0  0
 16 17  2  0  0  0
 16 56  1  0  0  0
 17 18  1  0  0  0
 18 19  1  0  0  0
 18 57  1  0  0  0
 19 20  2  0  0  0
 19 39  1  0  0  0
 20 21  1  0  0  0
 21 33  2  0  0  0
 21 22  1  0  0  0
 22 23  1  0  0  0
 22 58  1  0  0  0
 23 29  1  0  0  0
 23 24  2  0  0  0
 24 25  1  0  0  0
 24 59  1  0  0  0
 25 26  2  0  0  0
 25 60  1  0  0  0
 26 27  1  0  0  0
 26 61  1  0  0  0
 27 29  2  0  0  0
 27 28  1  0  0  0
 29 30  1  0  0  0
 30 32  1  0  0  0
 30 31  2  0  0  0
 32 62  1  0  0  0
 32 63  1  0  0  0
 33 34  1  0  0  0
 33 38  1  0  0  0
 34 35  2  0  0  0
 34 64  1  0  0  0
 35 36  1  0  0  0
 35 65  1  0  0  0
 36 38  1  0  0  0
 36 37  1  0  0  0
 38 39  2  0  0  0
M  END
> <s_m_entry_id>
117

> <s_m_entry_name>
CHEMBL461876.1

> <s_m_job_name>
mmod_csearch_22

> <s_lp_label>
 _5

> <r_mmod_Potential_Energy-MMFF94s>
83.958672

> <b_mmod_Minimization_Converged-MMFF94s>
1

> <r_mmod_RMS_Derivative-MMFF94s>
0.013959

> <i_mmod_Times_Found-MMFF94s>
240

> <r_mmod_Relative_Potential_Energy-MMFF94s>
0

> <i_mmod_Conformation-MMFF94s>
1

> <i_mmod_Serial_Number-MMFF94s>
5

$$$$
