CHEMBL1994808.smi
                    3D
 Structure written by MMmdl.
 23 24  0  0  1  0            999 V2000
    1.0778    0.2037   -0.1399 C   0  0  0  0  0  0
    2.5659    0.0679   -0.1420 C   0  0  0  0  0  0
    3.3009    1.1804   -0.3390 N   0  0  0  0  0  0
    4.6669    1.1011   -0.3238 N   0  0  0  0  0  0
    5.2668   -0.0896   -0.1073 C   0  0  0  0  0  0
    6.7362   -0.0687   -0.1089 C   0  0  0  0  0  0
    7.4309    0.8795    0.6649 C   0  0  0  0  0  0
    8.8276    0.9189    0.6812 C   0  0  0  0  0  0
    9.5580    0.0144   -0.0834 C   0  0  0  0  0  0
    8.8936   -0.9227   -0.8695 C   0  0  0  0  0  0
    7.4960   -0.9608   -0.8867 C   0  0  0  0  0  0
    4.4568   -1.1914    0.1129 C   0  0  0  0  0  0
    3.0973   -1.1413    0.0998 N   0  0  0  0  0  0
    4.9955   -2.4864    0.4126 C   0  0  0  0  0  0
    5.4441   -3.5339    0.6415 N   0  0  0  0  0  0
    0.6046   -0.7342   -0.4462 H   0  0  0  0  0  0
    0.7625    0.9889   -0.8336 H   0  0  0  0  0  0
    0.7323    0.4609    0.8655 H   0  0  0  0  0  0
    6.8811    1.6027    1.2666 H   0  0  0  0  0  0
    9.3428    1.6584    1.2893 H   0  0  0  0  0  0
   10.6447    0.0439   -0.0720 H   0  0  0  0  0  0
    9.4630   -1.6243   -1.4747 H   0  0  0  0  0  0
    7.0142   -1.6946   -1.5307 H   0  0  0  0  0  0
  1  2  1  0  0  0
  1 16  1  0  0  0
  1 17  1  0  0  0
  1 18  1  0  0  0
  2 13  1  0  0  0
  2  3  2  0  0  0
  3  4  1  0  0  0
  4  5  2  0  0  0
  5 12  1  0  0  0
  5  6  1  0  0  0
  6  7  2  0  0  0
  6 11  1  0  0  0
  7  8  1  0  0  0
  7 19  1  0  0  0
  8  9  2  0  0  0
  8 20  1  0  0  0
  9 10  1  0  0  0
  9 21  1  0  0  0
 10 11  2  0  0  0
 10 22  1  0  0  0
 11 23  1  0  0  0
 12 13  2  0  0  0
 12 14  1  0  0  0
 14 15  3  0  0  0
M  END
> <s_m_entry_id>
702

> <s_m_job_name>
mmod_csearch_9

> <r_mmod_Potential_Energy-MMFF94s>
361.296814

> <b_mmod_Minimization_Converged-MMFF94s>
1

> <r_mmod_RMS_Derivative-MMFF94s>
0.004002

> <i_mmod_Times_Found-MMFF94s>
477

> <r_mmod_Relative_Potential_Energy-MMFF94s>
0

> <i_mmod_Conformation-MMFF94s>
1

> <s_lp_label>
 _1

> <i_mmod_Serial_Number-MMFF94s>
1

$$$$
