CHEMBL2000568.smi
                    3D
 Structure written by MMmdl.
 30 32  0  0  1  0            999 V2000
    3.5015    1.1497   -0.4781 C   0  0  0  0  0  0
    2.7739   -0.1352   -0.7760 C   0  0  0  0  0  0
    1.6881   -0.1301   -1.3527 O   0  0  0  0  0  0
    3.3892   -1.4309   -0.3591 C   0  0  0  0  0  0
    2.7083   -2.6170   -0.6573 C   0  0  0  0  0  0
    3.2466   -3.8485   -0.2892 C   0  0  0  0  0  0
    4.4703   -3.9027    0.3796 C   0  0  0  0  0  0
    5.1761   -2.7294    0.6926 C   0  0  0  0  0  0
    4.6175   -1.4936    0.3144 C   0  0  0  0  0  0
    6.4652   -2.7892    1.3972 C   0  0  0  0  0  0
    7.5316   -3.5562    0.9107 C   0  0  0  0  0  0
    8.7617   -3.6882    1.4698 N   0  0  0  0  0  0
    8.8910   -2.9784    2.6039 C   0  0  0  0  0  0
   10.0261   -2.9357    3.3660 N   0  0  0  0  0  0
   10.8707   -3.4391    3.1379 H   0  0  0  0  0  0
    9.8252   -2.1233    4.4535 C   0  0  0  0  0  0
    8.5355   -1.6375    4.3844 C   0  0  0  0  0  0
    7.9359   -2.1739    3.2128 C   0  0  0  0  0  0
    6.6808   -2.0761    2.5882 C   0  0  0  0  0  0
    4.4723    1.1611   -0.9802 H   0  0  0  0  0  0
    3.6170    1.2784    0.6011 H   0  0  0  0  0  0
    2.9143    1.9914   -0.8587 H   0  0  0  0  0  0
    1.7528   -2.5865   -1.1787 H   0  0  0  0  0  0
    2.7106   -4.7660   -0.5206 H   0  0  0  0  0  0
    4.8649   -4.8758    0.6690 H   0  0  0  0  0  0
    5.1669   -0.5846    0.5464 H   0  0  0  0  0  0
    7.4188   -4.1191   -0.0151 H   0  0  0  0  0  0
   10.6127   -1.9638    5.1779 H   0  0  0  0  0  0
    8.0752   -0.9693    5.1005 H   0  0  0  0  0  0
    5.8974   -1.4706    3.0330 H   0  0  0  0  0  0
  1  2  1  0  0  0
  1 20  1  0  0  0
  1 21  1  0  0  0
  1 22  1  0  0  0
  2  4  1  0  0  0
  2  3  2  0  0  0
  4  5  2  0  0  0
  4  9  1  0  0  0
  5  6  1  0  0  0
  5 23  1  0  0  0
  6  7  2  0  0  0
  6 24  1  0  0  0
  7  8  1  0  0  0
  7 25  1  0  0  0
  8  9  2  0  0  0
  8 10  1  0  0  0
  9 26  1  0  0  0
 10 11  2  0  0  0
 10 19  1  0  0  0
 11 12  1  0  0  0
 11 27  1  0  0  0
 12 13  2  0  0  0
 13 14  1  0  0  0
 13 18  1  0  0  0
 14 16  1  0  0  0
 14 15  1  0  0  0
 16 17  2  0  0  0
 16 28  1  0  0  0
 17 18  1  0  0  0
 17 29  1  0  0  0
 18 19  2  0  0  0
 19 30  1  0  0  0
M  END
> <s_m_entry_id>
196

> <s_m_entry_name>
CHEMBL2000568.1

> <s_m_job_name>
mmod_csearch_27

> <s_lp_label>
 _45

> <r_mmod_Potential_Energy-MMFF94s>
252.077087

> <b_mmod_Minimization_Converged-MMFF94s>
1

> <r_mmod_RMS_Derivative-MMFF94s>
0.012577

> <i_mmod_Times_Found-MMFF94s>
245

> <r_mmod_Relative_Potential_Energy-MMFF94s>
0

> <i_mmod_Conformation-MMFF94s>
1

> <i_mmod_Serial_Number-MMFF94s>
45

$$$$
