CHEMBL2007559.smi
                    3D
 Structure written by MMmdl.
 46 48  0  0  1  0            999 V2000
   -0.5791    0.6023    3.4041 C   0  0  0  0  0  0
   -1.5656    0.3924    2.2641 C   0  0  0  0  0  0
   -0.8733    0.1296    0.9283 C   0  0  0  0  0  0
   -0.1032    1.2676    0.4702 N   0  0  0  0  0  0
   -0.6909    2.3166   -0.2056 C   0  0  0  0  0  0
   -1.8788    2.3476   -0.5064 O   0  0  0  0  0  0
    0.2072    3.4370   -0.5987 C   0  0  0  0  0  0
   -0.1189    4.1854   -1.7315 C   0  0  0  0  0  0
    0.7006    5.2461   -2.1336 C   0  0  0  0  0  0
    1.8557    5.5939   -1.4139 C   0  0  0  0  0  0
    2.6318    6.6612   -1.8759 N   0  0  0  0  0  0
    3.8172    7.2599   -1.4519 C   0  0  0  0  0  0
    4.2078    8.2975   -2.2138 N   0  0  0  0  0  0
    5.3395    8.9755   -1.9251 C   0  0  0  0  0  0
    5.7276   10.0367   -2.7122 N   0  0  0  0  0  0
    4.9177   10.4429   -3.8627 C   0  0  0  0  0  0
    5.4892   11.6386   -4.6310 C   0  0  0  0  0  0
    6.7227   11.3698   -5.1175 F   0  0  0  0  0  0
    4.6990   11.9669   -5.6781 F   0  0  0  0  0  0
    5.5938   12.7305   -3.8390 F   0  0  0  0  0  0
    6.0768    8.5572   -0.8169 C   0  0  0  0  0  0
    7.5448    9.1747   -0.1617 S   0  0  0  0  0  0
    7.5574    8.0135    1.0919 C   0  0  0  0  0  0
    6.4720    7.1705    1.0203 C   0  0  0  0  0  0
    5.6146    7.4783   -0.0775 C   0  0  0  0  0  0
    4.4796    6.8147   -0.3852 N   0  0  0  0  0  0
    2.1567    4.8445   -0.2716 C   0  0  0  0  0  0
    1.3426    3.7793    0.1398 C   0  0  0  0  0  0
   -1.1173    0.7397    4.3473 H   0  0  0  0  0  0
    0.0391    1.4901    3.2383 H   0  0  0  0  0  0
    0.0824   -0.2629    3.5144 H   0  0  0  0  0  0
   -2.2182    1.2698    2.1879 H   0  0  0  0  0  0
   -2.2045   -0.4650    2.5054 H   0  0  0  0  0  0
   -1.6225   -0.1175    0.1680 H   0  0  0  0  0  0
   -0.1857   -0.7189    1.0102 H   0  0  0  0  0  0
    0.8973    1.2510    0.6074 H   0  0  0  0  0  0
   -1.0101    3.9444   -2.3077 H   0  0  0  0  0  0
    0.4202    5.8040   -3.0244 H   0  0  0  0  0  0
    2.3019    7.1441   -2.6988 H   0  0  0  0  0  0
    6.5780   10.5382   -2.4822 H   0  0  0  0  0  0
    3.9092   10.7068   -3.5231 H   0  0  0  0  0  0
    4.8276    9.6017   -4.5601 H   0  0  0  0  0  0
    8.3575    8.0039    1.8200 H   0  0  0  0  0  0
    6.2907    6.3649    1.7198 H   0  0  0  0  0  0
    3.0266    5.0780    0.3350 H   0  0  0  0  0  0
    1.6007    3.2541    1.0543 H   0  0  0  0  0  0
  1  2  1  0  0  0
  1 29  1  0  0  0
  1 30  1  0  0  0
  1 31  1  0  0  0
  2  3  1  0  0  0
  2 32  1  0  0  0
  2 33  1  0  0  0
  3  4  1  0  0  0
  3 34  1  0  0  0
  3 35  1  0  0  0
  4  5  1  0  0  0
  4 36  1  0  0  0
  5  7  1  0  0  0
  5  6  2  0  0  0
  7  8  2  0  0  0
  7 28  1  0  0  0
  8  9  1  0  0  0
  8 37  1  0  0  0
  9 10  2  0  0  0
  9 38  1  0  0  0
 10 27  1  0  0  0
 10 11  1  0  0  0
 11 12  1  0  0  0
 11 39  1  0  0  0
 12 13  2  0  0  0
 12 26  1  0  0  0
 13 14  1  0  0  0
 14 21  2  0  0  0
 14 15  1  0  0  0
 15 16  1  0  0  0
 15 40  1  0  0  0
 16 17  1  0  0  0
 16 41  1  0  0  0
 16 42  1  0  0  0
 17 20  1  0  0  0
 17 19  1  0  0  0
 17 18  1  0  0  0
 21 22  1  0  0  0
 21 25  1  0  0  0
 22 23  1  0  0  0
 23 24  2  0  0  0
 23 43  1  0  0  0
 24 25  1  0  0  0
 24 44  1  0  0  0
 25 26  2  0  0  0
 27 28  2  0  0  0
 27 45  1  0  0  0
 28 46  1  0  0  0
M  END
> <s_m_entry_id>
207

> <s_m_entry_name>
CHEMBL2007559.1

> <s_m_job_name>
mmod_csearch_27

> <s_lp_label>
 _56

> <r_mmod_Potential_Energy-MMFF94s>
-54.641644

> <b_mmod_Minimization_Converged-MMFF94s>
1

> <r_mmod_RMS_Derivative-MMFF94s>
0.013432

> <i_mmod_Times_Found-MMFF94s>
38

> <r_mmod_Relative_Potential_Energy-MMFF94s>
0

> <i_mmod_Conformation-MMFF94s>
1

> <i_mmod_Serial_Number-MMFF94s>
56

$$$$
