CHEMBL1997051.smi
                    3D
 Structure written by MMmdl.
 71 76  0  0  1  0            999 V2000
    6.4604   -6.4695  -13.6289 C   0  0  0  0  0  0
    7.4056   -7.3959  -14.1481 O   0  0  0  0  0  0
    7.0760   -8.7322  -14.0845 C   0  0  0  0  0  0
    5.8817   -9.2334  -13.5571 C   0  0  0  0  0  0
    5.6433  -10.6094  -13.5404 C   0  0  0  0  0  0
    6.5929  -11.4996  -14.0509 C   0  0  0  0  0  0
    6.3396  -12.9928  -14.0501 C   0  0  0  0  0  0
    7.2575  -13.7438  -13.1738 N   0  0  0  0  0  0
    6.9975  -13.4658  -11.7600 C   0  0  0  0  0  0
    7.1221  -15.1792  -13.4328 C   0  0  0  0  0  0
    7.7903  -10.9882  -14.5786 C   0  0  0  0  0  0
    8.0537   -9.6134  -14.6049 C   0  0  0  0  0  0
    9.2432   -9.0625  -15.1105 N   0  0  0  0  0  0
   10.4293   -9.5847  -15.6031 C   0  0  0  0  0  0
   11.3369   -8.6806  -16.0060 N   0  0  0  0  0  0
   12.5119   -9.1447  -16.4686 C   0  0  0  0  0  0
   12.8223  -10.4772  -16.5418 C   0  0  0  0  0  0
   11.8353  -11.3319  -16.1134 C   0  0  0  0  0  0
   10.6499  -10.9050  -15.6452 N   0  0  0  0  0  0
   11.9932  -12.7781  -16.1159 C   0  0  0  0  0  0
   12.5583  -13.6817  -17.0247 C   0  0  0  0  0  0
   12.5755  -14.9780  -16.5329 N   0  0  0  0  0  0
   11.9703  -14.8644  -15.3866 C   0  0  0  0  0  0
   11.5440  -15.9797  -14.1245 S   0  0  0  0  0  0
   10.8537  -14.6285  -13.2155 C   0  0  0  0  0  0
   10.9678  -13.4533  -13.8562 C   0  0  0  0  0  0
   11.5927  -13.5918  -15.0791 N   0  0  0  0  0  0
   13.1051  -13.3712  -18.3352 C   0  0  0  0  0  0
   12.4371  -12.5262  -19.2266 C   0  0  0  0  0  0
   12.9971  -12.2427  -20.4716 C   0  0  0  0  0  0
   14.2196  -12.8111  -20.8411 C   0  0  0  0  0  0
   14.8882  -13.6774  -19.9756 C   0  0  0  0  0  0
   16.1119  -14.3136  -20.2776 N   0  0  0  0  0  0
   16.8928  -14.1556  -21.4117 C   0  0  0  0  0  0
   16.6583  -13.3736  -22.3254 O   0  0  0  0  0  0
   18.1149  -15.0068  -21.4915 C   0  0  0  0  0  0
   18.7574  -15.1926  -22.7194 C   0  0  0  0  0  0
   18.2820  -14.6517  -23.8501 F   0  0  0  0  0  0
   19.9126  -15.9726  -22.8231 C   0  0  0  0  0  0
   20.4485  -16.5841  -21.6925 C   0  0  0  0  0  0
   19.8214  -16.4130  -20.4616 C   0  0  0  0  0  0
   18.6678  -15.6313  -20.3700 C   0  0  0  0  0  0
   18.1024  -15.5001  -19.1596 F   0  0  0  0  0  0
   14.3184  -13.9565  -18.7259 C   0  0  0  0  0  0
    5.5196   -6.5104  -14.1875 H   0  0  0  0  0  0
    6.8759   -5.4647  -13.7521 H   0  0  0  0  0  0
    6.2952   -6.6315  -12.5587 H   0  0  0  0  0  0
    5.1158   -8.5819  -13.1513 H   0  0  0  0  0  0
    4.7094  -10.9812  -13.1254 H   0  0  0  0  0  0
    6.4614  -13.3276  -15.0896 H   0  0  0  0  0  0
    5.2934  -13.2014  -13.7880 H   0  0  0  0  0  0
    7.1800  -12.4129  -11.5211 H   0  0  0  0  0  0
    7.6803  -14.0426  -11.1255 H   0  0  0  0  0  0
    5.9700  -13.7149  -11.4707 H   0  0  0  0  0  0
    7.3815  -15.4089  -14.4724 H   0  0  0  0  0  0
    6.1051  -15.5404  -13.2412 H   0  0  0  0  0  0
    7.8139  -15.7526  -12.8058 H   0  0  0  0  0  0
    8.5113  -11.6958  -14.9761 H   0  0  0  0  0  0
    9.2630   -8.0504  -15.1113 H   0  0  0  0  0  0
   13.2194   -8.3841  -16.7854 H   0  0  0  0  0  0
   13.7810  -10.8160  -16.9088 H   0  0  0  0  0  0
   10.3845  -14.7694  -12.2510 H   0  0  0  0  0  0
   10.6176  -12.4918  -13.5123 H   0  0  0  0  0  0
   11.4721  -12.0936  -18.9718 H   0  0  0  0  0  0
   12.4777  -11.5862  -21.1656 H   0  0  0  0  0  0
   14.6129  -12.5700  -21.8239 H   0  0  0  0  0  0
   16.4517  -14.9506  -19.5645 H   0  0  0  0  0  0
   20.3828  -16.0964  -23.7952 H   0  0  0  0  0  0
   21.3474  -17.1909  -21.7723 H   0  0  0  0  0  0
   20.2230  -16.8826  -19.5676 H   0  0  0  0  0  0
   14.8149  -14.6368  -18.0361 H   0  0  0  0  0  0
  1  2  1  0  0  0
  1 45  1  0  0  0
  1 46  1  0  0  0
  1 47  1  0  0  0
  2  3  1  0  0  0
  3  4  2  0  0  0
  3 12  1  0  0  0
  4  5  1  0  0  0
  4 48  1  0  0  0
  5  6  2  0  0  0
  5 49  1  0  0  0
  6 11  1  0  0  0
  6  7  1  0  0  0
  7  8  1  0  0  0
  7 50  1  0  0  0
  7 51  1  0  0  0
  8 10  1  0  0  0
  8  9  1  0  0  0
  9 52  1  0  0  0
  9 53  1  0  0  0
  9 54  1  0  0  0
 10 55  1  0  0  0
 10 56  1  0  0  0
 10 57  1  0  0  0
 11 12  2  0  0  0
 11 58  1  0  0  0
 12 13  1  0  0  0
 13 14  1  0  0  0
 13 59  1  0  0  0
 14 15  2  0  0  0
 14 19  1  0  0  0
 15 16  1  0  0  0
 16 17  2  0  0  0
 16 60  1  0  0  0
 17 18  1  0  0  0
 17 61  1  0  0  0
 18 19  2  0  0  0
 18 20  1  0  0  0
 20 21  2  0  0  0
 20 27  1  0  0  0
 21 22  1  0  0  0
 21 28  1  0  0  0
 22 23  2  0  0  0
 23 24  1  0  0  0
 23 27  1  0  0  0
 24 25  1  0  0  0
 25 26  2  0  0  0
 25 62  1  0  0  0
 26 27  1  0  0  0
 26 63  1  0  0  0
 28 29  2  0  0  0
 28 44  1  0  0  0
 29 30  1  0  0  0
 29 64  1  0  0  0
 30 31  2  0  0  0
 30 65  1  0  0  0
 31 32  1  0  0  0
 31 66  1  0  0  0
 32 44  2  0  0  0
 32 33  1  0  0  0
 33 34  1  0  0  0
 33 67  1  0  0  0
 34 36  1  0  0  0
 34 35  2  0  0  0
 36 37  2  0  0  0
 36 42  1  0  0  0
 37 39  1  0  0  0
 37 38  1  0  0  0
 39 40  2  0  0  0
 39 68  1  0  0  0
 40 41  1  0  0  0
 40 69  1  0  0  0
 41 42  2  0  0  0
 41 70  1  0  0  0
 42 43  1  0  0  0
 44 71  1  0  0  0
M  END
> <s_m_entry_id>
188

> <s_m_entry_name>
CHEMBL1997051.1

> <s_m_job_name>
mmod_csearch_27

> <s_lp_label>
 _37

> <r_mmod_Potential_Energy-MMFF94s>
-14.45858

> <b_mmod_Minimization_Converged-MMFF94s>
1

> <r_mmod_RMS_Derivative-MMFF94s>
0.011955

> <i_mmod_Times_Found-MMFF94s>
81

> <r_mmod_Relative_Potential_Energy-MMFF94s>
0

> <i_mmod_Conformation-MMFF94s>
1

> <i_mmod_Serial_Number-MMFF94s>
37

$$$$
