CHEMBL1977749.smi
                    3D
 Structure written by MMmdl.
 36 38  0  0  1  0            999 V2000
    3.0375   -0.1942   -0.1699 O   0  0  0  0  0  0
    3.4463    0.7629   -1.0915 N   0  0  0  0  0  0
    2.6458    1.7891   -1.2133 C   0  0  0  0  0  0
    3.0156    2.7395   -2.2879 C   0  0  0  0  0  0
    2.1353    3.6632   -2.6886 C   0  0  0  0  0  0
    0.8813    3.8259   -2.1392 O   0  0  0  0  0  0
    0.5739    3.1381   -0.9876 C   0  0  0  0  0  0
   -0.6285    3.4991   -0.3460 C   0  0  0  0  0  0
   -1.5495    4.5546   -0.9173 C   0  0  0  0  0  0
   -1.1857    5.9426   -0.4688 C   0  0  0  0  0  0
   -0.9123    6.9555   -1.3017 C   0  0  0  0  0  0
   -0.9567    2.8854    0.8709 C   0  0  0  0  0  0
   -0.1078    1.9355    1.4313 C   0  0  0  0  0  0
    1.0703    1.5718    0.7749 C   0  0  0  0  0  0
    1.4115    2.1447   -0.4558 C   0  0  0  0  0  0
    2.4438    4.6021   -3.7805 C   0  0  0  0  0  0
    2.9492    4.1546   -5.0100 C   0  0  0  0  0  0
    3.2269    5.0608   -6.0367 C   0  0  0  0  0  0
    2.9994    6.4224   -5.8468 C   0  0  0  0  0  0
    2.4919    6.8798   -4.6326 C   0  0  0  0  0  0
    2.2135    5.9742   -3.6063 C   0  0  0  0  0  0
    3.7295   -0.8757   -0.2577 H   0  0  0  0  0  0
    3.9917    2.6145   -2.7406 H   0  0  0  0  0  0
   -2.5786    4.3459   -0.5972 H   0  0  0  0  0  0
   -1.5693    4.4782   -2.0116 H   0  0  0  0  0  0
   -1.1565    6.1216    0.6040 H   0  0  0  0  0  0
   -0.9312    6.8266   -2.3798 H   0  0  0  0  0  0
   -0.6592    7.9385   -0.9170 H   0  0  0  0  0  0
   -1.8706    3.1564    1.3955 H   0  0  0  0  0  0
   -0.3585    1.4767    2.3849 H   0  0  0  0  0  0
    1.7146    0.8502    1.2639 H   0  0  0  0  0  0
    3.1201    3.0945   -5.1845 H   0  0  0  0  0  0
    3.6170    4.7021   -6.9857 H   0  0  0  0  0  0
    3.2153    7.1267   -6.6461 H   0  0  0  0  0  0
    2.3126    7.9412   -4.4823 H   0  0  0  0  0  0
    1.8222    6.3470   -2.6620 H   0  0  0  0  0  0
  1  2  1  0  0  0
  1 22  1  0  0  0
  2  3  2  0  0  0
  3  4  1  0  0  0
  3 15  1  0  0  0
  4  5  2  0  0  0
  4 23  1  0  0  0
  5  6  1  0  0  0
  5 16  1  0  0  0
  6  7  1  0  0  0
  7 15  1  0  0  0
  7  8  2  0  0  0
  8 12  1  0  0  0
  8  9  1  0  0  0
  9 10  1  0  0  0
  9 24  1  0  0  0
  9 25  1  0  0  0
 10 11  2  0  0  0
 10 26  1  0  0  0
 11 27  1  0  0  0
 11 28  1  0  0  0
 12 13  2  0  0  0
 12 29  1  0  0  0
 13 14  1  0  0  0
 13 30  1  0  0  0
 14 15  2  0  0  0
 14 31  1  0  0  0
 16 17  2  0  0  0
 16 21  1  0  0  0
 17 18  1  0  0  0
 17 32  1  0  0  0
 18 19  2  0  0  0
 18 33  1  0  0  0
 19 20  1  0  0  0
 19 34  1  0  0  0
 20 21  2  0  0  0
 20 35  1  0  0  0
 21 36  1  0  0  0
M  END
> <s_m_entry_id>
152

> <s_m_entry_name>
CHEMBL1977749.1

> <s_m_job_name>
mmod_csearch_26

> <s_lp_label>
 _8

> <r_mmod_Potential_Energy-MMFF94s>
371.423798

> <b_mmod_Minimization_Converged-MMFF94s>
1

> <r_mmod_RMS_Derivative-MMFF94s>
0.006287

> <i_mmod_Times_Found-MMFF94s>
221

> <r_mmod_Relative_Potential_Energy-MMFF94s>
0

> <i_mmod_Conformation-MMFF94s>
1

> <i_mmod_Serial_Number-MMFF94s>
8

$$$$
