CHEMBL1993661.smi
                    3D
 Structure written by MMmdl.
 54 56  0  0  1  0            999 V2000
    9.8394   -1.9147   -1.3088 C   0  0  0  0  0  0
    9.8986   -0.4616   -1.4090 N   0  0  0  0  0  0
    8.7843    0.4770   -0.5769 S   0  0  0  0  0  0
    9.2181    1.8494   -0.7205 O   0  0  0  0  0  0
    7.4551    0.0602   -0.9757 O   0  0  0  0  0  0
    9.0438   -0.0107    1.1129 C   0  0  0  0  0  0
   10.1076    0.6034    1.7979 C   0  0  0  0  0  0
   10.3962    0.2387    3.1093 C   0  0  0  0  0  0
    9.6253   -0.7337    3.7348 C   0  0  0  0  0  0
    8.5589   -1.3304    3.0539 C   0  0  0  0  0  0
    8.2276   -0.9737    1.7352 C   0  0  0  0  0  0
    7.1598   -1.6061    1.0710 N   0  0  0  0  0  0
    6.6515   -2.9137    1.2048 C   0  0  0  0  0  0
    7.4185   -3.8510    1.8009 N   0  0  0  0  0  0
    6.9443   -5.0955    1.9440 C   0  0  0  0  0  0
    7.6950   -6.0938    2.5560 N   0  0  0  0  0  0
    9.0051   -6.1478    3.0475 C   0  0  0  0  0  0
    9.9454   -5.1277    2.8724 C   0  0  0  0  0  0
   11.2333   -5.2253    3.4106 C   0  0  0  0  0  0
   12.0768   -4.1766    3.1405 O   0  0  0  0  0  0
   12.5892   -3.5776    4.3302 C   0  0  0  0  0  0
   11.6208   -6.3748    4.1083 C   0  0  0  0  0  0
   12.9118   -6.5085    4.5503 O   0  0  0  0  0  0
   13.7162   -7.0724    3.5117 C   0  0  0  0  0  0
   10.6802   -7.3820    4.3435 C   0  0  0  0  0  0
   10.9139   -8.5461    5.0295 O   0  0  0  0  0  0
   11.6268   -8.3750    6.2525 C   0  0  0  0  0  0
    9.3960   -7.2707    3.7947 C   0  0  0  0  0  0
    5.7218   -5.4631    1.5328 N   0  0  0  0  0  0
    4.9660   -4.5144    0.9413 C   0  0  0  0  0  0
    5.3792   -3.2178    0.7481 C   0  0  0  0  0  0
    4.3499   -2.0777   -0.0198 Cl  0  0  0  0  0  0
   10.3804   -2.3483   -2.1551 H   0  0  0  0  0  0
    8.8110   -2.2813   -1.3503 H   0  0  0  0  0  0
   10.3222   -2.2560   -0.3896 H   0  0  0  0  0  0
   10.8080   -0.0191   -1.5264 H   0  0  0  0  0  0
   10.7171    1.3620    1.3106 H   0  0  0  0  0  0
   11.2199    0.7089    3.6405 H   0  0  0  0  0  0
    9.8443   -1.0319    4.7572 H   0  0  0  0  0  0
    7.9710   -2.0795    3.5813 H   0  0  0  0  0  0
    6.8018   -1.1174    0.2439 H   0  0  0  0  0  0
    7.1449   -6.9386    2.6153 H   0  0  0  0  0  0
    9.7035   -4.2348    2.3047 H   0  0  0  0  0  0
   12.8036   -2.5279    4.1064 H   0  0  0  0  0  0
   13.5300   -4.0525    4.6223 H   0  0  0  0  0  0
   11.8707   -3.6023    5.1579 H   0  0  0  0  0  0
   14.7276   -7.2027    3.9081 H   0  0  0  0  0  0
   13.7764   -6.4039    2.6462 H   0  0  0  0  0  0
   13.3426   -8.0570    3.2087 H   0  0  0  0  0  0
   11.3216   -9.1804    6.9278 H   0  0  0  0  0  0
   11.3964   -7.4241    6.7464 H   0  0  0  0  0  0
   12.7022   -8.4792    6.0834 H   0  0  0  0  0  0
    8.6905   -8.0802    3.9688 H   0  0  0  0  0  0
    3.9838   -4.8473    0.6183 H   0  0  0  0  0  0
  1  2  1  0  0  0
  1 33  1  0  0  0
  1 34  1  0  0  0
  1 35  1  0  0  0
  2  3  1  0  0  0
  2 36  1  0  0  0
  3  6  1  0  0  0
  3  5  2  0  0  0
  3  4  2  0  0  0
  6  7  2  0  0  0
  6 11  1  0  0  0
  7  8  1  0  0  0
  7 37  1  0  0  0
  8  9  2  0  0  0
  8 38  1  0  0  0
  9 10  1  0  0  0
  9 39  1  0  0  0
 10 11  2  0  0  0
 10 40  1  0  0  0
 11 12  1  0  0  0
 12 13  1  0  0  0
 12 41  1  0  0  0
 13 31  1  0  0  0
 13 14  2  0  0  0
 14 15  1  0  0  0
 15 29  2  0  0  0
 15 16  1  0  0  0
 16 17  1  0  0  0
 16 42  1  0  0  0
 17 28  1  0  0  0
 17 18  2  0  0  0
 18 19  1  0  0  0
 18 43  1  0  0  0
 19 22  2  0  0  0
 19 20  1  0  0  0
 20 21  1  0  0  0
 21 44  1  0  0  0
 21 45  1  0  0  0
 21 46  1  0  0  0
 22 25  1  0  0  0
 22 23  1  0  0  0
 23 24  1  0  0  0
 24 47  1  0  0  0
 24 48  1  0  0  0
 24 49  1  0  0  0
 25 28  2  0  0  0
 25 26  1  0  0  0
 26 27  1  0  0  0
 27 50  1  0  0  0
 27 51  1  0  0  0
 27 52  1  0  0  0
 28 53  1  0  0  0
 29 30  1  0  0  0
 30 31  2  0  0  0
 30 54  1  0  0  0
 31 32  1  0  0  0
M  END
> <s_m_entry_id>
178

> <s_m_entry_name>
CHEMBL1993661.1

> <s_m_job_name>
mmod_csearch_27

> <s_lp_label>
 _27

> <r_mmod_Potential_Energy-MMFF94s>
-154.162872

> <b_mmod_Minimization_Converged-MMFF94s>
1

> <r_mmod_RMS_Derivative-MMFF94s>
0.011132

> <i_mmod_Times_Found-MMFF94s>
38

> <r_mmod_Relative_Potential_Energy-MMFF94s>
0

> <i_mmod_Conformation-MMFF94s>
1

> <i_mmod_Serial_Number-MMFF94s>
26

$$$$
