CHEMBL2002099.smi
                    3D
 Structure written by MMmdl.
 41 44  0  0  1  0            999 V2000
    4.0048   10.4971   -6.3801 N   0  0  0  0  0  0
    4.8060    9.9564   -5.7385 C   0  0  0  0  0  0
    5.8124    9.2317   -4.9488 C   0  0  0  0  0  0
    5.1667    8.4876   -3.7679 C   0  0  1  0  0  0
    6.1642    7.5456   -3.0561 C   0  0  0  0  0  0
    6.7313    6.4422   -3.9554 C   0  0  0  0  0  0
    7.2004    5.3419   -3.0048 C   0  0  0  0  0  0
    6.5670    5.6448   -1.6501 C   0  0  0  0  0  0
    5.5386    6.7336   -1.9176 C   0  0  0  0  0  0
    4.5861    9.4401   -2.8190 N   0  0  0  0  0  0
    3.2886    9.4899   -2.4042 C   0  0  0  0  0  0
    3.1999   10.5456   -1.5182 C   0  0  0  0  0  0
    4.5178   11.0480   -1.4598 C   0  0  0  0  0  0
    5.3620   10.3871   -2.2585 N   0  0  0  0  0  0
    1.9862   10.9286   -0.8350 C   0  0  0  0  0  0
    1.0442    9.9709   -0.6353 N   0  0  0  0  0  0
   -0.0788   10.3194    0.0172 C   0  0  0  0  0  0
   -0.4079   11.5237    0.5121 N   0  0  0  0  0  0
    0.5480   12.4336    0.2737 C   0  0  0  0  0  0
    0.4732   13.7460    0.6517 N   0  0  0  0  0  0
   -0.3125   14.1436    1.1462 H   0  0  0  0  0  0
    1.5997   14.4098    0.2413 C   0  0  0  0  0  0
    2.4093   13.5002   -0.4077 C   0  0  0  0  0  0
    1.7555   12.2331   -0.3825 C   0  0  0  0  0  0
    6.5869    9.9272   -4.6047 H   0  0  0  0  0  0
    6.3081    8.5193   -5.6174 H   0  0  0  0  0  0
    4.3263    7.8870   -4.1444 H   0  0  0  0  0  0
    7.0015    8.1309   -2.6498 H   0  0  0  0  0  0
    7.5534    6.8006   -4.5830 H   0  0  0  0  0  0
    5.9541    6.0446   -4.6195 H   0  0  0  0  0  0
    8.2926    5.3331   -2.9203 H   0  0  0  0  0  0
    6.8940    4.3581   -3.3763 H   0  0  0  0  0  0
    7.3339    6.0163   -0.9599 H   0  0  0  0  0  0
    6.1164    4.7569   -1.1964 H   0  0  0  0  0  0
    4.5896    6.2834   -2.2338 H   0  0  0  0  0  0
    5.3502    7.3348   -1.0229 H   0  0  0  0  0  0
    2.5416    8.7924   -2.7590 H   0  0  0  0  0  0
    4.9074   11.8613   -0.8621 H   0  0  0  0  0  0
   -0.8087    9.5287    0.1629 H   0  0  0  0  0  0
    1.7235   15.4670    0.4365 H   0  0  0  0  0  0
    3.3632   13.7358   -0.8606 H   0  0  0  0  0  0
  1  2  3  0  0  0
  2  3  1  0  0  0
  3  4  1  0  0  0
  3 25  1  0  0  0
  3 26  1  0  0  0
  4 10  1  0  0  0
  4  5  1  0  0  0
  4 27  1  0  0  0
  5  6  1  0  0  0
  5  9  1  0  0  0
  5 28  1  0  0  0
  6  7  1  0  0  0
  6 29  1  0  0  0
  6 30  1  0  0  0
  7  8  1  0  0  0
  7 31  1  0  0  0
  7 32  1  0  0  0
  8  9  1  0  0  0
  8 33  1  0  0  0
  8 34  1  0  0  0
  9 35  1  0  0  0
  9 36  1  0  0  0
 10 11  1  0  0  0
 10 14  1  0  0  0
 11 12  2  0  0  0
 11 37  1  0  0  0
 12 15  1  0  0  0
 12 13  1  0  0  0
 13 14  2  0  0  0
 13 38  1  0  0  0
 15 16  2  0  0  0
 15 24  1  0  0  0
 16 17  1  0  0  0
 17 18  2  0  0  0
 17 39  1  0  0  0
 18 19  1  0  0  0
 19 20  1  0  0  0
 19 24  2  0  0  0
 20 22  1  0  0  0
 20 21  1  0  0  0
 22 23  2  0  0  0
 22 40  1  0  0  0
 23 24  1  0  0  0
 23 41  1  0  0  0
M  END
> <s_m_entry_id>
9888

> <s_m_job_name>
mmod_csearch_10

> <r_mmod_Potential_Energy-MMFF94s>
55.811749

> <b_mmod_Minimization_Converged-MMFF94s>
1

> <r_mmod_RMS_Derivative-MMFF94s>
0.005691

> <i_mmod_Times_Found-MMFF94s>
136

> <r_mmod_Relative_Potential_Energy-MMFF94s>
0

> <i_mmod_Conformation-MMFF94s>
1

> <s_lp_label>
 _57

> <i_mmod_Serial_Number-MMFF94s>
57

$$$$
