CHEMBL483158.smi
                    3D
 Structure written by MMmdl.
 57 61  0  0  1  0            999 V2000
    8.3117    1.7619   -0.1437 C   0  0  0  0  0  0
    7.9547    2.4344    1.0669 O   0  0  0  0  0  0
    7.0464    1.6921    1.7752 C   0  0  0  0  0  0
    7.5315    0.8096    2.7435 C   0  0  0  0  0  0
    6.6403    0.0516    3.5056 C   0  0  0  0  0  0
    5.2653    0.1886    3.3098 C   0  0  0  0  0  0
    4.7851    1.0867    2.3583 C   0  0  0  0  0  0
    3.4580    1.2311    2.2295 F   0  0  0  0  0  0
    5.6669    1.8505    1.5946 C   0  0  0  0  0  0
    5.1300    2.8029    0.5894 C   0  0  0  0  0  0
    4.3991    2.3024   -0.3521 N   0  0  0  0  0  0
    3.8903    3.1704   -1.4049 C   0  0  0  0  0  0
    5.0054    3.6715   -2.2578 C   0  0  0  0  0  0
    5.1693    3.3034   -3.5721 C   0  0  0  0  0  0
    6.1863    3.7280   -4.3462 N   0  0  0  0  0  0
    7.0887    4.5407   -3.7789 C   0  0  0  0  0  0
    8.1251    4.9505   -4.6125 N   0  0  0  0  0  0
    9.2909    5.6971   -4.4079 C   0  0  0  0  0  0
   10.0292    6.1048   -5.5259 C   0  0  0  0  0  0
   11.1877    6.8728   -5.3849 C   0  0  0  0  0  0
   11.6341    7.2573   -4.1125 C   0  0  0  0  0  0
   12.8526    8.1012   -3.9941 C   0  0  0  0  0  0
   13.1290    8.9082   -3.1283 O   0  0  0  0  0  0
   13.7054    7.8823   -5.0167 O   0  0  0  0  0  0
   10.9102    6.8661   -2.9763 C   0  0  0  0  0  0
   11.4087    7.2337   -1.7542 O   0  0  0  0  0  0
   10.5925    7.0193   -0.6096 C   0  0  0  0  0  0
    9.7495    6.0911   -3.1421 C   0  0  0  0  0  0
    7.0055    4.9537   -2.5079 N   0  0  0  0  0  0
    5.9733    4.5145   -1.7531 C   0  0  0  0  0  0
    5.9397    5.0226   -0.3680 C   0  0  0  0  0  0
    6.3442    6.3516   -0.1130 C   0  0  0  0  0  0
    6.3114    6.8958    1.1730 C   0  0  0  0  0  0
    5.8682    6.1189    2.2350 C   0  0  0  0  0  0
    5.8154    6.7861    3.8192 Cl  0  0  0  0  0  0
    5.4683    4.8027    2.0251 C   0  0  0  0  0  0
    5.5122    4.2469    0.7331 C   0  0  0  0  0  0
    8.9814    2.4197   -0.7058 H   0  0  0  0  0  0
    7.4353    1.5576   -0.7677 H   0  0  0  0  0  0
    8.8487    0.8320    0.0723 H   0  0  0  0  0  0
    8.6027    0.7119    2.9027 H   0  0  0  0  0  0
    7.0173   -0.6410    4.2546 H   0  0  0  0  0  0
    4.5616   -0.3909    3.9002 H   0  0  0  0  0  0
    3.1879    2.5871   -2.0124 H   0  0  0  0  0  0
    3.2993    4.0008   -0.9974 H   0  0  0  0  0  0
    4.4726    2.6289   -4.0626 H   0  0  0  0  0  0
    7.9649    4.5827   -5.5391 H   0  0  0  0  0  0
    9.7049    5.8324   -6.5279 H   0  0  0  0  0  0
   11.7319    7.1767   -6.2762 H   0  0  0  0  0  0
   14.4594    8.4715   -4.8036 H   0  0  0  0  0  0
    9.6180    7.5071   -0.7174 H   0  0  0  0  0  0
   11.0970    7.4723    0.2493 H   0  0  0  0  0  0
   10.4813    5.9501   -0.4024 H   0  0  0  0  0  0
    9.2000    5.7615   -2.2689 H   0  0  0  0  0  0
    6.6860    6.9802   -0.9362 H   0  0  0  0  0  0
    6.6272    7.9239    1.3316 H   0  0  0  0  0  0
    5.1212    4.2151    2.8714 H   0  0  0  0  0  0
  1  2  1  0  0  0
  1 38  1  0  0  0
  1 39  1  0  0  0
  1 40  1  0  0  0
  2  3  1  0  0  0
  3  9  1  0  0  0
  3  4  2  0  0  0
  4  5  1  0  0  0
  4 41  1  0  0  0
  5  6  2  0  0  0
  5 42  1  0  0  0
  6  7  1  0  0  0
  6 43  1  0  0  0
  7  9  2  0  0  0
  7  8  1  0  0  0
  9 10  1  0  0  0
 10 11  2  0  0  0
 10 37  1  0  0  0
 11 12  1  0  0  0
 12 13  1  0  0  0
 12 44  1  0  0  0
 12 45  1  0  0  0
 13 30  1  0  0  0
 13 14  2  0  0  0
 14 15  1  0  0  0
 14 46  1  0  0  0
 15 16  2  0  0  0
 16 29  1  0  0  0
 16 17  1  0  0  0
 17 18  1  0  0  0
 17 47  1  0  0  0
 18 19  2  0  0  0
 18 28  1  0  0  0
 19 20  1  0  0  0
 19 48  1  0  0  0
 20 21  2  0  0  0
 20 49  1  0  0  0
 21 25  1  0  0  0
 21 22  1  0  0  0
 22 24  1  0  0  0
 22 23  2  0  0  0
 24 50  1  0  0  0
 25 28  2  0  0  0
 25 26  1  0  0  0
 26 27  1  0  0  0
 27 51  1  0  0  0
 27 52  1  0  0  0
 27 53  1  0  0  0
 28 54  1  0  0  0
 29 30  2  0  0  0
 30 31  1  0  0  0
 31 37  1  0  0  0
 31 32  2  0  0  0
 32 33  1  0  0  0
 32 55  1  0  0  0
 33 34  2  0  0  0
 33 56  1  0  0  0
 34 36  1  0  0  0
 34 35  1  0  0  0
 36 37  2  0  0  0
 36 57  1  0  0  0
M  END
> <s_m_entry_id>
120

> <s_m_entry_name>
CHEMBL483158.1

> <s_m_job_name>
mmod_csearch_22

> <s_lp_label>
 _8

> <r_mmod_Potential_Energy-MMFF94s>
152.190002

> <b_mmod_Minimization_Converged-MMFF94s>
1

> <r_mmod_RMS_Derivative-MMFF94s>
0.012828

> <i_mmod_Times_Found-MMFF94s>
56

> <r_mmod_Relative_Potential_Energy-MMFF94s>
0

> <i_mmod_Conformation-MMFF94s>
1

> <i_mmod_Serial_Number-MMFF94s>
8

$$$$
