CHEMBL2007574.smi
                    3D
 Structure written by MMmdl.
 25 27  0  0  1  0            999 V2000
   -3.6543    2.6997   -4.1162 N   0  0  0  0  0  0
   -3.0781    3.0938   -5.2865 C   0  0  0  0  0  0
   -3.6595    2.7150   -6.4189 N   0  0  0  0  0  0
   -3.0545    3.1242   -7.5416 C   0  0  0  0  0  0
   -3.8348    2.6233   -8.9875 Cl  0  0  0  0  0  0
   -1.9132    3.8778   -7.5948 C   0  0  0  0  0  0
   -1.3928    4.2124   -6.3693 C   0  0  0  0  0  0
   -1.9688    3.8305   -5.2111 N   0  0  0  0  0  0
   -0.1783    5.0123   -6.2394 C   0  0  0  0  0  0
    0.8124    5.0868   -7.2085 C   0  0  0  0  0  0
    1.8055    5.9143   -6.7470 N   0  0  0  0  0  0
    2.6593    6.1590   -7.2268 H   0  0  0  0  0  0
    1.4851    6.3759   -5.5032 C   0  0  0  0  0  0
    2.2595    7.2105   -4.7860 N   0  0  0  0  0  0
    1.7239    7.5193   -3.5831 C   0  0  0  0  0  0
    0.5106    7.0554   -3.0933 C   0  0  0  0  0  0
   -0.2508    6.1929   -3.8827 C   0  0  0  0  0  0
    0.2558    5.8323   -5.1453 C   0  0  0  0  0  0
   -4.4790    2.1272   -4.1634 H   0  0  0  0  0  0
   -3.2033    2.9542   -3.2553 H   0  0  0  0  0  0
   -1.4767    4.1866   -8.5322 H   0  0  0  0  0  0
    0.9138    4.6191   -8.1786 H   0  0  0  0  0  0
    2.3307    8.1921   -2.9812 H   0  0  0  0  0  0
    0.1610    7.3590   -2.1127 H   0  0  0  0  0  0
   -1.2040    5.8107   -3.5323 H   0  0  0  0  0  0
  1  2  1  0  0  0
  1 19  1  0  0  0
  1 20  1  0  0  0
  2  3  2  0  0  0
  2  8  1  0  0  0
  3  4  1  0  0  0
  4  6  2  0  0  0
  4  5  1  0  0  0
  6  7  1  0  0  0
  6 21  1  0  0  0
  7  9  1  0  0  0
  7  8  2  0  0  0
  9 10  2  0  0  0
  9 18  1  0  0  0
 10 11  1  0  0  0
 10 22  1  0  0  0
 11 13  1  0  0  0
 11 12  1  0  0  0
 13 14  2  0  0  0
 13 18  1  0  0  0
 14 15  1  0  0  0
 15 16  2  0  0  0
 15 23  1  0  0  0
 16 17  1  0  0  0
 16 24  1  0  0  0
 17 18  2  0  0  0
 17 25  1  0  0  0
M  END
> <s_m_entry_id>
11223

> <s_m_job_name>
mmod_csearch_16

> <r_mmod_Potential_Energy-MMFF94s>
-443.125885

> <b_mmod_Minimization_Converged-MMFF94s>
1

> <r_mmod_RMS_Derivative-MMFF94s>
0.00344

> <i_mmod_Times_Found-MMFF94s>
546

> <r_mmod_Relative_Potential_Energy-MMFF94s>
0

> <i_mmod_Conformation-MMFF94s>
1

> <s_lp_label>
 _12

> <i_mmod_Serial_Number-MMFF94s>
12

$$$$
