CHEMBL1975927.smi
                    3D
 Structure written by MMmdl.
 52 55  0  0  1  0            999 V2000
    5.5526    1.3934    1.2326 C   0  0  0  0  0  0
    4.6368    0.3060    1.2809 O   0  0  0  0  0  0
    5.0738   -0.8895    0.7831 C   0  0  0  0  0  0
    6.3365   -1.1484    0.2581 C   0  0  0  0  0  0
    6.6540   -2.4244   -0.2292 C   0  0  0  0  0  0
    5.7135   -3.4624   -0.1990 C   0  0  0  0  0  0
    4.4484   -3.1987    0.3446 C   0  0  0  0  0  0
    4.1364   -1.9213    0.8261 C   0  0  0  0  0  0
    6.0342   -4.7685   -0.6960 N   0  0  0  0  0  0
    5.3262   -5.9295   -0.4103 C   0  0  0  0  0  0
    5.9457   -7.0054   -1.0059 C   0  0  0  0  0  0
    7.0573   -6.5058   -1.7157 C   0  0  0  0  0  0
    8.0578   -7.0486   -2.5111 C   0  0  0  0  0  0
    8.9816   -6.2394   -3.0741 N   0  0  0  0  0  0
    8.9034   -4.9095   -2.8738 C   0  0  0  0  0  0
    9.9047   -4.1729   -3.5033 N   0  0  0  0  0  0
   10.1243   -2.8016   -3.6798 C   0  0  0  0  0  0
   11.4046   -2.3711   -4.0577 C   0  0  0  0  0  0
   11.7044   -1.0143   -4.2142 C   0  0  0  0  0  0
   12.9979   -0.7469   -4.5815 O   0  0  0  0  0  0
   13.1242    0.2457   -5.5977 C   0  0  0  0  0  0
   10.7245   -0.0570   -3.9331 C   0  0  0  0  0  0
   11.0109    1.2836   -4.0266 O   0  0  0  0  0  0
   11.4069    1.7787   -2.7467 C   0  0  0  0  0  0
    9.4252   -0.4607   -3.5902 C   0  0  0  0  0  0
    8.5078    0.5365   -3.3662 O   0  0  0  0  0  0
    7.1428    0.1851   -3.5649 C   0  0  0  0  0  0
    9.1446   -1.8263   -3.4499 C   0  0  0  0  0  0
    7.9826   -4.3048   -2.1143 N   0  0  0  0  0  0
    7.0895   -5.1298   -1.5362 C   0  0  0  0  0  0
    5.0505    2.2717    1.6497 H   0  0  0  0  0  0
    5.8328    1.6289    0.2004 H   0  0  0  0  0  0
    6.4363    1.1920    1.8470 H   0  0  0  0  0  0
    7.1071   -0.3852    0.2125 H   0  0  0  0  0  0
    7.6653   -2.5735   -0.5965 H   0  0  0  0  0  0
    3.6650   -3.9490    0.3844 H   0  0  0  0  0  0
    3.1467   -1.7285    1.2341 H   0  0  0  0  0  0
    4.4583   -5.9165    0.2329 H   0  0  0  0  0  0
    5.6247   -8.0367   -0.9333 H   0  0  0  0  0  0
    8.1468   -8.1080   -2.7203 H   0  0  0  0  0  0
   10.5664   -4.8070   -3.9272 H   0  0  0  0  0  0
   12.1934   -3.0986   -4.2348 H   0  0  0  0  0  0
   12.2856    0.2382   -6.3033 H   0  0  0  0  0  0
   14.0341    0.0237   -6.1642 H   0  0  0  0  0  0
   13.2514    1.2350   -5.1491 H   0  0  0  0  0  0
   12.2999    1.2607   -2.3795 H   0  0  0  0  0  0
   10.5946    1.7002   -2.0162 H   0  0  0  0  0  0
   11.6554    2.8380   -2.8616 H   0  0  0  0  0  0
    6.5619    1.1119   -3.5985 H   0  0  0  0  0  0
    6.7682   -0.4095   -2.7273 H   0  0  0  0  0  0
    6.9936   -0.3368   -4.5164 H   0  0  0  0  0  0
    8.1493   -2.1414   -3.1603 H   0  0  0  0  0  0
  1  2  1  0  0  0
  1 31  1  0  0  0
  1 32  1  0  0  0
  1 33  1  0  0  0
  2  3  1  0  0  0
  3  4  2  0  0  0
  3  8  1  0  0  0
  4  5  1  0  0  0
  4 34  1  0  0  0
  5  6  2  0  0  0
  5 35  1  0  0  0
  6  7  1  0  0  0
  6  9  1  0  0  0
  7  8  2  0  0  0
  7 36  1  0  0  0
  8 37  1  0  0  0
  9 30  1  0  0  0
  9 10  1  0  0  0
 10 11  2  0  0  0
 10 38  1  0  0  0
 11 12  1  0  0  0
 11 39  1  0  0  0
 12 30  1  0  0  0
 12 13  2  0  0  0
 13 14  1  0  0  0
 13 40  1  0  0  0
 14 15  2  0  0  0
 15 29  1  0  0  0
 15 16  1  0  0  0
 16 17  1  0  0  0
 16 41  1  0  0  0
 17 28  1  0  0  0
 17 18  2  0  0  0
 18 19  1  0  0  0
 18 42  1  0  0  0
 19 22  2  0  0  0
 19 20  1  0  0  0
 20 21  1  0  0  0
 21 43  1  0  0  0
 21 44  1  0  0  0
 21 45  1  0  0  0
 22 25  1  0  0  0
 22 23  1  0  0  0
 23 24  1  0  0  0
 24 46  1  0  0  0
 24 47  1  0  0  0
 24 48  1  0  0  0
 25 28  2  0  0  0
 25 26  1  0  0  0
 26 27  1  0  0  0
 27 49  1  0  0  0
 27 50  1  0  0  0
 27 51  1  0  0  0
 28 52  1  0  0  0
 29 30  2  0  0  0
M  END
> <s_m_entry_id>
149

> <s_m_entry_name>
CHEMBL1975927.1

> <s_m_job_name>
mmod_csearch_26

> <s_lp_label>
 _5

> <r_mmod_Potential_Energy-MMFF94s>
267.178253

> <b_mmod_Minimization_Converged-MMFF94s>
1

> <r_mmod_RMS_Derivative-MMFF94s>
0.012841

> <i_mmod_Times_Found-MMFF94s>
118

> <r_mmod_Relative_Potential_Energy-MMFF94s>
0

> <i_mmod_Conformation-MMFF94s>
1

> <i_mmod_Serial_Number-MMFF94s>
5

$$$$
