CHEMBL1997119.smi
                    3D
 Structure written by MMmdl.
 27 29  0  0  1  0            999 V2000
    1.3788    0.0004    1.0899 N   0  0  0  0  0  0
    2.6966    0.0003    0.8408 C   0  0  0  0  0  0
    3.4912    1.0068    1.1283 N   0  0  0  0  0  0
    4.7421    0.6285    0.7274 C   0  0  0  0  0  0
    4.7222   -0.6317    0.1831 C   0  0  0  0  0  0
    5.6925   -1.5026   -0.3790 C   0  0  0  0  0  0
    5.3093   -2.7095   -0.8314 C   0  0  0  0  0  0
    3.9249   -3.1435   -0.7584 C   0  0  0  0  0  0
    2.9893   -2.3263   -0.2262 C   0  0  0  0  0  0
    1.6067   -2.8175   -0.1784 C   0  0  0  0  0  0
    0.7359   -2.5806   -1.2498 C   0  0  0  0  0  0
   -0.5802   -3.0424   -1.1998 C   0  0  0  0  0  0
   -1.0309   -3.7464   -0.0837 C   0  0  0  0  0  0
   -0.1673   -3.9923    0.9832 C   0  0  0  0  0  0
    1.1495   -3.5319    0.9364 C   0  0  0  0  0  0
    3.3929   -1.0577    0.2491 N   0  0  0  0  0  0
    0.7460   -0.7601    0.8788 H   0  0  0  0  0  0
    0.9679    0.8187    1.5234 H   0  0  0  0  0  0
    5.5922    1.2858    0.8526 H   0  0  0  0  0  0
    6.7295   -1.1871   -0.4378 H   0  0  0  0  0  0
    6.0319   -3.3939   -1.2656 H   0  0  0  0  0  0
    3.6839   -4.1307   -1.1422 H   0  0  0  0  0  0
    1.0765   -2.0302   -2.1245 H   0  0  0  0  0  0
   -1.2536   -2.8538   -2.0323 H   0  0  0  0  0  0
   -2.0561   -4.1069   -0.0466 H   0  0  0  0  0  0
   -0.5189   -4.5439    1.8516 H   0  0  0  0  0  0
    1.8143   -3.7272    1.7754 H   0  0  0  0  0  0
  1  2  1  0  0  0
  1 17  1  0  0  0
  1 18  1  0  0  0
  2 16  1  0  0  0
  2  3  2  0  0  0
  3  4  1  0  0  0
  4  5  2  0  0  0
  4 19  1  0  0  0
  5 16  1  0  0  0
  5  6  1  0  0  0
  6  7  2  0  0  0
  6 20  1  0  0  0
  7  8  1  0  0  0
  7 21  1  0  0  0
  8  9  2  0  0  0
  8 22  1  0  0  0
  9 16  1  0  0  0
  9 10  1  0  0  0
 10 11  2  0  0  0
 10 15  1  0  0  0
 11 12  1  0  0  0
 11 23  1  0  0  0
 12 13  2  0  0  0
 12 24  1  0  0  0
 13 14  1  0  0  0
 13 25  1  0  0  0
 14 15  2  0  0  0
 14 26  1  0  0  0
 15 27  1  0  0  0
M  END
> <s_m_entry_id>
783

> <s_m_job_name>
mmod_csearch_9

> <r_mmod_Potential_Energy-MMFF94s>
188.849655

> <b_mmod_Minimization_Converged-MMFF94s>
1

> <r_mmod_RMS_Derivative-MMFF94s>
0.006798

> <i_mmod_Times_Found-MMFF94s>
1996

> <r_mmod_Relative_Potential_Energy-MMFF94s>
0

> <i_mmod_Conformation-MMFF94s>
1

> <s_lp_label>
 _26

> <i_mmod_Serial_Number-MMFF94s>
26

$$$$
