CHEMBL1178727.smi
                    3D
 Structure written by MMmdl.
 21 23  0  0  1  0            999 V2000
    1.2303    0.2008   -0.0658 N   0  0  0  0  0  0
    2.5576    0.0405   -0.0660 C   0  0  0  0  0  0
    3.1405   -1.1407   -0.0640 N   0  0  0  0  0  0
    4.4986   -0.9582   -0.0649 C   0  0  0  0  0  0
    4.9128    0.3508   -0.0675 C   0  0  0  0  0  0
    6.3728    0.5396   -0.0685 C   0  0  0  0  0  0
    6.7630   -0.9216   -0.0659 C   0  0  0  0  0  0
    8.0469   -1.4480   -0.0654 C   0  0  0  0  0  0
    8.1987   -2.8394   -0.0629 C   0  0  0  0  0  0
    7.0816   -3.6933   -0.0608 C   0  0  0  0  0  0
    5.7880   -3.1704   -0.0612 C   0  0  0  0  0  0
    5.6363   -1.7738   -0.0638 C   0  0  0  0  0  0
    3.6224    1.4152   -0.0690 S   0  0  0  0  0  0
    0.7951    1.1121   -0.0673 H   0  0  0  0  0  0
    0.6306   -0.6139   -0.0640 H   0  0  0  0  0  0
    6.7274    1.0405   -0.9733 H   0  0  0  0  0  0
    6.7281    1.0439    0.8342 H   0  0  0  0  0  0
    8.9188   -0.8013   -0.0670 H   0  0  0  0  0  0
    9.1979   -3.2701   -0.0625 H   0  0  0  0  0  0
    7.2274   -4.7709   -0.0588 H   0  0  0  0  0  0
    4.9162   -3.8172   -0.0597 H   0  0  0  0  0  0
  1  2  1  0  0  0
  1 14  1  0  0  0
  1 15  1  0  0  0
  2 13  1  0  0  0
  2  3  2  0  0  0
  3  4  1  0  0  0
  4  5  2  0  0  0
  4 12  1  0  0  0
  5  6  1  0  0  0
  5 13  1  0  0  0
  6  7  1  0  0  0
  6 16  1  0  0  0
  6 17  1  0  0  0
  7  8  2  0  0  0
  7 12  1  0  0  0
  8  9  1  0  0  0
  8 18  1  0  0  0
  9 10  2  0  0  0
  9 19  1  0  0  0
 10 11  1  0  0  0
 10 20  1  0  0  0
 11 12  2  0  0  0
 11 21  1  0  0  0
M  END
> <s_m_entry_id>
128

> <s_m_entry_name>
CHEMBL1178727.1

> <s_m_job_name>
mmod_csearch_23

> <s_lp_label>
 _8

> <r_mmod_Potential_Energy-MMFF94s>
-10.366205

> <b_mmod_Minimization_Converged-MMFF94s>
1

> <r_mmod_RMS_Derivative-MMFF94s>
0.004126

> <i_mmod_Times_Found-MMFF94s>
500

> <r_mmod_Relative_Potential_Energy-MMFF94s>
0

> <i_mmod_Conformation-MMFF94s>
1

> <i_mmod_Serial_Number-MMFF94s>
8

$$$$
