CHEMBL1984402.smi
                    3D
 Structure written by MMmdl.
 31 32  0  0  1  0            999 V2000
    3.0011    1.5275   -1.4975 C   0  0  0  0  0  0
    3.3333    0.6075   -0.4247 N   0  0  0  0  0  0
    4.3878    0.9821    0.3659 N   0  0  0  0  0  0
    4.7393    0.1789    1.3195 C   0  0  0  0  0  0
    4.0345   -1.0784    1.6608 C   0  0  0  0  0  0
    3.0296   -1.4793    0.8668 C   0  0  0  0  0  0
    2.2721   -2.6252    1.0138 N   0  0  0  0  0  0
    2.6534   -0.5941   -0.3010 C   0  0  0  0  0  0
    1.7574   -0.9665   -1.0625 O   0  0  0  0  0  0
    4.2905   -1.8728    2.8885 C   0  0  0  0  0  0
    4.6289   -3.0541    2.8155 O   0  0  0  0  0  0
    4.0950   -1.1921    4.2186 C   0  0  0  0  0  0
    5.9336    0.5447    2.1227 C   0  0  0  0  0  0
    6.0163    1.8355    2.6565 C   0  0  0  0  0  0
    7.1288    2.2030    3.4137 C   0  0  0  0  0  0
    8.1615    1.2889    3.6253 C   0  0  0  0  0  0
    8.0908    0.0095    3.0726 C   0  0  0  0  0  0
    6.9810   -0.3644    2.3136 C   0  0  0  0  0  0
    2.0835    1.2340   -2.0137 H   0  0  0  0  0  0
    3.8268    1.5375   -2.2152 H   0  0  0  0  0  0
    2.8695    2.5293   -1.0779 H   0  0  0  0  0  0
    1.5995   -2.8215    0.2732 H   0  0  0  0  0  0
    2.5983   -3.3753    1.6167 H   0  0  0  0  0  0
    3.6629   -0.1953    4.0955 H   0  0  0  0  0  0
    5.0563   -1.1061    4.7308 H   0  0  0  0  0  0
    3.4038   -1.7865    4.8227 H   0  0  0  0  0  0
    5.2197    2.5558    2.4838 H   0  0  0  0  0  0
    7.1950    3.2044    3.8323 H   0  0  0  0  0  0
    9.0304    1.5787    4.2120 H   0  0  0  0  0  0
    8.9061   -0.6938    3.2260 H   0  0  0  0  0  0
    6.9550   -1.3570    1.8689 H   0  0  0  0  0  0
  1  2  1  0  0  0
  1 19  1  0  0  0
  1 20  1  0  0  0
  1 21  1  0  0  0
  2  8  1  0  0  0
  2  3  1  0  0  0
  3  4  2  0  0  0
  4  5  1  0  0  0
  4 13  1  0  0  0
  5  6  2  0  0  0
  5 10  1  0  0  0
  6  8  1  0  0  0
  6  7  1  0  0  0
  7 22  1  0  0  0
  7 23  1  0  0  0
  8  9  2  0  0  0
 10 12  1  0  0  0
 10 11  2  0  0  0
 12 24  1  0  0  0
 12 25  1  0  0  0
 12 26  1  0  0  0
 13 14  2  0  0  0
 13 18  1  0  0  0
 14 15  1  0  0  0
 14 27  1  0  0  0
 15 16  2  0  0  0
 15 28  1  0  0  0
 16 17  1  0  0  0
 16 29  1  0  0  0
 17 18  2  0  0  0
 17 30  1  0  0  0
 18 31  1  0  0  0
M  END
> <s_m_entry_id>
9973

> <s_m_job_name>
mmod_csearch_11

> <r_mmod_Potential_Energy-MMFF94s>
470.92041

> <b_mmod_Minimization_Converged-MMFF94s>
1

> <r_mmod_RMS_Derivative-MMFF94s>
0.0095

> <i_mmod_Times_Found-MMFF94s>
788

> <r_mmod_Relative_Potential_Energy-MMFF94s>
0

> <i_mmod_Conformation-MMFF94s>
1

> <s_lp_label>
 _42

> <i_mmod_Serial_Number-MMFF94s>
42

$$$$
