CHEMBL1983348.smi
                    3D
 Structure written by MMmdl.
 51 54  0  0  1  0            999 V2000
    5.5195    2.7538    9.5858 C   0  0  0  0  0  0
    6.5632    2.2589    8.5975 C   0  0  0  0  0  0
    6.7345    0.7428    8.6769 C   0  0  0  0  0  0
    7.7863    0.2508    7.6807 C   0  0  0  0  0  0
    7.9795   -1.2027    7.7727 N   0  0  0  0  0  0
    7.0429   -2.0627    7.0414 C   0  0  0  0  0  0
    7.6615   -2.7322    5.8121 C   0  0  0  0  0  0
    7.9480   -1.7522    4.7585 C   0  0  0  0  0  0
    8.1649   -0.9704    3.9284 N   0  0  0  0  0  0
    8.9408   -1.8281    8.5668 C   0  0  0  0  0  0
    9.0448   -3.0477    8.6662 O   0  0  0  0  0  0
    9.8920   -0.9921    9.3212 C   0  0  0  0  0  0
    9.6505   -0.7518   10.6779 C   0  0  0  0  0  0
   10.5378    0.0364   11.4219 C   0  0  0  0  0  0
   11.6718    0.5636   10.7832 C   0  0  0  0  0  0
   12.6712    1.3566   11.2907 N   0  0  0  0  0  0
   13.4991    1.5631   10.2854 C   0  0  0  0  0  0
   13.0627    0.9300    9.1495 N   0  0  0  0  0  0
   13.5538    0.9591    8.2672 H   0  0  0  0  0  0
   11.8893    0.2851    9.4365 C   0  0  0  0  0  0
   11.0285   -0.4966    8.6633 C   0  0  0  0  0  0
   14.7466    2.3613   10.3181 C   0  0  0  0  0  0
   15.5027    2.5055    9.2169 N   0  0  0  0  0  0
   16.5218    3.2770    9.6392 N   0  0  0  0  0  0
   17.2426    3.5294    8.9730 H   0  0  0  0  0  0
   16.4531    3.6350   10.9585 C   0  0  0  0  0  0
   17.3003    4.4127   11.7548 C   0  0  0  0  0  0
   16.9335    4.5869   13.0935 C   0  0  0  0  0  0
   15.7723    4.0076   13.6052 C   0  0  0  0  0  0
   14.9390    3.2329   12.7893 C   0  0  0  0  0  0
   15.2887    3.0444   11.4385 C   0  0  0  0  0  0
    5.4132    3.8407    9.5123 H   0  0  0  0  0  0
    5.8055    2.5092   10.6137 H   0  0  0  0  0  0
    4.5428    2.3025    9.3839 H   0  0  0  0  0  0
    7.5191    2.7530    8.8071 H   0  0  0  0  0  0
    6.2639    2.5471    7.5831 H   0  0  0  0  0  0
    5.7744    0.2521    8.4761 H   0  0  0  0  0  0
    7.0225    0.4573    9.6954 H   0  0  0  0  0  0
    8.7317    0.7681    7.8627 H   0  0  0  0  0  0
    7.4874    0.4946    6.6551 H   0  0  0  0  0  0
    6.1568   -1.4790    6.7648 H   0  0  0  0  0  0
    6.7054   -2.8466    7.7308 H   0  0  0  0  0  0
    6.9568   -3.4765    5.4236 H   0  0  0  0  0  0
    8.5793   -3.2683    6.0757 H   0  0  0  0  0  0
    8.7740   -1.1777   11.1604 H   0  0  0  0  0  0
   10.3647    0.2368   12.4737 H   0  0  0  0  0  0
   11.2206   -0.7085    7.6173 H   0  0  0  0  0  0
   18.2043    4.8646   11.3603 H   0  0  0  0  0  0
   17.5649    5.1847   13.7476 H   0  0  0  0  0  0
   15.5081    4.1566   14.6497 H   0  0  0  0  0  0
   14.0352    2.7826   13.1919 H   0  0  0  0  0  0
  1  2  1  0  0  0
  1 32  1  0  0  0
  1 33  1  0  0  0
  1 34  1  0  0  0
  2  3  1  0  0  0
  2 35  1  0  0  0
  2 36  1  0  0  0
  3  4  1  0  0  0
  3 37  1  0  0  0
  3 38  1  0  0  0
  4  5  1  0  0  0
  4 39  1  0  0  0
  4 40  1  0  0  0
  5 10  1  0  0  0
  5  6  1  0  0  0
  6  7  1  0  0  0
  6 41  1  0  0  0
  6 42  1  0  0  0
  7  8  1  0  0  0
  7 43  1  0  0  0
  7 44  1  0  0  0
  8  9  3  0  0  0
 10 12  1  0  0  0
 10 11  2  0  0  0
 12 13  2  0  0  0
 12 21  1  0  0  0
 13 14  1  0  0  0
 13 45  1  0  0  0
 14 15  2  0  0  0
 14 46  1  0  0  0
 15 16  1  0  0  0
 15 20  1  0  0  0
 16 17  2  0  0  0
 17 18  1  0  0  0
 17 22  1  0  0  0
 18 20  1  0  0  0
 18 19  1  0  0  0
 20 21  2  0  0  0
 21 47  1  0  0  0
 22 31  1  0  0  0
 22 23  2  0  0  0
 23 24  1  0  0  0
 24 26  1  0  0  0
 24 25  1  0  0  0
 26 31  1  0  0  0
 26 27  2  0  0  0
 27 28  1  0  0  0
 27 48  1  0  0  0
 28 29  2  0  0  0
 28 49  1  0  0  0
 29 30  1  0  0  0
 29 50  1  0  0  0
 30 31  2  0  0  0
 30 51  1  0  0  0
M  END
> <s_m_entry_id>
10077

> <s_m_job_name>
mmod_csearch_12

> <r_mmod_Potential_Energy-MMFF94s>
196.226501

> <b_mmod_Minimization_Converged-MMFF94s>
1

> <r_mmod_RMS_Derivative-MMFF94s>
0.009969

> <i_mmod_Times_Found-MMFF94s>
10

> <r_mmod_Relative_Potential_Energy-MMFF94s>
0

> <i_mmod_Conformation-MMFF94s>
1

> <s_lp_label>
 _46

> <i_mmod_Serial_Number-MMFF94s>
46

$$$$
