CHEMBL1991734.smi
                    3D
 Structure written by MMmdl.
 42 45  0  0  1  0            999 V2000
    1.0114   -0.0849    0.4751 C   0  0  0  0  0  0
    2.4428   -0.0469    0.1753 N   0  0  0  0  0  0
    3.0662    1.2099    0.0255 C   0  0  0  0  0  0
    2.3576    2.4075   -0.1575 C   0  0  0  0  0  0
    3.0161    3.6344   -0.3163 C   0  0  0  0  0  0
    4.4040    3.7086   -0.2857 C   0  0  0  0  0  0
    5.0542    4.9121   -0.4875 N   0  0  0  0  0  0
    5.1229    2.5246   -0.1460 C   0  0  0  0  0  0
    4.4709    1.2819    0.0130 C   0  0  0  0  0  0
    5.3041    0.0190    0.1914 C   0  0  0  0  0  0
    6.0632    0.0147    1.5208 C   0  0  0  0  0  0
    5.3784   -0.0212    2.7469 C   0  0  0  0  0  0
    6.0795   -0.0247    3.9535 C   0  0  0  0  0  0
    7.4724    0.0075    3.9515 C   0  0  0  0  0  0
    8.1663    0.0433    2.7435 C   0  0  0  0  0  0
    7.4675    0.0470    1.5349 C   0  0  0  0  0  0
    4.5300   -1.2746   -0.0288 C   0  0  0  0  0  0
    5.2386   -2.4800   -0.2279 C   0  0  0  0  0  0
    4.5750   -3.6907   -0.4069 C   0  0  0  0  0  0
    5.2800   -4.8557   -0.6474 N   0  0  0  0  0  0
    3.1852   -3.6798   -0.4361 C   0  0  0  0  0  0
    2.4708   -2.4905   -0.2377 C   0  0  0  0  0  0
    3.1235   -1.2681   -0.0151 C   0  0  0  0  0  0
    0.7369   -0.9652    1.0680 H   0  0  0  0  0  0
    0.4235   -0.0834   -0.4491 H   0  0  0  0  0  0
    0.6970    0.7618    1.0962 H   0  0  0  0  0  0
    1.2738    2.4171   -0.2122 H   0  0  0  0  0  0
    2.4240    4.5324   -0.4688 H   0  0  0  0  0  0
    4.5281    5.7748   -0.4895 H   0  0  0  0  0  0
    6.0547    4.9690   -0.3550 H   0  0  0  0  0  0
    6.2097    2.5564   -0.1505 H   0  0  0  0  0  0
    6.0390    0.0494   -0.6283 H   0  0  0  0  0  0
    4.2903   -0.0466    2.7631 H   0  0  0  0  0  0
    5.5361   -0.0527    4.8940 H   0  0  0  0  0  0
    8.0167    0.0047    4.8919 H   0  0  0  0  0  0
    9.2527    0.0685    2.7428 H   0  0  0  0  0  0
    8.0264    0.0751    0.6025 H   0  0  0  0  0  0
    6.3257   -2.4614   -0.2326 H   0  0  0  0  0  0
    6.2822   -4.8706   -0.5161 H   0  0  0  0  0  0
    4.7943   -5.7413   -0.6780 H   0  0  0  0  0  0
    2.6351   -4.5987   -0.6183 H   0  0  0  0  0  0
    1.3886   -2.5483   -0.2935 H   0  0  0  0  0  0
  1  2  1  0  0  0
  1 24  1  0  0  0
  1 25  1  0  0  0
  1 26  1  0  0  0
  2 23  1  0  0  0
  2  3  1  0  0  0
  3  9  1  0  0  0
  3  4  2  0  0  0
  4  5  1  0  0  0
  4 27  1  0  0  0
  5  6  2  0  0  0
  5 28  1  0  0  0
  6  8  1  0  0  0
  6  7  1  0  0  0
  7 29  1  0  0  0
  7 30  1  0  0  0
  8  9  2  0  0  0
  8 31  1  0  0  0
  9 10  1  0  0  0
 10 17  1  0  0  0
 10 11  1  0  0  0
 10 32  1  0  0  0
 11 12  2  0  0  0
 11 16  1  0  0  0
 12 13  1  0  0  0
 12 33  1  0  0  0
 13 14  2  0  0  0
 13 34  1  0  0  0
 14 15  1  0  0  0
 14 35  1  0  0  0
 15 16  2  0  0  0
 15 36  1  0  0  0
 16 37  1  0  0  0
 17 18  2  0  0  0
 17 23  1  0  0  0
 18 19  1  0  0  0
 18 38  1  0  0  0
 19 21  2  0  0  0
 19 20  1  0  0  0
 20 39  1  0  0  0
 20 40  1  0  0  0
 21 22  1  0  0  0
 21 41  1  0  0  0
 22 23  2  0  0  0
 22 42  1  0  0  0
M  END
> <s_m_entry_id>
9976

> <s_m_job_name>
mmod_csearch_11

> <r_mmod_Potential_Energy-MMFF94s>
214.447845

> <b_mmod_Minimization_Converged-MMFF94s>
1

> <r_mmod_RMS_Derivative-MMFF94s>
0.001594

> <i_mmod_Times_Found-MMFF94s>
1151

> <r_mmod_Relative_Potential_Energy-MMFF94s>
0

> <i_mmod_Conformation-MMFF94s>
1

> <s_lp_label>
 _45

> <i_mmod_Serial_Number-MMFF94s>
45

$$$$
