CHEMBL1965838.smi
                    3D
 Structure written by MMmdl.
 16 17  0  0  1  0            999 V2000
    1.2492    0.3478   -0.0958 C   0  0  0  0  0  0
    2.7002    0.0335   -0.0985 C   0  0  0  0  0  0
    3.2785   -1.1844   -0.0982 C   0  0  0  0  0  0
    5.0490   -1.1190   -0.1020 S   0  0  0  0  0  0
    4.9450    0.6090   -0.1040 C   0  0  0  0  0  0
    5.7932    1.5956   -0.1070 N   0  0  0  0  0  0
    4.9402    2.6635   -0.1066 C   0  0  0  0  0  0
    5.4636    3.8803   -0.1092 N   0  0  0  0  0  0
    3.6329    2.3872   -0.1035 N   0  0  0  0  0  0
    3.6503    1.0430   -0.1018 N   0  0  0  0  0  0
    0.6431   -0.5643   -0.0935 H   0  0  0  0  0  0
    0.9777    0.9270   -0.9844 H   0  0  0  0  0  0
    0.9814    0.9291    0.7925 H   0  0  0  0  0  0
    2.7544   -2.1317   -0.0958 H   0  0  0  0  0  0
    4.8778    4.7022   -0.1089 H   0  0  0  0  0  0
    6.4648    4.0122   -0.1114 H   0  0  0  0  0  0
  1  2  1  0  0  0
  1 11  1  0  0  0
  1 12  1  0  0  0
  1 13  1  0  0  0
  2  3  2  0  0  0
  2 10  1  0  0  0
  3  4  1  0  0  0
  3 14  1  0  0  0
  4  5  1  0  0  0
  5 10  1  0  0  0
  5  6  2  0  0  0
  6  7  1  0  0  0
  7  9  2  0  0  0
  7  8  1  0  0  0
  8 15  1  0  0  0
  8 16  1  0  0  0
  9 10  1  0  0  0
M  END
> <s_m_entry_id>
136

> <s_m_entry_name>
CHEMBL1965838.1

> <s_m_job_name>
mmod_csearch_24

> <s_lp_label>
 _8

> <r_mmod_Potential_Energy-MMFF94s>
-274.996643

> <b_mmod_Minimization_Converged-MMFF94s>
1

> <r_mmod_RMS_Derivative-MMFF94s>
0.006843

> <i_mmod_Times_Found-MMFF94s>
500

> <r_mmod_Relative_Potential_Energy-MMFF94s>
0

> <i_mmod_Conformation-MMFF94s>
1

> <i_mmod_Serial_Number-MMFF94s>
8

$$$$
