CHEMBL1989471.smi
                    3D
 Structure written by MMmdl.
 35 37  0  0  1  0            999 V2000
    0.9087    0.1288    0.0753 C   0  0  0  0  0  0
    2.4318    0.0126   -0.0225 C   0  0  0  0  0  0
    3.0282   -0.4758    1.2999 C   0  0  0  0  0  0
    2.8509   -0.8721   -1.1846 C   0  0  0  0  0  0
    3.6112   -0.3287   -2.2318 C   0  0  0  0  0  0
    4.0077   -1.1220   -3.3095 C   0  0  0  0  0  0
    3.6451   -2.4705   -3.3477 C   0  0  0  0  0  0
    4.0569   -3.3335   -4.4863 C   0  0  0  0  0  0
    4.7212   -2.8438   -5.3940 O   0  0  0  0  0  0
    3.6530   -4.7718   -4.4975 C   0  0  0  0  0  0
    3.9908   -5.6708   -5.5256 C   0  0  0  0  0  0
    4.7985   -5.2776   -6.7292 C   0  0  0  0  0  0
    3.5474   -6.9942   -5.4119 C   0  0  0  0  0  0
    2.8020   -7.3630   -4.3042 C   0  0  0  0  0  0
    2.4675   -6.5178   -3.3082 N   0  0  0  0  0  0
    2.8938   -5.2400   -3.4151 C   0  0  0  0  0  0
    2.5387   -4.3818   -2.3770 N   0  0  0  0  0  0
    2.8876   -3.0361   -2.3163 C   0  0  0  0  0  0
    2.4956   -2.2320   -1.2411 C   0  0  0  0  0  0
    0.4823    0.4896   -0.8674 H   0  0  0  0  0  0
    0.6266    0.8359    0.8629 H   0  0  0  0  0  0
    0.4380   -0.8326    0.3080 H   0  0  0  0  0  0
    2.8211    1.0247   -0.1965 H   0  0  0  0  0  0
    2.6450   -1.4622    1.5832 H   0  0  0  0  0  0
    2.7865    0.2197    2.1110 H   0  0  0  0  0  0
    4.1195   -0.5479    1.2342 H   0  0  0  0  0  0
    3.9021    0.7200   -2.2176 H   0  0  0  0  0  0
    4.5967   -0.6887   -4.1147 H   0  0  0  0  0  0
    4.2829   -4.4996   -7.3007 H   0  0  0  0  0  0
    4.9469   -6.1270   -7.4053 H   0  0  0  0  0  0
    5.7919   -4.9304   -6.4285 H   0  0  0  0  0  0
    3.7766   -7.7336   -6.1734 H   0  0  0  0  0  0
    2.4436   -8.3822   -4.1872 H   0  0  0  0  0  0
    1.9934   -4.8167   -1.6482 H   0  0  0  0  0  0
    1.9068   -2.6688   -0.4379 H   0  0  0  0  0  0
  1  2  1  0  0  0
  1 20  1  0  0  0
  1 21  1  0  0  0
  1 22  1  0  0  0
  2  4  1  0  0  0
  2  3  1  0  0  0
  2 23  1  0  0  0
  3 24  1  0  0  0
  3 25  1  0  0  0
  3 26  1  0  0  0
  4  5  2  0  0  0
  4 19  1  0  0  0
  5  6  1  0  0  0
  5 27  1  0  0  0
  6  7  2  0  0  0
  6 28  1  0  0  0
  7  8  1  0  0  0
  7 18  1  0  0  0
  8 10  1  0  0  0
  8  9  2  0  0  0
 10 11  2  0  0  0
 10 16  1  0  0  0
 11 13  1  0  0  0
 11 12  1  0  0  0
 12 29  1  0  0  0
 12 30  1  0  0  0
 12 31  1  0  0  0
 13 14  2  0  0  0
 13 32  1  0  0  0
 14 15  1  0  0  0
 14 33  1  0  0  0
 15 16  2  0  0  0
 16 17  1  0  0  0
 17 18  1  0  0  0
 17 34  1  0  0  0
 18 19  2  0  0  0
 19 35  1  0  0  0
M  END
> <s_m_entry_id>
10137

> <s_m_job_name>
mmod_csearch_13

> <r_mmod_Potential_Energy-MMFF94s>
193.58548

> <b_mmod_Minimization_Converged-MMFF94s>
1

> <r_mmod_RMS_Derivative-MMFF94s>
0.006406

> <i_mmod_Times_Found-MMFF94s>
261

> <r_mmod_Relative_Potential_Energy-MMFF94s>
0

> <i_mmod_Conformation-MMFF94s>
1

> <s_lp_label>
 _6

> <i_mmod_Serial_Number-MMFF94s>
6

$$$$
