CHEMBL1969151.smi
                    3D
 Structure written by MMmdl.
 49 52  0  0  1  0            999 V2000
    1.6964    3.1062    2.2274 C   0  0  0  0  0  0
    2.2904    1.7630    2.1904 N   0  0  0  0  0  0
    1.3635    0.8320    2.8481 C   0  0  0  0  0  0
    2.6232    1.3350    0.8040 C   0  0  1  0  0  0
    3.6125    2.2943    0.1026 C   0  0  0  0  0  0
    4.9855    2.3127    0.7821 C   0  0  0  0  0  0
    5.6151    0.9151    0.9025 C   0  0  1  0  0  0
    4.6214   -0.1148    1.4596 C   0  0  0  0  0  0
    3.2658   -0.0704    0.7488 C   0  0  0  0  0  0
    6.0948    0.4963   -0.4004 N   0  0  0  0  0  0
    7.1186   -0.3913   -0.5742 C   0  0  0  0  0  0
    7.3789   -0.7339   -1.8336 N   0  0  0  0  0  0
    8.3804   -1.6056   -2.0074 C   0  0  0  0  0  0
    8.6747   -2.0232   -3.6475 Cl  0  0  0  0  0  0
    9.1366   -2.1520   -1.0070 C   0  0  0  0  0  0
    8.7962   -1.7373    0.2553 C   0  0  0  0  0  0
    7.7906   -0.8680    0.4792 N   0  0  0  0  0  0
    9.4993   -2.2140    1.4445 C   0  0  0  0  0  0
   10.7743   -2.7630    1.4294 C   0  0  0  0  0  0
   11.1213   -3.0862    2.7174 N   0  0  0  0  0  0
   11.9908   -3.4979    3.0233 H   0  0  0  0  0  0
   10.1069   -2.7572    3.5686 C   0  0  0  0  0  0
   10.1470   -2.9521    4.8995 N   0  0  0  0  0  0
    9.0211   -2.5382    5.5242 C   0  0  0  0  0  0
    7.9149   -1.9702    4.9077 C   0  0  0  0  0  0
    7.9299   -1.7952    3.5237 C   0  0  0  0  0  0
    9.0759   -2.2040    2.8163 C   0  0  0  0  0  0
    0.8151    3.1843    1.5809 H   0  0  0  0  0  0
    2.4199    3.8733    1.9368 H   0  0  0  0  0  0
    1.3949    3.3701    3.2482 H   0  0  0  0  0  0
    0.4481    0.6819    2.2647 H   0  0  0  0  0  0
    1.0787    1.2028    3.8401 H   0  0  0  0  0  0
    1.8321   -0.1393    3.0307 H   0  0  0  0  0  0
    1.6997    1.3082    0.2096 H   0  0  0  0  0  0
    3.2148    3.3127    0.0436 H   0  0  0  0  0  0
    3.7300    1.9786   -0.9424 H   0  0  0  0  0  0
    5.6537    2.9807    0.2244 H   0  0  0  0  0  0
    4.8838    2.7435    1.7859 H   0  0  0  0  0  0
    6.4634    1.0050    1.5930 H   0  0  0  0  0  0
    5.0304   -1.1291    1.3814 H   0  0  0  0  0  0
    4.4761    0.0757    2.5301 H   0  0  0  0  0  0
    3.4014   -0.3587   -0.3023 H   0  0  0  0  0  0
    2.6018   -0.8338    1.1674 H   0  0  0  0  0  0
    5.6298    0.7668   -1.2529 H   0  0  0  0  0  0
    9.9260   -2.8582   -1.2118 H   0  0  0  0  0  0
   11.4763   -2.9448    0.6269 H   0  0  0  0  0  0
    9.0274   -2.6819    6.6023 H   0  0  0  0  0  0
    7.0536   -1.6667    5.4924 H   0  0  0  0  0  0
    7.0831   -1.3539    3.0095 H   0  0  0  0  0  0
  1  2  1  0  0  0
  1 28  1  0  0  0
  1 29  1  0  0  0
  1 30  1  0  0  0
  2  4  1  0  0  0
  2  3  1  0  0  0
  3 31  1  0  0  0
  3 32  1  0  0  0
  3 33  1  0  0  0
  4  9  1  0  0  0
  4  5  1  0  0  0
  4 34  1  0  0  0
  5  6  1  0  0  0
  5 35  1  0  0  0
  5 36  1  0  0  0
  6  7  1  0  0  0
  6 37  1  0  0  0
  6 38  1  0  0  0
  7  8  1  0  0  0
  7 10  1  0  0  0
  7 39  1  0  0  0
  8  9  1  0  0  0
  8 40  1  0  0  0
  8 41  1  0  0  0
  9 42  1  0  0  0
  9 43  1  0  0  0
 10 11  1  0  0  0
 10 44  1  0  0  0
 11 17  1  0  0  0
 11 12  2  0  0  0
 12 13  1  0  0  0
 13 15  2  0  0  0
 13 14  1  0  0  0
 15 16  1  0  0  0
 15 45  1  0  0  0
 16 17  2  0  0  0
 16 18  1  0  0  0
 18 27  1  0  0  0
 18 19  2  0  0  0
 19 20  1  0  0  0
 19 46  1  0  0  0
 20 22  1  0  0  0
 20 21  1  0  0  0
 22 27  1  0  0  0
 22 23  2  0  0  0
 23 24  1  0  0  0
 24 25  2  0  0  0
 24 47  1  0  0  0
 25 26  1  0  0  0
 25 48  1  0  0  0
 26 27  2  0  0  0
 26 49  1  0  0  0
M  END
> <s_m_entry_id>
9934

> <s_m_job_name>
mmod_csearch_11

> <r_mmod_Potential_Energy-MMFF94s>
-356.586426

> <b_mmod_Minimization_Converged-MMFF94s>
1

> <r_mmod_RMS_Derivative-MMFF94s>
0.007584

> <i_mmod_Times_Found-MMFF94s>
18

> <r_mmod_Relative_Potential_Energy-MMFF94s>
0

> <i_mmod_Conformation-MMFF94s>
1

> <s_lp_label>
 _3

> <i_mmod_Serial_Number-MMFF94s>
3

$$$$
