CHEMBL1975921.smi
                    3D
 Structure written by MMmdl.
 15 16  0  0  1  0            999 V2000
    1.0174   -0.0249    0.2180 Br  0  0  0  0  0  0
    2.9014    0.0571    0.1304 C   0  0  0  0  0  0
    3.6578   -1.1268    0.0783 C   0  0  0  0  0  0
    5.0166   -1.1748    0.0136 N   0  0  0  0  0  0
    5.5905    0.0292    0.0034 C   0  0  0  0  0  0
    6.9461    0.3053   -0.0566 N   0  0  0  0  0  0
    7.1314    1.6899   -0.0460 C   0  0  0  0  0  0
    8.1924    2.2856   -0.0877 O   0  0  0  0  0  0
    5.8560    2.2707    0.0221 N   0  0  0  0  0  0
    4.9168    1.2473    0.0521 C   0  0  0  0  0  0
    3.5468    1.2940    0.1173 C   0  0  0  0  0  0
    3.1728   -2.1004    0.0875 H   0  0  0  0  0  0
    7.6755   -0.3843   -0.1006 H   0  0  0  0  0  0
    5.6927    3.2645    0.0437 H   0  0  0  0  0  0
    3.0050    2.2300    0.1558 H   0  0  0  0  0  0
  1  2  1  0  0  0
  2  3  2  0  0  0
  2 11  1  0  0  0
  3  4  1  0  0  0
  3 12  1  0  0  0
  4  5  2  0  0  0
  5  6  1  0  0  0
  5 10  1  0  0  0
  6  7  1  0  0  0
  6 13  1  0  0  0
  7  9  1  0  0  0
  7  8  2  0  0  0
  9 10  1  0  0  0
  9 14  1  0  0  0
 10 11  2  0  0  0
 11 15  1  0  0  0
M  END
> <s_m_entry_id>
710

> <s_m_job_name>
mmod_csearch_9

> <r_mmod_Potential_Energy-MMFF94s>
-171.250427

> <b_mmod_Minimization_Converged-MMFF94s>
1

> <r_mmod_RMS_Derivative-MMFF94s>
0.001209

> <i_mmod_Times_Found-MMFF94s>
1

> <r_mmod_Relative_Potential_Energy-MMFF94s>
0

> <i_mmod_Conformation-MMFF94s>
1

> <s_lp_label>
 _4

> <i_mmod_Serial_Number-MMFF94s>
4

$$$$
