CHEMBL1964948.smi
                    3D
 Structure written by MMmdl.
 77 80  0  0  1  0            999 V2000
   17.6232    6.3519  -10.6297 C   0  0  0  0  0  0
   16.6957    6.5456  -11.7603 N   0  0  0  0  0  0
   17.5110    6.7272  -12.9772 C   0  0  0  0  0  0
   15.8383    5.3487  -11.9283 C   0  0  0  0  0  0
   14.7530    5.2050  -10.8503 C   0  0  0  0  0  0
   13.8117    6.4081  -10.8244 C   0  0  0  0  0  0
   12.8081    6.3361   -9.7628 N   0  0  0  0  0  0
   11.4866    5.8734  -10.1633 C   0  0  0  0  0  0
   13.0302    6.5846   -8.4062 C   0  0  0  0  0  0
   12.1629    6.4394   -7.5460 O   0  0  0  0  0  0
   14.3761    6.9806   -7.9258 C   0  0  0  0  0  0
   14.9475    6.2036   -6.9095 C   0  0  0  0  0  0
   16.1739    6.5646   -6.3570 C   0  0  0  0  0  0
   16.8358    7.7010   -6.8215 C   0  0  0  0  0  0
   16.2797    8.4772   -7.8525 C   0  0  0  0  0  0
   15.0253    8.1360   -8.3791 C   0  0  0  0  0  0
   16.9833    9.6319   -8.2993 N   0  0  0  0  0  0
   17.8715   10.2301   -7.4641 N   0  0  0  0  0  0
   18.1167   11.4234   -8.0154 C   0  0  0  0  0  0
   17.5200   11.5172   -9.2945 C   0  0  0  0  0  0
   16.9047   10.3033   -9.5196 C   0  0  0  0  0  0
   16.3644    9.7647  -10.6858 N   0  0  0  0  0  0
   16.2288   10.4908  -11.8653 C   0  0  0  0  0  0
   16.4974   11.6808  -11.9756 O   0  0  0  0  0  0
   15.7184    9.6899  -12.8776 N   0  0  0  0  0  0
   15.4662   10.0461  -14.2328 C   0  0  0  0  0  0
   15.9326   11.2565  -14.7633 C   0  0  0  0  0  0
   15.7265   11.5847  -16.1009 C   0  0  0  0  0  0
   15.0504   10.7055  -16.9363 C   0  0  0  0  0  0
   14.5597    9.4901  -16.4467 C   0  0  0  0  0  0
   13.8715    8.6272  -17.3163 C   0  0  0  0  0  0
   13.3505    7.4171  -16.8668 C   0  0  0  0  0  0
   13.5058    7.0582  -15.5373 C   0  0  0  0  0  0
   14.1905    7.9072  -14.6624 C   0  0  0  0  0  0
   14.7516    9.1402  -15.0826 C   0  0  0  0  0  0
   18.9933   12.4547   -7.3225 C   0  0  0  0  0  0
   18.2963   13.8310   -7.3185 C   0  0  0  0  0  0
   19.2876   12.0745   -5.8549 C   0  0  0  0  0  0
   20.3377   12.5777   -8.0664 C   0  0  0  0  0  0
   17.0817    6.2257   -9.6898 H   0  0  0  0  0  0
   18.2600    7.2350  -10.5051 H   0  0  0  0  0  0
   18.2713    5.4787  -10.7686 H   0  0  0  0  0  0
   18.1367    7.6221  -12.8865 H   0  0  0  0  0  0
   16.8723    6.8776  -13.8529 H   0  0  0  0  0  0
   18.1612    5.8665  -13.1734 H   0  0  0  0  0  0
   16.4458    4.4345  -11.9556 H   0  0  0  0  0  0
   15.3248    5.4071  -12.8968 H   0  0  0  0  0  0
   15.2088    5.0413   -9.8690 H   0  0  0  0  0  0
   14.1691    4.2997  -11.0596 H   0  0  0  0  0  0
   13.2860    6.4834  -11.7834 H   0  0  0  0  0  0
   14.3697    7.3367  -10.7178 H   0  0  0  0  0  0
   10.7835    5.8343   -9.3279 H   0  0  0  0  0  0
   11.5809    4.8705  -10.5903 H   0  0  0  0  0  0
   11.0900    6.5563  -10.9207 H   0  0  0  0  0  0
   14.4189    5.3313   -6.5293 H   0  0  0  0  0  0
   16.6074    5.9718   -5.5552 H   0  0  0  0  0  0
   17.7918    7.9715   -6.3739 H   0  0  0  0  0  0
   14.5108    8.7905   -9.0767 H   0  0  0  0  0  0
   17.6223   12.3363   -9.9928 H   0  0  0  0  0  0
   16.1511    8.7756  -10.7046 H   0  0  0  0  0  0
   15.5117    8.7407  -12.6132 H   0  0  0  0  0  0
   16.4883   11.9701  -14.1638 H   0  0  0  0  0  0
   16.1024   12.5279  -16.4894 H   0  0  0  0  0  0
   14.9050   10.9837  -17.9782 H   0  0  0  0  0  0
   13.7302    8.8978  -18.3613 H   0  0  0  0  0  0
   12.8179    6.7647  -17.5536 H   0  0  0  0  0  0
   13.0904    6.1216  -15.1752 H   0  0  0  0  0  0
   14.2658    7.5862  -13.6311 H   0  0  0  0  0  0
   18.1217   14.2003   -8.3356 H   0  0  0  0  0  0
   18.9025   14.5818   -6.7986 H   0  0  0  0  0  0
   17.3231   13.7798   -6.8160 H   0  0  0  0  0  0
   19.8288   11.1234   -5.7860 H   0  0  0  0  0  0
   18.3621   11.9731   -5.2758 H   0  0  0  0  0  0
   19.9035   12.8368   -5.3637 H   0  0  0  0  0  0
   20.8661   11.6172   -8.0902 H   0  0  0  0  0  0
   20.9945   13.3094   -7.5824 H   0  0  0  0  0  0
   20.1948   12.8978   -9.1051 H   0  0  0  0  0  0
  1  2  1  0  0  0
  1 40  1  0  0  0
  1 41  1  0  0  0
  1 42  1  0  0  0
  2  4  1  0  0  0
  2  3  1  0  0  0
  3 43  1  0  0  0
  3 44  1  0  0  0
  3 45  1  0  0  0
  4  5  1  0  0  0
  4 46  1  0  0  0
  4 47  1  0  0  0
  5  6  1  0  0  0
  5 48  1  0  0  0
  5 49  1  0  0  0
  6  7  1  0  0  0
  6 50  1  0  0  0
  6 51  1  0  0  0
  7  9  1  0  0  0
  7  8  1  0  0  0
  8 52  1  0  0  0
  8 53  1  0  0  0
  8 54  1  0  0  0
  9 11  1  0  0  0
  9 10  2  0  0  0
 11 12  2  0  0  0
 11 16  1  0  0  0
 12 13  1  0  0  0
 12 55  1  0  0  0
 13 14  2  0  0  0
 13 56  1  0  0  0
 14 15  1  0  0  0
 14 57  1  0  0  0
 15 16  2  0  0  0
 15 17  1  0  0  0
 16 58  1  0  0  0
 17 18  1  0  0  0
 17 21  1  0  0  0
 18 19  2  0  0  0
 19 20  1  0  0  0
 19 36  1  0  0  0
 20 21  2  0  0  0
 20 59  1  0  0  0
 21 22  1  0  0  0
 22 23  1  0  0  0
 22 60  1  0  0  0
 23 25  1  0  0  0
 23 24  2  0  0  0
 25 26  1  0  0  0
 25 61  1  0  0  0
 26 27  2  0  0  0
 26 35  1  0  0  0
 27 28  1  0  0  0
 27 62  1  0  0  0
 28 29  2  0  0  0
 28 63  1  0  0  0
 29 30  1  0  0  0
 29 64  1  0  0  0
 30 31  2  0  0  0
 30 35  1  0  0  0
 31 32  1  0  0  0
 31 65  1  0  0  0
 32 33  2  0  0  0
 32 66  1  0  0  0
 33 34  1  0  0  0
 33 67  1  0  0  0
 34 35  2  0  0  0
 34 68  1  0  0  0
 36 39  1  0  0  0
 36 38  1  0  0  0
 36 37  1  0  0  0
 37 69  1  0  0  0
 37 70  1  0  0  0
 37 71  1  0  0  0
 38 72  1  0  0  0
 38 73  1  0  0  0
 38 74  1  0  0  0
 39 75  1  0  0  0
 39 76  1  0  0  0
 39 77  1  0  0  0
M  END
> <s_m_entry_id>
135

> <s_m_entry_name>
CHEMBL1964948.1

> <s_m_job_name>
mmod_csearch_24

> <s_lp_label>
 _7

> <r_mmod_Potential_Energy-MMFF94s>
310.950836

> <b_mmod_Minimization_Converged-MMFF94s>
1

> <r_mmod_RMS_Derivative-MMFF94s>
0.014395

> <i_mmod_Times_Found-MMFF94s>
75

> <r_mmod_Relative_Potential_Energy-MMFF94s>
0

> <i_mmod_Conformation-MMFF94s>
1

> <i_mmod_Serial_Number-MMFF94s>
7

$$$$
