CHEMBL24828.smi
                    3D
 Structure written by MMmdl.
 54 57  0  0  1  0            999 V2000
    4.4031  -16.9043   -4.9002 C   0  0  0  0  0  0
    3.0440  -17.1856   -5.2114 O   0  0  0  0  0  0
    2.7564  -18.3976   -5.7801 C   0  0  0  0  0  0
    3.7177  -19.3692   -6.0764 C   0  0  0  0  0  0
    3.3278  -20.6046   -6.6107 C   0  0  0  0  0  0
    4.3276  -21.6660   -6.9365 C   0  0  0  0  0  0
    5.5887  -21.4342   -6.7223 N   0  0  0  0  0  0
    6.5231  -22.4251   -7.0670 C   0  0  0  0  0  0
    7.0615  -23.2407   -6.0669 C   0  0  0  0  0  0
    8.0116  -24.2167   -6.3820 C   0  0  0  0  0  0
    8.4338  -24.3707   -7.7030 C   0  0  0  0  0  0
    9.7187  -25.6908   -8.1274 Br  0  0  0  0  0  0
    7.9215  -23.5579   -8.7100 C   0  0  0  0  0  0
    6.9753  -22.5898   -8.3839 C   0  0  0  0  0  0
    6.5015  -21.8028   -9.3634 F   0  0  0  0  0  0
    3.9006  -22.8775   -7.4478 N   0  0  0  0  0  0
    2.6345  -23.0348   -7.6340 C   0  0  0  0  0  0
    1.6411  -22.1399   -7.3776 N   0  0  0  0  0  0
    1.9814  -20.8935   -6.8538 C   0  0  0  0  0  0
    1.0222  -19.9268   -6.5639 C   0  0  0  0  0  0
    1.4040  -18.6785   -6.0526 C   0  0  0  0  0  0
    0.3505  -17.8337   -5.8034 O   0  0  0  0  0  0
    0.5440  -16.4859   -6.2486 C   0  0  0  0  0  0
   -0.8217  -15.8955   -6.6251 C   0  0  0  0  0  0
   -0.6926  -14.4093   -6.9760 C   0  0  0  0  0  0
   -2.0260  -13.8281   -7.4476 C   0  0  0  0  0  0
   -2.5525  -14.5823   -8.5924 N   0  0  0  0  0  0
   -3.7969  -13.9805   -9.0718 C   0  0  0  0  0  0
   -2.7666  -15.9926   -8.2427 C   0  0  0  0  0  0
   -1.4612  -16.6536   -7.7974 C   0  0  0  0  0  0
    5.0189  -16.8839   -5.8053 H   0  0  0  0  0  0
    4.7962  -17.6157   -4.1665 H   0  0  0  0  0  0
    4.4422  -15.9076   -4.4500 H   0  0  0  0  0  0
    4.7745  -19.2002   -5.8968 H   0  0  0  0  0  0
    6.7305  -23.1149   -5.0397 H   0  0  0  0  0  0
    8.4127  -24.8466   -5.5924 H   0  0  0  0  0  0
    8.2422  -23.6582   -9.7411 H   0  0  0  0  0  0
    2.2575  -23.9865   -8.0441 H   0  0  0  0  0  0
    0.6727  -22.3586   -7.5622 H   0  0  0  0  0  0
   -0.0323  -20.1220   -6.7387 H   0  0  0  0  0  0
    1.2189  -16.4366   -7.1135 H   0  0  0  0  0  0
    0.9663  -15.9017   -5.4235 H   0  0  0  0  0  0
   -1.4914  -15.9985   -5.7599 H   0  0  0  0  0  0
    0.0615  -14.2741   -7.7626 H   0  0  0  0  0  0
   -0.3422  -13.8482   -6.1013 H   0  0  0  0  0  0
   -2.7428  -13.8255   -6.6158 H   0  0  0  0  0  0
   -1.8589  -12.7832   -7.7363 H   0  0  0  0  0  0
   -4.5836  -13.9916   -8.3087 H   0  0  0  0  0  0
   -4.1660  -14.5125   -9.9557 H   0  0  0  0  0  0
   -3.6288  -12.9422   -9.3790 H   0  0  0  0  0  0
   -3.5188  -16.0899   -7.4487 H   0  0  0  0  0  0
   -3.1436  -16.5384   -9.1162 H   0  0  0  0  0  0
   -1.6662  -17.6921   -7.5120 H   0  0  0  0  0  0
   -0.7635  -16.6889   -8.6445 H   0  0  0  0  0  0
  1  2  1  0  0  0
  1 31  1  0  0  0
  1 32  1  0  0  0
  1 33  1  0  0  0
  2  3  1  0  0  0
  3 21  1  0  0  0
  3  4  2  0  0  0
  4  5  1  0  0  0
  4 34  1  0  0  0
  5 19  2  0  0  0
  5  6  1  0  0  0
  6 16  1  0  0  0
  6  7  2  0  0  0
  7  8  1  0  0  0
  8  9  2  0  0  0
  8 14  1  0  0  0
  9 10  1  0  0  0
  9 35  1  0  0  0
 10 11  2  0  0  0
 10 36  1  0  0  0
 11 13  1  0  0  0
 11 12  1  0  0  0
 13 14  2  0  0  0
 13 37  1  0  0  0
 14 15  1  0  0  0
 16 17  2  0  0  0
 17 18  1  0  0  0
 17 38  1  0  0  0
 18 19  1  0  0  0
 18 39  1  0  0  0
 19 20  1  0  0  0
 20 21  2  0  0  0
 20 40  1  0  0  0
 21 22  1  0  0  0
 22 23  1  0  0  0
 23 24  1  0  0  0
 23 41  1  0  0  0
 23 42  1  0  0  0
 24 30  1  0  0  0
 24 25  1  0  0  0
 24 43  1  0  0  0
 25 26  1  0  0  0
 25 44  1  0  0  0
 25 45  1  0  0  0
 26 27  1  0  0  0
 26 46  1  0  0  0
 26 47  1  0  0  0
 27 29  1  0  0  0
 27 28  1  0  0  0
 28 48  1  0  0  0
 28 49  1  0  0  0
 28 50  1  0  0  0
 29 30  1  0  0  0
 29 51  1  0  0  0
 29 52  1  0  0  0
 30 53  1  0  0  0
 30 54  1  0  0  0
M  END
> <s_m_entry_id>
106

> <s_m_entry_name>
CHEMBL24828.1

> <s_m_job_name>
mmod_csearch_21

> <s_lp_label>
 _2

> <r_mmod_Potential_Energy-MMFF94s>
167.673309

> <b_mmod_Minimization_Converged-MMFF94s>
1

> <r_mmod_RMS_Derivative-MMFF94s>
0.009945

> <i_mmod_Times_Found-MMFF94s>
126

> <r_mmod_Relative_Potential_Energy-MMFF94s>
0

> <i_mmod_Conformation-MMFF94s>
1

> <i_mmod_Serial_Number-MMFF94s>
2

$$$$
