CHEMBL1992937.smi
                    3D
 Structure written by MMmdl.
 31 33  0  0  1  0            999 V2000
    0.6626    0.7946   -0.7501 C   0  0  0  0  0  0
    2.1197    0.4915   -0.6098 C   0  0  0  0  0  0
    2.9183    0.2275   -1.7179 C   0  0  0  0  0  0
    4.2804   -0.0171   -1.5438 C   0  0  0  0  0  0
    4.8322    0.0143   -0.2635 C   0  0  0  0  0  0
    6.2074   -0.2342   -0.1179 N   0  0  0  0  0  0
    6.9252   -0.2354    1.0195 C   0  0  0  0  0  0
    8.2110   -0.4750    1.1443 N   0  0  0  0  0  0
    8.4779   -0.3612    2.4863 C   0  0  0  0  0  0
    9.6919   -0.5166    3.1735 C   0  0  0  0  0  0
    9.7088   -0.3474    4.5658 C   0  0  0  0  0  0
    8.5278   -0.0279    5.2553 C   0  0  0  0  0  0
    7.2994    0.1328    4.5870 C   0  0  0  0  0  0
    7.3268   -0.0444    3.2005 C   0  0  0  0  0  0
    6.3556    0.0288    2.2387 N   0  0  0  0  0  0
    5.3714    0.2363    2.3517 H   0  0  0  0  0  0
    8.5716    0.1444    6.7155 N   0  3  0  0  0  0
    7.5127    0.4267    7.2950 O   0  0  0  0  0  0
    9.6639   -0.0024    7.2823 O   0  5  0  0  0  0
    4.0667    0.2869    0.8222 N   0  0  0  0  0  0
    2.7463    0.5207    0.6276 C   0  0  0  0  0  0
    0.1086    0.4699    0.1370 H   0  0  0  0  0  0
    0.2352    0.2685   -1.6102 H   0  0  0  0  0  0
    0.5141    1.8704   -0.8852 H   0  0  0  0  0  0
    2.4928    0.2094   -2.7181 H   0  0  0  0  0  0
    4.8988   -0.2274   -2.4105 H   0  0  0  0  0  0
    6.7088   -0.4479   -0.9688 H   0  0  0  0  0  0
   10.5961   -0.7637    2.6268 H   0  0  0  0  0  0
   10.6536   -0.4694    5.0926 H   0  0  0  0  0  0
    6.3782    0.3795    5.1052 H   0  0  0  0  0  0
    2.1872    0.7411    1.5337 H   0  0  0  0  0  0
  1  2  1  0  0  0
  1 22  1  0  0  0
  1 23  1  0  0  0
  1 24  1  0  0  0
  2  3  2  0  0  0
  2 21  1  0  0  0
  3  4  1  0  0  0
  3 25  1  0  0  0
  4  5  2  0  0  0
  4 26  1  0  0  0
  5 20  1  0  0  0
  5  6  1  0  0  0
  6  7  1  0  0  0
  6 27  1  0  0  0
  7  8  2  0  0  0
  7 15  1  0  0  0
  8  9  1  0  0  0
  9 10  2  0  0  0
  9 14  1  0  0  0
 10 11  1  0  0  0
 10 28  1  0  0  0
 11 12  2  0  0  0
 11 29  1  0  0  0
 12 13  1  0  0  0
 12 17  1  0  0  0
 13 14  2  0  0  0
 13 30  1  0  0  0
 14 15  1  0  0  0
 15 16  1  0  0  0
 17 19  1  0  0  0
 17 18  2  0  0  0
 20 21  2  0  0  0
 21 31  1  0  0  0
M  CHG  2  17   1  19  -1
M  END
> <s_m_entry_id>
9882

> <s_m_job_name>
mmod_csearch_10

> <r_mmod_Potential_Energy-MMFF94s>
16.64381

> <b_mmod_Minimization_Converged-MMFF94s>
1

> <r_mmod_RMS_Derivative-MMFF94s>
0.009446

> <i_mmod_Times_Found-MMFF94s>
1229

> <r_mmod_Relative_Potential_Energy-MMFF94s>
0

> <i_mmod_Conformation-MMFF94s>
1

> <s_lp_label>
 _51

> <i_mmod_Serial_Number-MMFF94s>
51

$$$$
