CHEMBL117697.smi
                    3D
 Structure written by MMmdl.
 32 34  0  0  1  0            999 V2000
   13.0801   -3.4618   -1.4687 C   0  0  0  0  0  0
   12.9837   -4.1422   -2.7142 O   0  0  0  0  0  0
   11.8296   -3.9653   -3.4279 C   0  0  0  0  0  0
   11.7672   -4.6850   -4.6219 C   0  0  0  0  0  0
   10.6474   -4.5918   -5.4456 C   0  0  0  0  0  0
    9.5787   -3.7774   -5.0725 C   0  0  0  0  0  0
    9.6151   -3.0509   -3.8756 C   0  0  0  0  0  0
    8.5070   -2.2519   -3.5400 N   0  0  0  0  0  0
    8.0747   -1.7094   -2.3238 C   0  0  0  0  0  0
    7.6600   -0.4323   -2.4278 N   0  0  0  0  0  0
    7.3073    0.1753   -1.2921 C   0  0  0  0  0  0
    7.3123   -0.3671   -0.0715 N   0  0  0  0  0  0
    7.6702   -1.6513    0.0124 C   0  0  0  0  0  0
    7.6423   -2.2572    1.2632 C   0  0  0  0  0  0
    7.9613   -3.6052    1.4420 C   0  0  0  0  0  0
    8.3056   -4.3786    0.3443 C   0  0  0  0  0  0
    8.3450   -3.7912   -0.9186 C   0  0  0  0  0  0
    8.0565   -2.4114   -1.1016 C   0  0  0  0  0  0
   10.7562   -3.1473   -3.0640 C   0  0  0  0  0  0
   13.0673   -2.3762   -1.6111 H   0  0  0  0  0  0
   14.0410   -3.7265   -1.0172 H   0  0  0  0  0  0
   12.2899   -3.7811   -0.7809 H   0  0  0  0  0  0
   12.5999   -5.3212   -4.9119 H   0  0  0  0  0  0
   10.6066   -5.1551   -6.3739 H   0  0  0  0  0  0
    8.7050   -3.7218   -5.7177 H   0  0  0  0  0  0
    8.2321   -1.6286   -4.2934 H   0  0  0  0  0  0
    6.9905    1.2099   -1.3669 H   0  0  0  0  0  0
    7.3514   -1.6629    2.1271 H   0  0  0  0  0  0
    7.9225   -4.0461    2.4346 H   0  0  0  0  0  0
    8.5346   -5.4345    0.4636 H   0  0  0  0  0  0
    8.5845   -4.4211   -1.7720 H   0  0  0  0  0  0
   10.7973   -2.5580   -2.1549 H   0  0  0  0  0  0
  1  2  1  0  0  0
  1 20  1  0  0  0
  1 21  1  0  0  0
  1 22  1  0  0  0
  2  3  1  0  0  0
  3  4  2  0  0  0
  3 19  1  0  0  0
  4  5  1  0  0  0
  4 23  1  0  0  0
  5  6  2  0  0  0
  5 24  1  0  0  0
  6  7  1  0  0  0
  6 25  1  0  0  0
  7 19  2  0  0  0
  7  8  1  0  0  0
  8  9  1  0  0  0
  8 26  1  0  0  0
  9 10  2  0  0  0
  9 18  1  0  0  0
 10 11  1  0  0  0
 11 12  2  0  0  0
 11 27  1  0  0  0
 12 13  1  0  0  0
 13 14  2  0  0  0
 13 18  1  0  0  0
 14 15  1  0  0  0
 14 28  1  0  0  0
 15 16  2  0  0  0
 15 29  1  0  0  0
 16 17  1  0  0  0
 16 30  1  0  0  0
 17 18  2  0  0  0
 17 31  1  0  0  0
 19 32  1  0  0  0
M  END
> <s_m_entry_id>
110

> <s_m_entry_name>
CHEMBL117697.1

> <s_m_job_name>
mmod_csearch_21

> <s_lp_label>
 _6

> <r_mmod_Potential_Energy-MMFF94s>
43.391605

> <b_mmod_Minimization_Converged-MMFF94s>
1

> <r_mmod_RMS_Derivative-MMFF94s>
0.00398

> <i_mmod_Times_Found-MMFF94s>
224

> <r_mmod_Relative_Potential_Energy-MMFF94s>
0

> <i_mmod_Conformation-MMFF94s>
1

> <i_mmod_Serial_Number-MMFF94s>
6

$$$$
