CHEMBL2002992.smi
                    3D
 Structure written by MMmdl.
 43 45  0  0  1  0            999 V2000
    1.6429   -1.7136    0.2266 C   0  0  0  0  0  0
    0.2851   -1.1408   -0.1857 C   0  0  1  0  0  0
   -0.7346   -1.6314    0.7443 N   0  0  0  0  0  0
    0.3065    0.4084   -0.2854 C   0  0  1  0  0  0
   -0.9917    0.9547   -0.9103 C   0  0  0  0  0  0
   -0.9465    2.4733   -1.0654 C   0  0  0  0  0  0
   -0.6824    3.1681    0.2753 C   0  0  1  0  0  0
    0.6064    2.6337    0.9115 C   0  0  0  0  0  0
    0.5838    1.1118    1.0566 C   0  0  0  0  0  0
   -0.6002    4.6886    0.1081 C   0  0  0  0  0  0
   -0.4652    5.2139   -0.9918 O   0  0  0  0  0  0
   -0.6930    5.3529    1.3197 N   0  0  0  0  0  0
   -0.6428    6.7453    1.5447 C   0  0  0  0  0  0
   -0.4826    7.6994    0.5374 C   0  0  0  0  0  0
   -0.4466    9.0470    0.8746 C   0  0  0  0  0  0
   -0.5538    9.5549    2.1220 N   0  0  0  0  0  0
   -0.7055    8.6029    3.0578 C   0  0  0  0  0  0
   -0.8353    8.8581    4.3951 N   0  0  0  0  0  0
   -0.8275    9.7884    4.7871 H   0  0  0  0  0  0
   -0.9720    7.6799    5.0825 C   0  0  0  0  0  0
   -0.9286    6.6511    4.1644 C   0  0  0  0  0  0
   -0.7592    7.2255    2.8687 C   0  0  0  0  0  0
    1.6406   -2.8073    0.1528 H   0  0  0  0  0  0
    1.9052   -1.4553    1.2579 H   0  0  0  0  0  0
    2.4366   -1.3418   -0.4300 H   0  0  0  0  0  0
    0.0520   -1.5416   -1.1804 H   0  0  0  0  0  0
   -0.6947   -2.6495    0.7889 H   0  0  0  0  0  0
   -1.6624   -1.4055    0.3890 H   0  0  0  0  0  0
    1.1270    0.6732   -0.9683 H   0  0  0  0  0  0
   -1.8581    0.6917   -0.2919 H   0  0  0  0  0  0
   -1.1511    0.4989   -1.8947 H   0  0  0  0  0  0
   -0.1674    2.7383   -1.7919 H   0  0  0  0  0  0
   -1.8963    2.8250   -1.4867 H   0  0  0  0  0  0
   -1.5270    2.9543    0.9449 H   0  0  0  0  0  0
    1.4709    2.9296    0.3027 H   0  0  0  0  0  0
    0.7619    3.0817    1.9002 H   0  0  0  0  0  0
    1.5488    0.7913    1.4638 H   0  0  0  0  0  0
   -0.1810    0.8388    1.7939 H   0  0  0  0  0  0
   -0.8149    4.7845    2.1481 H   0  0  0  0  0  0
   -0.3841    7.4292   -0.5069 H   0  0  0  0  0  0
   -0.3221    9.7945    0.0938 H   0  0  0  0  0  0
   -1.0873    7.6767    6.1582 H   0  0  0  0  0  0
   -1.0104    5.6001    4.4063 H   0  0  0  0  0  0
  1  2  1  0  0  0
  1 23  1  0  0  0
  1 24  1  0  0  0
  1 25  1  0  0  0
  2  4  1  0  0  0
  2  3  1  0  0  0
  2 26  1  0  0  0
  3 27  1  0  0  0
  3 28  1  0  0  0
  4  9  1  0  0  0
  4  5  1  0  0  0
  4 29  1  0  0  0
  5  6  1  0  0  0
  5 30  1  0  0  0
  5 31  1  0  0  0
  6  7  1  0  0  0
  6 32  1  0  0  0
  6 33  1  0  0  0
  7  8  1  0  0  0
  7 10  1  0  0  0
  7 34  1  0  0  0
  8  9  1  0  0  0
  8 35  1  0  0  0
  8 36  1  0  0  0
  9 37  1  0  0  0
  9 38  1  0  0  0
 10 12  1  0  0  0
 10 11  2  0  0  0
 12 13  1  0  0  0
 12 39  1  0  0  0
 13 14  2  0  0  0
 13 22  1  0  0  0
 14 15  1  0  0  0
 14 40  1  0  0  0
 15 16  2  0  0  0
 15 41  1  0  0  0
 16 17  1  0  0  0
 17 18  1  0  0  0
 17 22  2  0  0  0
 18 20  1  0  0  0
 18 19  1  0  0  0
 20 21  2  0  0  0
 20 42  1  0  0  0
 21 22  1  0  0  0
 21 43  1  0  0  0
M  END
> <s_m_entry_id>
202

> <s_m_entry_name>
CHEMBL2002992.1

> <s_m_job_name>
mmod_csearch_27

> <s_lp_label>
 _51

> <r_mmod_Potential_Energy-MMFF94s>
41.186516

> <b_mmod_Minimization_Converged-MMFF94s>
1

> <r_mmod_RMS_Derivative-MMFF94s>
0.012014

> <i_mmod_Times_Found-MMFF94s>
240

> <r_mmod_Relative_Potential_Energy-MMFF94s>
0

> <i_mmod_Conformation-MMFF94s>
1

> <i_mmod_Serial_Number-MMFF94s>
51

$$$$
