CHEMBL2000879.smi
                    3D
 Structure written by MMmdl.
 29 31  0  0  1  0            999 V2000
    5.5625   -5.3611   -2.2170 C   0  0  0  0  0  0
    4.5460   -6.5121   -2.0642 C   0  0  0  0  0  0
    5.2726   -7.8018   -1.9972 C   0  0  0  0  0  0
    4.7353   -9.0455   -2.1311 N   0  0  0  0  0  0
    3.7708   -9.3062   -2.3086 H   0  0  0  0  0  0
    5.6496  -10.0253   -1.9973 N   0  0  0  0  0  0
    6.7950   -9.3717   -1.7718 C   0  0  0  0  0  0
    6.6160   -7.9784   -1.7580 C   0  0  0  0  0  0
    7.5645   -6.8503   -1.5669 C   0  0  0  0  0  0
    6.7900   -5.5321   -1.2747 C   0  0  1  0  0  0
    7.7164   -4.3291   -1.3133 C   0  0  0  0  0  0
    8.0202   -3.6448   -0.1266 C   0  0  0  0  0  0
    8.8747   -2.5406   -0.1390 C   0  0  0  0  0  0
    9.4384   -2.1072   -1.3365 C   0  0  0  0  0  0
    9.1491   -2.7783   -2.5220 C   0  0  0  0  0  0
    8.2947   -3.8827   -2.5113 C   0  0  0  0  0  0
    5.8995   -5.3264   -3.2616 H   0  0  0  0  0  0
    5.0571   -4.4076   -2.0195 H   0  0  0  0  0  0
    3.8401   -6.4988   -2.9014 H   0  0  0  0  0  0
    3.9725   -6.3727   -1.1403 H   0  0  0  0  0  0
    7.7048   -9.9408   -1.6300 H   0  0  0  0  0  0
    8.1711   -6.7517   -2.4758 H   0  0  0  0  0  0
    8.2540   -7.0669   -0.7420 H   0  0  0  0  0  0
    6.3832   -5.6136   -0.2553 H   0  0  0  0  0  0
    7.5931   -3.9666    0.8209 H   0  0  0  0  0  0
    9.1007   -2.0192    0.7876 H   0  0  0  0  0  0
   10.1037   -1.2480   -1.3456 H   0  0  0  0  0  0
    9.5900   -2.4429   -3.4572 H   0  0  0  0  0  0
    8.0886   -4.3925   -3.4496 H   0  0  0  0  0  0
  1  2  1  0  0  0
  1 10  1  0  0  0
  1 17  1  0  0  0
  1 18  1  0  0  0
  2  3  1  0  0  0
  2 19  1  0  0  0
  2 20  1  0  0  0
  3  4  1  0  0  0
  3  8  2  0  0  0
  4  6  1  0  0  0
  4  5  1  0  0  0
  6  7  2  0  0  0
  7  8  1  0  0  0
  7 21  1  0  0  0
  8  9  1  0  0  0
  9 10  1  0  0  0
  9 22  1  0  0  0
  9 23  1  0  0  0
 10 11  1  0  0  0
 10 24  1  0  0  0
 11 12  2  0  0  0
 11 16  1  0  0  0
 12 13  1  0  0  0
 12 25  1  0  0  0
 13 14  2  0  0  0
 13 26  1  0  0  0
 14 15  1  0  0  0
 14 27  1  0  0  0
 15 16  2  0  0  0
 15 28  1  0  0  0
 16 29  1  0  0  0
M  END
> <s_m_entry_id>
717

> <s_m_job_name>
mmod_csearch_9

> <r_mmod_Potential_Energy-MMFF94s>
161.773972

> <b_mmod_Minimization_Converged-MMFF94s>
1

> <r_mmod_RMS_Derivative-MMFF94s>
0.007613

> <i_mmod_Times_Found-MMFF94s>
1913

> <r_mmod_Relative_Potential_Energy-MMFF94s>
0

> <i_mmod_Conformation-MMFF94s>
1

> <s_lp_label>
 _6

> <i_mmod_Serial_Number-MMFF94s>
6

$$$$
