CHEMBL1985206.smi
                    3D
 Structure written by MMmdl.
 36 39  0  0  1  0            999 V2000
    0.5367    0.5280    0.6963 C   0  0  0  0  0  0
    1.4602   -0.0808   -0.1973 O   0  0  0  0  0  0
    2.4359    0.8376   -0.6926 C   0  0  0  0  0  0
    1.8806    1.6694   -1.7639 C   0  0  0  0  0  0
    1.4067    2.3476   -2.6347 C   0  0  0  0  0  0
    0.8087    3.1456   -3.6599 C   0  0  0  0  0  0
    1.6171    3.9267   -4.5003 C   0  0  0  0  0  0
    1.0567    4.7239   -5.5146 C   0  0  0  0  0  0
   -0.3232    4.7559   -5.7075 C   0  0  0  0  0  0
   -1.1175    3.9693   -4.8595 C   0  0  0  0  0  0
   -0.5722    3.1651   -3.8406 C   0  0  0  0  0  0
   -1.5865    2.3794   -3.0230 C   0  0  0  0  0  0
   -2.7594    2.8864   -3.7515 C   0  0  0  0  0  0
   -4.1596    2.7603   -3.7513 C   0  0  0  0  0  0
   -4.7044    3.5261   -4.7214 N   0  0  0  0  0  0
   -3.6475    4.1228   -5.3209 N   0  0  0  0  0  0
   -3.8213    4.7546   -6.0942 H   0  0  0  0  0  0
   -2.4742    3.7669   -4.7683 C   0  0  0  0  0  0
   -5.0019    1.9269   -2.8475 C   0  0  0  0  0  0
   -6.3790    1.8585   -2.9319 C   0  0  0  0  0  0
   -6.9428    0.9889   -1.9524 C   0  0  0  0  0  0
   -5.9758    0.4229   -1.1525 C   0  0  0  0  0  0
   -4.4044    0.9418   -1.5847 S   0  0  0  0  0  0
   -0.0415    1.3084    0.1931 H   0  0  0  0  0  0
    1.0588    0.9443    1.5633 H   0  0  0  0  0  0
   -0.1567   -0.2415    1.0468 H   0  0  0  0  0  0
    3.2628    0.2401   -1.0906 H   0  0  0  0  0  0
    2.8399    1.4444    0.1254 H   0  0  0  0  0  0
    2.6979    3.9203   -4.3717 H   0  0  0  0  0  0
    1.7076    5.3183   -6.1512 H   0  0  0  0  0  0
   -0.7635    5.3678   -6.4866 H   0  0  0  0  0  0
   -1.5788    2.6870   -1.9745 H   0  0  0  0  0  0
   -1.4502    1.3022   -3.1449 H   0  0  0  0  0  0
   -6.9561    2.4088   -3.6664 H   0  0  0  0  0  0
   -8.0019    0.7907   -1.8436 H   0  0  0  0  0  0
   -6.1146   -0.2708   -0.3348 H   0  0  0  0  0  0
  1  2  1  0  0  0
  1 24  1  0  0  0
  1 25  1  0  0  0
  1 26  1  0  0  0
  2  3  1  0  0  0
  3  4  1  0  0  0
  3 27  1  0  0  0
  3 28  1  0  0  0
  4  5  3  0  0  0
  5  6  1  0  0  0
  6  7  2  0  0  0
  6 11  1  0  0  0
  7  8  1  0  0  0
  7 29  1  0  0  0
  8  9  2  0  0  0
  8 30  1  0  0  0
  9 10  1  0  0  0
  9 31  1  0  0  0
 10 11  2  0  0  0
 10 18  1  0  0  0
 11 12  1  0  0  0
 12 13  1  0  0  0
 12 32  1  0  0  0
 12 33  1  0  0  0
 13 14  1  0  0  0
 13 18  2  0  0  0
 14 15  2  0  0  0
 14 19  1  0  0  0
 15 16  1  0  0  0
 16 18  1  0  0  0
 16 17  1  0  0  0
 19 20  2  0  0  0
 19 23  1  0  0  0
 20 21  1  0  0  0
 20 34  1  0  0  0
 21 22  2  0  0  0
 21 35  1  0  0  0
 22 23  1  0  0  0
 22 36  1  0  0  0
M  END
> <s_m_entry_id>
164

> <s_m_entry_name>
CHEMBL1985206.1

> <s_m_job_name>
mmod_csearch_27

> <s_lp_label>
 _12

> <r_mmod_Potential_Energy-MMFF94s>
190.798279

> <b_mmod_Minimization_Converged-MMFF94s>
1

> <r_mmod_RMS_Derivative-MMFF94s>
0.014292

> <i_mmod_Times_Found-MMFF94s>
252

> <r_mmod_Relative_Potential_Energy-MMFF94s>
0

> <i_mmod_Conformation-MMFF94s>
1

> <i_mmod_Serial_Number-MMFF94s>
12

$$$$
