CHEMBL1965660.smi
                    3D
 Structure written by MMmdl.
 34 36  0  0  1  0            999 V2000
    8.0908   13.3759    3.1764 N   0  0  0  0  0  0
    8.5378   13.0512    1.9304 C   0  0  0  0  0  0
    9.1429   13.8774    1.2554 O   0  0  0  0  0  0
    8.3068   11.6807    1.4854 C   0  0  0  0  0  0
    9.0931   11.0154    0.4901 C   0  0  0  0  0  0
    8.6144    9.7316    0.3209 C   0  0  0  0  0  0
    7.5485    9.6090    1.1801 N   0  0  0  0  0  0
    7.0012    8.7600    1.2515 H   0  0  0  0  0  0
    7.3203   10.7762    1.8769 C   0  0  0  0  0  0
    6.1547   10.9052    2.7572 C   0  0  0  0  0  0
    5.1830   11.8674    2.4366 C   0  0  0  0  0  0
    4.0474   12.0295    3.2339 C   0  0  0  0  0  0
    3.8727   11.2280    4.3585 C   0  0  0  0  0  0
    2.4753   11.4293    5.3407 Cl  0  0  0  0  0  0
    4.8216   10.2666    4.6955 C   0  0  0  0  0  0
    5.9586   10.1041    3.8978 C   0  0  0  0  0  0
    7.1089    8.9093    4.3902 Cl  0  0  0  0  0  0
    9.0264    8.6263   -0.5386 C   0  0  0  0  0  0
   10.0893    8.7180   -1.4066 C   0  0  0  0  0  0
   10.3418    7.5883   -2.1423 C   0  0  0  0  0  0
    9.6182    6.4592   -2.0412 N   0  0  0  0  0  0
    8.6069    6.4726   -1.1686 C   0  0  0  0  0  0
    7.8649    5.3353   -1.0522 N   0  0  0  0  0  0
    8.2717    7.5146   -0.4042 N   0  0  0  0  0  0
    7.6736   12.7031    3.7999 H   0  0  0  0  0  0
    8.2667   14.3137    3.5064 H   0  0  0  0  0  0
    9.9330   11.4587   -0.0313 H   0  0  0  0  0  0
    5.3031   12.4959    1.5547 H   0  0  0  0  0  0
    3.3055   12.7789    2.9684 H   0  0  0  0  0  0
    4.6782    9.6470    5.5771 H   0  0  0  0  0  0
   10.6909    9.6086   -1.5129 H   0  0  0  0  0  0
   11.1581    7.5537   -2.8575 H   0  0  0  0  0  0
    7.1090    5.3201   -0.3926 H   0  0  0  0  0  0
    8.1256    4.5498   -1.6220 H   0  0  0  0  0  0
  1  2  1  0  0  0
  1 25  1  0  0  0
  1 26  1  0  0  0
  2  4  1  0  0  0
  2  3  2  0  0  0
  4  5  1  0  0  0
  4  9  2  0  0  0
  5  6  2  0  0  0
  5 27  1  0  0  0
  6  7  1  0  0  0
  6 18  1  0  0  0
  7  9  1  0  0  0
  7  8  1  0  0  0
  9 10  1  0  0  0
 10 11  2  0  0  0
 10 16  1  0  0  0
 11 12  1  0  0  0
 11 28  1  0  0  0
 12 13  2  0  0  0
 12 29  1  0  0  0
 13 15  1  0  0  0
 13 14  1  0  0  0
 15 16  2  0  0  0
 15 30  1  0  0  0
 16 17  1  0  0  0
 18 24  1  0  0  0
 18 19  2  0  0  0
 19 20  1  0  0  0
 19 31  1  0  0  0
 20 21  2  0  0  0
 20 32  1  0  0  0
 21 22  1  0  0  0
 22 24  2  0  0  0
 22 23  1  0  0  0
 23 33  1  0  0  0
 23 34  1  0  0  0
M  END
> <s_m_entry_id>
12817

> <s_m_job_name>
mmod_csearch_16

> <r_mmod_Potential_Energy-MMFF94s>
-460.835144

> <b_mmod_Minimization_Converged-MMFF94s>
1

> <r_mmod_RMS_Derivative-MMFF94s>
0.009334

> <i_mmod_Times_Found-MMFF94s>
897

> <r_mmod_Relative_Potential_Energy-MMFF94s>
0

> <i_mmod_Conformation-MMFF94s>
1

> <s_lp_label>
 _69

> <i_mmod_Serial_Number-MMFF94s>
69

$$$$
