CHEMBL1983630.smi
                    3D
 Structure written by MMmdl.
 26 28  0  0  1  0            999 V2000
    1.3488    0.6562    0.1514 O   0  0  0  0  0  0
    2.4950    0.2502    0.0604 C   0  0  0  0  0  0
    2.9698   -1.1907    0.2783 C   0  0  0  0  0  0
    4.4387   -1.0708    0.0314 C   0  0  0  0  0  0
    5.4423   -2.0192    0.0723 C   0  0  0  0  0  0
    6.7556   -1.6064   -0.2049 C   0  0  0  0  0  0
    6.9476   -0.2439   -0.5091 C   0  0  0  0  0  0
    5.9718    0.7022   -0.5523 N   0  0  0  0  0  0
    4.7529    0.2423   -0.2782 C   0  0  0  0  0  0
    3.6069    1.0094   -0.2593 N   0  0  0  0  0  0
    7.8804   -2.5527   -0.1790 C   0  0  0  0  0  0
    7.8376   -3.7483   -0.9162 C   0  0  0  0  0  0
    8.9067   -4.6482   -0.8934 C   0  0  0  0  0  0
   10.0374   -4.3684   -0.1308 C   0  0  0  0  0  0
   10.1001   -3.1903    0.6084 C   0  0  0  0  0  0
    9.0309   -2.2905    0.5840 C   0  0  0  0  0  0
    2.7580   -1.4959    1.3059 H   0  0  0  0  0  0
    2.4917   -1.8495   -0.4508 H   0  0  0  0  0  0
    5.2195   -3.0515    0.3251 H   0  0  0  0  0  0
    7.9404    0.1343   -0.7462 H   0  0  0  0  0  0
    3.5967    1.9966   -0.4555 H   0  0  0  0  0  0
    6.9700   -3.9844   -1.5295 H   0  0  0  0  0  0
    8.8561   -5.5658   -1.4741 H   0  0  0  0  0  0
   10.8691   -5.0680   -0.1125 H   0  0  0  0  0  0
   10.9803   -2.9709    1.2077 H   0  0  0  0  0  0
    9.1004   -1.3832    1.1815 H   0  0  0  0  0  0
  1  2  2  0  0  0
  2  3  1  0  0  0
  2 10  1  0  0  0
  3  4  1  0  0  0
  3 17  1  0  0  0
  3 18  1  0  0  0
  4  5  2  0  0  0
  4  9  1  0  0  0
  5  6  1  0  0  0
  5 19  1  0  0  0
  6  7  2  0  0  0
  6 11  1  0  0  0
  7  8  1  0  0  0
  7 20  1  0  0  0
  8  9  2  0  0  0
  9 10  1  0  0  0
 10 21  1  0  0  0
 11 12  2  0  0  0
 11 16  1  0  0  0
 12 13  1  0  0  0
 12 22  1  0  0  0
 13 14  2  0  0  0
 13 23  1  0  0  0
 14 15  1  0  0  0
 14 24  1  0  0  0
 15 16  2  0  0  0
 15 25  1  0  0  0
 16 26  1  0  0  0
M  END
> <s_m_entry_id>
786

> <s_m_job_name>
mmod_csearch_9

> <r_mmod_Potential_Energy-MMFF94s>
26.449203

> <b_mmod_Minimization_Converged-MMFF94s>
1

> <r_mmod_RMS_Derivative-MMFF94s>
0.004007

> <i_mmod_Times_Found-MMFF94s>
527

> <r_mmod_Relative_Potential_Energy-MMFF94s>
0

> <i_mmod_Conformation-MMFF94s>
1

> <s_lp_label>
 _29

> <i_mmod_Serial_Number-MMFF94s>
29

$$$$
