CHEMBL1983923.smi
                    3D
 Structure written by MMmdl.
 53 56  0  0  1  0            999 V2000
    4.0281   -1.0813   -0.4213 C   0  0  0  0  0  0
    3.2551   -0.3315   -1.4088 N   0  0  0  0  0  0
    3.6322   -0.7322   -2.7801 C   0  0  0  0  0  0
    2.8692    0.0524   -3.8729 C   0  0  0  0  0  0
    2.9905    1.5053   -3.6725 N   0  0  0  0  0  0
    2.7214    1.9664   -2.2994 C   0  0  0  0  0  0
    3.4909    1.1208   -1.2604 C   0  0  0  0  0  0
    2.6050    2.3685   -4.6972 C   0  0  0  0  0  0
    2.8968    2.0990   -6.0230 C   0  0  0  0  0  0
    2.4905    2.9985   -6.9893 C   0  0  0  0  0  0
    2.7163    2.8313   -8.3581 N   0  0  0  0  0  0
    3.2987    1.8529   -9.0794 C   0  0  0  0  0  0
    3.4036    1.9458  -10.4908 C   0  0  0  0  0  0
    4.0398    0.7948  -10.8975 C   0  0  0  0  0  0
    4.4416    0.2968  -12.2297 C   0  0  0  0  0  0
    4.2748    0.0950   -9.7493 N   0  0  0  0  0  0
    4.7286   -0.8067   -9.6474 H   0  0  0  0  0  0
    3.8351    0.7103   -8.6427 N   0  0  0  0  0  0
    1.8369    4.1249   -6.6662 N   0  0  0  0  0  0
    1.6068    4.3289   -5.3634 C   0  0  0  0  0  0
    0.9009    5.5676   -5.0239 C   0  0  0  0  0  0
    0.5698    5.9358   -3.7748 C   0  0  0  0  0  0
   -0.1482    7.1743   -3.4457 C   0  0  0  0  0  0
    0.1027    8.3840   -4.1066 C   0  0  0  0  0  0
   -0.5813    9.5473   -3.7436 C   0  0  0  0  0  0
   -1.5152    9.5150   -2.7101 C   0  0  0  0  0  0
   -1.7620    8.3216   -2.0351 C   0  0  0  0  0  0
   -1.0775    7.1588   -2.3974 C   0  0  0  0  0  0
    1.9669    3.5041   -4.3708 N   0  0  0  0  0  0
    5.1069   -0.9157   -0.5219 H   0  0  0  0  0  0
    3.8343   -2.1552   -0.5185 H   0  0  0  0  0  0
    3.7296   -0.7981    0.5941 H   0  0  0  0  0  0
    3.4226   -1.7998   -2.9195 H   0  0  0  0  0  0
    4.7108   -0.5893   -2.9331 H   0  0  0  0  0  0
    3.2768   -0.2680   -4.8365 H   0  0  0  0  0  0
    1.8080   -0.2274   -3.8528 H   0  0  0  0  0  0
    3.0372    3.0090   -2.1663 H   0  0  0  0  0  0
    1.6445    1.9071   -2.0942 H   0  0  0  0  0  0
    4.5635    1.3407   -1.3517 H   0  0  0  0  0  0
    3.1770    1.4423   -0.2598 H   0  0  0  0  0  0
    3.4557    1.2195   -6.3006 H   0  0  0  0  0  0
    2.3290    3.6388   -8.8313 H   0  0  0  0  0  0
    3.0601    2.7494  -11.1264 H   0  0  0  0  0  0
    3.9551   -0.6593  -12.4472 H   0  0  0  0  0  0
    5.5257    0.1524  -12.2769 H   0  0  0  0  0  0
    4.1603    1.0060  -13.0148 H   0  0  0  0  0  0
    0.6424    6.1812   -5.8799 H   0  0  0  0  0  0
    0.8129    5.2909   -2.9324 H   0  0  0  0  0  0
    0.8413    8.4379   -4.9025 H   0  0  0  0  0  0
   -0.3796   10.4794   -4.2649 H   0  0  0  0  0  0
   -2.0463   10.4202   -2.4278 H   0  0  0  0  0  0
   -2.4862    8.2942   -1.2253 H   0  0  0  0  0  0
   -1.2832    6.2362   -1.8589 H   0  0  0  0  0  0
  1  2  1  0  0  0
  1 30  1  0  0  0
  1 31  1  0  0  0
  1 32  1  0  0  0
  2  7  1  0  0  0
  2  3  1  0  0  0
  3  4  1  0  0  0
  3 33  1  0  0  0
  3 34  1  0  0  0
  4  5  1  0  0  0
  4 35  1  0  0  0
  4 36  1  0  0  0
  5  6  1  0  0  0
  5  8  1  0  0  0
  6  7  1  0  0  0
  6 37  1  0  0  0
  6 38  1  0  0  0
  7 39  1  0  0  0
  7 40  1  0  0  0
  8 29  1  0  0  0
  8  9  2  0  0  0
  9 10  1  0  0  0
  9 41  1  0  0  0
 10 19  2  0  0  0
 10 11  1  0  0  0
 11 12  1  0  0  0
 11 42  1  0  0  0
 12 13  1  0  0  0
 12 18  2  0  0  0
 13 14  2  0  0  0
 13 43  1  0  0  0
 14 16  1  0  0  0
 14 15  1  0  0  0
 15 44  1  0  0  0
 15 45  1  0  0  0
 15 46  1  0  0  0
 16 18  1  0  0  0
 16 17  1  0  0  0
 19 20  1  0  0  0
 20 29  2  0  0  0
 20 21  1  0  0  0
 21 22  2  0  0  0
 21 47  1  0  0  0
 22 23  1  0  0  0
 22 48  1  0  0  0
 23 24  2  0  0  0
 23 28  1  0  0  0
 24 25  1  0  0  0
 24 49  1  0  0  0
 25 26  2  0  0  0
 25 50  1  0  0  0
 26 27  1  0  0  0
 26 51  1  0  0  0
 27 28  2  0  0  0
 27 52  1  0  0  0
 28 53  1  0  0  0
M  END
> <s_m_entry_id>
9972

> <s_m_job_name>
mmod_csearch_11

> <r_mmod_Potential_Energy-MMFF94s>
-112.035545

> <b_mmod_Minimization_Converged-MMFF94s>
1

> <r_mmod_RMS_Derivative-MMFF94s>
0.007821

> <i_mmod_Times_Found-MMFF94s>
43

> <r_mmod_Relative_Potential_Energy-MMFF94s>
0

> <i_mmod_Conformation-MMFF94s>
1

> <s_lp_label>
 _41

> <i_mmod_Serial_Number-MMFF94s>
41

$$$$
