CHEMBL1985681.smi
                    3D
 Structure written by MMmdl.
 38 41  0  0  1  0            999 V2000
    1.5396   -1.9318    3.8255 O   0  0  0  0  0  0
    1.7289   -2.4389    2.5068 C   0  0  2  0  0  0
    1.5295   -1.2973    1.5076 C   0  0  0  0  0  0
    1.4685   -1.8370    0.0859 C   0  0  0  0  0  0
    0.2730   -2.7727   -0.0682 C   0  0  0  0  0  0
    0.1675   -3.7930    1.0364 C   0  0  0  0  0  0
   -0.6293   -4.8606    0.7734 N   0  0  0  0  0  0
   -0.7930   -5.8068    1.7361 C   0  0  0  0  0  0
   -0.1936   -5.6880    2.9860 C   0  0  0  0  0  0
    0.6165   -4.5858    3.2431 C   0  0  0  0  0  0
    0.8048   -3.6056    2.2646 C   0  0  0  0  0  0
   -1.7276   -6.9401    1.3904 C   0  0  1  0  0  0
   -1.3487   -8.2935    2.0270 C   0  0  0  0  0  0
   -0.2887   -8.8925    1.9414 O   0  0  0  0  0  0
   -2.4521   -8.7391    2.7538 N   0  0  0  0  0  0
   -3.5014   -7.8385    2.6843 C   0  0  0  0  0  0
   -4.7399   -7.9445    3.2791 C   0  0  0  0  0  0
   -5.6453   -6.8988    3.0666 C   0  0  0  0  0  0
   -5.2950   -5.7843    2.2718 C   0  0  0  0  0  0
   -4.0275   -5.7058    1.6784 C   0  0  0  0  0  0
   -3.1376   -6.7453    1.9006 C   0  0  0  0  0  0
   -6.2453   -4.7284    2.0707 C   0  0  0  0  0  0
   -7.0220   -3.8808    1.9118 N   0  0  0  0  0  0
    2.1649   -1.1977    3.9452 H   0  0  0  0  0  0
    2.7593   -2.8095    2.4355 H   0  0  0  0  0  0
    0.6103   -0.7432    1.7407 H   0  0  0  0  0  0
    2.3480   -0.5742    1.6068 H   0  0  0  0  0  0
    2.3975   -2.3733   -0.1452 H   0  0  0  0  0  0
    1.3861   -1.0116   -0.6299 H   0  0  0  0  0  0
    0.3359   -3.2835   -1.0360 H   0  0  0  0  0  0
   -0.6525   -2.1837   -0.0688 H   0  0  0  0  0  0
   -0.3412   -6.4324    3.7617 H   0  0  0  0  0  0
    1.0978   -4.4870    4.2139 H   0  0  0  0  0  0
   -1.7580   -7.0945    0.3044 H   0  0  0  0  0  0
   -2.4519   -9.6124    3.2603 H   0  0  0  0  0  0
   -5.0107   -8.7994    3.8887 H   0  0  0  0  0  0
   -6.6331   -6.9513    3.5233 H   0  0  0  0  0  0
   -3.7400   -4.8547    1.0645 H   0  0  0  0  0  0
  1  2  1  0  0  0
  1 24  1  0  0  0
  2  3  1  0  0  0
  2 11  1  0  0  0
  2 25  1  0  0  0
  3  4  1  0  0  0
  3 26  1  0  0  0
  3 27  1  0  0  0
  4  5  1  0  0  0
  4 28  1  0  0  0
  4 29  1  0  0  0
  5  6  1  0  0  0
  5 30  1  0  0  0
  5 31  1  0  0  0
  6  7  2  0  0  0
  6 11  1  0  0  0
  7  8  1  0  0  0
  8  9  2  0  0  0
  8 12  1  0  0  0
  9 10  1  0  0  0
  9 32  1  0  0  0
 10 11  2  0  0  0
 10 33  1  0  0  0
 12 21  1  0  0  0
 12 13  1  0  0  0
 12 34  1  0  0  0
 13 15  1  0  0  0
 13 14  2  0  0  0
 15 16  1  0  0  0
 15 35  1  0  0  0
 16 21  1  0  0  0
 16 17  2  0  0  0
 17 18  1  0  0  0
 17 36  1  0  0  0
 18 19  2  0  0  0
 18 37  1  0  0  0
 19 20  1  0  0  0
 19 22  1  0  0  0
 20 21  2  0  0  0
 20 38  1  0  0  0
 22 23  3  0  0  0
M  END
> <s_m_entry_id>
10836

> <s_m_job_name>
mmod_csearch_16

> <r_mmod_Potential_Energy-MMFF94s>
281.918762

> <b_mmod_Minimization_Converged-MMFF94s>
1

> <r_mmod_RMS_Derivative-MMFF94s>
0.008669

> <i_mmod_Times_Found-MMFF94s>
395

> <r_mmod_Relative_Potential_Energy-MMFF94s>
0

> <i_mmod_Conformation-MMFF94s>
1

> <s_lp_label>
 _8

> <i_mmod_Serial_Number-MMFF94s>
8

$$$$
