CHEMBL1992607.smi
                    3D
 Structure written by MMmdl.
 22 23  0  0  1  0            999 V2000
    1.0260   -0.2840    0.1028 N   0  0  0  0  0  0
    2.3988   -0.0701    0.0400 C   0  0  0  0  0  0
    3.1118   -1.1721   -0.2193 N   0  0  0  0  0  0
    4.4303   -1.0287   -0.3071 C   0  0  0  0  0  0
    5.1160    0.0966   -0.1427 N   0  0  0  0  0  0
    4.4140    1.2053    0.1213 C   0  0  0  0  0  0
    5.1922    2.3557    0.3271 N   0  0  0  0  0  0
    4.9440    3.4665   -0.5863 C   0  0  0  0  0  0
    3.6701    4.2653   -0.2293 C   0  0  0  0  0  0
    2.4904    3.4404   -0.4360 N   0  0  0  0  0  0
    2.2275    2.4616    0.4354 C   0  0  0  0  0  0
    1.4407    2.5820    1.3703 O   0  0  0  0  0  0
    3.0021    1.1983    0.1918 C   0  0  0  0  0  0
    0.7178   -1.2384    0.2035 H   0  0  0  0  0  0
    0.4822    0.4103    0.5980 H   0  0  0  0  0  0
    5.0021   -1.9198   -0.5166 H   0  0  0  0  0  0
    5.1496    2.6455    1.2936 H   0  0  0  0  0  0
    5.8099    4.1271   -0.5410 H   0  0  0  0  0  0
    4.8971    3.0937   -1.6115 H   0  0  0  0  0  0
    3.5871    5.1361   -0.8801 H   0  0  0  0  0  0
    3.7039    4.6466    0.7950 H   0  0  0  0  0  0
    2.4052    3.1498   -1.3989 H   0  0  0  0  0  0
  1  2  1  0  0  0
  1 14  1  0  0  0
  1 15  1  0  0  0
  2  3  2  0  0  0
  2 13  1  0  0  0
  3  4  1  0  0  0
  4  5  2  0  0  0
  4 16  1  0  0  0
  5  6  1  0  0  0
  6  7  1  0  0  0
  6 13  2  0  0  0
  7  8  1  0  0  0
  7 17  1  0  0  0
  8  9  1  0  0  0
  8 18  1  0  0  0
  8 19  1  0  0  0
  9 10  1  0  0  0
  9 20  1  0  0  0
  9 21  1  0  0  0
 10 11  1  0  0  0
 10 22  1  0  0  0
 11 13  1  0  0  0
 11 12  2  0  0  0
M  END
> <s_m_entry_id>
74

> <s_m_entry_name>
CHEMBL1992607.1

$$$$
