CHEMBL21156.smi
                    3D
 Structure written by MMmdl.
 39 42  0  0  1  0            999 V2000
    3.7833   -0.5462   -0.8237 C   0  0  0  0  0  0
    2.6617    0.1089    0.0010 C   0  0  0  0  0  0
    1.3593    0.0638   -0.8211 C   0  0  0  0  0  0
    2.4463   -0.6844    1.3017 C   0  0  0  0  0  0
    3.0247    1.5427    0.3225 C   0  0  0  0  0  0
    2.3600    2.6248   -0.0253 N   0  0  0  0  0  0
    3.0629    3.6951    0.4864 C   0  0  0  0  0  0
    2.7937    5.0832    0.4072 C   0  0  0  0  0  0
    1.6363    5.4823   -0.2948 C   0  0  0  0  0  0
    1.3176    6.8299   -0.4077 C   0  0  0  0  0  0
    2.1508    7.7685    0.1773 C   0  0  0  0  0  0
    1.8482    9.0694    0.0715 F   0  0  0  0  0  0
    3.2988    7.3878    0.8746 C   0  0  0  0  0  0
    3.6683    6.0254    1.0185 C   0  0  0  0  0  0
    4.8159    5.5237    1.7078 C   0  0  0  0  0  0
    5.8126    6.4192    2.3929 C   0  0  0  0  0  0
    5.7324    7.6411    2.4218 O   0  0  0  0  0  0
    6.8769    5.8040    3.0223 N   0  0  0  0  0  0
    7.0921    4.4575    3.0703 C   0  0  0  0  0  0
    6.2510    3.6015    2.4856 C   0  0  0  0  0  0
    5.0848    4.1338    1.7866 C   0  0  0  0  0  0
    4.1902    3.2555    1.1669 C   0  0  0  0  0  0
    4.1413    1.8878    1.0474 N   0  0  0  0  0  0
    4.8118    1.2364    1.4268 H   0  0  0  0  0  0
    3.9721    0.0099   -1.7496 H   0  0  0  0  0  0
    3.5231   -1.5749   -1.0985 H   0  0  0  0  0  0
    4.7266   -0.5840   -0.2667 H   0  0  0  0  0  0
    0.5237    0.5134   -0.2715 H   0  0  0  0  0  0
    1.0792   -0.9676   -1.0644 H   0  0  0  0  0  0
    1.4637    0.6105   -1.7659 H   0  0  0  0  0  0
    2.1464   -1.7171    1.0902 H   0  0  0  0  0  0
    1.6637   -0.2286    1.9199 H   0  0  0  0  0  0
    3.3591   -0.7253    1.9072 H   0  0  0  0  0  0
    0.9866    4.7372   -0.7518 H   0  0  0  0  0  0
    0.4312    7.1506   -0.9444 H   0  0  0  0  0  0
    3.8918    8.1914    1.2998 H   0  0  0  0  0  0
    7.5272    6.4385    3.4726 H   0  0  0  0  0  0
    7.9773    4.1278    3.6057 H   0  0  0  0  0  0
    6.4327    2.5356    2.5306 H   0  0  0  0  0  0
  1  2  1  0  0  0
  1 25  1  0  0  0
  1 26  1  0  0  0
  1 27  1  0  0  0
  2  5  1  0  0  0
  2  4  1  0  0  0
  2  3  1  0  0  0
  3 28  1  0  0  0
  3 29  1  0  0  0
  3 30  1  0  0  0
  4 31  1  0  0  0
  4 32  1  0  0  0
  4 33  1  0  0  0
  5  6  2  0  0  0
  5 23  1  0  0  0
  6  7  1  0  0  0
  7  8  2  0  0  0
  7 22  1  0  0  0
  8 14  1  0  0  0
  8  9  1  0  0  0
  9 10  2  0  0  0
  9 34  1  0  0  0
 10 11  1  0  0  0
 10 35  1  0  0  0
 11 13  2  0  0  0
 11 12  1  0  0  0
 13 14  1  0  0  0
 13 36  1  0  0  0
 14 15  2  0  0  0
 15 21  1  0  0  0
 15 16  1  0  0  0
 16 18  1  0  0  0
 16 17  2  0  0  0
 18 19  1  0  0  0
 18 37  1  0  0  0
 19 20  2  0  0  0
 19 38  1  0  0  0
 20 21  1  0  0  0
 20 39  1  0  0  0
 21 22  2  0  0  0
 22 23  1  0  0  0
 23 24  1  0  0  0
M  END
> <s_m_entry_id>
105

> <s_m_entry_name>
CHEMBL21156.1

> <s_m_job_name>
mmod_csearch_21

> <s_lp_label>
 _1

> <r_mmod_Potential_Energy-MMFF94s>
199.413788

> <b_mmod_Minimization_Converged-MMFF94s>
1

> <r_mmod_RMS_Derivative-MMFF94s>
0.008441

> <i_mmod_Times_Found-MMFF94s>
492

> <r_mmod_Relative_Potential_Energy-MMFF94s>
0

> <i_mmod_Conformation-MMFF94s>
1

> <i_mmod_Serial_Number-MMFF94s>
1

$$$$
