CHEMBL1979690.smi
                    3D
 Structure written by MMmdl.
 54 58  0  0  1  0            999 V2000
    0.6135   -8.8798    6.9503 C   0  0  0  0  0  0
    1.5827   -9.6217    6.1473 N   0  0  0  0  0  0
    1.4297  -11.0776    6.3616 C   0  0  0  0  0  0
    2.4075  -11.9188    5.5098 C   0  0  0  0  0  0
    2.3085  -11.5687    4.0808 N   0  0  0  0  0  0
    2.3740  -10.1211    3.8037 C   0  0  0  0  0  0
    1.3983   -9.3336    4.7087 C   0  0  0  0  0  0
    2.7856  -12.4449    3.1125 C   0  0  0  0  0  0
    3.6822  -13.4783    3.4044 C   0  0  0  0  0  0
    4.1331  -14.3695    2.4181 C   0  0  0  0  0  0
    3.7033  -14.2718    1.0952 C   0  0  0  0  0  0
    4.0632  -15.1778    0.0924 N   0  0  0  0  0  0
    4.6256  -16.4497    0.1314 C   0  0  0  0  0  0
    4.8891  -17.0099   -1.0583 N   0  0  0  0  0  0
    5.3942  -18.2610   -1.0420 C   0  0  0  0  0  0
    5.6375  -18.9742    0.1088 C   0  0  0  0  0  0
    6.2887  -20.5635    0.0338 Cl  0  0  0  0  0  0
    5.3369  -18.3319    1.2999 C   0  0  0  0  0  0
    5.5277  -19.0014    2.5294 N   0  0  0  0  0  0
    5.0891  -18.6810    3.8286 C   0  0  0  0  0  0
    5.7600  -19.2447    4.9273 C   0  0  0  0  0  0
    5.4198  -18.9414    6.2552 C   0  0  0  0  0  0
    4.3748  -18.0367    6.4479 C   0  0  0  0  0  0
    3.8062  -17.5177    7.5813 N   0  0  0  0  0  0
    4.0586  -17.7118    8.5431 H   0  0  0  0  0  0
    2.8035  -16.6500    7.3484 N   0  0  0  0  0  0
    2.7240  -16.6235    6.0145 C   0  0  0  0  0  0
    3.6765  -17.4622    5.3955 C   0  0  0  0  0  0
    4.0275  -17.7953    4.0749 C   0  0  0  0  0  0
    4.8370  -17.0801    1.2950 N   0  0  0  0  0  0
    2.8062  -13.2430    0.7932 C   0  0  0  0  0  0
    2.3590  -12.3513    1.7813 C   0  0  0  0  0  0
    0.7439   -7.8013    6.8078 H   0  0  0  0  0  0
    0.7685   -9.0775    8.0167 H   0  0  0  0  0  0
   -0.4217   -9.1375    6.6991 H   0  0  0  0  0  0
    0.4020  -11.3878    6.1277 H   0  0  0  0  0  0
    1.6089  -11.3127    7.4178 H   0  0  0  0  0  0
    3.4344  -11.7541    5.8602 H   0  0  0  0  0  0
    2.1559  -12.9749    5.6672 H   0  0  0  0  0  0
    3.4000   -9.7711    3.9760 H   0  0  0  0  0  0
    2.1221   -9.8852    2.7645 H   0  0  0  0  0  0
    1.5557   -8.2633    4.5282 H   0  0  0  0  0  0
    0.3690   -9.5683    4.4044 H   0  0  0  0  0  0
    4.0728  -13.6104    4.4095 H   0  0  0  0  0  0
    4.8440  -15.1337    2.7184 H   0  0  0  0  0  0
    3.8933  -14.9023   -0.8627 H   0  0  0  0  0  0
    5.6000  -18.6828   -2.0215 H   0  0  0  0  0  0
    6.2014  -19.7554    2.4735 H   0  0  0  0  0  0
    6.5863  -19.9329    4.7598 H   0  0  0  0  0  0
    5.9581  -19.3838    7.0864 H   0  0  0  0  0  0
    1.9823  -15.9927    5.5410 H   0  0  0  0  0  0
    3.4629  -17.3541    3.2605 H   0  0  0  0  0  0
    2.4164  -13.1337   -0.2155 H   0  0  0  0  0  0
    1.6275  -11.6005    1.4955 H   0  0  0  0  0  0
  1  2  1  0  0  0
  1 33  1  0  0  0
  1 34  1  0  0  0
  1 35  1  0  0  0
  2  7  1  0  0  0
  2  3  1  0  0  0
  3  4  1  0  0  0
  3 36  1  0  0  0
  3 37  1  0  0  0
  4  5  1  0  0  0
  4 38  1  0  0  0
  4 39  1  0  0  0
  5  6  1  0  0  0
  5  8  1  0  0  0
  6  7  1  0  0  0
  6 40  1  0  0  0
  6 41  1  0  0  0
  7 42  1  0  0  0
  7 43  1  0  0  0
  8  9  2  0  0  0
  8 32  1  0  0  0
  9 10  1  0  0  0
  9 44  1  0  0  0
 10 11  2  0  0  0
 10 45  1  0  0  0
 11 31  1  0  0  0
 11 12  1  0  0  0
 12 13  1  0  0  0
 12 46  1  0  0  0
 13 30  1  0  0  0
 13 14  2  0  0  0
 14 15  1  0  0  0
 15 16  2  0  0  0
 15 47  1  0  0  0
 16 18  1  0  0  0
 16 17  1  0  0  0
 18 30  2  0  0  0
 18 19  1  0  0  0
 19 20  1  0  0  0
 19 48  1  0  0  0
 20 21  2  0  0  0
 20 29  1  0  0  0
 21 22  1  0  0  0
 21 49  1  0  0  0
 22 23  2  0  0  0
 22 50  1  0  0  0
 23 24  1  0  0  0
 23 28  1  0  0  0
 24 26  1  0  0  0
 24 25  1  0  0  0
 26 27  2  0  0  0
 27 28  1  0  0  0
 27 51  1  0  0  0
 28 29  2  0  0  0
 29 52  1  0  0  0
 31 32  2  0  0  0
 31 53  1  0  0  0
 32 54  1  0  0  0
M  END
> <s_m_entry_id>
154

> <s_m_entry_name>
CHEMBL1979690.1

> <s_m_job_name>
mmod_csearch_27

> <s_lp_label>
 _2

> <r_mmod_Potential_Energy-MMFF94s>
264.314758

> <b_mmod_Minimization_Converged-MMFF94s>
1

> <r_mmod_RMS_Derivative-MMFF94s>
0.014578

> <i_mmod_Times_Found-MMFF94s>
96

> <r_mmod_Relative_Potential_Energy-MMFF94s>
0

> <i_mmod_Conformation-MMFF94s>
1

> <i_mmod_Serial_Number-MMFF94s>
2

$$$$
