CHEMBL1949855.smi
                    3D
 Structure written by MMmdl.
 17 18  0  0  1  0            999 V2000
    7.5402    3.8005   -0.5541 Cl  0  0  0  0  0  0
    6.7013    2.3600   -0.0915 C   0  0  0  0  0  0
    5.4463    2.1218   -0.6676 C   0  0  0  0  0  0
    4.7238    0.9766   -0.3323 C   0  0  0  0  0  0
    5.2554    0.0684    0.5792 C   0  0  0  0  0  0
    6.5106    0.3158    1.1493 C   0  0  0  0  0  0
    7.0896   -0.6348    2.1165 C   0  0  0  0  0  0
    6.5081   -1.6586    2.4540 O   0  0  0  0  0  0
    8.3208   -0.2995    2.6144 N   0  0  0  0  0  0
    8.9804    0.8356    2.2491 C   0  0  0  0  0  0
    8.5230    1.6985    1.4109 N   0  0  0  0  0  0
    7.2571    1.4580    0.8300 C   0  0  0  0  0  0
    5.0289    2.8299   -1.3800 H   0  0  0  0  0  0
    3.7499    0.7943   -0.7809 H   0  0  0  0  0  0
    4.6976   -0.8272    0.8457 H   0  0  0  0  0  0
    8.7270   -0.9435    3.2778 H   0  0  0  0  0  0
    9.9596    0.9641    2.7364 H   0  0  0  0  0  0
  1  2  1  0  0  0
  2  3  2  0  0  0
  2 12  1  0  0  0
  3  4  1  0  0  0
  3 13  1  0  0  0
  4  5  2  0  0  0
  4 14  1  0  0  0
  5  6  1  0  0  0
  5 15  1  0  0  0
  6  7  1  0  0  0
  6 12  2  0  0  0
  7  9  1  0  0  0
  7  8  2  0  0  0
  9 10  1  0  0  0
  9 16  1  0  0  0
 10 11  2  0  0  0
 10 17  1  0  0  0
 11 12  1  0  0  0
M  END
> <s_m_entry_id>
778

> <s_m_job_name>
mmod_csearch_9

> <r_mmod_Potential_Energy-MMFF94s>
-48.349735

> <b_mmod_Minimization_Converged-MMFF94s>
1

> <r_mmod_RMS_Derivative-MMFF94s>
0.003094

> <i_mmod_Times_Found-MMFF94s>
1

> <r_mmod_Relative_Potential_Energy-MMFF94s>
0

> <i_mmod_Conformation-MMFF94s>
1

> <s_lp_label>
 _23

> <i_mmod_Serial_Number-MMFF94s>
23

$$$$
