CHEMBL1972220.smi
                    3D
 Structure written by MMmdl.
 60 64  0  0  1  0            999 V2000
   -2.2963    1.8393    2.3430 N   0  0  0  0  0  0
   -1.0646    2.2637    2.7773 C   0  0  0  0  0  0
   -1.0122    3.5520    3.1737 N   0  0  0  0  0  0
    0.1526    4.0764    3.5944 C   0  0  0  0  0  0
    1.3505    3.3864    3.6632 C   0  0  0  0  0  0
    2.5666    4.0207    4.1153 C   0  0  0  0  0  0
    3.8528    4.0922    3.5356 C   0  0  0  0  0  0
    4.7114    4.8002    4.2759 N   0  0  0  0  0  0
    3.9709    5.1864    5.3356 N   0  0  0  0  0  0
    4.5815    5.9868    6.3848 C   0  0  0  0  0  0
    5.8250    5.3158    6.9587 C   0  0  0  0  0  0
    6.9194    5.3813    6.0460 O   0  0  0  0  0  0
    2.6768    4.7547    5.2783 C   0  0  0  0  0  0
    1.3036    2.0358    3.2650 C   0  0  0  0  0  0
    2.5956    0.8813    3.2555 S   0  0  0  0  0  0
    1.6052   -0.3604    2.6647 C   0  0  0  0  0  0
    0.3058    0.0532    2.4785 C   0  0  0  0  0  0
   -0.6808   -0.9033    2.0051 C   0  0  0  0  0  0
   -1.5022   -1.5706    2.9161 C   0  0  0  0  0  0
   -2.4621   -2.4780    2.4572 C   0  0  0  0  0  0
   -2.6159   -2.7283    1.0865 C   0  0  0  0  0  0
   -3.6066   -3.6608    0.7124 N   0  0  0  0  0  0
   -3.9865   -4.0286   -0.5719 C   0  0  0  0  0  0
   -3.5457   -3.5338   -1.6004 O   0  0  0  0  0  0
   -4.9370   -5.0401   -0.5220 N   0  0  0  0  0  0
   -5.6300   -5.6263   -1.6020 C   0  0  0  0  0  0
   -5.5286   -5.1973   -2.9257 C   0  0  0  0  0  0
   -6.2548   -5.8313   -3.9448 C   0  0  0  0  0  0
   -7.0877   -6.9089   -3.6502 C   0  0  0  0  0  0
   -7.8437   -7.6120   -4.5441 O   0  0  0  0  0  0
   -7.5333   -7.4292   -5.9150 C   0  0  0  0  0  0
   -8.2327   -8.3593   -6.6142 F   0  0  0  0  0  0
   -7.9905   -6.2183   -6.3183 F   0  0  0  0  0  0
   -7.2061   -7.3288   -2.3251 C   0  0  0  0  0  0
   -6.4832   -6.6956   -1.3091 C   0  0  0  0  0  0
   -1.7879   -2.0581    0.1834 C   0  0  0  0  0  0
   -0.8250   -1.1490    0.6383 C   0  0  0  0  0  0
    0.1020    1.4511    2.8211 C   0  0  0  0  0  0
   -3.0257    2.5365    2.3307 H   0  0  0  0  0  0
   -2.4482    0.9269    1.9478 H   0  0  0  0  0  0
    0.0929    5.1246    3.8770 H   0  0  0  0  0  0
    4.1976    3.6637    2.6027 H   0  0  0  0  0  0
    3.8314    6.1288    7.1695 H   0  0  0  0  0  0
    4.8208    6.9564    5.9348 H   0  0  0  0  0  0
    5.6429    4.2645    7.2057 H   0  0  0  0  0  0
    6.1368    5.8322    7.8716 H   0  0  0  0  0  0
    6.5744    5.0530    5.1852 H   0  0  0  0  0  0
    1.9639    4.9907    6.0567 H   0  0  0  0  0  0
    2.0203   -1.3445    2.4887 H   0  0  0  0  0  0
   -1.4046   -1.3859    3.9838 H   0  0  0  0  0  0
   -3.0875   -2.9813    3.1902 H   0  0  0  0  0  0
   -4.1261   -4.0745    1.4699 H   0  0  0  0  0  0
   -5.1230   -5.4394    0.3840 H   0  0  0  0  0  0
   -4.9003   -4.3568   -3.2055 H   0  0  0  0  0  0
   -6.1546   -5.4341   -4.9508 H   0  0  0  0  0  0
   -6.4680   -7.5439   -6.1437 H   0  0  0  0  0  0
   -7.8645   -8.1587   -2.0782 H   0  0  0  0  0  0
   -6.6003   -7.0564   -0.2908 H   0  0  0  0  0  0
   -1.8599   -2.2199   -0.8878 H   0  0  0  0  0  0
   -0.1963   -0.6358   -0.0865 H   0  0  0  0  0  0
  1  2  1  0  0  0
  1 39  1  0  0  0
  1 40  1  0  0  0
  2  3  2  0  0  0
  2 38  1  0  0  0
  3  4  1  0  0  0
  4  5  2  0  0  0
  4 41  1  0  0  0
  5 14  1  0  0  0
  5  6  1  0  0  0
  6  7  1  0  0  0
  6 13  2  0  0  0
  7  8  2  0  0  0
  7 42  1  0  0  0
  8  9  1  0  0  0
  9 13  1  0  0  0
  9 10  1  0  0  0
 10 11  1  0  0  0
 10 43  1  0  0  0
 10 44  1  0  0  0
 11 12  1  0  0  0
 11 45  1  0  0  0
 11 46  1  0  0  0
 12 47  1  0  0  0
 13 48  1  0  0  0
 14 15  1  0  0  0
 14 38  2  0  0  0
 15 16  1  0  0  0
 16 17  2  0  0  0
 16 49  1  0  0  0
 17 38  1  0  0  0
 17 18  1  0  0  0
 18 19  2  0  0  0
 18 37  1  0  0  0
 19 20  1  0  0  0
 19 50  1  0  0  0
 20 21  2  0  0  0
 20 51  1  0  0  0
 21 36  1  0  0  0
 21 22  1  0  0  0
 22 23  1  0  0  0
 22 52  1  0  0  0
 23 25  1  0  0  0
 23 24  2  0  0  0
 25 26  1  0  0  0
 25 53  1  0  0  0
 26 27  2  0  0  0
 26 35  1  0  0  0
 27 28  1  0  0  0
 27 54  1  0  0  0
 28 29  2  0  0  0
 28 55  1  0  0  0
 29 34  1  0  0  0
 29 30  1  0  0  0
 30 31  1  0  0  0
 31 33  1  0  0  0
 31 32  1  0  0  0
 31 56  1  0  0  0
 34 35  2  0  0  0
 34 57  1  0  0  0
 35 58  1  0  0  0
 36 37  2  0  0  0
 36 59  1  0  0  0
 37 60  1  0  0  0
M  END
> <s_m_entry_id>
9966

> <s_m_job_name>
mmod_csearch_11

> <r_mmod_Potential_Energy-MMFF94s>
-33.599773

> <b_mmod_Minimization_Converged-MMFF94s>
0

> <r_mmod_RMS_Derivative-MMFF94s>
0.030191

> <i_mmod_Times_Found-MMFF94s>
6

> <r_mmod_Relative_Potential_Energy-MMFF94s>
0

> <i_mmod_Conformation-MMFF94s>
1

> <s_lp_label>
 _35

> <i_mmod_Serial_Number-MMFF94s>
35

$$$$
