CHEMBL2004515.smi
                    3D
 Structure written by MMmdl.
 27 30  0  0  1  0            999 V2000
    0.6818   -0.7735   -3.0494 C   0  0  0  0  0  0
    0.5738   -1.7069   -1.9549 O   0  0  0  0  0  0
    1.8501   -2.1694   -1.8870 C   0  0  0  0  0  0
    2.3196   -3.1151   -1.0059 C   0  0  0  0  0  0
    3.6723   -3.4663   -1.0924 C   0  0  0  0  0  0
    4.5428   -2.8711   -2.0428 C   0  0  0  0  0  0
    4.0067   -1.9185   -2.9299 C   0  0  0  0  0  0
    2.6699   -1.5894   -2.8238 C   0  0  0  0  0  0
    2.0118   -0.6889   -3.6027 O   0  0  0  0  0  0
    5.9517   -3.2729   -2.0985 C   0  0  0  0  0  0
    6.2322   -4.6004   -1.9884 N   0  0  0  0  0  0
    7.5199   -4.9882   -2.0480 C   0  0  0  0  0  0
    8.6100   -4.2177   -2.1935 N   0  0  0  0  0  0
    8.2865   -2.9191   -2.2740 C   0  0  0  0  0  0
    9.1941   -1.9048   -2.4094 N   0  0  0  0  0  0
   10.1921   -2.0492   -2.4643 H   0  0  0  0  0  0
    8.5410   -0.6999   -2.4395 C   0  0  0  0  0  0
    7.1896   -0.9531   -2.3263 C   0  0  0  0  0  0
    7.0142   -2.3655   -2.2336 C   0  0  0  0  0  0
   -0.0090   -1.0816   -3.8428 H   0  0  0  0  0  0
    0.3869    0.2202   -2.6929 H   0  0  0  0  0  0
    1.6656   -3.5751   -0.2742 H   0  0  0  0  0  0
    4.0635   -4.2189   -0.4079 H   0  0  0  0  0  0
    4.6121   -1.4552   -3.7020 H   0  0  0  0  0  0
    7.6979   -6.0564   -1.9680 H   0  0  0  0  0  0
    9.0907    0.2276   -2.5319 H   0  0  0  0  0  0
    6.4129   -0.1993   -2.3062 H   0  0  0  0  0  0
  1  2  1  0  0  0
  1  9  1  0  0  0
  1 20  1  0  0  0
  1 21  1  0  0  0
  2  3  1  0  0  0
  3  4  2  0  0  0
  3  8  1  0  0  0
  4  5  1  0  0  0
  4 22  1  0  0  0
  5  6  2  0  0  0
  5 23  1  0  0  0
  6 10  1  0  0  0
  6  7  1  0  0  0
  7  8  2  0  0  0
  7 24  1  0  0  0
  8  9  1  0  0  0
 10 11  2  0  0  0
 10 19  1  0  0  0
 11 12  1  0  0  0
 12 13  2  0  0  0
 12 25  1  0  0  0
 13 14  1  0  0  0
 14 15  1  0  0  0
 14 19  2  0  0  0
 15 17  1  0  0  0
 15 16  1  0  0  0
 17 18  2  0  0  0
 17 26  1  0  0  0
 18 19  1  0  0  0
 18 27  1  0  0  0
M  END
> <s_m_entry_id>
773

> <s_m_job_name>
mmod_csearch_9

> <r_mmod_Potential_Energy-MMFF94s>
135.172287

> <b_mmod_Minimization_Converged-MMFF94s>
1

> <r_mmod_RMS_Derivative-MMFF94s>
0.004523

> <i_mmod_Times_Found-MMFF94s>
1057

> <r_mmod_Relative_Potential_Energy-MMFF94s>
0

> <i_mmod_Conformation-MMFF94s>
1

> <s_lp_label>
 _22

> <i_mmod_Serial_Number-MMFF94s>
22

$$$$
