CHEMBL1999120.smi
                    3D
 Structure written by MMmdl.
 25 26  0  0  1  0            999 V2000
    0.8240    0.9886   -0.2348 C   0  0  0  0  0  0
    2.1256    0.2620    0.1201 C   0  0  0  0  0  0
    3.0596    0.2652   -1.0989 C   0  0  0  0  0  0
    2.7402    0.8486    1.3809 C   0  0  0  0  0  0
    3.7361    1.7611    1.3925 C   0  0  0  0  0  0
    4.2995    2.2825    2.6756 C   0  0  0  0  0  0
    5.1966    3.1170    2.6790 O   0  0  0  0  0  0
    3.7555    1.7755    3.8312 N   0  0  0  0  0  0
    2.7623    0.8463    3.8362 C   0  0  0  0  0  0
    2.2629    0.3990    2.6694 C   0  0  0  0  0  0
    1.1741   -0.5422    3.0601 C   0  0  0  0  0  0
    0.4520   -1.1838    2.3202 O   0  0  0  0  0  0
    1.1433   -0.5378    4.4491 N   0  0  0  0  0  0
    2.1383    0.2865    4.9139 N   0  0  0  0  0  0
    0.1041    0.9561    0.5895 H   0  0  0  0  0  0
    0.3481    0.5251   -1.1059 H   0  0  0  0  0  0
    1.0089    2.0419   -0.4747 H   0  0  0  0  0  0
    1.8957   -0.7949    0.3037 H   0  0  0  0  0  0
    3.2653    1.2803   -1.4557 H   0  0  0  0  0  0
    2.6037   -0.2862   -1.9290 H   0  0  0  0  0  0
    4.0139   -0.2198   -0.8658 H   0  0  0  0  0  0
    4.1820    2.1768    0.4980 H   0  0  0  0  0  0
    4.1414    2.1184    4.6987 H   0  0  0  0  0  0
    0.5423   -1.1021    5.0353 H   0  0  0  0  0  0
    2.1024    0.7509    5.8148 H   0  0  0  0  0  0
  1  2  1  0  0  0
  1 15  1  0  0  0
  1 16  1  0  0  0
  1 17  1  0  0  0
  2  4  1  0  0  0
  2  3  1  0  0  0
  2 18  1  0  0  0
  3 19  1  0  0  0
  3 20  1  0  0  0
  3 21  1  0  0  0
  4  5  2  0  0  0
  4 10  1  0  0  0
  5  6  1  0  0  0
  5 22  1  0  0  0
  6  8  1  0  0  0
  6  7  2  0  0  0
  8  9  1  0  0  0
  8 23  1  0  0  0
  9 10  2  0  0  0
  9 14  1  0  0  0
 10 11  1  0  0  0
 11 13  1  0  0  0
 11 12  2  0  0  0
 13 14  1  0  0  0
 13 24  1  0  0  0
 14 25  1  0  0  0
M  END
> <s_m_entry_id>
193

> <s_m_entry_name>
CHEMBL1999120.1

> <s_m_job_name>
mmod_csearch_27

> <s_lp_label>
 _42

> <r_mmod_Potential_Energy-MMFF94s>
79.691467

> <b_mmod_Minimization_Converged-MMFF94s>
1

> <r_mmod_RMS_Derivative-MMFF94s>
0.006484

> <i_mmod_Times_Found-MMFF94s>
266

> <r_mmod_Relative_Potential_Energy-MMFF94s>
0

> <i_mmod_Conformation-MMFF94s>
1

> <i_mmod_Serial_Number-MMFF94s>
42

$$$$
