CHEMBL1991078.smi
                    3D
 Structure written by MMmdl.
 56 60  0  0  1  0            999 V2000
   23.6266   -1.8373   12.3705 C   0  0  0  0  0  0
   23.3269   -1.6276   10.9879 O   0  0  0  0  0  0
   21.9719   -1.5242   10.8172 C   0  0  0  0  0  0
   21.4343   -0.2388   10.7286 C   0  0  0  0  0  0
   20.0566   -0.0691   10.5891 C   0  0  0  0  0  0
   19.2172   -1.1902   10.5527 C   0  0  0  0  0  0
   19.7651   -2.4789   10.5731 C   0  0  0  0  0  0
   21.1451   -2.6477   10.6914 C   0  0  0  0  0  0
   21.5867   -3.9439   10.7346 O   0  0  0  0  0  0
   22.6057   -4.2045    9.7684 C   0  0  0  0  0  0
   17.7491   -1.0472   10.4188 C   0  0  0  0  0  0
   17.1682   -1.7620    9.6032 O   0  0  0  0  0  0
   17.0699   -0.0732   11.1001 N   0  0  0  0  0  0
   17.3650    0.5876   12.2699 C   0  0  0  0  0  0
   16.7380    1.7475   12.4869 N   0  0  0  0  0  0
   17.2565    2.1933   13.6397 N   0  0  0  0  0  0
   16.9465    3.0925   13.9906 H   0  0  0  0  0  0
   18.1421    1.3327   14.2249 C   0  0  0  0  0  0
   18.8583    1.4216   15.4204 C   0  0  0  0  0  0
   19.6554    0.3252   15.7696 C   0  0  0  0  0  0
   19.7193   -0.8273   14.9746 C   0  0  0  0  0  0
   18.9762   -0.8754   13.7808 C   0  0  0  0  0  0
   18.2054    0.2358   13.3712 C   0  0  0  0  0  0
   20.5364   -1.9498   15.4082 C   0  0  0  0  0  0
   20.7579   -3.1360   14.7427 C   0  0  0  0  0  0
   21.5772   -3.8375   15.5804 N   0  0  0  0  0  0
   22.0701   -5.1932   15.4203 C   0  0  0  0  0  0
   23.3501   -5.2377   14.6243 C   0  0  0  0  0  0
   24.5420   -4.7244   15.1597 C   0  0  0  0  0  0
   25.7280   -4.7718   14.4260 C   0  0  0  0  0  0
   25.7383   -5.3366   13.1528 C   0  0  0  0  0  0
   24.5629   -5.8527   12.6114 C   0  0  0  0  0  0
   23.3733   -5.8017   13.3404 C   0  0  0  0  0  0
   21.8468   -3.1400   16.6990 N   0  0  0  0  0  0
   21.2216   -1.9751   16.5988 N   0  0  0  0  0  0
   23.1770   -2.7629   12.7394 H   0  0  0  0  0  0
   23.2967   -0.9867   12.9772 H   0  0  0  0  0  0
   24.7127   -1.9244   12.4681 H   0  0  0  0  0  0
   22.0879    0.6279   10.7801 H   0  0  0  0  0  0
   19.6489    0.9361   10.5140 H   0  0  0  0  0  0
   19.1174   -3.3489   10.4938 H   0  0  0  0  0  0
   23.5945   -3.9941   10.1847 H   0  0  0  0  0  0
   22.4514   -3.6494    8.8359 H   0  0  0  0  0  0
   22.5691   -5.2721    9.5303 H   0  0  0  0  0  0
   16.1945    0.2166   10.6851 H   0  0  0  0  0  0
   18.7981    2.2929   16.0648 H   0  0  0  0  0  0
   20.2215    0.3746   16.7000 H   0  0  0  0  0  0
   18.9702   -1.7759   13.1802 H   0  0  0  0  0  0
   20.4283   -3.5346   13.7952 H   0  0  0  0  0  0
   21.2762   -5.7718   14.9339 H   0  0  0  0  0  0
   22.2236   -5.6255   16.4160 H   0  0  0  0  0  0
   24.5524   -4.2789   16.1539 H   0  0  0  0  0  0
   26.6445   -4.3692   14.8502 H   0  0  0  0  0  0
   26.6631   -5.3752   12.5829 H   0  0  0  0  0  0
   24.5720   -6.2936   11.6179 H   0  0  0  0  0  0
   22.4660   -6.2025   12.8925 H   0  0  0  0  0  0
  1  2  1  0  0  0
  1 36  1  0  0  0
  1 37  1  0  0  0
  1 38  1  0  0  0
  2  3  1  0  0  0
  3  4  2  0  0  0
  3  8  1  0  0  0
  4  5  1  0  0  0
  4 39  1  0  0  0
  5  6  2  0  0  0
  5 40  1  0  0  0
  6  7  1  0  0  0
  6 11  1  0  0  0
  7  8  2  0  0  0
  7 41  1  0  0  0
  8  9  1  0  0  0
  9 10  1  0  0  0
 10 42  1  0  0  0
 10 43  1  0  0  0
 10 44  1  0  0  0
 11 13  1  0  0  0
 11 12  2  0  0  0
 13 14  1  0  0  0
 13 45  1  0  0  0
 14 23  1  0  0  0
 14 15  2  0  0  0
 15 16  1  0  0  0
 16 18  1  0  0  0
 16 17  1  0  0  0
 18 23  1  0  0  0
 18 19  2  0  0  0
 19 20  1  0  0  0
 19 46  1  0  0  0
 20 21  2  0  0  0
 20 47  1  0  0  0
 21 22  1  0  0  0
 21 24  1  0  0  0
 22 23  2  0  0  0
 22 48  1  0  0  0
 24 25  2  0  0  0
 24 35  1  0  0  0
 25 26  1  0  0  0
 25 49  1  0  0  0
 26 34  1  0  0  0
 26 27  1  0  0  0
 27 28  1  0  0  0
 27 50  1  0  0  0
 27 51  1  0  0  0
 28 29  2  0  0  0
 28 33  1  0  0  0
 29 30  1  0  0  0
 29 52  1  0  0  0
 30 31  2  0  0  0
 30 53  1  0  0  0
 31 32  1  0  0  0
 31 54  1  0  0  0
 32 33  2  0  0  0
 32 55  1  0  0  0
 33 56  1  0  0  0
 34 35  2  0  0  0
M  END
> <s_m_entry_id>
173

> <s_m_entry_name>
CHEMBL1991078.1

> <s_m_job_name>
mmod_csearch_27

> <s_lp_label>
 _21

> <r_mmod_Potential_Energy-MMFF94s>
332.384552

> <b_mmod_Minimization_Converged-MMFF94s>
1

> <r_mmod_RMS_Derivative-MMFF94s>
0.010561

> <i_mmod_Times_Found-MMFF94s>
73

> <r_mmod_Relative_Potential_Energy-MMFF94s>
0

> <i_mmod_Conformation-MMFF94s>
1

> <i_mmod_Serial_Number-MMFF94s>
21

$$$$
