CHEMBL1987535.smi
                    3D
 Structure written by MMmdl.
 45 48  0  0  1  0            999 V2000
    6.2258   -7.5052   -5.0542 O   0  0  0  0  0  0
    5.9909   -7.4889   -3.8481 C   0  0  0  0  0  0
    6.9705   -7.7347   -2.9279 N   0  0  0  0  0  0
    8.3419   -8.0094   -3.3172 C   0  0  0  0  0  0
    9.1135   -6.7436   -3.7111 C   0  0  0  0  0  0
    9.1575   -5.7287   -2.6001 C   0  0  0  0  0  0
    8.3318   -4.6359   -2.4180 C   0  0  0  0  0  0
    8.6641   -3.8950   -1.2483 C   0  0  0  0  0  0
    9.7335   -4.4451   -0.5780 C   0  0  0  0  0  0
   10.3301   -5.8453   -1.3577 S   0  0  0  0  0  0
    4.7494   -7.1882   -3.3313 N   0  0  0  0  0  0
    4.3074   -7.3662   -1.9486 C   0  0  0  0  0  0
    3.9752   -6.0054   -1.3346 C   0  0  0  0  0  0
    3.1004   -5.1975   -2.2670 C   0  0  0  0  0  0
    2.9880   -5.5294   -3.5687 C   0  0  0  0  0  0
    3.7384   -6.6523   -4.2337 C   0  0  0  0  0  0
    2.3802   -4.1266   -1.6517 C   0  0  0  0  0  0
    1.0140   -3.9488   -1.7669 C   0  0  0  0  0  0
    0.6707   -2.8391   -1.0384 N   0  0  0  0  0  0
   -0.2558   -2.4553   -0.9264 H   0  0  0  0  0  0
    1.7863   -2.2946   -0.4665 C   0  0  0  0  0  0
    1.7765   -1.1928    0.3065 N   0  0  0  0  0  0
    3.0087   -0.8434    0.7387 C   0  0  0  0  0  0
    4.1898   -1.5118    0.4454 C   0  0  0  0  0  0
    4.1410   -2.6508   -0.3600 C   0  0  0  0  0  0
    2.8838   -3.0692   -0.8336 C   0  0  0  0  0  0
    6.8187   -7.4719   -1.9692 H   0  0  0  0  0  0
    8.3338   -8.7105   -4.1593 H   0  0  0  0  0  0
    8.8191   -8.5092   -2.4674 H   0  0  0  0  0  0
    8.6501   -6.2835   -4.5929 H   0  0  0  0  0  0
   10.1329   -7.0195   -4.0075 H   0  0  0  0  0  0
    7.5252   -4.3825   -3.0973 H   0  0  0  0  0  0
    8.1496   -3.0007   -0.9196 H   0  0  0  0  0  0
   10.1994   -4.0907    0.3312 H   0  0  0  0  0  0
    5.0427   -7.8946   -1.3378 H   0  0  0  0  0  0
    3.4139   -8.0040   -1.9720 H   0  0  0  0  0  0
    4.9091   -5.4616   -1.1503 H   0  0  0  0  0  0
    3.4824   -6.1675   -0.3685 H   0  0  0  0  0  0
    2.3360   -4.9527   -4.2204 H   0  0  0  0  0  0
    3.0477   -7.4624   -4.4919 H   0  0  0  0  0  0
    4.1942   -6.2830   -5.1580 H   0  0  0  0  0  0
    0.2575   -4.5165   -2.2921 H   0  0  0  0  0  0
    3.0288    0.0462    1.3644 H   0  0  0  0  0  0
    5.1352   -1.1496    0.8340 H   0  0  0  0  0  0
    5.0485   -3.1848   -0.6172 H   0  0  0  0  0  0
  1  2  2  0  0  0
  2 11  1  0  0  0
  2  3  1  0  0  0
  3  4  1  0  0  0
  3 27  1  0  0  0
  4  5  1  0  0  0
  4 28  1  0  0  0
  4 29  1  0  0  0
  5  6  1  0  0  0
  5 30  1  0  0  0
  5 31  1  0  0  0
  6  7  2  0  0  0
  6 10  1  0  0  0
  7  8  1  0  0  0
  7 32  1  0  0  0
  8  9  2  0  0  0
  8 33  1  0  0  0
  9 10  1  0  0  0
  9 34  1  0  0  0
 11 12  1  0  0  0
 11 16  1  0  0  0
 12 13  1  0  0  0
 12 35  1  0  0  0
 12 36  1  0  0  0
 13 14  1  0  0  0
 13 37  1  0  0  0
 13 38  1  0  0  0
 14 15  2  0  0  0
 14 17  1  0  0  0
 15 16  1  0  0  0
 15 39  1  0  0  0
 16 40  1  0  0  0
 16 41  1  0  0  0
 17 26  1  0  0  0
 17 18  2  0  0  0
 18 19  1  0  0  0
 18 42  1  0  0  0
 19 21  1  0  0  0
 19 20  1  0  0  0
 21 26  1  0  0  0
 21 22  2  0  0  0
 22 23  1  0  0  0
 23 24  2  0  0  0
 23 43  1  0  0  0
 24 25  1  0  0  0
 24 44  1  0  0  0
 25 26  2  0  0  0
 25 45  1  0  0  0
M  END
> <s_m_entry_id>
9843

> <s_m_job_name>
mmod_csearch_10

> <r_mmod_Potential_Energy-MMFF94s>
-227.546753

> <b_mmod_Minimization_Converged-MMFF94s>
0

> <r_mmod_RMS_Derivative-MMFF94s>
0.068593

> <i_mmod_Times_Found-MMFF94s>
30

> <r_mmod_Relative_Potential_Energy-MMFF94s>
0

> <i_mmod_Conformation-MMFF94s>
1

> <s_lp_label>
 _12

> <i_mmod_Serial_Number-MMFF94s>
12

$$$$
