CHEMBL1973720.smi
                    3D
 Structure written by MMmdl.
 43 46  0  0  1  0            999 V2000
    4.0437   -3.0062   -0.2576 N   0  0  0  0  0  0
    3.4166   -1.6921   -0.1011 C   0  0  1  0  0  0
    4.4511   -0.5864   -0.3363 C   0  0  0  0  0  0
    4.9119   -0.5051   -1.7950 C   0  0  0  0  0  0
    3.7476   -0.4092   -2.7935 C   0  0  1  0  0  0
    2.6916   -1.4933   -2.5373 C   0  0  0  0  0  0
    2.2422   -1.5501   -1.0749 C   0  0  0  0  0  0
    3.1503    0.9090   -2.7086 N   0  0  0  0  0  0
    2.4844    1.4999   -3.7447 C   0  0  0  0  0  0
    1.9194    2.6739   -3.4731 N   0  0  0  0  0  0
    1.2643    3.2557   -4.4857 C   0  0  0  0  0  0
    0.5458    4.7641   -4.0862 Cl  0  0  0  0  0  0
    1.1413    2.7424   -5.7476 C   0  0  0  0  0  0
    1.7585    1.5315   -5.9324 C   0  0  0  0  0  0
    2.4219    0.9043   -4.9405 N   0  0  0  0  0  0
    1.7354    0.8374   -7.2184 C   0  0  0  0  0  0
    1.4813    1.4567   -8.4347 C   0  0  0  0  0  0
    1.5512    0.5095   -9.4254 N   0  0  0  0  0  0
    1.4167    0.6592  -10.4146 H   0  0  0  0  0  0
    1.8486   -0.7075   -8.8848 C   0  0  0  0  0  0
    1.9851   -1.8376   -9.6024 N   0  0  0  0  0  0
    2.2860   -2.9115   -8.8373 C   0  0  0  0  0  0
    2.4454   -2.9046   -7.4586 C   0  0  0  0  0  0
    2.2893   -1.7026   -6.7676 C   0  0  0  0  0  0
    1.9779   -0.5476   -7.5090 C   0  0  0  0  0  0
    3.3617   -3.7362   -0.0523 H   0  0  0  0  0  0
    4.7889   -3.1136    0.4302 H   0  0  0  0  0  0
    3.0400   -1.6154    0.9256 H   0  0  0  0  0  0
    5.3240   -0.7365    0.3114 H   0  0  0  0  0  0
    4.0164    0.3758   -0.0382 H   0  0  0  0  0  0
    5.5824    0.3554   -1.9120 H   0  0  0  0  0  0
    5.5071   -1.3961   -2.0314 H   0  0  0  0  0  0
    4.1739   -0.5553   -3.7943 H   0  0  0  0  0  0
    1.8121   -1.3360   -3.1730 H   0  0  0  0  0  0
    3.1076   -2.4671   -2.8247 H   0  0  0  0  0  0
    1.6858   -0.6357   -0.8322 H   0  0  0  0  0  0
    1.5365   -2.3801   -0.9441 H   0  0  0  0  0  0
    3.1093    1.4223   -1.8421 H   0  0  0  0  0  0
    0.5911    3.2571   -6.5198 H   0  0  0  0  0  0
    1.2690    2.4849   -8.6947 H   0  0  0  0  0  0
    2.4043   -3.8392   -9.3926 H   0  0  0  0  0  0
    2.6882   -3.8183   -6.9275 H   0  0  0  0  0  0
    2.4077   -1.6607   -5.6904 H   0  0  0  0  0  0
  1  2  1  0  0  0
  1 26  1  0  0  0
  1 27  1  0  0  0
  2  7  1  0  0  0
  2  3  1  0  0  0
  2 28  1  0  0  0
  3  4  1  0  0  0
  3 29  1  0  0  0
  3 30  1  0  0  0
  4  5  1  0  0  0
  4 31  1  0  0  0
  4 32  1  0  0  0
  5  6  1  0  0  0
  5  8  1  0  0  0
  5 33  1  0  0  0
  6  7  1  0  0  0
  6 34  1  0  0  0
  6 35  1  0  0  0
  7 36  1  0  0  0
  7 37  1  0  0  0
  8  9  1  0  0  0
  8 38  1  0  0  0
  9 15  1  0  0  0
  9 10  2  0  0  0
 10 11  1  0  0  0
 11 13  2  0  0  0
 11 12  1  0  0  0
 13 14  1  0  0  0
 13 39  1  0  0  0
 14 15  2  0  0  0
 14 16  1  0  0  0
 16 25  1  0  0  0
 16 17  2  0  0  0
 17 18  1  0  0  0
 17 40  1  0  0  0
 18 20  1  0  0  0
 18 19  1  0  0  0
 20 25  1  0  0  0
 20 21  2  0  0  0
 21 22  1  0  0  0
 22 23  2  0  0  0
 22 41  1  0  0  0
 23 24  1  0  0  0
 23 42  1  0  0  0
 24 25  2  0  0  0
 24 43  1  0  0  0
M  END
> <s_m_entry_id>
10093

> <s_m_job_name>
mmod_csearch_12

> <r_mmod_Potential_Energy-MMFF94s>
-417.480682

> <b_mmod_Minimization_Converged-MMFF94s>
1

> <r_mmod_RMS_Derivative-MMFF94s>
0.006996

> <i_mmod_Times_Found-MMFF94s>
39

> <r_mmod_Relative_Potential_Energy-MMFF94s>
0

> <i_mmod_Conformation-MMFF94s>
1

> <s_lp_label>
 _62

> <i_mmod_Serial_Number-MMFF94s>
62

$$$$
