CHEMBL1973013.smi
                    3D
 Structure written by MMmdl.
 32 33  0  0  1  0            999 V2000
    5.5787   -0.4837    0.8994 C   0  0  0  0  0  0
    5.7274   -1.9144    0.3878 C   0  0  0  0  0  0
    6.1730   -2.8388    1.5206 C   0  0  0  0  0  0
    4.4627   -2.3884   -0.1255 N   0  0  0  0  0  0
    4.0424   -2.1499   -1.4029 C   0  0  0  0  0  0
    2.7955   -2.5402   -1.6847 N   0  0  0  0  0  0
    2.3609   -2.3131   -2.9372 C   0  0  0  0  0  0
    3.1268   -1.7156   -3.9100 C   0  0  0  0  0  0
    2.4158   -1.4513   -5.6405 Br  0  0  0  0  0  0
    4.4135   -1.3415   -3.5444 C   0  0  0  0  0  0
    5.2393   -0.7078   -4.4926 N   0  0  0  0  0  0
    6.4062   -0.0468   -4.3365 C   0  0  0  0  0  0
    7.1259    0.2770   -5.3930 N   0  0  0  0  0  0
    8.2654    0.9615   -5.0220 C   0  0  0  0  0  0
    8.4131    1.1805   -3.6716 C   0  0  0  0  0  0
    9.4995    1.8739   -2.9364 C   0  0  0  0  0  0
    7.0773    0.5076   -2.8448 S   0  0  0  0  0  0
    4.8550   -1.5578   -2.2889 N   0  0  0  0  0  0
    6.5271   -0.1144    1.3034 H   0  0  0  0  0  0
    4.8237   -0.4201    1.6912 H   0  0  0  0  0  0
    5.2693    0.1939    0.0968 H   0  0  0  0  0  0
    6.5048   -1.9485   -0.3851 H   0  0  0  0  0  0
    5.4439   -2.8512    2.3386 H   0  0  0  0  0  0
    7.1374   -2.5186    1.9288 H   0  0  0  0  0  0
    6.2827   -3.8678    1.1606 H   0  0  0  0  0  0
    3.7565   -2.7759    0.4807 H   0  0  0  0  0  0
    1.3442   -2.6406   -3.1319 H   0  0  0  0  0  0
    4.9907   -0.9090   -5.4525 H   0  0  0  0  0  0
    8.9597    1.2824   -5.7892 H   0  0  0  0  0  0
   10.2704    2.2341   -3.6257 H   0  0  0  0  0  0
    9.9797    1.1973   -2.2219 H   0  0  0  0  0  0
    9.1093    2.7385   -2.3895 H   0  0  0  0  0  0
  1  2  1  0  0  0
  1 19  1  0  0  0
  1 20  1  0  0  0
  1 21  1  0  0  0
  2  4  1  0  0  0
  2  3  1  0  0  0
  2 22  1  0  0  0
  3 23  1  0  0  0
  3 24  1  0  0  0
  3 25  1  0  0  0
  4  5  1  0  0  0
  4 26  1  0  0  0
  5 18  1  0  0  0
  5  6  2  0  0  0
  6  7  1  0  0  0
  7  8  2  0  0  0
  7 27  1  0  0  0
  8 10  1  0  0  0
  8  9  1  0  0  0
 10 18  2  0  0  0
 10 11  1  0  0  0
 11 12  1  0  0  0
 11 28  1  0  0  0
 12 13  2  0  0  0
 12 17  1  0  0  0
 13 14  1  0  0  0
 14 15  2  0  0  0
 14 29  1  0  0  0
 15 17  1  0  0  0
 15 16  1  0  0  0
 16 30  1  0  0  0
 16 31  1  0  0  0
 16 32  1  0  0  0
M  END
> <s_m_entry_id>
9871

> <s_m_job_name>
mmod_csearch_10

> <r_mmod_Potential_Energy-MMFF94s>
-420.169708

> <b_mmod_Minimization_Converged-MMFF94s>
1

> <r_mmod_RMS_Derivative-MMFF94s>
0.008379

> <i_mmod_Times_Found-MMFF94s>
100

> <r_mmod_Relative_Potential_Energy-MMFF94s>
0

> <i_mmod_Conformation-MMFF94s>
1

> <s_lp_label>
 _40

> <i_mmod_Serial_Number-MMFF94s>
40

$$$$
