CHEMBL550418.smi
                    3D
 Structure written by MMmdl.
 42 45  0  0  1  0            999 V2000
  -14.7211   11.3793   -2.1490 C   0  0  0  0  0  0
  -14.9677   10.8011   -0.8722 O   0  0  0  0  0  0
  -13.8680   10.4113   -0.1512 C   0  0  0  0  0  0
  -12.5346   10.5303   -0.5490 C   0  0  0  0  0  0
  -11.4876   10.0870    0.2853 C   0  0  0  0  0  0
  -11.8131    9.5207    1.5306 C   0  0  0  0  0  0
  -13.1419    9.3988    1.9365 C   0  0  0  0  0  0
  -14.1509    9.8434    1.0947 C   0  0  0  0  0  0
  -15.4467    9.7125    1.5144 O   0  0  0  0  0  0
  -10.0836   10.2123   -0.1393 C   0  0  0  0  0  0
   -9.5478   11.4563   -0.4970 C   0  0  0  0  0  0
   -8.2156   11.5685   -0.8933 C   0  0  0  0  0  0
   -7.3949   10.4333   -0.9338 C   0  0  0  0  0  0
   -5.9801   10.6388   -1.3288 C   0  0  0  0  0  0
   -5.6683   11.4435   -2.1974 O   0  0  0  0  0  0
   -5.0777    9.8954   -0.5931 N   0  0  0  0  0  0
   -4.8196    8.6054   -1.0979 C   0  0  0  0  0  0
   -3.5320    8.2865   -1.5274 C   0  0  0  0  0  0
   -3.2482    6.9838   -1.9377 C   0  0  0  0  0  0
   -4.2447    6.0059   -1.9061 C   0  0  0  0  0  0
   -5.5279    6.3450   -1.4738 C   0  0  0  0  0  0
   -6.5242    5.4009   -1.4381 O   0  0  0  0  0  0
   -5.8463    7.6512   -1.0691 C   0  0  0  0  0  0
   -7.1770    7.9495   -0.6956 N   0  0  0  0  0  0
   -7.9019    9.1571   -0.6224 C   0  0  0  0  0  0
   -9.2466    9.0809   -0.2074 C   0  0  0  0  0  0
  -15.6887   11.6344   -2.5920 H   0  0  0  0  0  0
  -14.2271   10.6655   -2.8165 H   0  0  0  0  0  0
  -14.1422   12.3043   -2.0581 H   0  0  0  0  0  0
  -12.2770   10.9557   -1.5143 H   0  0  0  0  0  0
  -11.0269    9.1792    2.2012 H   0  0  0  0  0  0
  -13.3881    8.9642    2.9005 H   0  0  0  0  0  0
  -15.9850   10.0811    0.7871 H   0  0  0  0  0  0
  -10.1627   12.3536   -0.4558 H   0  0  0  0  0  0
   -7.8117   12.5430   -1.1620 H   0  0  0  0  0  0
   -5.4085    9.8040    0.3639 H   0  0  0  0  0  0
   -2.7555    9.0468   -1.5391 H   0  0  0  0  0  0
   -2.2464    6.7313   -2.2769 H   0  0  0  0  0  0
   -4.0046    4.9958   -2.2232 H   0  0  0  0  0  0
   -6.1707    4.5711   -1.8010 H   0  0  0  0  0  0
   -7.7298    7.0955   -0.6338 H   0  0  0  0  0  0
   -9.6662    8.1082    0.0478 H   0  0  0  0  0  0
  1  2  1  0  0  0
  1 27  1  0  0  0
  1 28  1  0  0  0
  1 29  1  0  0  0
  2  3  1  0  0  0
  3  4  2  0  0  0
  3  8  1  0  0  0
  4  5  1  0  0  0
  4 30  1  0  0  0
  5  6  2  0  0  0
  5 10  1  0  0  0
  6  7  1  0  0  0
  6 31  1  0  0  0
  7  8  2  0  0  0
  7 32  1  0  0  0
  8  9  1  0  0  0
  9 33  1  0  0  0
 10 11  2  0  0  0
 10 26  1  0  0  0
 11 12  1  0  0  0
 11 34  1  0  0  0
 12 13  2  0  0  0
 12 35  1  0  0  0
 13 25  1  0  0  0
 13 14  1  0  0  0
 14 16  1  0  0  0
 14 15  2  0  0  0
 16 17  1  0  0  0
 16 36  1  0  0  0
 17 23  1  0  0  0
 17 18  2  0  0  0
 18 19  1  0  0  0
 18 37  1  0  0  0
 19 20  2  0  0  0
 19 38  1  0  0  0
 20 21  1  0  0  0
 20 39  1  0  0  0
 21 23  2  0  0  0
 21 22  1  0  0  0
 22 40  1  0  0  0
 23 24  1  0  0  0
 24 25  1  0  0  0
 24 41  1  0  0  0
 25 26  2  0  0  0
 26 42  1  0  0  0
M  END
> <s_m_entry_id>
123

> <s_m_entry_name>
CHEMBL550418.1

> <s_m_job_name>
mmod_csearch_23

> <s_lp_label>
 _3

> <r_mmod_Potential_Energy-MMFF94s>
456.940552

> <b_mmod_Minimization_Converged-MMFF94s>
1

> <r_mmod_RMS_Derivative-MMFF94s>
0.011517

> <i_mmod_Times_Found-MMFF94s>
214

> <r_mmod_Relative_Potential_Energy-MMFF94s>
0

> <i_mmod_Conformation-MMFF94s>
1

> <i_mmod_Serial_Number-MMFF94s>
3

$$$$
