CHEMBL1973516.smi
                    3D
 Structure written by MMmdl.
 58 62  0  0  1  0            999 V2000
    2.0252   -0.9855    1.9335 C   0  0  0  0  0  0
    3.0249   -1.8038    1.1235 C   0  0  0  0  0  0
    2.9353   -3.2461    1.3954 N   0  0  0  0  0  0
    4.0776   -3.9497    0.7626 C   0  0  0  0  0  0
    4.0553   -5.4782    0.9869 C   0  0  0  0  0  0
    2.7717   -6.0591    0.5572 N   0  0  0  0  0  0
    1.5853   -5.3653    1.0899 C   0  0  0  0  0  0
    1.6819   -3.8363    0.8718 C   0  0  0  0  0  0
    2.6733   -7.4214    0.2984 C   0  0  0  0  0  0
    1.6296   -7.9330   -0.4834 C   0  0  0  0  0  0
    1.5263   -9.3012   -0.7809 C   0  0  0  0  0  0
    2.4665  -10.2211   -0.3070 C   0  0  0  0  0  0
    2.3596  -11.5619   -0.6913 N   0  0  0  0  0  0
    3.2615  -12.6206   -0.6780 C   0  0  0  0  0  0
    2.7928  -13.7963   -1.1164 N   0  0  0  0  0  0
    3.6687  -14.8197   -1.1672 C   0  0  0  0  0  0
    4.9921  -14.7156   -0.8020 C   0  0  0  0  0  0
    5.8558  -15.8421   -0.8919 C   0  0  0  0  0  0
    6.5652  -16.7589   -0.9386 N   0  0  0  0  0  0
    5.4059  -13.4753   -0.3510 C   0  0  0  0  0  0
    6.7498  -13.2492    0.0196 N   0  0  0  0  0  0
    7.4517  -12.0355    0.1904 C   0  0  0  0  0  0
    8.6244  -12.0353    0.9656 C   0  0  0  0  0  0
    9.3598  -10.8667    1.2185 C   0  0  0  0  0  0
    8.8726   -9.6820    0.6650 C   0  0  0  0  0  0
    9.3202   -8.3884    0.7245 N   0  0  0  0  0  0
   10.1377   -8.0395    1.2109 H   0  0  0  0  0  0
    8.5550   -7.5083    0.0519 N   0  0  0  0  0  0
    7.5901   -8.2736   -0.4671 C   0  0  0  0  0  0
    7.7296   -9.6353   -0.1203 C   0  0  0  0  0  0
    7.0217  -10.8238   -0.3752 C   0  0  0  0  0  0
    4.5343  -12.4482   -0.2979 N   0  0  0  0  0  0
    3.5056   -9.7187    0.4753 C   0  0  0  0  0  0
    3.6088   -8.3495    0.7675 C   0  0  0  0  0  0
    2.2263    0.0830    1.8023 H   0  0  0  0  0  0
    2.1032   -1.2115    3.0021 H   0  0  0  0  0  0
    0.9946   -1.1658    1.6140 H   0  0  0  0  0  0
    4.0253   -1.4498    1.4033 H   0  0  0  0  0  0
    2.8986   -1.5901    0.0547 H   0  0  0  0  0  0
    5.0182   -3.5638    1.1745 H   0  0  0  0  0  0
    4.0885   -3.7513   -0.3180 H   0  0  0  0  0  0
    4.8855   -5.9074    0.4125 H   0  0  0  0  0  0
    4.2237   -5.6959    2.0492 H   0  0  0  0  0  0
    0.6581   -5.7069    0.6178 H   0  0  0  0  0  0
    1.4996   -5.5784    2.1634 H   0  0  0  0  0  0
    1.5876   -3.6275   -0.2025 H   0  0  0  0  0  0
    0.8173   -3.3846    1.3701 H   0  0  0  0  0  0
    0.8943   -7.2605   -0.9165 H   0  0  0  0  0  0
    0.7077   -9.6304   -1.4157 H   0  0  0  0  0  0
    1.4781  -11.8612   -1.0795 H   0  0  0  0  0  0
    3.2500  -15.7556   -1.5305 H   0  0  0  0  0  0
    7.2204  -14.0509    0.4224 H   0  0  0  0  0  0
    8.9833  -12.9639    1.4058 H   0  0  0  0  0  0
   10.2572  -10.8904    1.8276 H   0  0  0  0  0  0
    6.8182   -7.8142   -1.0715 H   0  0  0  0  0  0
    6.1405  -10.7775   -1.0061 H   0  0  0  0  0  0
    4.2599  -10.3788    0.8929 H   0  0  0  0  0  0
    4.4401   -8.0357    1.3926 H   0  0  0  0  0  0
  1  2  1  0  0  0
  1 35  1  0  0  0
  1 36  1  0  0  0
  1 37  1  0  0  0
  2  3  1  0  0  0
  2 38  1  0  0  0
  2 39  1  0  0  0
  3  8  1  0  0  0
  3  4  1  0  0  0
  4  5  1  0  0  0
  4 40  1  0  0  0
  4 41  1  0  0  0
  5  6  1  0  0  0
  5 42  1  0  0  0
  5 43  1  0  0  0
  6  7  1  0  0  0
  6  9  1  0  0  0
  7  8  1  0  0  0
  7 44  1  0  0  0
  7 45  1  0  0  0
  8 46  1  0  0  0
  8 47  1  0  0  0
  9 10  2  0  0  0
  9 34  1  0  0  0
 10 11  1  0  0  0
 10 48  1  0  0  0
 11 12  2  0  0  0
 11 49  1  0  0  0
 12 33  1  0  0  0
 12 13  1  0  0  0
 13 14  1  0  0  0
 13 50  1  0  0  0
 14 32  1  0  0  0
 14 15  2  0  0  0
 15 16  1  0  0  0
 16 17  2  0  0  0
 16 51  1  0  0  0
 17 20  1  0  0  0
 17 18  1  0  0  0
 18 19  3  0  0  0
 20 32  2  0  0  0
 20 21  1  0  0  0
 21 22  1  0  0  0
 21 52  1  0  0  0
 22 23  2  0  0  0
 22 31  1  0  0  0
 23 24  1  0  0  0
 23 53  1  0  0  0
 24 25  2  0  0  0
 24 54  1  0  0  0
 25 26  1  0  0  0
 25 30  1  0  0  0
 26 28  1  0  0  0
 26 27  1  0  0  0
 28 29  2  0  0  0
 29 30  1  0  0  0
 29 55  1  0  0  0
 30 31  2  0  0  0
 31 56  1  0  0  0
 33 34  2  0  0  0
 33 57  1  0  0  0
 34 58  1  0  0  0
M  END
> <s_m_entry_id>
9940

> <s_m_job_name>
mmod_csearch_11

> <r_mmod_Potential_Energy-MMFF94s>
175.446304

> <b_mmod_Minimization_Converged-MMFF94s>
0

> <r_mmod_RMS_Derivative-MMFF94s>
0.157307

> <i_mmod_Times_Found-MMFF94s>
10

> <r_mmod_Relative_Potential_Energy-MMFF94s>
0

> <i_mmod_Conformation-MMFF94s>
1

> <s_lp_label>
 _9

> <i_mmod_Serial_Number-MMFF94s>
9

$$$$
