CHEMBL1973359.smi
                    3D
 Structure written by MMmdl.
 28 30  0  0  1  0            999 V2000
    2.1204    0.7484   -0.0720 N   0  0  0  0  0  0
    3.1894   -0.0830    0.0549 C   0  0  0  0  0  0
    3.7805   -0.1992    1.1210 O   0  0  0  0  0  0
    3.6116   -0.7938   -1.1846 C   0  0  0  0  0  0
    2.6853   -1.2002   -2.2415 C   0  0  0  0  0  0
    3.1142   -1.8481   -3.3432 C   0  0  0  0  0  0
    4.4956   -2.1584   -3.4886 C   0  0  0  0  0  0
    5.1538   -2.7665   -4.4530 N   0  0  0  0  0  0
    6.4611   -2.7918   -4.0305 C   0  0  0  0  0  0
    6.6027   -2.1935   -2.7994 C   0  0  0  0  0  0
    5.3430   -1.7832   -2.4500 N   0  0  0  0  0  0
    4.9145   -1.1143   -1.3090 C   0  0  0  0  0  0
    7.5639   -3.3868   -4.8053 C   0  0  0  0  0  0
    8.8746   -3.4137   -4.4084 O   0  0  0  0  0  0
    9.5597   -4.0454   -5.3972 C   0  0  0  0  0  0
    8.7335   -4.4303   -6.4253 C   0  0  0  0  0  0
    7.4380   -4.0016   -6.0397 C   0  0  0  0  0  0
   10.9669   -4.1934   -5.2029 N   0  3  0  0  0  0
   11.5860   -4.7734   -6.1056 O   0  0  0  0  0  0
   11.4598   -3.7378   -4.1633 O   0  5  0  0  0  0
    1.6568    0.9456   -0.9459 H   0  0  0  0  0  0
    1.8251    1.2512    0.7548 H   0  0  0  0  0  0
    1.6265   -1.0001   -2.1138 H   0  0  0  0  0  0
    2.4297   -2.1618   -4.1235 H   0  0  0  0  0  0
    7.4628   -2.0301   -2.1657 H   0  0  0  0  0  0
    5.6637   -0.8725   -0.5633 H   0  0  0  0  0  0
    9.0238   -4.9485   -7.3290 H   0  0  0  0  0  0
    6.5113   -4.1203   -6.5868 H   0  0  0  0  0  0
  1  2  1  0  0  0
  1 21  1  0  0  0
  1 22  1  0  0  0
  2  4  1  0  0  0
  2  3  2  0  0  0
  4  5  1  0  0  0
  4 12  2  0  0  0
  5  6  2  0  0  0
  5 23  1  0  0  0
  6  7  1  0  0  0
  6 24  1  0  0  0
  7  8  2  0  0  0
  7 11  1  0  0  0
  8  9  1  0  0  0
  9 10  2  0  0  0
  9 13  1  0  0  0
 10 11  1  0  0  0
 10 25  1  0  0  0
 11 12  1  0  0  0
 12 26  1  0  0  0
 13 14  1  0  0  0
 13 17  2  0  0  0
 14 15  1  0  0  0
 15 16  2  0  0  0
 15 18  1  0  0  0
 16 17  1  0  0  0
 16 27  1  0  0  0
 17 28  1  0  0  0
 18 20  1  0  0  0
 18 19  2  0  0  0
M  CHG  2  18   1  20  -1
M  END
> <s_m_entry_id>
10092

> <s_m_job_name>
mmod_csearch_12

> <r_mmod_Potential_Energy-MMFF94s>
146.71991

> <b_mmod_Minimization_Converged-MMFF94s>
1

> <r_mmod_RMS_Derivative-MMFF94s>
0.008203

> <i_mmod_Times_Found-MMFF94s>
328

> <r_mmod_Relative_Potential_Energy-MMFF94s>
0

> <i_mmod_Conformation-MMFF94s>
1

> <s_lp_label>
 _61

> <i_mmod_Serial_Number-MMFF94s>
61

$$$$
