CHEMBL38380.smi
                    3D
 Structure written by MMmdl.
 37 39  0  0  1  0            999 V2000
    7.2563    2.6046    9.1365 O   0  0  0  0  0  0
    6.3429    1.5319    8.7976 S   0  0  0  0  0  0
    5.0129    1.4847    9.3656 O   0  0  0  0  0  0
    6.2068    1.5309    7.0883 N   0  0  0  0  0  0
    7.4963    1.5372    6.3443 C   0  0  0  0  0  0
    7.4196    0.5196    5.2108 C   0  0  0  0  0  0
    6.5566    0.9659    4.0317 C   0  0  0  0  0  0
    5.1788    1.3132    4.3793 N   0  0  0  0  0  0
    5.0958    2.6094    5.0658 C   0  0  0  0  0  0
    5.2281    2.5541    6.6005 C   0  0  0  0  0  0
    7.1335   -0.0282    9.1463 C   0  0  0  0  0  0
    8.3804    0.0156    9.7917 C   0  0  0  0  0  0
    9.0611   -1.1629   10.0721 C   0  0  0  0  0  0
    8.5007   -2.3849    9.7111 C   0  0  0  0  0  0
    7.2490   -2.4450    9.0724 C   0  0  0  0  0  0
    6.6842   -3.6713    8.7112 C   0  0  0  0  0  0
    5.4899   -3.8214    8.0986 N   0  0  0  0  0  0
    4.8089   -2.6924    7.8372 C   0  0  0  0  0  0
    5.2733   -1.4233    8.1488 C   0  0  0  0  0  0
    6.5294   -1.2640    8.7801 C   0  0  0  0  0  0
    8.3210    1.2399    7.0000 H   0  0  0  0  0  0
    7.7405    2.5400    5.9770 H   0  0  0  0  0  0
    8.4339    0.3350    4.8360 H   0  0  0  0  0  0
    7.0488   -0.4397    5.5933 H   0  0  0  0  0  0
    7.0393    1.7947    3.4991 H   0  0  0  0  0  0
    6.5163    0.1389    3.3127 H   0  0  0  0  0  0
    4.8003    0.5917    4.9954 H   0  0  0  0  0  0
    5.8284    3.3146    4.6530 H   0  0  0  0  0  0
    4.1181    3.0490    4.8337 H   0  0  0  0  0  0
    5.5029    3.5472    6.9742 H   0  0  0  0  0  0
    4.2436    2.2935    7.0078 H   0  0  0  0  0  0
    8.8281    0.9653   10.0794 H   0  0  0  0  0  0
   10.0262   -1.1310   10.5724 H   0  0  0  0  0  0
    9.0471   -3.2992    9.9374 H   0  0  0  0  0  0
    7.1983   -4.6081    8.9134 H   0  0  0  0  0  0
    3.8450   -2.8310    7.3553 H   0  0  0  0  0  0
    4.6407   -0.5779    7.8988 H   0  0  0  0  0  0
  1  2  2  0  0  0
  2 11  1  0  0  0
  2  4  1  0  0  0
  2  3  2  0  0  0
  4 10  1  0  0  0
  4  5  1  0  0  0
  5  6  1  0  0  0
  5 21  1  0  0  0
  5 22  1  0  0  0
  6  7  1  0  0  0
  6 23  1  0  0  0
  6 24  1  0  0  0
  7  8  1  0  0  0
  7 25  1  0  0  0
  7 26  1  0  0  0
  8  9  1  0  0  0
  8 27  1  0  0  0
  9 10  1  0  0  0
  9 28  1  0  0  0
  9 29  1  0  0  0
 10 30  1  0  0  0
 10 31  1  0  0  0
 11 12  2  0  0  0
 11 20  1  0  0  0
 12 13  1  0  0  0
 12 32  1  0  0  0
 13 14  2  0  0  0
 13 33  1  0  0  0
 14 15  1  0  0  0
 14 34  1  0  0  0
 15 20  1  0  0  0
 15 16  2  0  0  0
 16 17  1  0  0  0
 16 35  1  0  0  0
 17 18  2  0  0  0
 18 19  1  0  0  0
 18 36  1  0  0  0
 19 20  2  0  0  0
 19 37  1  0  0  0
M  END
> <s_m_entry_id>
107

> <s_m_entry_name>
CHEMBL38380.1

> <s_m_job_name>
mmod_csearch_21

> <s_lp_label>
 _3

> <r_mmod_Potential_Energy-MMFF94s>
62.506493

> <b_mmod_Minimization_Converged-MMFF94s>
1

> <r_mmod_RMS_Derivative-MMFF94s>
0.010427

> <i_mmod_Times_Found-MMFF94s>
48

> <r_mmod_Relative_Potential_Energy-MMFF94s>
0

> <i_mmod_Conformation-MMFF94s>
1

> <i_mmod_Serial_Number-MMFF94s>
3

$$$$
