CHEMBL1983111.smi
                    3D
 Structure written by MMmdl.
 59 63  0  0  1  0            999 V2000
    4.3201   -5.6802   -4.0561 C   0  0  0  0  0  0
    4.7107   -4.2309   -3.9400 C   0  0  0  0  0  0
    4.0785   -3.3378   -4.4971 O   0  0  0  0  0  0
    5.8134   -4.0175   -3.1508 N   0  0  0  0  0  0
    6.2990   -2.6936   -2.8014 C   0  0  0  0  0  0
    6.1084   -2.5115   -1.2947 C   0  0  0  0  0  0
    6.8836   -3.0541   -0.5017 O   0  0  0  0  0  0
    4.9991   -1.8381   -0.8682 N   0  0  0  0  0  0
    4.4588   -1.9257    0.4834 C   0  0  1  0  0  0
    3.9163   -0.4923    0.6378 C   0  0  0  0  0  0
    3.4610   -0.1402   -0.8196 C   0  0  0  0  0  0
    3.8158   -1.4191   -1.6071 C   0  0  2  0  0  0
    2.8738   -2.5017   -1.1321 C   0  0  0  0  0  0
    1.8558   -3.1703   -1.7715 C   0  0  0  0  0  0
    1.1908   -4.1916   -1.0801 C   0  0  0  0  0  0
    0.2312   -5.0086   -1.6955 N   0  0  0  0  0  0
   -0.0265   -5.2701   -3.0382 C   0  0  0  0  0  0
   -1.0890   -6.0299   -3.3037 N   0  0  0  0  0  0
   -1.3179   -6.3019   -4.6028 C   0  0  0  0  0  0
   -0.5367   -5.8577   -5.6551 C   0  0  0  0  0  0
    0.5390   -5.0852   -5.2941 C   0  0  0  0  0  0
    1.4862   -4.5047   -6.1249 N   0  0  0  0  0  0
    1.5416   -4.2681   -7.5212 C   0  0  0  0  0  0
    0.8692   -2.9361   -7.9347 C   0  0  0  0  0  0
    2.0515   -2.7284   -8.9041 C   0  0  0  0  0  0
    2.8819   -3.6242   -7.9619 C   0  0  0  0  0  0
    0.7859   -4.8130   -3.9990 N   0  0  0  0  0  0
   -0.8896   -6.2687   -7.0348 C   0  0  0  0  0  0
   -1.1570   -5.2272   -7.8687 F   0  0  0  0  0  0
    0.0725   -7.0172   -7.6419 F   0  0  0  0  0  0
   -2.0143   -7.0468   -7.0854 F   0  0  0  0  0  0
    1.5720   -4.4748    0.2593 C   0  0  0  0  0  0
    2.6118   -3.7884    0.9066 C   0  0  0  0  0  0
    3.2639   -2.8163    0.1873 C   0  0  0  0  0  0
    5.1685   -6.3399   -3.8536 H   0  0  0  0  0  0
    3.9665   -5.8795   -5.0711 H   0  0  0  0  0  0
    3.5230   -5.8943   -3.3397 H   0  0  0  0  0  0
    6.2375   -4.7986   -2.6642 H   0  0  0  0  0  0
    5.8134   -1.9119   -3.3865 H   0  0  0  0  0  0
    7.3718   -2.6656   -3.0169 H   0  0  0  0  0  0
    5.1485   -2.2975    1.2423 H   0  0  0  0  0  0
    4.7126    0.1959    0.9439 H   0  0  0  0  0  0
    3.0915   -0.4150    1.3540 H   0  0  0  0  0  0
    2.3969    0.1148   -0.8651 H   0  0  0  0  0  0
    4.0424    0.7152   -1.1827 H   0  0  0  0  0  0
    3.9171   -1.3207   -2.6857 H   0  0  0  0  0  0
    1.6087   -2.9105   -2.7945 H   0  0  0  0  0  0
   -0.4039   -5.5198   -1.1031 H   0  0  0  0  0  0
   -2.1935   -6.9272   -4.7719 H   0  0  0  0  0  0
    2.1663   -3.9932   -5.5527 H   0  0  0  0  0  0
    1.2856   -5.1314   -8.1394 H   0  0  0  0  0  0
    0.8144   -2.1776   -7.1441 H   0  0  0  0  0  0
   -0.1111   -3.0194   -8.4105 H   0  0  0  0  0  0
    1.8897   -3.1622   -9.8976 H   0  0  0  0  0  0
    2.4015   -1.6993   -9.0152 H   0  0  0  0  0  0
    3.5892   -4.2954   -8.4567 H   0  0  0  0  0  0
    3.4147   -3.0578   -7.1892 H   0  0  0  0  0  0
    1.0712   -5.2765    0.7987 H   0  0  0  0  0  0
    2.9070   -4.0448    1.9177 H   0  0  0  0  0  0
  1  2  1  0  0  0
  1 35  1  0  0  0
  1 36  1  0  0  0
  1 37  1  0  0  0
  2  4  1  0  0  0
  2  3  2  0  0  0
  4  5  1  0  0  0
  4 38  1  0  0  0
  5  6  1  0  0  0
  5 39  1  0  0  0
  5 40  1  0  0  0
  6  8  1  0  0  0
  6  7  2  0  0  0
  8 12  1  0  0  0
  8  9  1  0  0  0
  9 34  1  0  0  0
  9 10  1  0  0  0
  9 41  1  0  0  0
 10 11  1  0  0  0
 10 42  1  0  0  0
 10 43  1  0  0  0
 11 12  1  0  0  0
 11 44  1  0  0  0
 11 45  1  0  0  0
 12 13  1  0  0  0
 12 46  1  0  0  0
 13 14  2  0  0  0
 13 34  1  0  0  0
 14 15  1  0  0  0
 14 47  1  0  0  0
 15 32  2  0  0  0
 15 16  1  0  0  0
 16 17  1  0  0  0
 16 48  1  0  0  0
 17 27  1  0  0  0
 17 18  2  0  0  0
 18 19  1  0  0  0
 19 20  2  0  0  0
 19 49  1  0  0  0
 20 21  1  0  0  0
 20 28  1  0  0  0
 21 27  2  0  0  0
 21 22  1  0  0  0
 22 23  1  0  0  0
 22 50  1  0  0  0
 23 26  1  0  0  0
 23 24  1  0  0  0
 23 51  1  0  0  0
 24 25  1  0  0  0
 24 52  1  0  0  0
 24 53  1  0  0  0
 25 26  1  0  0  0
 25 54  1  0  0  0
 25 55  1  0  0  0
 26 56  1  0  0  0
 26 57  1  0  0  0
 28 31  1  0  0  0
 28 30  1  0  0  0
 28 29  1  0  0  0
 32 33  1  0  0  0
 32 58  1  0  0  0
 33 34  2  0  0  0
 33 59  1  0  0  0
M  END
> <s_m_entry_id>
10095

> <s_m_job_name>
mmod_csearch_12

> <r_mmod_Potential_Energy-MMFF94s>
-220.141449

> <b_mmod_Minimization_Converged-MMFF94s>
1

> <r_mmod_RMS_Derivative-MMFF94s>
0.006984

> <i_mmod_Times_Found-MMFF94s>
15

> <r_mmod_Relative_Potential_Energy-MMFF94s>
0

> <i_mmod_Conformation-MMFF94s>
1

> <s_lp_label>
 _64

> <i_mmod_Serial_Number-MMFF94s>
64

$$$$
