CHEMBL2002105.smi
                    3D
 Structure written by MMmdl.
 16 17  0  0  1  0            999 V2000
    1.1377    0.0719    0.0808 N   0  0  0  0  0  0
    2.4726    0.0176    0.0818 C   0  0  0  0  0  0
    3.2399    1.1065    0.0833 N   0  0  0  0  0  0
    4.4932    0.6107    0.0839 N   0  0  0  0  0  0
    5.2778    1.2495    0.0850 H   0  0  0  0  0  0
    4.5485   -0.7519    0.0827 C   0  0  0  0  0  0
    5.6643   -1.5077    0.0829 N   0  0  0  0  0  0
    5.3861   -2.8368    0.0815 C   0  0  0  0  0  0
    4.1123   -3.3984    0.0801 C   0  0  0  0  0  0
    3.8951   -5.2737    0.0782 Br  0  0  0  0  0  0
    2.9922   -2.5668    0.0799 C   0  0  0  0  0  0
    3.2298   -1.1822    0.0813 C   0  0  0  0  0  0
    0.5328   -0.7373    0.0796 H   0  0  0  0  0  0
    0.6804    0.9760    0.0813 H   0  0  0  0  0  0
    6.2695   -3.4720    0.0817 H   0  0  0  0  0  0
    1.9835   -2.9627    0.0788 H   0  0  0  0  0  0
  1  2  1  0  0  0
  1 13  1  0  0  0
  1 14  1  0  0  0
  2 12  1  0  0  0
  2  3  2  0  0  0
  3  4  1  0  0  0
  4  6  1  0  0  0
  4  5  1  0  0  0
  6 12  1  0  0  0
  6  7  2  0  0  0
  7  8  1  0  0  0
  8  9  2  0  0  0
  8 15  1  0  0  0
  9 11  1  0  0  0
  9 10  1  0  0  0
 11 12  2  0  0  0
 11 16  1  0  0  0
M  END
> <s_m_entry_id>
199

> <s_m_entry_name>
CHEMBL2002105.1

> <s_m_job_name>
mmod_csearch_27

> <s_lp_label>
 _48

> <r_mmod_Potential_Energy-MMFF94s>
-36.611214

> <b_mmod_Minimization_Converged-MMFF94s>
1

> <r_mmod_RMS_Derivative-MMFF94s>
0.004982

> <i_mmod_Times_Found-MMFF94s>
499

> <r_mmod_Relative_Potential_Energy-MMFF94s>
0

> <i_mmod_Conformation-MMFF94s>
1

> <i_mmod_Serial_Number-MMFF94s>
48

$$$$
