CHEMBL2006564.smi
                    3D
 Structure written by MMmdl.
 47 50  0  0  1  0            999 V2000
    2.4053    1.4469   -2.4712 C   0  0  0  0  0  0
    3.5452    0.7815   -1.7103 C   0  0  0  0  0  0
    4.4628    1.7581   -1.1092 N   0  0  0  0  0  0
    4.0296    2.3793    0.0654 C   0  0  0  0  0  0
    3.0539    1.9753    0.7061 O   0  0  0  0  0  0
    4.7254    3.6413    0.5212 C   0  0  0  0  0  0
    5.7439    1.9407   -1.7170 C   0  0  0  0  0  0
    5.8981    1.8841   -3.1053 C   0  0  0  0  0  0
    7.1582    2.0466   -3.6990 C   0  0  0  0  0  0
    8.3119    2.2516   -2.9306 C   0  0  0  0  0  0
    9.5343    2.4070   -3.5869 N   0  0  0  0  0  0
   10.8477    2.6237   -3.1723 C   0  0  0  0  0  0
   11.7278    2.7115   -4.1963 N   0  0  0  0  0  0
   13.0525    2.9259   -3.9583 C   0  0  0  0  0  0
   13.9739    3.0206   -5.0058 N   0  0  0  0  0  0
   13.5801    2.9222   -6.3951 C   0  0  0  0  0  0
   14.4753    3.4482   -7.4820 C   0  0  0  0  0  0
   13.1834    4.1449   -7.1728 C   0  0  0  0  0  0
   13.4580    3.0462   -2.6223 C   0  0  0  0  0  0
   14.6864    3.2596   -2.0269 N   0  0  0  0  0  0
   14.4325    3.2779   -0.7347 C   0  0  0  0  0  0
   13.1025    3.0866   -0.4728 N   0  0  0  0  0  0
   12.6581    3.0585    0.4324 H   0  0  0  0  0  0
   12.4659    2.9370   -1.6701 C   0  0  0  0  0  0
   11.1607    2.7296   -1.8678 N   0  0  0  0  0  0
    8.1567    2.2767   -1.5449 C   0  0  0  0  0  0
    6.8966    2.1182   -0.9466 C   0  0  0  0  0  0
    1.7974    2.0715   -1.8088 H   0  0  0  0  0  0
    1.7524    0.6877   -2.9129 H   0  0  0  0  0  0
    2.7788    2.0869   -3.2760 H   0  0  0  0  0  0
    4.0907    0.0896   -2.3622 H   0  0  0  0  0  0
    3.1191    0.1644   -0.9097 H   0  0  0  0  0  0
    3.9787    4.3064    0.9680 H   0  0  0  0  0  0
    5.1806    4.1859   -0.3087 H   0  0  0  0  0  0
    5.4693    3.4036    1.2848 H   0  0  0  0  0  0
    5.0447    1.7449   -3.7618 H   0  0  0  0  0  0
    7.2248    2.0123   -4.7844 H   0  0  0  0  0  0
    9.5261    2.3691   -4.5966 H   0  0  0  0  0  0
   14.9312    3.1801   -4.7086 H   0  0  0  0  0  0
   13.0423    2.0023   -6.6144 H   0  0  0  0  0  0
   14.5387    2.8790   -8.4017 H   0  0  0  0  0  0
   15.3960    3.9444   -7.2003 H   0  0  0  0  0  0
   13.2251    5.1029   -6.6684 H   0  0  0  0  0  0
   12.3654    4.0471   -7.8760 H   0  0  0  0  0  0
   15.1613    3.4236    0.0522 H   0  0  0  0  0  0
    9.0127    2.4051   -0.8900 H   0  0  0  0  0  0
    6.8586    2.0845    0.1380 H   0  0  0  0  0  0
  1  2  1  0  0  0
  1 28  1  0  0  0
  1 29  1  0  0  0
  1 30  1  0  0  0
  2  3  1  0  0  0
  2 31  1  0  0  0
  2 32  1  0  0  0
  3  7  1  0  0  0
  3  4  1  0  0  0
  4  6  1  0  0  0
  4  5  2  0  0  0
  6 33  1  0  0  0
  6 34  1  0  0  0
  6 35  1  0  0  0
  7  8  2  0  0  0
  7 27  1  0  0  0
  8  9  1  0  0  0
  8 36  1  0  0  0
  9 10  2  0  0  0
  9 37  1  0  0  0
 10 26  1  0  0  0
 10 11  1  0  0  0
 11 12  1  0  0  0
 11 38  1  0  0  0
 12 13  2  0  0  0
 12 25  1  0  0  0
 13 14  1  0  0  0
 14 19  2  0  0  0
 14 15  1  0  0  0
 15 16  1  0  0  0
 15 39  1  0  0  0
 16 17  1  0  0  0
 16 18  1  0  0  0
 16 40  1  0  0  0
 17 18  1  0  0  0
 17 41  1  0  0  0
 17 42  1  0  0  0
 18 43  1  0  0  0
 18 44  1  0  0  0
 19 20  1  0  0  0
 19 24  1  0  0  0
 20 21  2  0  0  0
 21 22  1  0  0  0
 21 45  1  0  0  0
 22 23  1  0  0  0
 22 24  1  0  0  0
 24 25  2  0  0  0
 26 27  2  0  0  0
 26 46  1  0  0  0
 27 47  1  0  0  0
M  END
> <s_m_entry_id>
9922

> <s_m_job_name>
mmod_csearch_10

> <r_mmod_Potential_Energy-MMFF94s>
-99.138161

> <b_mmod_Minimization_Converged-MMFF94s>
1

> <r_mmod_RMS_Derivative-MMFF94s>
0.007486

> <i_mmod_Times_Found-MMFF94s>
37

> <r_mmod_Relative_Potential_Energy-MMFF94s>
0

> <i_mmod_Conformation-MMFF94s>
1

> <s_lp_label>
 _91

> <i_mmod_Serial_Number-MMFF94s>
91

$$$$
