CHEMBL189963.smi
                    3D
 Structure written by MMmdl.
 62 66  0  0  1  0            999 V2000
    1.8722   17.0307    0.9847 C   0  0  0  0  0  0
    0.9782   16.2887    1.9441 C   0  0  0  0  0  0
    0.2716   16.8901    2.7539 O   0  0  0  0  0  0
    0.9782   14.7938    1.8974 C   0  0  0  0  0  0
    1.1673   14.0815    3.0278 C   0  0  0  0  0  0
    1.4641   14.6817    4.3804 C   0  0  0  0  0  0
    1.0943   12.6117    2.9336 C   0  0  0  0  0  0
    1.1919   11.7578    4.0153 C   0  0  0  0  0  0
    1.1360   10.4136    3.9385 N   0  0  0  0  0  0
    0.9677    9.8759    2.7287 C   0  0  0  0  0  0
    0.8996    8.5099    2.5381 N   0  0  0  0  0  0
    0.9652    7.4046    3.3639 C   0  0  0  0  0  0
    1.1265    7.4577    4.7389 C   0  0  0  0  0  0
    1.1812    6.2709    5.4814 C   0  0  0  0  0  0
    1.0828    5.0234    4.8655 C   0  0  0  0  0  0
    0.9114    5.0850    3.4823 C   0  0  0  0  0  0
    0.8551    6.2190    2.7318 N   0  0  0  0  0  0
    1.1250    3.8425    5.5973 N   0  0  0  0  0  0
    2.1958    3.6793    6.6020 C   0  0  0  0  0  0
    1.8434    2.5730    7.6220 C   0  0  0  0  0  0
    1.4761    1.2881    7.0004 N   0  0  0  0  0  0
    0.3596    1.5165    6.0662 C   0  0  0  0  0  0
    0.6629    2.5812    4.9885 C   0  0  0  0  0  0
    0.8543   10.6205    1.6216 N   0  0  0  0  0  0
    0.9109   11.9653    1.7237 C   0  0  0  0  0  0
    0.7686   12.7402    0.5382 N   0  0  0  0  0  0
    0.5667   12.0777   -0.7578 C   0  0  0  0  0  0
    1.6598   11.0800   -1.1909 C   0  0  0  0  0  0
    0.9178    9.8088   -1.5984 C   0  0  0  0  0  0
   -0.4874   10.2755   -1.9471 C   0  0  0  0  0  0
   -0.7754   11.3442   -0.9032 C   0  0  0  0  0  0
    0.7625   14.1277    0.5785 C   0  0  0  0  0  0
    0.5959   14.8308   -0.4181 O   0  0  0  0  0  0
    2.3747   17.8404    1.5218 H   0  0  0  0  0  0
    1.2730   17.4441    0.1699 H   0  0  0  0  0  0
    2.6457   16.3736    0.5778 H   0  0  0  0  0  0
    0.6064   14.5598    5.0503 H   0  0  0  0  0  0
    1.7114   15.7455    4.3437 H   0  0  0  0  0  0
    2.3380   14.2006    4.8344 H   0  0  0  0  0  0
    1.3193   12.1219    5.0307 H   0  0  0  0  0  0
    0.7736    8.2578    1.5711 H   0  0  0  0  0  0
    1.2017    8.4022    5.2636 H   0  0  0  0  0  0
    1.2689    6.3509    6.5606 H   0  0  0  0  0  0
    0.8275    4.1813    2.8866 H   0  0  0  0  0  0
    2.3802    4.5985    7.1673 H   0  0  0  0  0  0
    3.1298    3.4206    6.0869 H   0  0  0  0  0  0
    2.7041    2.4094    8.2798 H   0  0  0  0  0  0
    1.0161    2.9154    8.2568 H   0  0  0  0  0  0
    1.1727    0.6424    7.7283 H   0  0  0  0  0  0
    0.1167    0.5696    5.5719 H   0  0  0  0  0  0
   -0.5297    1.8178    6.6348 H   0  0  0  0  0  0
    1.4298    2.2017    4.3015 H   0  0  0  0  0  0
   -0.2597    2.7428    4.4178 H   0  0  0  0  0  0
    0.5666   12.8532   -1.5354 H   0  0  0  0  0  0
    2.4203   10.8794   -0.4307 H   0  0  0  0  0  0
    2.1924   11.4863   -2.0602 H   0  0  0  0  0  0
    1.4040    9.2983   -2.4350 H   0  0  0  0  0  0
    0.8809    9.1087   -0.7564 H   0  0  0  0  0  0
   -0.5023   10.7137   -2.9521 H   0  0  0  0  0  0
   -1.2154    9.4598   -1.9182 H   0  0  0  0  0  0
   -1.5753   12.0214   -1.2202 H   0  0  0  0  0  0
   -1.1032   10.8754    0.0300 H   0  0  0  0  0  0
  1  2  1  0  0  0
  1 34  1  0  0  0
  1 35  1  0  0  0
  1 36  1  0  0  0
  2  4  1  0  0  0
  2  3  2  0  0  0
  4 32  1  0  0  0
  4  5  2  0  0  0
  5  7  1  0  0  0
  5  6  1  0  0  0
  6 37  1  0  0  0
  6 38  1  0  0  0
  6 39  1  0  0  0
  7 25  1  0  0  0
  7  8  2  0  0  0
  8  9  1  0  0  0
  8 40  1  0  0  0
  9 10  2  0  0  0
 10 24  1  0  0  0
 10 11  1  0  0  0
 11 12  1  0  0  0
 11 41  1  0  0  0
 12 13  2  0  0  0
 12 17  1  0  0  0
 13 14  1  0  0  0
 13 42  1  0  0  0
 14 15  2  0  0  0
 14 43  1  0  0  0
 15 16  1  0  0  0
 15 18  1  0  0  0
 16 17  2  0  0  0
 16 44  1  0  0  0
 18 23  1  0  0  0
 18 19  1  0  0  0
 19 20  1  0  0  0
 19 45  1  0  0  0
 19 46  1  0  0  0
 20 21  1  0  0  0
 20 47  1  0  0  0
 20 48  1  0  0  0
 21 22  1  0  0  0
 21 49  1  0  0  0
 22 23  1  0  0  0
 22 50  1  0  0  0
 22 51  1  0  0  0
 23 52  1  0  0  0
 23 53  1  0  0  0
 24 25  2  0  0  0
 25 26  1  0  0  0
 26 32  1  0  0  0
 26 27  1  0  0  0
 27 31  1  0  0  0
 27 28  1  0  0  0
 27 54  1  0  0  0
 28 29  1  0  0  0
 28 55  1  0  0  0
 28 56  1  0  0  0
 29 30  1  0  0  0
 29 57  1  0  0  0
 29 58  1  0  0  0
 30 31  1  0  0  0
 30 59  1  0  0  0
 30 60  1  0  0  0
 31 61  1  0  0  0
 31 62  1  0  0  0
 32 33  2  0  0  0
M  END
> <s_m_entry_id>
111

> <s_m_entry_name>
CHEMBL189963.1

> <s_m_job_name>
mmod_csearch_21

> <s_lp_label>
 _7

> <r_mmod_Potential_Energy-MMFF94s>
61.9328

> <b_mmod_Minimization_Converged-MMFF94s>
1

> <r_mmod_RMS_Derivative-MMFF94s>
0.007725

> <i_mmod_Times_Found-MMFF94s>
96

> <r_mmod_Relative_Potential_Energy-MMFF94s>
0

> <i_mmod_Conformation-MMFF94s>
1

> <i_mmod_Serial_Number-MMFF94s>
7

$$$$
