CHEMBL1971534.smi
                    3D
 Structure written by MMmdl.
 18 19  0  0  1  0            999 V2000
    3.1503    1.2913   -0.2644 N   0  0  0  0  0  0
    2.6906    0.0086   -0.1577 C   0  0  0  0  0  0
    1.8692   -0.4003   -0.9743 O   0  0  0  0  0  0
    3.2157   -0.7942    0.9334 C   0  0  0  0  0  0
    2.8860   -2.1046    1.2188 C   0  0  0  0  0  0
    3.5708   -2.6307    2.3634 C   0  0  0  0  0  0
    3.5112   -3.9009    2.9677 C   0  0  0  0  0  0
    4.3040   -4.1166    4.0825 C   0  0  0  0  0  0
    5.1227   -3.1932    4.6205 N   0  0  0  0  0  0
    5.1905   -1.9680    4.0505 C   0  0  0  0  0  0
    4.4204   -1.6752    2.9232 C   0  0  0  0  0  0
    4.3582   -0.1932    2.0521 S   0  0  0  0  0  0
    2.7939    1.8612   -1.0183 H   0  0  0  0  0  0
    3.8252    1.6755    0.3808 H   0  0  0  0  0  0
    2.1749   -2.6673    0.6235 H   0  0  0  0  0  0
    2.8711   -4.6856    2.5806 H   0  0  0  0  0  0
    4.2979   -5.0781    4.5892 H   0  0  0  0  0  0
    5.8598   -1.2506    4.5105 H   0  0  0  0  0  0
  1  2  1  0  0  0
  1 13  1  0  0  0
  1 14  1  0  0  0
  2  4  1  0  0  0
  2  3  2  0  0  0
  4 12  1  0  0  0
  4  5  2  0  0  0
  5  6  1  0  0  0
  5 15  1  0  0  0
  6 11  1  0  0  0
  6  7  2  0  0  0
  7  8  1  0  0  0
  7 16  1  0  0  0
  8  9  2  0  0  0
  8 17  1  0  0  0
  9 10  1  0  0  0
 10 11  2  0  0  0
 10 18  1  0  0  0
 11 12  1  0  0  0
M  END
> <s_m_entry_id>
5705

> <s_m_job_name>
mmod_csearch_9

> <r_mmod_Potential_Energy-MMFF94s>
-32.936062

> <b_mmod_Minimization_Converged-MMFF94s>
1

> <r_mmod_RMS_Derivative-MMFF94s>
0.00531

> <i_mmod_Times_Found-MMFF94s>
502

> <r_mmod_Relative_Potential_Energy-MMFF94s>
0

> <i_mmod_Conformation-MMFF94s>
1

> <s_lp_label>
 _62

> <i_mmod_Serial_Number-MMFF94s>
62

$$$$
