4
  Mrv0541 07151418403D          

 14 13  0  0  0  0            999 V2000
    2.0400    1.4425    0.0000 C   0  0  0  0  0  0  0  0  0  0  0  0
    1.5300    0.0000    0.0000 C   0  0  1  0  0  0  0  0  0  0  0  0
    0.0000    0.0000    0.0000 C   0  0  2  0  0  0  0  0  0  0  0  0
   -0.5100   -1.4425    0.0000 C   0  0  0  0  0  0  0  0  0  0  0  0
    3.1300    1.4425    0.0000 H   0  0  0  0  0  0  0  0  0  0  0  0
    1.6767    1.9563    0.8900 H   0  0  0  0  0  0  0  0  0  0  0  0
    1.6767    1.9563   -0.8900 H   0  0  0  0  0  0  0  0  0  0  0  0
    1.8933   -0.5138   -0.8900 H   0  0  0  0  0  0  0  0  0  0  0  0
    1.8933   -0.5138    0.8900 H   0  0  0  0  0  0  0  0  0  0  0  0
   -0.3633    0.5138   -0.8900 H   0  0  0  0  0  0  0  0  0  0  0  0
   -0.3633    0.5138    0.8900 H   0  0  0  0  0  0  0  0  0  0  0  0
   -1.6000   -1.4425    0.0000 H   0  0  0  0  0  0  0  0  0  0  0  0
   -0.1467   -1.9563   -0.8900 H   0  0  0  0  0  0  0  0  0  0  0  0
   -0.1467   -1.9563    0.8900 H   0  0  0  0  0  0  0  0  0  0  0  0
  1  2  1  0  0  0  0
  2  3  1  0  0  0  0
  3  4  1  0  0  0  0
  1  5  1  0  0  0  0
  1  6  1  0  0  0  0
  1  7  1  0  0  0  0
  2  8  1  0  0  0  0
  2  9  1  0  0  0  0
  3 10  1  0  0  0  0
  3 11  1  0  0  0  0
  4 12  1  0  0  0  0
  4 13  1  0  0  0  0
  4 14  1  0  0  0  0
M  END