26
  Mrv0541 07151418403D          

 26 25  0  0  0  0            999 V2000
   -2.5500    2.8850    0.0000 C   0  0  0  0  0  0  0  0  0  0  0  0
   -2.0400    1.4425    0.0000 C   0  0  2  0  0  0  0  0  0  0  0  0
   -0.5100    1.4425    0.0000 C   0  0  1  0  0  0  0  0  0  0  0  0
   -0.0000   -0.0000   -0.0000 C   0  0  2  0  0  0  0  0  0  0  0  0
    1.5300   -0.0000   -0.0000 C   0  0  1  0  0  0  0  0  0  0  0  0
    2.0400   -1.4425    0.0000 C   0  0  2  0  0  0  0  0  0  0  0  0
    3.5700   -1.4425    0.0000 C   0  0  0  0  0  0  0  0  0  0  0  0
   -0.5100   -0.7212   -1.2492 C   0  0  0  0  0  0  0  0  0  0  0  0
   -3.6400    2.8850    0.0000 H   0  0  0  0  0  0  0  0  0  0  0  0
   -2.1867    3.3988   -0.8900 H   0  0  0  0  0  0  0  0  0  0  0  0
   -2.1867    3.3988    0.8900 H   0  0  0  0  0  0  0  0  0  0  0  0
   -2.4033    0.9287   -0.8900 H   0  0  0  0  0  0  0  0  0  0  0  0
   -2.4033    0.9287    0.8900 H   0  0  0  0  0  0  0  0  0  0  0  0
   -0.1467    1.9563   -0.8900 H   0  0  0  0  0  0  0  0  0  0  0  0
   -0.1467    1.9563    0.8900 H   0  0  0  0  0  0  0  0  0  0  0  0
   -0.3633   -0.5138    0.8900 H   0  0  0  0  0  0  0  0  0  0  0  0
    1.8933    0.5138   -0.8900 H   0  0  0  0  0  0  0  0  0  0  0  0
    1.8933    0.5138    0.8900 H   0  0  0  0  0  0  0  0  0  0  0  0
    1.6767   -1.9563   -0.8900 H   0  0  0  0  0  0  0  0  0  0  0  0
    1.6767   -1.9563    0.8900 H   0  0  0  0  0  0  0  0  0  0  0  0
    3.9333   -2.4702    0.0000 H   0  0  0  0  0  0  0  0  0  0  0  0
    3.9333   -0.9287   -0.8900 H   0  0  0  0  0  0  0  0  0  0  0  0
    3.9333   -0.9287    0.8900 H   0  0  0  0  0  0  0  0  0  0  0  0
   -0.1467   -1.7489   -1.2492 H   0  0  0  0  0  0  0  0  0  0  0  0
   -1.6000   -0.7212   -1.2492 H   0  0  0  0  0  0  0  0  0  0  0  0
   -0.1467   -0.2074   -2.1392 H   0  0  0  0  0  0  0  0  0  0  0  0
  1  2  1  0  0  0  0
  2  3  1  0  0  0  0
  3  4  1  0  0  0  0
  4  5  1  0  0  0  0
  5  6  1  0  0  0  0
  6  7  1  0  0  0  0
  4  8  1  0  0  0  0
  1  9  1  0  0  0  0
  1 10  1  0  0  0  0
  1 11  1  0  0  0  0
  2 12  1  0  0  0  0
  2 13  1  0  0  0  0
  3 14  1  0  0  0  0
  3 15  1  0  0  0  0
  4 16  1  0  0  0  0
  5 17  1  0  0  0  0
  5 18  1  0  0  0  0
  6 19  1  0  0  0  0
  6 20  1  0  0  0  0
  7 21  1  0  0  0  0
  7 22  1  0  0  0  0
  7 23  1  0  0  0  0
  8 24  1  0  0  0  0
  8 25  1  0  0  0  0
  8 26  1  0  0  0  0
M  END