35
  Mrv0541 07151418403D          

 26 25  0  0  0  0            999 V2000
    3.0032    0.9881   -0.1374 C   0  0  0  0  0  0  0  0  0  0  0  0
    1.7600    0.0482   -0.3327 C   0  0  1  0  0  0  0  0  0  0  0  0
    0.4352    0.9331   -0.2169 C   0  0  1  0  0  0  0  0  0  0  0  0
   -0.9401    0.1514   -0.3706 C   0  0  1  0  0  0  0  0  0  0  0  0
   -2.1363    1.0998   -0.1438 C   0  0  0  0  0  0  0  0  0  0  0  0
    2.0181   -0.6394   -1.7302 C   0  0  0  0  0  0  0  0  0  0  0  0
    1.7544   -1.0264    0.8195 C   0  0  0  0  0  0  0  0  0  0  0  0
   -1.1906   -0.5825   -1.7283 C   0  0  0  0  0  0  0  0  0  0  0  0
    3.9272    0.4005   -0.2139 H   0  0  0  0  0  0  0  0  0  0  0  0
    3.0189    1.4899    0.8355 H   0  0  0  0  0  0  0  0  0  0  0  0
    3.0352    1.7585   -0.9185 H   0  0  0  0  0  0  0  0  0  0  0  0
    0.4405    1.4703    0.7580 H   0  0  0  0  0  0  0  0  0  0  0  0
    0.4667    1.7497   -0.9472 H   0  0  0  0  0  0  0  0  0  0  0  0
   -1.0388   -0.5617    0.4516 H   0  0  0  0  0  0  0  0  0  0  0  0
   -3.0605    0.5103   -0.2061 H   0  0  0  0  0  0  0  0  0  0  0  0
   -2.1069    1.5697    0.8456 H   0  0  0  0  0  0  0  0  0  0  0  0
   -2.1405    1.8697   -0.9216 H   0  0  0  0  0  0  0  0  0  0  0  0
    1.4401   -1.5560   -1.8603 H   0  0  0  0  0  0  0  0  0  0  0  0
    1.7825    0.0595   -2.5364 H   0  0  0  0  0  0  0  0  0  0  0  0
    3.0721   -0.9513   -1.8460 H   0  0  0  0  0  0  0  0  0  0  0  0
    0.9215   -1.7277    0.7398 H   0  0  0  0  0  0  0  0  0  0  0  0
    1.6971   -0.5633    1.8148 H   0  0  0  0  0  0  0  0  0  0  0  0
    2.6524   -1.6428    0.7747 H   0  0  0  0  0  0  0  0  0  0  0  0
   -2.2489   -0.8712   -1.8376 H   0  0  0  0  0  0  0  0  0  0  0  0
   -0.9220    0.0888   -2.5478 H   0  0  0  0  0  0  0  0  0  0  0  0
   -0.6303   -1.5168   -1.8014 H   0  0  0  0  0  0  0  0  0  0  0  0
  1  2  1  0  0  0  0
  2  3  1  0  0  0  0
  3  4  1  0  0  0  0
  4  5  1  0  0  0  0
  2  6  1  0  0  0  0
  2  7  1  0  0  0  0
  4  8  1  0  0  0  0
  1  9  1  0  0  0  0
  1 10  1  0  0  0  0
  1 11  1  0  0  0  0
  3 12  1  0  0  0  0
  3 13  1  0  0  0  0
  4 14  1  0  0  0  0
  5 15  1  0  0  0  0
  5 16  1  0  0  0  0
  5 17  1  0  0  0  0
  6 18  1  0  0  0  0
  6 19  1  0  0  0  0
  6 20  1  0  0  0  0
  7 21  1  0  0  0  0
  7 22  1  0  0  0  0
  7 23  1  0  0  0  0
  8 24  1  0  0  0  0
  8 25  1  0  0  0  0
  8 26  1  0  0  0  0
M  END