52
  Mrv0541 07151418403D          

 29 28  0  0  0  0            999 V2000
   -2.1317    3.2662    0.4519 C   0  0  0  0  0  0  0  0  0  0  0  0
   -1.6980    1.8115    0.6428 C   0  0  2  0  0  0  0  0  0  0  0  0
   -0.3429    1.5904   -0.0323 C   0  0  1  0  0  0  0  0  0  0  0  0
    0.0907    0.1356    0.1586 C   0  0  2  0  0  0  0  0  0  0  0  0
    1.4458   -0.0854   -0.5165 C   0  0  2  0  0  0  0  0  0  0  0  0
    1.8795   -1.5402   -0.3256 C   0  0  2  0  0  0  0  0  0  0  0  0
    3.2345   -1.7612   -1.0007 C   0  0  0  0  0  0  0  0  0  0  0  0
   -0.4621    1.8951   -1.5270 C   0  0  0  0  0  0  0  0  0  0  0  0
    2.4863    0.8436    0.1120 C   0  0  0  0  0  0  0  0  0  0  0  0
   -3.0971    3.4237    0.9328 H   0  0  0  0  0  0  0  0  0  0  0  0
   -2.2165    3.4833   -0.6129 H   0  0  0  0  0  0  0  0  0  0  0  0
   -1.3904    3.9281    0.8996 H   0  0  0  0  0  0  0  0  0  0  0  0
   -2.4393    1.1496    0.1950 H   0  0  0  0  0  0  0  0  0  0  0  0
   -1.6132    1.5944    1.7076 H   0  0  0  0  0  0  0  0  0  0  0  0
    0.3984    2.2523    0.4154 H   0  0  0  0  0  0  0  0  0  0  0  0
   -0.6506   -0.5262   -0.2892 H   0  0  0  0  0  0  0  0  0  0  0  0
    0.1756   -0.0814    1.2234 H   0  0  0  0  0  0  0  0  0  0  0  0
    1.3609    0.1317   -1.5813 H   0  0  0  0  0  0  0  0  0  0  0  0
    1.1382   -2.2021   -0.7734 H   0  0  0  0  0  0  0  0  0  0  0  0
    1.9643   -1.7573    0.7392 H   0  0  0  0  0  0  0  0  0  0  0  0
    3.5435   -2.7976   -0.8647 H   0  0  0  0  0  0  0  0  0  0  0  0
    3.1497   -1.5442   -2.0655 H   0  0  0  0  0  0  0  0  0  0  0  0
    3.9758   -1.0994   -0.5529 H   0  0  0  0  0  0  0  0  0  0  0  0
    0.5033    1.7376   -2.0079 H   0  0  0  0  0  0  0  0  0  0  0  0
   -1.2033    1.2333   -1.9747 H   0  0  0  0  0  0  0  0  0  0  0  0
   -0.7710    2.9315   -1.6630 H   0  0  0  0  0  0  0  0  0  0  0  0
    3.4517    0.6862   -0.3690 H   0  0  0  0  0  0  0  0  0  0  0  0
    2.1774    1.8800   -0.0240 H   0  0  0  0  0  0  0  0  0  0  0  0
    2.5712    0.6266    1.1768 H   0  0  0  0  0  0  0  0  0  0  0  0
  1  2  1  0  0  0  0
  2  3  1  0  0  0  0
  3  4  1  0  0  0  0
  4  5  1  0  0  0  0
  5  6  1  0  0  0  0
  6  7  1  0  0  0  0
  3  8  1  0  0  0  0
  5  9  1  0  0  0  0
  1 10  1  0  0  0  0
  1 11  1  0  0  0  0
  1 12  1  0  0  0  0
  2 13  1  0  0  0  0
  2 14  1  0  0  0  0
  3 15  1  0  0  0  0
  4 16  1  0  0  0  0
  4 17  1  0  0  0  0
  5 18  1  0  0  0  0
  6 19  1  0  0  0  0
  6 20  1  0  0  0  0
  7 21  1  0  0  0  0
  7 22  1  0  0  0  0
  7 23  1  0  0  0  0
  8 24  1  0  0  0  0
  8 25  1  0  0  0  0
  8 26  1  0  0  0  0
  9 27  1  0  0  0  0
  9 28  1  0  0  0  0
  9 29  1  0  0  0  0
M  END