54
  Mrv0541 07151418403D          

 29 28  0  0  0  0            999 V2000
    3.1803   -0.4117   -1.9483 C   0  0  0  0  0  0  0  0  0  0  0  0
    2.3740   -1.1348   -0.8677 C   0  0  1  0  0  0  0  0  0  0  0  0
    1.4925   -0.1261   -0.1283 C   0  0  1  0  0  0  0  0  0  0  0  0
    0.5354    0.5381   -1.1201 C   0  0  2  0  0  0  0  0  0  0  0  0
   -0.3460    1.5467   -0.3808 C   0  0  1  0  0  0  0  0  0  0  0  0
   -1.3031    2.2109   -1.3726 C   0  0  2  0  0  0  0  0  0  0  0  0
   -2.1846    3.2196   -0.6333 C   0  0  0  0  0  0  0  0  0  0  0  0
    0.6862   -0.8492    0.9523 C   0  0  2  0  0  0  0  0  0  0  0  0
    1.6433   -1.5134    1.9441 C   0  0  0  0  0  0  0  0  0  0  0  0
    3.8082   -1.1302   -2.4750 H   0  0  0  0  0  0  0  0  0  0  0  0
    2.4984    0.0615   -2.6549 H   0  0  0  0  0  0  0  0  0  0  0  0
    3.8087    0.3489   -1.4849 H   0  0  0  0  0  0  0  0  0  0  0  0
    1.7456   -1.8953   -1.3311 H   0  0  0  0  0  0  0  0  0  0  0  0
    3.0558   -1.6079   -0.1611 H   0  0  0  0  0  0  0  0  0  0  0  0
    2.1209    0.6345    0.3351 H   0  0  0  0  0  0  0  0  0  0  0  0
   -0.0930   -0.2225   -1.5836 H   0  0  0  0  0  0  0  0  0  0  0  0
    1.1099    1.0532   -1.8900 H   0  0  0  0  0  0  0  0  0  0  0  0
   -0.9205    1.0316    0.3890 H   0  0  0  0  0  0  0  0  0  0  0  0
    0.2824    2.3073    0.0826 H   0  0  0  0  0  0  0  0  0  0  0  0
   -1.9315    1.4503   -1.8361 H   0  0  0  0  0  0  0  0  0  0  0  0
   -0.7287    2.7261   -2.1425 H   0  0  0  0  0  0  0  0  0  0  0  0
   -2.8664    3.6928   -1.3399 H   0  0  0  0  0  0  0  0  0  0  0  0
   -2.7590    2.7044    0.1366 H   0  0  0  0  0  0  0  0  0  0  0  0
   -1.5562    3.9802   -0.1699 H   0  0  0  0  0  0  0  0  0  0  0  0
    0.0578   -1.6098    0.4889 H   0  0  0  0  0  0  0  0  0  0  0  0
    0.0582   -0.1306    1.4790 H   0  0  0  0  0  0  0  0  0  0  0  0
    1.0688   -2.0285    2.7140 H   0  0  0  0  0  0  0  0  0  0  0  0
    2.2712   -2.2320    1.4174 H   0  0  0  0  0  0  0  0  0  0  0  0
    2.2717   -0.7528    2.4075 H   0  0  0  0  0  0  0  0  0  0  0  0
  1  2  1  0  0  0  0
  2  3  1  0  0  0  0
  3  4  1  0  0  0  0
  4  5  1  0  0  0  0
  5  6  1  0  0  0  0
  6  7  1  0  0  0  0
  8  9  1  0  0  0  0
  3  8  1  0  0  0  0
  1 10  1  0  0  0  0
  1 11  1  0  0  0  0
  1 12  1  0  0  0  0
  2 13  1  0  0  0  0
  2 14  1  0  0  0  0
  3 15  1  0  0  0  0
  4 16  1  0  0  0  0
  4 17  1  0  0  0  0
  5 18  1  0  0  0  0
  5 19  1  0  0  0  0
  6 20  1  0  0  0  0
  6 21  1  0  0  0  0
  7 22  1  0  0  0  0
  7 23  1  0  0  0  0
  7 24  1  0  0  0  0
  8 25  1  0  0  0  0
  8 26  1  0  0  0  0
  9 27  1  0  0  0  0
  9 28  1  0  0  0  0
  9 29  1  0  0  0  0
M  END