60
  Mrv0541 07151418403D          

 29 28  0  0  0  0            999 V2000
    2.5113   -1.6322    0.8380 C   0  0  0  0  0  0  0  0  0  0  0  0
    2.7959   -0.6265   -0.2793 C   0  0  2  0  0  0  0  0  0  0  0  0
    1.4736   -0.0971   -0.8380 C   0  0  2  0  0  0  0  0  0  0  0  0
    1.7582    0.9086   -1.9554 C   0  0  1  0  0  0  0  0  0  0  0  0
    0.4359    1.4380   -2.5140 C   0  0  1  0  0  0  0  0  0  0  0  0
    0.7205    2.4437   -3.6314 C   0  0  0  0  0  0  0  0  0  0  0  0
    3.5826   -1.3146   -1.3967 C   0  0  0  0  0  0  0  0  0  0  0  0
    0.6869    0.5911    0.2793 C   0  0  0  0  0  0  0  0  0  0  0  0
    2.5785    2.0731   -1.3967 C   0  0  0  0  0  0  0  0  0  0  0  0
    3.4533   -2.0093    1.2360 H   0  0  0  0  0  0  0  0  0  0  0  0
    1.9269   -2.4617    0.4400 H   0  0  0  0  0  0  0  0  0  0  0  0
    1.9509   -1.1419    1.6340 H   0  0  0  0  0  0  0  0  0  0  0  0
    3.3803    0.2031    0.1187 H   0  0  0  0  0  0  0  0  0  0  0  0
    0.8892   -0.9267   -1.2360 H   0  0  0  0  0  0  0  0  0  0  0  0
    2.3186    0.4184   -2.7514 H   0  0  0  0  0  0  0  0  0  0  0  0
   -0.1485    0.6084   -2.9121 H   0  0  0  0  0  0  0  0  0  0  0  0
   -0.1246    1.9283   -1.7180 H   0  0  0  0  0  0  0  0  0  0  0  0
   -0.2216    2.8208   -4.0294 H   0  0  0  0  0  0  0  0  0  0  0  0
    1.2809    1.9534   -4.4274 H   0  0  0  0  0  0  0  0  0  0  0  0
    1.3049    3.2733   -3.2334 H   0  0  0  0  0  0  0  0  0  0  0  0
    3.7853   -0.5982   -2.1927 H   0  0  0  0  0  0  0  0  0  0  0  0
    2.9982   -2.1442   -1.7947 H   0  0  0  0  0  0  0  0  0  0  0  0
    4.5246   -1.6918   -0.9987 H   0  0  0  0  0  0  0  0  0  0  0  0
   -0.2551    0.9682   -0.1187 H   0  0  0  0  0  0  0  0  0  0  0  0
    0.4842   -0.1254    1.0754 H   0  0  0  0  0  0  0  0  0  0  0  0
    1.2713    1.4207    0.6774 H   0  0  0  0  0  0  0  0  0  0  0  0
    2.7812    2.7895   -2.1927 H   0  0  0  0  0  0  0  0  0  0  0  0
    2.0180    2.5633   -0.6007 H   0  0  0  0  0  0  0  0  0  0  0  0
    3.5205    1.6959   -0.9987 H   0  0  0  0  0  0  0  0  0  0  0  0
  1  2  1  0  0  0  0
  2  3  1  0  0  0  0
  3  4  1  0  0  0  0
  4  5  1  0  0  0  0
  5  6  1  0  0  0  0
  2  7  1  0  0  0  0
  3  8  1  0  0  0  0
  4  9  1  0  0  0  0
  1 10  1  0  0  0  0
  1 11  1  0  0  0  0
  1 12  1  0  0  0  0
  2 13  1  0  0  0  0
  3 14  1  0  0  0  0
  4 15  1  0  0  0  0
  5 16  1  0  0  0  0
  5 17  1  0  0  0  0
  6 18  1  0  0  0  0
  6 19  1  0  0  0  0
  6 20  1  0  0  0  0
  7 21  1  0  0  0  0
  7 22  1  0  0  0  0
  7 23  1  0  0  0  0
  8 24  1  0  0  0  0
  8 25  1  0  0  0  0
  8 26  1  0  0  0  0
  9 27  1  0  0  0  0
  9 28  1  0  0  0  0
  9 29  1  0  0  0  0
M  END