61
  Mrv0541 07151418403D          

 29 28  0  0  0  0            999 V2000
    2.1372   -1.8279    0.4856 C   0  0  0  0  0  0  0  0  0  0  0  0
    2.7056   -0.6518   -0.3111 C   0  0  2  0  0  0  0  0  0  0  0  0
    1.5583    0.1328   -0.9508 C   0  0  2  0  0  0  0  0  0  0  0  0
    2.1267    1.3089   -1.7474 C   0  0  1  0  0  0  0  0  0  0  0  0
    0.9795    2.0935   -2.3871 C   0  0  1  0  0  0  0  0  0  0  0  0
    1.5478    3.2695   -3.1838 C   0  0  0  0  0  0  0  0  0  0  0  0
    3.6354   -1.1792   -1.4057 C   0  0  0  0  0  0  0  0  0  0  0  0
    0.6285    0.6602    0.1438 C   0  0  0  0  0  0  0  0  0  0  0  0
    0.1937    1.1746   -3.3248 C   0  0  0  0  0  0  0  0  0  0  0  0
    2.9545   -2.3868    0.9413 H   0  0  0  0  0  0  0  0  0  0  0  0
    1.4748   -1.4522    1.2654 H   0  0  0  0  0  0  0  0  0  0  0  0
    1.5774   -2.4825   -0.1824 H   0  0  0  0  0  0  0  0  0  0  0  0
    3.2654    0.0028    0.3569 H   0  0  0  0  0  0  0  0  0  0  0  0
    0.9985   -0.5218   -1.6188 H   0  0  0  0  0  0  0  0  0  0  0  0
    2.6865    1.9635   -1.0795 H   0  0  0  0  0  0  0  0  0  0  0  0
    2.7891    0.9332   -2.5273 H   0  0  0  0  0  0  0  0  0  0  0  0
    0.3170    2.4692   -1.6073 H   0  0  0  0  0  0  0  0  0  0  0  0
    0.7305    3.8285   -3.6395 H   0  0  0  0  0  0  0  0  0  0  0  0
    2.1076    3.9242   -2.5158 H   0  0  0  0  0  0  0  0  0  0  0  0
    2.2103    2.8938   -3.9636 H   0  0  0  0  0  0  0  0  0  0  0  0
    4.0403   -0.3413   -1.9733 H   0  0  0  0  0  0  0  0  0  0  0  0
    3.0756   -1.8338   -2.0737 H   0  0  0  0  0  0  0  0  0  0  0  0
    4.4527   -1.7381   -0.9500 H   0  0  0  0  0  0  0  0  0  0  0  0
   -0.1888    1.2191   -0.3119 H   0  0  0  0  0  0  0  0  0  0  0  0
    0.2236   -0.1777    0.7114 H   0  0  0  0  0  0  0  0  0  0  0  0
    1.1883    1.3148    0.8118 H   0  0  0  0  0  0  0  0  0  0  0  0
   -0.6236    1.7335   -3.7805 H   0  0  0  0  0  0  0  0  0  0  0  0
   -0.2112    0.3367   -2.7572 H   0  0  0  0  0  0  0  0  0  0  0  0
    0.8561    0.7989   -4.1046 H   0  0  0  0  0  0  0  0  0  0  0  0
  1  2  1  0  0  0  0
  2  3  1  0  0  0  0
  3  4  1  0  0  0  0
  4  5  1  0  0  0  0
  5  6  1  0  0  0  0
  2  7  1  0  0  0  0
  3  8  1  0  0  0  0
  5  9  1  0  0  0  0
  1 10  1  0  0  0  0
  1 11  1  0  0  0  0
  1 12  1  0  0  0  0
  2 13  1  0  0  0  0
  3 14  1  0  0  0  0
  4 15  1  0  0  0  0
  4 16  1  0  0  0  0
  5 17  1  0  0  0  0
  6 18  1  0  0  0  0
  6 19  1  0  0  0  0
  6 20  1  0  0  0  0
  7 21  1  0  0  0  0
  7 22  1  0  0  0  0
  7 23  1  0  0  0  0
  8 24  1  0  0  0  0
  8 25  1  0  0  0  0
  8 26  1  0  0  0  0
  9 27  1  0  0  0  0
  9 28  1  0  0  0  0
  9 29  1  0  0  0  0
M  END