62
  Mrv0541 07151418403D          

 29 28  0  0  0  0            999 V2000
    2.4634   -1.7151    0.9627 C   0  0  0  0  0  0  0  0  0  0  0  0
    2.8247   -0.7751   -0.2017 C   0  0  2  0  0  0  0  0  0  0  0  0
    1.5618   -0.1061   -0.8883 C   0  0  1  0  0  0  0  0  0  0  0  0
    1.7929    0.9829   -2.0324 C   0  0  1  0  0  0  0  0  0  0  0  0
    0.4013    1.5276   -2.5729 C   0  0  1  0  0  0  0  0  0  0  0  0
    0.4634    2.5959   -3.7236 C   0  0  0  0  0  0  0  0  0  0  0  0
    3.8012   -1.5869   -1.1274 C   0  0  0  0  0  0  0  0  0  0  0  0
    2.6538    2.1567   -1.4135 C   0  0  0  0  0  0  0  0  0  0  0  0
    2.5242    0.3768   -3.3117 C   0  0  0  0  0  0  0  0  0  0  0  0
    3.3676   -2.0925    1.4261 H   0  0  0  0  0  0  0  0  0  0  0  0
    1.8745   -2.5492    0.6030 H   0  0  0  0  0  0  0  0  0  0  0  0
    1.9111   -1.1890    1.7364 H   0  0  0  0  0  0  0  0  0  0  0  0
    3.4176    0.0029    0.2645 H   0  0  0  0  0  0  0  0  0  0  0  0
    0.8911   -0.8996   -1.2307 H   0  0  0  0  0  0  0  0  0  0  0  0
    0.9675    0.3468   -0.0936 H   0  0  0  0  0  0  0  0  0  0  0  0
   -0.2170    0.6965   -2.9154 H   0  0  0  0  0  0  0  0  0  0  0  0
   -0.1770    1.9553   -1.7542 H   0  0  0  0  0  0  0  0  0  0  0  0
   -0.5299    2.9324   -4.0259 H   0  0  0  0  0  0  0  0  0  0  0  0
    0.9080    2.2236   -4.6427 H   0  0  0  0  0  0  0  0  0  0  0  0
    1.0576    3.4546   -3.4014 H   0  0  0  0  0  0  0  0  0  0  0  0
    4.4372   -0.9687   -1.7536 H   0  0  0  0  0  0  0  0  0  0  0  0
    3.2287   -2.2423   -1.7735 H   0  0  0  0  0  0  0  0  0  0  0  0
    4.4626   -2.2586   -0.5713 H   0  0  0  0  0  0  0  0  0  0  0  0
    2.8861    2.9208   -2.1477 H   0  0  0  0  0  0  0  0  0  0  0  0
    2.1188    2.6384   -0.6033 H   0  0  0  0  0  0  0  0  0  0  0  0
    3.5940    1.8054   -0.9973 H   0  0  0  0  0  0  0  0  0  0  0  0
    2.4765    0.9598   -4.2176 H   0  0  0  0  0  0  0  0  0  0  0  0
    2.0787   -0.5762   -3.6105 H   0  0  0  0  0  0  0  0  0  0  0  0
    3.5888    0.2235   -3.1908 H   0  0  0  0  0  0  0  0  0  0  0  0
  1  2  1  0  0  0  0
  2  3  1  0  0  0  0
  3  4  1  0  0  0  0
  4  5  1  0  0  0  0
  5  6  1  0  0  0  0
  2  7  1  0  0  0  0
  4  8  1  0  0  0  0
  4  9  1  0  0  0  0
  1 10  1  0  0  0  0
  1 11  1  0  0  0  0
  1 12  1  0  0  0  0
  2 13  1  0  0  0  0
  3 14  1  0  0  0  0
  3 15  1  0  0  0  0
  5 16  1  0  0  0  0
  5 17  1  0  0  0  0
  6 18  1  0  0  0  0
  6 19  1  0  0  0  0
  6 20  1  0  0  0  0
  7 21  1  0  0  0  0
  7 22  1  0  0  0  0
  7 23  1  0  0  0  0
  8 24  1  0  0  0  0
  8 25  1  0  0  0  0
  8 26  1  0  0  0  0
  9 27  1  0  0  0  0
  9 28  1  0  0  0  0
  9 29  1  0  0  0  0
M  END