63
  Mrv0541 07151418403D          

 29 28  0  0  0  0            999 V2000
    3.3150   -1.8031    0.6246 C   0  0  0  0  0  0  0  0  0  0  0  0
    2.1250   -1.3223   -0.2082 C   0  0  2  0  0  0  0  0  0  0  0  0
    1.2750   -0.3606    0.6246 C   0  0  2  0  0  0  0  0  0  0  0  0
    0.0850    0.1202   -0.2082 C   0  0  1  0  0  0  0  0  0  0  0  0
   -0.7650    1.0819    0.6246 C   0  0  1  0  0  0  0  0  0  0  0  0
   -1.9550    1.5627   -0.2082 C   0  0  0  0  0  0  0  0  0  0  0  0
    2.1250    0.8415    1.0410 C   0  0  0  0  0  0  0  0  0  0  0  0
    0.7650   -1.0819    1.8739 C   0  0  0  0  0  0  0  0  0  0  0  0
    0.5950    0.8415   -1.4574 C   0  0  0  0  0  0  0  0  0  0  0  0
    3.9206   -2.4882    0.0313 H   0  0  0  0  0  0  0  0  0  0  0  0
    2.9517   -2.3170    1.5146 H   0  0  0  0  0  0  0  0  0  0  0  0
    3.9206   -0.9467    0.9213 H   0  0  0  0  0  0  0  0  0  0  0  0
    1.5194   -2.1787   -0.5049 H   0  0  0  0  0  0  0  0  0  0  0  0
    2.4883   -0.8085   -1.0982 H   0  0  0  0  0  0  0  0  0  0  0  0
   -0.5206   -0.7362   -0.5049 H   0  0  0  0  0  0  0  0  0  0  0  0
   -1.1283    0.5680    1.5146 H   0  0  0  0  0  0  0  0  0  0  0  0
   -0.1594    1.9383    0.9213 H   0  0  0  0  0  0  0  0  0  0  0  0
   -2.5606    2.2478    0.3851 H   0  0  0  0  0  0  0  0  0  0  0  0
   -2.5606    0.7063   -0.5049 H   0  0  0  0  0  0  0  0  0  0  0  0
   -1.5917    2.0765   -1.0982 H   0  0  0  0  0  0  0  0  0  0  0  0
    1.5194    1.5266    1.6344 H   0  0  0  0  0  0  0  0  0  0  0  0
    2.4883    1.3553    0.1511 H   0  0  0  0  0  0  0  0  0  0  0  0
    2.9728    0.4989    1.6344 H   0  0  0  0  0  0  0  0  0  0  0  0
    0.1594   -0.3968    2.4672 H   0  0  0  0  0  0  0  0  0  0  0  0
    0.1594   -1.9383    1.5772 H   0  0  0  0  0  0  0  0  0  0  0  0
    1.6128   -1.4244    2.4672 H   0  0  0  0  0  0  0  0  0  0  0  0
   -0.2528    1.1840   -2.0508 H   0  0  0  0  0  0  0  0  0  0  0  0
    1.2006    0.1563   -2.0508 H   0  0  0  0  0  0  0  0  0  0  0  0
    1.2006    1.6978   -1.1608 H   0  0  0  0  0  0  0  0  0  0  0  0
  1  2  1  0  0  0  0
  2  3  1  0  0  0  0
  3  4  1  0  0  0  0
  4  5  1  0  0  0  0
  5  6  1  0  0  0  0
  3  7  1  0  0  0  0
  3  8  1  0  0  0  0
  4  9  1  0  0  0  0
  1 10  1  0  0  0  0
  1 11  1  0  0  0  0
  1 12  1  0  0  0  0
  2 13  1  0  0  0  0
  2 14  1  0  0  0  0
  4 15  1  0  0  0  0
  5 16  1  0  0  0  0
  5 17  1  0  0  0  0
  6 18  1  0  0  0  0
  6 19  1  0  0  0  0
  6 20  1  0  0  0  0
  7 21  1  0  0  0  0
  7 22  1  0  0  0  0
  7 23  1  0  0  0  0
  8 24  1  0  0  0  0
  8 25  1  0  0  0  0
  8 26  1  0  0  0  0
  9 27  1  0  0  0  0
  9 28  1  0  0  0  0
  9 29  1  0  0  0  0
M  END