65
  Mrv0541 07151418403D          

 29 28  0  0  0  0            999 V2000
    2.0820    2.4003    0.2419 C   0  0  0  0  0  0  0  0  0  0  0  0
    1.3021    1.1639    0.6936 C   0  0  2  0  0  0  0  0  0  0  0  0
    0.7591    0.4274   -0.5326 C   0  0  1  0  0  0  0  0  0  0  0  0
   -0.0208   -0.8090   -0.0809 C   0  0  1  0  0  0  0  0  0  0  0  0
   -0.5638   -1.5455   -1.3071 C   0  0  2  0  0  0  0  0  0  0  0  0
   -1.4918   -0.6155   -2.0911 C   0  0  0  0  0  0  0  0  0  0  0  0
    0.9072   -1.7390    0.7032 C   0  0  2  0  0  0  0  0  0  0  0  0
    0.1273   -2.9754    1.1549 C   0  0  0  0  0  0  0  0  0  0  0  0
    0.1372    1.5941    1.5874 C   0  0  0  0  0  0  0  0  0  0  0  0
    2.4689    2.9250    1.1155 H   0  0  0  0  0  0  0  0  0  0  0  0
    1.4209    3.0629   -0.3167 H   0  0  0  0  0  0  0  0  0  0  0  0
    2.9119    2.0938   -0.3948 H   0  0  0  0  0  0  0  0  0  0  0  0
    1.9632    0.5014    1.2522 H   0  0  0  0  0  0  0  0  0  0  0  0
    0.0980    1.0900   -1.0911 H   0  0  0  0  0  0  0  0  0  0  0  0
    1.5890    0.1209   -1.1693 H   0  0  0  0  0  0  0  0  0  0  0  0
   -0.8507   -0.5025    0.5559 H   0  0  0  0  0  0  0  0  0  0  0  0
   -1.1194   -2.4264   -0.9853 H   0  0  0  0  0  0  0  0  0  0  0  0
    0.2661   -1.8520   -1.9438 H   0  0  0  0  0  0  0  0  0  0  0  0
   -1.8787   -1.1402   -2.9647 H   0  0  0  0  0  0  0  0  0  0  0  0
   -2.3217   -0.3090   -1.4544 H   0  0  0  0  0  0  0  0  0  0  0  0
   -0.9362    0.2653   -2.4129 H   0  0  0  0  0  0  0  0  0  0  0  0
    1.2940   -1.2143    1.5767 H   0  0  0  0  0  0  0  0  0  0  0  0
    1.7371   -2.0455    0.0664 H   0  0  0  0  0  0  0  0  0  0  0  0
    0.7884   -3.6380    1.7135 H   0  0  0  0  0  0  0  0  0  0  0  0
   -0.7026   -2.6689    1.7916 H   0  0  0  0  0  0  0  0  0  0  0  0
   -0.2596   -3.5001    0.2813 H   0  0  0  0  0  0  0  0  0  0  0  0
   -0.4184    0.7133    1.9092 H   0  0  0  0  0  0  0  0  0  0  0  0
   -0.5239    2.2567    1.0288 H   0  0  0  0  0  0  0  0  0  0  0  0
    0.5241    2.1189    2.4610 H   0  0  0  0  0  0  0  0  0  0  0  0
  1  2  1  0  0  0  0
  2  3  1  0  0  0  0
  3  4  1  0  0  0  0
  4  5  1  0  0  0  0
  5  6  1  0  0  0  0
  7  8  1  0  0  0  0
  4  7  1  0  0  0  0
  2  9  1  0  0  0  0
  1 10  1  0  0  0  0
  1 11  1  0  0  0  0
  1 12  1  0  0  0  0
  2 13  1  0  0  0  0
  3 14  1  0  0  0  0
  3 15  1  0  0  0  0
  4 16  1  0  0  0  0
  5 17  1  0  0  0  0
  5 18  1  0  0  0  0
  6 19  1  0  0  0  0
  6 20  1  0  0  0  0
  6 21  1  0  0  0  0
  7 22  1  0  0  0  0
  7 23  1  0  0  0  0
  8 24  1  0  0  0  0
  8 25  1  0  0  0  0
  8 26  1  0  0  0  0
  9 27  1  0  0  0  0
  9 28  1  0  0  0  0
  9 29  1  0  0  0  0
M  END