67
  Mrv0541 07151418403D          

 29 28  0  0  0  0            999 V2000
    3.4424   -1.0556    0.3346 C   0  0  0  0  0  0  0  0  0  0  0  0
    1.9633   -1.3209    0.0467 C   0  0  2  0  0  0  0  0  0  0  0  0
    1.2167    0.0107   -0.0551 C   0  0  2  0  0  0  0  0  0  0  0  0
   -0.2623   -0.2546   -0.3429 C   0  0  1  0  0  0  0  0  0  0  0  0
   -1.0089    1.0770   -0.4448 C   0  0  2  0  0  0  0  0  0  0  0  0
   -0.8749    1.8390    0.8751 C   0  0  0  0  0  0  0  0  0  0  0  0
   -0.3963   -1.0167   -1.6629 C   0  0  1  0  0  0  0  0  0  0  0  0
   -1.8754   -1.2820   -1.9507 C   0  0  0  0  0  0  0  0  0  0  0  0
    1.8152    0.8455   -1.1890 C   0  0  0  0  0  0  0  0  0  0  0  0
    3.9743   -2.0043    0.4071 H   0  0  0  0  0  0  0  0  0  0  0  0
    3.5379   -0.5127    1.2749 H   0  0  0  0  0  0  0  0  0  0  0  0
    3.8688   -0.4609   -0.4732 H   0  0  0  0  0  0  0  0  0  0  0  0
    1.5370   -1.9157    0.8546 H   0  0  0  0  0  0  0  0  0  0  0  0
    1.8679   -1.8638   -0.8936 H   0  0  0  0  0  0  0  0  0  0  0  0
    1.3122    0.5536    0.8852 H   0  0  0  0  0  0  0  0  0  0  0  0
   -0.6887   -0.8494    0.4649 H   0  0  0  0  0  0  0  0  0  0  0  0
   -2.0626    0.8880   -0.6498 H   0  0  0  0  0  0  0  0  0  0  0  0
   -0.5825    1.6717   -1.2526 H   0  0  0  0  0  0  0  0  0  0  0  0
   -1.4068    2.7877    0.8026 H   0  0  0  0  0  0  0  0  0  0  0  0
   -1.3013    1.2443    1.6830 H   0  0  0  0  0  0  0  0  0  0  0  0
    0.1788    2.0280    1.0802 H   0  0  0  0  0  0  0  0  0  0  0  0
    0.0301   -0.4219   -2.4707 H   0  0  0  0  0  0  0  0  0  0  0  0
    0.1356   -1.9653   -1.5903 H   0  0  0  0  0  0  0  0  0  0  0  0
   -1.9709   -1.8249   -2.8911 H   0  0  0  0  0  0  0  0  0  0  0  0
   -2.4073   -0.3333   -2.0233 H   0  0  0  0  0  0  0  0  0  0  0  0
   -2.3018   -1.8767   -1.1429 H   0  0  0  0  0  0  0  0  0  0  0  0
    1.2834    1.7941   -1.2616 H   0  0  0  0  0  0  0  0  0  0  0  0
    1.7198    0.3026   -2.1294 H   0  0  0  0  0  0  0  0  0  0  0  0
    2.8690    1.0345   -0.9839 H   0  0  0  0  0  0  0  0  0  0  0  0
  1  2  1  0  0  0  0
  2  3  1  0  0  0  0
  3  4  1  0  0  0  0
  4  5  1  0  0  0  0
  5  6  1  0  0  0  0
  7  8  1  0  0  0  0
  4  7  1  0  0  0  0
  3  9  1  0  0  0  0
  1 10  1  0  0  0  0
  1 11  1  0  0  0  0
  1 12  1  0  0  0  0
  2 13  1  0  0  0  0
  2 14  1  0  0  0  0
  3 15  1  0  0  0  0
  4 16  1  0  0  0  0
  5 17  1  0  0  0  0
  5 18  1  0  0  0  0
  6 19  1  0  0  0  0
  6 20  1  0  0  0  0
  6 21  1  0  0  0  0
  7 22  1  0  0  0  0
  7 23  1  0  0  0  0
  8 24  1  0  0  0  0
  8 25  1  0  0  0  0
  8 26  1  0  0  0  0
  9 27  1  0  0  0  0
  9 28  1  0  0  0  0
  9 29  1  0  0  0  0
M  END