69
  Mrv0541 07151418403D          

 29 28  0  0  0  0            999 V2000
    2.9954    0.7285   -0.0449 C   0  0  0  0  0  0  0  0  0  0  0  0
    1.5692    0.1196   -0.3310 C   0  0  1  0  0  0  0  0  0  0  0  0
    0.4574    1.2871   -0.4558 C   0  0  2  0  0  0  0  0  0  0  0  0
   -1.0542    0.7960   -0.6588 C   0  0  2  0  0  0  0  0  0  0  0  0
   -2.0846    1.9557   -0.7942 C   0  0  0  0  0  0  0  0  0  0  0  0
    1.6126   -0.7363   -1.6503 C   0  0  0  0  0  0  0  0  0  0  0  0
    1.3948   -0.8825    0.8890 C   0  0  0  0  0  0  0  0  0  0  0  0
    0.8475    2.3620   -1.5625 C   0  0  0  0  0  0  0  0  0  0  0  0
   -1.6692   -0.1558    0.4274 C   0  0  0  0  0  0  0  0  0  0  0  0
    3.7388   -0.0529    0.0862 H   0  0  0  0  0  0  0  0  0  0  0  0
    2.9805    1.3259    0.8682 H   0  0  0  0  0  0  0  0  0  0  0  0
    3.3637    1.3489   -0.8514 H   0  0  0  0  0  0  0  0  0  0  0  0
    0.4675    1.8479    0.4854 H   0  0  0  0  0  0  0  0  0  0  0  0
   -1.1041    0.2556   -1.6054 H   0  0  0  0  0  0  0  0  0  0  0  0
   -3.0828    1.5587   -0.9508 H   0  0  0  0  0  0  0  0  0  0  0  0
   -2.0732    2.5519    0.1140 H   0  0  0  0  0  0  0  0  0  0  0  0
   -1.8828    2.5872   -1.6497 H   0  0  0  0  0  0  0  0  0  0  0  0
    0.6447   -1.1859   -1.8664 H   0  0  0  0  0  0  0  0  0  0  0  0
    1.8919   -0.1310   -2.5060 H   0  0  0  0  0  0  0  0  0  0  0  0
    2.3359   -1.5460   -1.5655 H   0  0  0  0  0  0  0  0  0  0  0  0
    0.6701   -1.6693    0.7289 H   0  0  0  0  0  0  0  0  0  0  0  0
    1.1374   -0.3522    1.8057 H   0  0  0  0  0  0  0  0  0  0  0  0
    2.3199   -1.4202    1.1233 H   0  0  0  0  0  0  0  0  0  0  0  0
    0.1963    3.2333   -1.5797 H   0  0  0  0  0  0  0  0  0  0  0  0
    0.8156    1.9130   -2.5540 H   0  0  0  0  0  0  0  0  0  0  0  0
    1.8361    2.7848   -1.4228 H   0  0  0  0  0  0  0  0  0  0  0  0
   -2.7585   -0.2320    0.3443 H   0  0  0  0  0  0  0  0  0  0  0  0
   -1.4757    0.2345    1.4237 H   0  0  0  0  0  0  0  0  0  0  0  0
   -1.3230   -1.1790    0.3640 H   0  0  0  0  0  0  0  0  0  0  0  0
  1  2  1  0  0  0  0
  2  3  1  0  0  0  0
  3  4  1  0  0  0  0
  4  5  1  0  0  0  0
  2  6  1  0  0  0  0
  2  7  1  0  0  0  0
  3  8  1  0  0  0  0
  4  9  1  0  0  0  0
  1 10  1  0  0  0  0
  1 11  1  0  0  0  0
  1 12  1  0  0  0  0
  3 13  1  0  0  0  0
  4 14  1  0  0  0  0
  5 15  1  0  0  0  0
  5 16  1  0  0  0  0
  5 17  1  0  0  0  0
  6 18  1  0  0  0  0
  6 19  1  0  0  0  0
  6 20  1  0  0  0  0
  7 21  1  0  0  0  0
  7 22  1  0  0  0  0
  7 23  1  0  0  0  0
  8 24  1  0  0  0  0
  8 25  1  0  0  0  0
  8 26  1  0  0  0  0
  9 27  1  0  0  0  0
  9 28  1  0  0  0  0
  9 29  1  0  0  0  0
M  END