70
  Mrv0541 07151418403D          

 29 28  0  0  0  0            999 V2000
    3.0059    0.9972   -0.1425 C   0  0  0  0  0  0  0  0  0  0  0  0
    1.7850    0.0376   -0.3180 C   0  0  1  0  0  0  0  0  0  0  0  0
    0.4052    0.8334   -0.1709 C   0  0  1  0  0  0  0  0  0  0  0  0
   -1.0205    0.1143   -0.2923 C   0  0  1  0  0  0  0  0  0  0  0  0
   -2.1810    1.1600   -0.1830 C   0  0  0  0  0  0  0  0  0  0  0  0
    2.0504   -0.6439   -1.7172 C   0  0  0  0  0  0  0  0  0  0  0  0
    1.9082   -1.0575    0.7969 C   0  0  0  0  0  0  0  0  0  0  0  0
   -1.2533   -0.5988   -1.6759 C   0  0  0  0  0  0  0  0  0  0  0  0
   -1.3358   -0.8726    0.8608 C   0  0  0  0  0  0  0  0  0  0  0  0
    3.9445    0.4467   -0.2184 H   0  0  0  0  0  0  0  0  0  0  0  0
    3.0182    1.4969    0.8228 H   0  0  0  0  0  0  0  0  0  0  0  0
    3.0299    1.7636   -0.9148 H   0  0  0  0  0  0  0  0  0  0  0  0
    0.4357    1.4145    0.7618 H   0  0  0  0  0  0  0  0  0  0  0  0
    0.4167    1.6372   -0.9035 H   0  0  0  0  0  0  0  0  0  0  0  0
   -3.1742    0.7026   -0.2987 H   0  0  0  0  0  0  0  0  0  0  0  0
   -2.1962    1.7008    0.7670 H   0  0  0  0  0  0  0  0  0  0  0  0
   -2.0862    1.8953   -0.9679 H   0  0  0  0  0  0  0  0  0  0  0  0
    1.4552   -1.5532   -1.8717 H   0  0  0  0  0  0  0  0  0  0  0  0
    1.8213    0.0408   -2.5243 H   0  0  0  0  0  0  0  0  0  0  0  0
    3.0793   -0.9327   -1.8576 H   0  0  0  0  0  0  0  0  0  0  0  0
    1.1875   -1.8595    0.6529 H   0  0  0  0  0  0  0  0  0  0  0  0
    1.7328   -0.6421    1.7854 H   0  0  0  0  0  0  0  0  0  0  0  0
    2.8834   -1.5296    0.8149 H   0  0  0  0  0  0  0  0  0  0  0  0
   -2.2792   -0.8651   -1.8698 H   0  0  0  0  0  0  0  0  0  0  0  0
   -0.9682    0.0752   -2.4677 H   0  0  0  0  0  0  0  0  0  0  0  0
   -0.6595   -1.5181   -1.8084 H   0  0  0  0  0  0  0  0  0  0  0  0
   -2.3190   -1.3153    0.7014 H   0  0  0  0  0  0  0  0  0  0  0  0
   -1.3282   -0.3367    1.8100 H   0  0  0  0  0  0  0  0  0  0  0  0
   -0.5820   -1.6596    0.8818 H   0  0  0  0  0  0  0  0  0  0  0  0
  1  2  1  0  0  0  0
  2  3  1  0  0  0  0
  3  4  1  0  0  0  0
  4  5  1  0  0  0  0
  2  6  1  0  0  0  0
  2  7  1  0  0  0  0
  4  8  1  0  0  0  0
  4  9  1  0  0  0  0
  1 10  1  0  0  0  0
  1 11  1  0  0  0  0
  1 12  1  0  0  0  0
  3 13  1  0  0  0  0
  3 14  1  0  0  0  0
  5 15  1  0  0  0  0
  5 16  1  0  0  0  0
  5 17  1  0  0  0  0
  6 18  1  0  0  0  0
  6 19  1  0  0  0  0
  6 20  1  0  0  0  0
  7 21  1  0  0  0  0
  7 22  1  0  0  0  0
  7 23  1  0  0  0  0
  8 24  1  0  0  0  0
  8 25  1  0  0  0  0
  8 26  1  0  0  0  0
  9 27  1  0  0  0  0
  9 28  1  0  0  0  0
  9 29  1  0  0  0  0
M  END