72
  Mrv0541 07151418403D          

 29 28  0  0  0  0            999 V2000
   -1.8336    1.5219   -0.6651 C   0  0  0  0  0  0  0  0  0  0  0  0
   -0.3221    1.0923   -0.6714 C   0  0  2  0  0  0  0  0  0  0  0  0
    0.0828    0.2146    0.6055 C   0  0  1  0  0  0  0  0  0  0  0  0
    1.5791   -0.3102    0.6363 C   0  0  2  0  0  0  0  0  0  0  0  0
    2.0569   -1.2325   -0.5015 C   0  0  0  0  0  0  0  0  0  0  0  0
   -0.2311    0.9758    1.9603 C   0  0  2  0  0  0  0  0  0  0  0  0
    0.0058    0.1832    3.2656 C   0  0  0  0  0  0  0  0  0  0  0  0
    0.5859    2.3764   -0.7641 C   0  0  0  0  0  0  0  0  0  0  0  0
   -0.2743    0.2840   -2.0107 C   0  0  0  0  0  0  0  0  0  0  0  0
   -2.1172    2.0992   -1.5459 H   0  0  0  0  0  0  0  0  0  0  0  0
   -2.5089    0.6624   -0.5857 H   0  0  0  0  0  0  0  0  0  0  0  0
   -2.0625    2.1791    0.1906 H   0  0  0  0  0  0  0  0  0  0  0  0
   -0.5673   -0.6724    0.6177 H   0  0  0  0  0  0  0  0  0  0  0  0
    1.7492   -0.9252    1.5345 H   0  0  0  0  0  0  0  0  0  0  0  0
    2.2596    0.5263    0.7216 H   0  0  0  0  0  0  0  0  0  0  0  0
    3.0171   -1.7035   -0.2667 H   0  0  0  0  0  0  0  0  0  0  0  0
    1.3398   -2.0437   -0.6473 H   0  0  0  0  0  0  0  0  0  0  0  0
    2.1684   -0.6746   -1.4320 H   0  0  0  0  0  0  0  0  0  0  0  0
   -1.2851    1.2776    2.0182 H   0  0  0  0  0  0  0  0  0  0  0  0
    0.3713    1.8817    2.0399 H   0  0  0  0  0  0  0  0  0  0  0  0
   -0.2796    0.7946    4.1110 H   0  0  0  0  0  0  0  0  0  0  0  0
   -0.5970   -0.7221    3.2368 H   0  0  0  0  0  0  0  0  0  0  0  0
    1.0569   -0.0655    3.3779 H   0  0  0  0  0  0  0  0  0  0  0  0
    1.6438    2.1337   -0.7785 H   0  0  0  0  0  0  0  0  0  0  0  0
    0.3689    2.9756   -1.6481 H   0  0  0  0  0  0  0  0  0  0  0  0
    0.4164    3.0292    0.1074 H   0  0  0  0  0  0  0  0  0  0  0  0
    0.5901    0.4708   -2.6469 H   0  0  0  0  0  0  0  0  0  0  0  0
   -1.1880    0.4648   -2.5769 H   0  0  0  0  0  0  0  0  0  0  0  0
   -0.2971   -0.7744   -1.7512 H   0  0  0  0  0  0  0  0  0  0  0  0
  1  2  1  0  0  0  0
  2  3  1  0  0  0  0
  3  4  1  0  0  0  0
  4  5  1  0  0  0  0
  6  7  1  0  0  0  0
  3  6  1  0  0  0  0
  2  8  1  0  0  0  0
  2  9  1  0  0  0  0
  1 10  1  0  0  0  0
  1 11  1  0  0  0  0
  1 12  1  0  0  0  0
  3 13  1  0  0  0  0
  4 14  1  0  0  0  0
  4 15  1  0  0  0  0
  5 16  1  0  0  0  0
  5 17  1  0  0  0  0
  5 18  1  0  0  0  0
  6 19  1  0  0  0  0
  6 20  1  0  0  0  0
  7 21  1  0  0  0  0
  7 22  1  0  0  0  0
  7 23  1  0  0  0  0
  8 24  1  0  0  0  0
  8 25  1  0  0  0  0
  8 26  1  0  0  0  0
  9 27  1  0  0  0  0
  9 28  1  0  0  0  0
  9 29  1  0  0  0  0
M  END