74
  Mrv0541 07151418403D          

 29 28  0  0  0  0            999 V2000
   -0.5496   -2.1153    1.7232 C   0  0  0  0  0  0  0  0  0  0  0  0
   -0.9538   -0.6471    1.3366 C   0  0  2  0  0  0  0  0  0  0  0  0
    0.1283    0.1307    0.4471 C   0  0  1  0  0  0  0  0  0  0  0  0
   -0.4384    1.5166   -0.1152 C   0  0  2  0  0  0  0  0  0  0  0  0
   -1.7821    1.3807   -0.8937 C   0  0  0  0  0  0  0  0  0  0  0  0
    1.5003    0.2335    1.2287 C   0  0  1  0  0  0  0  0  0  0  0  0
    2.7784    0.7556    0.5486 C   0  0  0  0  0  0  0  0  0  0  0  0
   -1.4095    0.1400    2.6175 C   0  0  0  0  0  0  0  0  0  0  0  0
    0.4709    2.3709   -1.0633 C   0  0  0  0  0  0  0  0  0  0  0  0
   -1.3746   -2.6318    2.2284 H   0  0  0  0  0  0  0  0  0  0  0  0
   -0.3102   -2.6881    0.8212 H   0  0  0  0  0  0  0  0  0  0  0  0
    0.3111   -2.1399    2.3934 H   0  0  0  0  0  0  0  0  0  0  0  0
   -1.8633   -0.8454    0.7491 H   0  0  0  0  0  0  0  0  0  0  0  0
    0.2930   -0.5103   -0.4285 H   0  0  0  0  0  0  0  0  0  0  0  0
   -0.5968    2.1768    0.7370 H   0  0  0  0  0  0  0  0  0  0  0  0
   -2.1363    2.3549   -1.2397 H   0  0  0  0  0  0  0  0  0  0  0  0
   -2.6017    0.9612   -0.3048 H   0  0  0  0  0  0  0  0  0  0  0  0
   -1.6319    0.7454   -1.7668 H   0  0  0  0  0  0  0  0  0  0  0  0
    1.3621    0.8512    2.1017 H   0  0  0  0  0  0  0  0  0  0  0  0
    1.8059   -0.7569    1.5751 H   0  0  0  0  0  0  0  0  0  0  0  0
    3.6636    0.4601    1.1045 H   0  0  0  0  0  0  0  0  0  0  0  0
    2.7755    1.8398    0.4903 H   0  0  0  0  0  0  0  0  0  0  0  0
    2.8637    0.3300   -0.4447 H   0  0  0  0  0  0  0  0  0  0  0  0
   -1.8069    1.1267    2.3638 H   0  0  0  0  0  0  0  0  0  0  0  0
   -2.2008   -0.3908    3.1640 H   0  0  0  0  0  0  0  0  0  0  0  0
   -0.5657    0.2807    3.2967 H   0  0  0  0  0  0  0  0  0  0  0  0
   -0.0818    3.1545   -1.5670 H   0  0  0  0  0  0  0  0  0  0  0  0
    0.8932    1.7387   -1.8336 H   0  0  0  0  0  0  0  0  0  0  0  0
    1.2643    2.8781   -0.5311 H   0  0  0  0  0  0  0  0  0  0  0  0
  1  2  1  0  0  0  0
  2  3  1  0  0  0  0
  3  4  1  0  0  0  0
  4  5  1  0  0  0  0
  6  7  1  0  0  0  0
  3  6  1  0  0  0  0
  2  8  1  0  0  0  0
  4  9  1  0  0  0  0
  1 10  1  0  0  0  0
  1 11  1  0  0  0  0
  1 12  1  0  0  0  0
  2 13  1  0  0  0  0
  3 14  1  0  0  0  0
  4 15  1  0  0  0  0
  5 16  1  0  0  0  0
  5 17  1  0  0  0  0
  5 18  1  0  0  0  0
  6 19  1  0  0  0  0
  6 20  1  0  0  0  0
  7 21  1  0  0  0  0
  7 22  1  0  0  0  0
  7 23  1  0  0  0  0
  8 24  1  0  0  0  0
  8 25  1  0  0  0  0
  8 26  1  0  0  0  0
  9 27  1  0  0  0  0
  9 28  1  0  0  0  0
  9 29  1  0  0  0  0
M  END