75
  Mrv0541 07151418403D          

 29 28  0  0  0  0            999 V2000
   -1.7045    0.6772    1.0465 C   0  0  0  0  0  0  0  0  0  0  0  0
   -0.6845    1.0379   -0.0354 C   0  0  1  0  0  0  0  0  0  0  0  0
    0.3689   -0.0676   -0.1320 C   0  0  1  0  0  0  0  0  0  0  0  0
    1.3889    0.2930   -1.2139 C   0  0  2  0  0  0  0  0  0  0  0  0
    2.0689    1.6153   -0.8532 C   0  0  0  0  0  0  0  0  0  0  0  0
    1.0822   -0.2114    1.2139 C   0  0  2  0  0  0  0  0  0  0  0  0
    2.1356   -1.3168    1.1172 C   0  0  0  0  0  0  0  0  0  0  0  0
   -0.3111   -1.3899   -0.4926 C   0  0  2  0  0  0  0  0  0  0  0  0
   -1.0245   -1.2461   -1.8385 C   0  0  0  0  0  0  0  0  0  0  0  0
   -2.4549    1.4648    1.1153 H   0  0  0  0  0  0  0  0  0  0  0  0
   -2.1889   -0.2648    0.7896 H   0  0  0  0  0  0  0  0  0  0  0  0
   -1.1963    0.5748    2.0053 H   0  0  0  0  0  0  0  0  0  0  0  0
   -1.1927    1.1403   -0.9942 H   0  0  0  0  0  0  0  0  0  0  0  0
   -0.2000    1.9799    0.2215 H   0  0  0  0  0  0  0  0  0  0  0  0
    0.8807    0.3955   -2.1727 H   0  0  0  0  0  0  0  0  0  0  0  0
    2.1393   -0.4945   -1.2827 H   0  0  0  0  0  0  0  0  0  0  0  0
    2.7955    1.8723   -1.6240 H   0  0  0  0  0  0  0  0  0  0  0  0
    1.3185    2.4029   -0.7844 H   0  0  0  0  0  0  0  0  0  0  0  0
    2.5771    1.5129    0.1056 H   0  0  0  0  0  0  0  0  0  0  0  0
    0.3556   -0.4683    1.9846 H   0  0  0  0  0  0  0  0  0  0  0  0
    1.5667    0.7307    1.4708 H   0  0  0  0  0  0  0  0  0  0  0  0
    2.6438   -1.4193    2.0761 H   0  0  0  0  0  0  0  0  0  0  0  0
    1.6511   -2.2588    0.8603 H   0  0  0  0  0  0  0  0  0  0  0  0
    2.8622   -1.0599    0.3465 H   0  0  0  0  0  0  0  0  0  0  0  0
   -1.0378   -1.6468    0.2781 H   0  0  0  0  0  0  0  0  0  0  0  0
    0.4393   -2.1774   -0.5615 H   0  0  0  0  0  0  0  0  0  0  0  0
   -1.5089   -2.1881   -2.0954 H   0  0  0  0  0  0  0  0  0  0  0  0
   -1.7749   -0.4585   -1.7697 H   0  0  0  0  0  0  0  0  0  0  0  0
   -0.2978   -0.9892   -2.6092 H   0  0  0  0  0  0  0  0  0  0  0  0
  1  2  1  0  0  0  0
  2  3  1  0  0  0  0
  3  4  1  0  0  0  0
  4  5  1  0  0  0  0
  6  7  1  0  0  0  0
  3  6  1  0  0  0  0
  8  9  1  0  0  0  0
  3  8  1  0  0  0  0
  1 10  1  0  0  0  0
  1 11  1  0  0  0  0
  1 12  1  0  0  0  0
  2 13  1  0  0  0  0
  2 14  1  0  0  0  0
  4 15  1  0  0  0  0
  4 16  1  0  0  0  0
  5 17  1  0  0  0  0
  5 18  1  0  0  0  0
  5 19  1  0  0  0  0
  6 20  1  0  0  0  0
  6 21  1  0  0  0  0
  7 22  1  0  0  0  0
  7 23  1  0  0  0  0
  7 24  1  0  0  0  0
  8 25  1  0  0  0  0
  8 26  1  0  0  0  0
  9 27  1  0  0  0  0
  9 28  1  0  0  0  0
  9 29  1  0  0  0  0
M  END