78
  Mrv0541 07151418403D          

 32 31  0  0  0  0            999 V2000
    4.2918   -2.5377   -0.7580 C   0  0  0  0  0  0  0  0  0  0  0  0
    3.5569   -1.4640    0.0469 C   0  0  1  0  0  0  0  0  0  0  0  0
    2.2124   -1.1598   -0.6170 C   0  0  2  0  0  0  0  0  0  0  0  0
    1.4775   -0.0861    0.1879 C   0  0  1  0  0  0  0  0  0  0  0  0
    0.1330    0.2181   -0.4760 C   0  0  2  0  0  0  0  0  0  0  0  0
   -0.6019    1.2918    0.3289 C   0  0  1  0  0  0  0  0  0  0  0  0
   -1.9464    1.5960   -0.3350 C   0  0  2  0  0  0  0  0  0  0  0  0
   -2.6813    2.6697    0.4699 C   0  0  1  0  0  0  0  0  0  0  0  0
   -4.0258    2.9739   -0.1940 C   0  0  0  0  0  0  0  0  0  0  0  0
    1.3656   -2.4333   -0.6610 C   0  0  0  0  0  0  0  0  0  0  0  0
    5.2497   -2.7544   -0.2850 H   0  0  0  0  0  0  0  0  0  0  0  0
    3.6885   -3.4449   -0.7893 H   0  0  0  0  0  0  0  0  0  0  0  0
    4.4610   -2.1786   -1.7732 H   0  0  0  0  0  0  0  0  0  0  0  0
    3.3878   -1.8231    1.0621 H   0  0  0  0  0  0  0  0  0  0  0  0
    4.1602   -0.5567    0.0783 H   0  0  0  0  0  0  0  0  0  0  0  0
    2.3816   -0.8007   -1.6322 H   0  0  0  0  0  0  0  0  0  0  0  0
    1.3084   -0.4452    1.2031 H   0  0  0  0  0  0  0  0  0  0  0  0
    2.0808    0.8212    0.2193 H   0  0  0  0  0  0  0  0  0  0  0  0
   -0.4703   -0.6892   -0.5073 H   0  0  0  0  0  0  0  0  0  0  0  0
    0.3021    0.5772   -1.4912 H   0  0  0  0  0  0  0  0  0  0  0  0
   -0.7710    0.9327    1.3441 H   0  0  0  0  0  0  0  0  0  0  0  0
    0.0014    2.1990    0.3603 H   0  0  0  0  0  0  0  0  0  0  0  0
   -2.5497    0.6887   -0.3663 H   0  0  0  0  0  0  0  0  0  0  0  0
   -1.7773    1.9551   -1.3502 H   0  0  0  0  0  0  0  0  0  0  0  0
   -2.8504    2.3106    1.4851 H   0  0  0  0  0  0  0  0  0  0  0  0
   -2.0780    3.5769    0.5013 H   0  0  0  0  0  0  0  0  0  0  0  0
   -4.5494    3.7388    0.3794 H   0  0  0  0  0  0  0  0  0  0  0  0
   -4.6291    2.0666   -0.2253 H   0  0  0  0  0  0  0  0  0  0  0  0
   -3.8567    3.3330   -1.2092 H   0  0  0  0  0  0  0  0  0  0  0  0
    0.4078   -2.2166   -1.1340 H   0  0  0  0  0  0  0  0  0  0  0  0
    1.1965   -2.7924    0.3542 H   0  0  0  0  0  0  0  0  0  0  0  0
    1.8892   -3.1982   -1.2344 H   0  0  0  0  0  0  0  0  0  0  0  0
  1  2  1  0  0  0  0
  2  3  1  0  0  0  0
  3  4  1  0  0  0  0
  4  5  1  0  0  0  0
  5  6  1  0  0  0  0
  6  7  1  0  0  0  0
  7  8  1  0  0  0  0
  8  9  1  0  0  0  0
  3 10  1  0  0  0  0
  1 11  1  0  0  0  0
  1 12  1  0  0  0  0
  1 13  1  0  0  0  0
  2 14  1  0  0  0  0
  2 15  1  0  0  0  0
  3 16  1  0  0  0  0
  4 17  1  0  0  0  0
  4 18  1  0  0  0  0
  5 19  1  0  0  0  0
  5 20  1  0  0  0  0
  6 21  1  0  0  0  0
  6 22  1  0  0  0  0
  7 23  1  0  0  0  0
  7 24  1  0  0  0  0
  8 25  1  0  0  0  0
  8 26  1  0  0  0  0
  9 27  1  0  0  0  0
  9 28  1  0  0  0  0
  9 29  1  0  0  0  0
 10 30  1  0  0  0  0
 10 31  1  0  0  0  0
 10 32  1  0  0  0  0
M  END