86
  Mrv0541 07151418403D          

 32 31  0  0  0  0            999 V2000
   -2.5303    2.9095    0.2258 C   0  0  0  0  0  0  0  0  0  0  0  0
   -1.9201    1.5595    0.6079 C   0  0  2  0  0  0  0  0  0  0  0  0
   -0.4820    1.4851    0.0910 C   0  0  1  0  0  0  0  0  0  0  0  0
    0.1282    0.1351    0.4731 C   0  0  2  0  0  0  0  0  0  0  0  0
    1.5663    0.0607   -0.0438 C   0  0  1  0  0  0  0  0  0  0  0  0
    2.1764   -1.2893    0.3383 C   0  0  2  0  0  0  0  0  0  0  0  0
    3.6145   -1.3636   -0.1786 C   0  0  1  0  0  0  0  0  0  0  0  0
    4.2247   -2.7137    0.2035 C   0  0  0  0  0  0  0  0  0  0  0  0
   -2.7452    0.4320   -0.0158 C   0  0  0  0  0  0  0  0  0  0  0  0
    3.6174   -1.2154   -1.7014 C   0  0  0  0  0  0  0  0  0  0  0  0
   -3.5548    2.9625    0.5941 H   0  0  0  0  0  0  0  0  0  0  0  0
   -2.5282    3.0151   -0.8591 H   0  0  0  0  0  0  0  0  0  0  0  0
   -1.9425    3.7127    0.6702 H   0  0  0  0  0  0  0  0  0  0  0  0
   -1.9221    1.4539    1.6928 H   0  0  0  0  0  0  0  0  0  0  0  0
   -0.4800    1.5907   -0.9939 H   0  0  0  0  0  0  0  0  0  0  0  0
    0.1058    2.2883    0.5353 H   0  0  0  0  0  0  0  0  0  0  0  0
   -0.4596   -0.6681    0.0288 H   0  0  0  0  0  0  0  0  0  0  0  0
    0.1261    0.0295    1.5580 H   0  0  0  0  0  0  0  0  0  0  0  0
    1.5683    0.1664   -1.1287 H   0  0  0  0  0  0  0  0  0  0  0  0
    2.1541    0.8640    0.4005 H   0  0  0  0  0  0  0  0  0  0  0  0
    1.5886   -2.0925   -0.1060 H   0  0  0  0  0  0  0  0  0  0  0  0
    2.1744   -1.3949    1.4232 H   0  0  0  0  0  0  0  0  0  0  0  0
    4.2023   -0.5604    0.2657 H   0  0  0  0  0  0  0  0  0  0  0  0
    5.2492   -2.7666   -0.1648 H   0  0  0  0  0  0  0  0  0  0  0  0
    3.6369   -3.5169   -0.2409 H   0  0  0  0  0  0  0  0  0  0  0  0
    4.2227   -2.8193    1.2884 H   0  0  0  0  0  0  0  0  0  0  0  0
   -2.3105   -0.5298    0.2565 H   0  0  0  0  0  0  0  0  0  0  0  0
   -3.7697    0.4850    0.3525 H   0  0  0  0  0  0  0  0  0  0  0  0
   -2.7431    0.5376   -1.1006 H   0  0  0  0  0  0  0  0  0  0  0  0
    4.6419   -1.2683   -2.0697 H   0  0  0  0  0  0  0  0  0  0  0  0
    3.0296   -2.0186   -2.1458 H   0  0  0  0  0  0  0  0  0  0  0  0
    3.1827   -0.2536   -1.9737 H   0  0  0  0  0  0  0  0  0  0  0  0
  1  2  1  0  0  0  0
  2  3  1  0  0  0  0
  3  4  1  0  0  0  0
  4  5  1  0  0  0  0
  5  6  1  0  0  0  0
  6  7  1  0  0  0  0
  7  8  1  0  0  0  0
  2  9  1  0  0  0  0
  7 10  1  0  0  0  0
  1 11  1  0  0  0  0
  1 12  1  0  0  0  0
  1 13  1  0  0  0  0
  2 14  1  0  0  0  0
  3 15  1  0  0  0  0
  3 16  1  0  0  0  0
  4 17  1  0  0  0  0
  4 18  1  0  0  0  0
  5 19  1  0  0  0  0
  5 20  1  0  0  0  0
  6 21  1  0  0  0  0
  6 22  1  0  0  0  0
  7 23  1  0  0  0  0
  8 24  1  0  0  0  0
  8 25  1  0  0  0  0
  8 26  1  0  0  0  0
  9 27  1  0  0  0  0
  9 28  1  0  0  0  0
  9 29  1  0  0  0  0
 10 30  1  0  0  0  0
 10 31  1  0  0  0  0
 10 32  1  0  0  0  0
M  END