88
  Mrv0541 07151418403D          

 32 31  0  0  0  0            999 V2000
    4.2867   -2.5685   -0.6684 C   0  0  0  0  0  0  0  0  0  0  0  0
    3.5305   -1.5029    0.1276 C   0  0  1  0  0  0  0  0  0  0  0  0
    2.2223   -1.1634   -0.5894 C   0  0  2  0  0  0  0  0  0  0  0  0
    1.4661   -0.0978    0.2066 C   0  0  2  0  0  0  0  0  0  0  0  0
    0.1579    0.2417   -0.5104 C   0  0  2  0  0  0  0  0  0  0  0  0
   -0.5983    1.3073    0.2856 C   0  0  1  0  0  0  0  0  0  0  0  0
   -1.9066    1.6468   -0.4315 C   0  0  2  0  0  0  0  0  0  0  0  0
   -2.6627    2.7124    0.3645 C   0  0  0  0  0  0  0  0  0  0  0  0
    1.3608   -2.4228   -0.7022 C   0  0  0  0  0  0  0  0  0  0  0  0
    2.3276    1.1616    0.3194 C   0  0  0  0  0  0  0  0  0  0  0  0
    5.2187   -2.8104   -0.1575 H   0  0  0  0  0  0  0  0  0  0  0  0
    3.6730   -3.4657   -0.7487 H   0  0  0  0  0  0  0  0  0  0  0  0
    4.5072   -2.1886   -1.6659 H   0  0  0  0  0  0  0  0  0  0  0  0
    3.3101   -1.8829    1.1252 H   0  0  0  0  0  0  0  0  0  0  0  0
    4.1443   -0.6057    0.2080 H   0  0  0  0  0  0  0  0  0  0  0  0
    2.4427   -0.7835   -1.5870 H   0  0  0  0  0  0  0  0  0  0  0  0
    1.2457   -0.4778    1.2042 H   0  0  0  0  0  0  0  0  0  0  0  0
   -0.4559   -0.6555   -0.5908 H   0  0  0  0  0  0  0  0  0  0  0  0
    0.3783    0.6217   -1.5080 H   0  0  0  0  0  0  0  0  0  0  0  0
   -0.8188    0.9273    1.2831 H   0  0  0  0  0  0  0  0  0  0  0  0
    0.0154    2.2045    0.3659 H   0  0  0  0  0  0  0  0  0  0  0  0
   -2.5203    0.7496   -0.5118 H   0  0  0  0  0  0  0  0  0  0  0  0
   -1.6861    2.0268   -1.4291 H   0  0  0  0  0  0  0  0  0  0  0  0
   -3.5947    2.9543   -0.1463 H   0  0  0  0  0  0  0  0  0  0  0  0
   -2.8832    2.3324    1.3621 H   0  0  0  0  0  0  0  0  0  0  0  0
   -2.0490    3.6096    0.4449 H   0  0  0  0  0  0  0  0  0  0  0  0
    0.4288   -2.1809   -1.2130 H   0  0  0  0  0  0  0  0  0  0  0  0
    1.1404   -2.8027    0.2954 H   0  0  0  0  0  0  0  0  0  0  0  0
    1.8995   -3.1819   -1.2693 H   0  0  0  0  0  0  0  0  0  0  0  0
    1.7889    1.9207    0.8865 H   0  0  0  0  0  0  0  0  0  0  0  0
    2.5480    1.5415   -0.6782 H   0  0  0  0  0  0  0  0  0  0  0  0
    3.2596    0.9197    0.8302 H   0  0  0  0  0  0  0  0  0  0  0  0
  1  2  1  0  0  0  0
  2  3  1  0  0  0  0
  3  4  1  0  0  0  0
  4  5  1  0  0  0  0
  5  6  1  0  0  0  0
  6  7  1  0  0  0  0
  7  8  1  0  0  0  0
  3  9  1  0  0  0  0
  4 10  1  0  0  0  0
  1 11  1  0  0  0  0
  1 12  1  0  0  0  0
  1 13  1  0  0  0  0
  2 14  1  0  0  0  0
  2 15  1  0  0  0  0
  3 16  1  0  0  0  0
  4 17  1  0  0  0  0
  5 18  1  0  0  0  0
  5 19  1  0  0  0  0
  6 20  1  0  0  0  0
  6 21  1  0  0  0  0
  7 22  1  0  0  0  0
  7 23  1  0  0  0  0
  8 24  1  0  0  0  0
  8 25  1  0  0  0  0
  8 26  1  0  0  0  0
  9 27  1  0  0  0  0
  9 28  1  0  0  0  0
  9 29  1  0  0  0  0
 10 30  1  0  0  0  0
 10 31  1  0  0  0  0
 10 32  1  0  0  0  0
M  END