90
  Mrv0541 07151418403D          

 32 31  0  0  0  0            999 V2000
   -2.3429    3.1521   -0.2290 C   0  0  0  0  0  0  0  0  0  0  0  0
   -1.8223    1.7687   -0.6241 C   0  0  1  0  0  0  0  0  0  0  0  0
   -0.3476    1.6484   -0.2348 C   0  0  2  0  0  0  0  0  0  0  0  0
    0.1730    0.2650   -0.6298 C   0  0  1  0  0  0  0  0  0  0  0  0
    1.6477    0.1447   -0.2405 C   0  0  2  0  0  0  0  0  0  0  0  0
    2.1682   -1.2388   -0.6356 C   0  0  1  0  0  0  0  0  0  0  0  0
    3.6430   -1.3591   -0.2462 C   0  0  2  0  0  0  0  0  0  0  0  0
    4.1635   -2.7425   -0.6413 C   0  0  0  0  0  0  0  0  0  0  0  0
   -0.2022    1.8355    1.2768 C   0  0  0  0  0  0  0  0  0  0  0  0
    1.3594   -2.3148    0.0916 C   0  0  0  0  0  0  0  0  0  0  0  0
   -3.3935    3.2379   -0.5064 H   0  0  0  0  0  0  0  0  0  0  0  0
   -2.2393    3.2854    0.8478 H   0  0  0  0  0  0  0  0  0  0  0  0
   -1.7666    3.9187   -0.7471 H   0  0  0  0  0  0  0  0  0  0  0  0
   -2.3986    1.0021   -0.1060 H   0  0  0  0  0  0  0  0  0  0  0  0
   -1.9259    1.6354   -1.7009 H   0  0  0  0  0  0  0  0  0  0  0  0
    0.2287    2.4150   -0.7528 H   0  0  0  0  0  0  0  0  0  0  0  0
   -0.4033   -0.5016   -0.1118 H   0  0  0  0  0  0  0  0  0  0  0  0
    0.0694    0.1317   -1.7067 H   0  0  0  0  0  0  0  0  0  0  0  0
    1.7512    0.2779    0.8364 H   0  0  0  0  0  0  0  0  0  0  0  0
    2.2240    0.9112   -0.7585 H   0  0  0  0  0  0  0  0  0  0  0  0
    2.0647   -1.3720   -1.7124 H   0  0  0  0  0  0  0  0  0  0  0  0
    3.7465   -1.2258    0.8306 H   0  0  0  0  0  0  0  0  0  0  0  0
    4.2192   -0.5925   -0.7643 H   0  0  0  0  0  0  0  0  0  0  0  0
    5.2141   -2.8282   -0.3639 H   0  0  0  0  0  0  0  0  0  0  0  0
    3.5873   -3.5091   -0.1232 H   0  0  0  0  0  0  0  0  0  0  0  0
    4.0600   -2.8758   -1.7181 H   0  0  0  0  0  0  0  0  0  0  0  0
    0.8484    1.7497    1.5542 H   0  0  0  0  0  0  0  0  0  0  0  0
   -0.7785    1.0689    1.7948 H   0  0  0  0  0  0  0  0  0  0  0  0
   -0.5731    2.8210    1.5583 H   0  0  0  0  0  0  0  0  0  0  0  0
    1.7302   -3.3004   -0.1898 H   0  0  0  0  0  0  0  0  0  0  0  0
    0.3087   -2.2291   -0.1858 H   0  0  0  0  0  0  0  0  0  0  0  0
    1.4629   -2.1815    1.1685 H   0  0  0  0  0  0  0  0  0  0  0  0
  1  2  1  0  0  0  0
  2  3  1  0  0  0  0
  3  4  1  0  0  0  0
  4  5  1  0  0  0  0
  5  6  1  0  0  0  0
  6  7  1  0  0  0  0
  7  8  1  0  0  0  0
  3  9  1  0  0  0  0
  6 10  1  0  0  0  0
  1 11  1  0  0  0  0
  1 12  1  0  0  0  0
  1 13  1  0  0  0  0
  2 14  1  0  0  0  0
  2 15  1  0  0  0  0
  3 16  1  0  0  0  0
  4 17  1  0  0  0  0
  4 18  1  0  0  0  0
  5 19  1  0  0  0  0
  5 20  1  0  0  0  0
  6 21  1  0  0  0  0
  7 22  1  0  0  0  0
  7 23  1  0  0  0  0
  8 24  1  0  0  0  0
  8 25  1  0  0  0  0
  8 26  1  0  0  0  0
  9 27  1  0  0  0  0
  9 28  1  0  0  0  0
  9 29  1  0  0  0  0
 10 30  1  0  0  0  0
 10 31  1  0  0  0  0
 10 32  1  0  0  0  0
M  END