91
  Mrv0541 07151418403D          

 32 31  0  0  0  0            999 V2000
    4.0189   -2.9560   -0.1548 C   0  0  0  0  0  0  0  0  0  0  0  0
    3.2426   -1.8231   -0.8290 C   0  0  2  0  0  0  0  0  0  0  0  0
    2.0619   -1.4171    0.0554 C   0  0  1  0  0  0  0  0  0  0  0  0
    1.2856   -0.2841   -0.6189 C   0  0  1  0  0  0  0  0  0  0  0  0
    0.1049    0.1219    0.2655 C   0  0  1  0  0  0  0  0  0  0  0  0
   -0.6715    1.2549   -0.4088 C   0  0  2  0  0  0  0  0  0  0  0  0
   -1.8522    1.6608    0.4756 C   0  0  1  0  0  0  0  0  0  0  0  0
   -2.6285    2.7938   -0.1987 C   0  0  0  0  0  0  0  0  0  0  0  0
    2.2098    0.9186   -0.8194 C   0  0  0  0  0  0  0  0  0  0  0  0
    0.7657   -0.7598   -1.9769 C   0  0  0  0  0  0  0  0  0  0  0  0
    4.8600   -3.2453   -0.7848 H   0  0  0  0  0  0  0  0  0  0  0  0
    3.3604   -3.8129   -0.0119 H   0  0  0  0  0  0  0  0  0  0  0  0
    4.3892   -2.6172    0.8128 H   0  0  0  0  0  0  0  0  0  0  0  0
    2.8722   -2.1619   -1.7965 H   0  0  0  0  0  0  0  0  0  0  0  0
    3.9010   -0.9662   -0.9718 H   0  0  0  0  0  0  0  0  0  0  0  0
    1.4034   -2.2739    0.1982 H   0  0  0  0  0  0  0  0  0  0  0  0
    2.4322   -1.0782    1.0229 H   0  0  0  0  0  0  0  0  0  0  0  0
   -0.5536   -0.7350    0.4083 H   0  0  0  0  0  0  0  0  0  0  0  0
    0.4752    0.4607    1.2330 H   0  0  0  0  0  0  0  0  0  0  0  0
   -1.0418    0.9160   -1.3763 H   0  0  0  0  0  0  0  0  0  0  0  0
   -0.0130    2.1117   -0.5516 H   0  0  0  0  0  0  0  0  0  0  0  0
   -2.5106    0.8040    0.6184 H   0  0  0  0  0  0  0  0  0  0  0  0
   -1.4818    1.9997    1.4431 H   0  0  0  0  0  0  0  0  0  0  0  0
   -3.4696    3.0830    0.4314 H   0  0  0  0  0  0  0  0  0  0  0  0
   -2.9988    2.4549   -1.1662 H   0  0  0  0  0  0  0  0  0  0  0  0
   -1.9700    3.6506   -0.3415 H   0  0  0  0  0  0  0  0  0  0  0  0
    1.6567    1.7258   -1.2997 H   0  0  0  0  0  0  0  0  0  0  0  0
    2.5802    1.2575    0.1482 H   0  0  0  0  0  0  0  0  0  0  0  0
    3.0509    0.6294   -1.4494 H   0  0  0  0  0  0  0  0  0  0  0  0
    0.2126    0.0474   -2.4573 H   0  0  0  0  0  0  0  0  0  0  0  0
    0.1072   -1.6166   -1.8341 H   0  0  0  0  0  0  0  0  0  0  0  0
    1.6068   -1.0490   -2.6070 H   0  0  0  0  0  0  0  0  0  0  0  0
  1  2  1  0  0  0  0
  2  3  1  0  0  0  0
  3  4  1  0  0  0  0
  4  5  1  0  0  0  0
  5  6  1  0  0  0  0
  6  7  1  0  0  0  0
  7  8  1  0  0  0  0
  4  9  1  0  0  0  0
  4 10  1  0  0  0  0
  1 11  1  0  0  0  0
  1 12  1  0  0  0  0
  1 13  1  0  0  0  0
  2 14  1  0  0  0  0
  2 15  1  0  0  0  0
  3 16  1  0  0  0  0
  3 17  1  0  0  0  0
  5 18  1  0  0  0  0
  5 19  1  0  0  0  0
  6 20  1  0  0  0  0
  6 21  1  0  0  0  0
  7 22  1  0  0  0  0
  7 23  1  0  0  0  0
  8 24  1  0  0  0  0
  8 25  1  0  0  0  0
  8 26  1  0  0  0  0
  9 27  1  0  0  0  0
  9 28  1  0  0  0  0
  9 29  1  0  0  0  0
 10 30  1  0  0  0  0
 10 31  1  0  0  0  0
 10 32  1  0  0  0  0
M  END