92
  Mrv0541 07151418403D          

 32 31  0  0  0  0            999 V2000
   -2.3685    3.0316    0.4804 C   0  0  0  0  0  0  0  0  0  0  0  0
   -1.9388    1.5815    0.2492 C   0  0  1  0  0  0  0  0  0  0  0  0
   -0.4115    1.4927    0.2703 C   0  0  2  0  0  0  0  0  0  0  0  0
    0.0182    0.0426    0.0391 C   0  0  1  0  0  0  0  0  0  0  0  0
    1.5455   -0.0463    0.0602 C   0  0  1  0  0  0  0  0  0  0  0  0
    1.9752   -1.4964   -0.1710 C   0  0  1  0  0  0  0  0  0  0  0  0
    3.5025   -1.5852   -0.1499 C   0  0  2  0  0  0  0  0  0  0  0  0
    3.9322   -3.0353   -0.3811 C   0  0  0  0  0  0  0  0  0  0  0  0
   -0.5595   -0.8430    1.1450 C   0  0  0  0  0  0  0  0  0  0  0  0
    2.1232    0.8393   -1.0457 C   0  0  0  0  0  0  0  0  0  0  0  0
   -3.4566    3.0949    0.4654 H   0  0  0  0  0  0  0  0  0  0  0  0
   -1.9982    3.3705    1.4479 H   0  0  0  0  0  0  0  0  0  0  0  0
   -1.9570    3.6625   -0.3075 H   0  0  0  0  0  0  0  0  0  0  0  0
   -2.3503    0.9506    1.0371 H   0  0  0  0  0  0  0  0  0  0  0  0
   -2.3092    1.2427   -0.7183 H   0  0  0  0  0  0  0  0  0  0  0  0
   -0.0412    1.8316    1.2378 H   0  0  0  0  0  0  0  0  0  0  0  0
    0.0000    2.1236   -0.5176 H   0  0  0  0  0  0  0  0  0  0  0  0
   -0.3521   -0.2963   -0.9284 H   0  0  0  0  0  0  0  0  0  0  0  0
    1.9158    0.2926    1.0277 H   0  0  0  0  0  0  0  0  0  0  0  0
    1.5637   -2.1273    0.6169 H   0  0  0  0  0  0  0  0  0  0  0  0
    1.6049   -1.8352   -1.1385 H   0  0  0  0  0  0  0  0  0  0  0  0
    3.8729   -1.2463    0.8176 H   0  0  0  0  0  0  0  0  0  0  0  0
    3.9140   -0.9543   -0.9378 H   0  0  0  0  0  0  0  0  0  0  0  0
    5.0203   -3.0986   -0.3661 H   0  0  0  0  0  0  0  0  0  0  0  0
    3.5207   -3.6662    0.4067 H   0  0  0  0  0  0  0  0  0  0  0  0
    3.5619   -3.3742   -1.3486 H   0  0  0  0  0  0  0  0  0  0  0  0
   -0.2533   -1.8761    0.9803 H   0  0  0  0  0  0  0  0  0  0  0  0
   -1.6475   -0.7797    1.1300 H   0  0  0  0  0  0  0  0  0  0  0  0
   -0.1891   -0.5041    2.1125 H   0  0  0  0  0  0  0  0  0  0  0  0
    3.2112    0.7760   -1.0307 H   0  0  0  0  0  0  0  0  0  0  0  0
    1.7528    0.5004   -2.0132 H   0  0  0  0  0  0  0  0  0  0  0  0
    1.8170    1.8724   -0.8810 H   0  0  0  0  0  0  0  0  0  0  0  0
  1  2  1  0  0  0  0
  2  3  1  0  0  0  0
  3  4  1  0  0  0  0
  4  5  1  0  0  0  0
  5  6  1  0  0  0  0
  6  7  1  0  0  0  0
  7  8  1  0  0  0  0
  4  9  1  0  0  0  0
  5 10  1  0  0  0  0
  1 11  1  0  0  0  0
  1 12  1  0  0  0  0
  1 13  1  0  0  0  0
  2 14  1  0  0  0  0
  2 15  1  0  0  0  0
  3 16  1  0  0  0  0
  3 17  1  0  0  0  0
  4 18  1  0  0  0  0
  5 19  1  0  0  0  0
  6 20  1  0  0  0  0
  6 21  1  0  0  0  0
  7 22  1  0  0  0  0
  7 23  1  0  0  0  0
  8 24  1  0  0  0  0
  8 25  1  0  0  0  0
  8 26  1  0  0  0  0
  9 27  1  0  0  0  0
  9 28  1  0  0  0  0
  9 29  1  0  0  0  0
 10 30  1  0  0  0  0
 10 31  1  0  0  0  0
 10 32  1  0  0  0  0
M  END