93
  Mrv0541 07151418403D          

 32 31  0  0  0  0            999 V2000
    4.0566   -2.0183    0.6121 C   0  0  0  0  0  0  0  0  0  0  0  0
    3.1200   -2.0482   -0.5974 C   0  0  2  0  0  0  0  0  0  0  0  0
    1.7349   -1.5481   -0.1824 C   0  0  1  0  0  0  0  0  0  0  0  0
    1.8460   -0.1148    0.3413 C   0  0  2  0  0  0  0  0  0  0  0  0
    0.4609    0.3853    0.7563 C   0  0  1  0  0  0  0  0  0  0  0  0
    0.5720    1.8186    1.2799 C   0  0  2  0  0  0  0  0  0  0  0  0
   -0.8131    2.3187    1.6950 C   0  0  1  0  0  0  0  0  0  0  0  0
   -0.7021    3.7521    2.2186 C   0  0  0  0  0  0  0  0  0  0  0  0
    0.7983   -1.5781   -1.3918 C   0  0  1  0  0  0  0  0  0  0  0  0
    0.6872   -3.0114   -1.9155 C   0  0  0  0  0  0  0  0  0  0  0  0
    5.0434   -2.3746    0.3164 H   0  0  0  0  0  0  0  0  0  0  0  0
    3.6579   -2.6617    1.3963 H   0  0  0  0  0  0  0  0  0  0  0  0
    4.1357   -0.9972    0.9851 H   0  0  0  0  0  0  0  0  0  0  0  0
    3.0409   -3.0694   -0.9705 H   0  0  0  0  0  0  0  0  0  0  0  0
    3.5187   -1.4048   -1.3817 H   0  0  0  0  0  0  0  0  0  0  0  0
    1.3362   -2.1916    0.6019 H   0  0  0  0  0  0  0  0  0  0  0  0
    2.2447    0.5287   -0.4430 H   0  0  0  0  0  0  0  0  0  0  0  0
    2.5132   -0.0935    1.2029 H   0  0  0  0  0  0  0  0  0  0  0  0
   -0.2064    0.3640   -0.1053 H   0  0  0  0  0  0  0  0  0  0  0  0
    0.0622   -0.2582    1.5406 H   0  0  0  0  0  0  0  0  0  0  0  0
    0.9706    2.4621    0.4956 H   0  0  0  0  0  0  0  0  0  0  0  0
    1.2392    1.8400    2.1416 H   0  0  0  0  0  0  0  0  0  0  0  0
   -1.4804    2.2974    0.8333 H   0  0  0  0  0  0  0  0  0  0  0  0
   -1.2118    1.6753    2.4793 H   0  0  0  0  0  0  0  0  0  0  0  0
   -1.6888    4.1084    2.5143 H   0  0  0  0  0  0  0  0  0  0  0  0
   -0.3034    4.3955    1.4343 H   0  0  0  0  0  0  0  0  0  0  0  0
   -0.0348    3.7734    3.0803 H   0  0  0  0  0  0  0  0  0  0  0  0
   -0.1885   -1.2218   -1.0962 H   0  0  0  0  0  0  0  0  0  0  0  0
    1.1970   -0.9346   -2.1761 H   0  0  0  0  0  0  0  0  0  0  0  0
    0.0200   -3.0327   -2.7771 H   0  0  0  0  0  0  0  0  0  0  0  0
    0.2886   -3.6549   -1.1312 H   0  0  0  0  0  0  0  0  0  0  0  0
    1.6740   -3.3677   -2.2112 H   0  0  0  0  0  0  0  0  0  0  0  0
  1  2  1  0  0  0  0
  2  3  1  0  0  0  0
  3  4  1  0  0  0  0
  4  5  1  0  0  0  0
  5  6  1  0  0  0  0
  6  7  1  0  0  0  0
  7  8  1  0  0  0  0
  9 10  1  0  0  0  0
  3  9  1  0  0  0  0
  1 11  1  0  0  0  0
  1 12  1  0  0  0  0
  1 13  1  0  0  0  0
  2 14  1  0  0  0  0
  2 15  1  0  0  0  0
  3 16  1  0  0  0  0
  4 17  1  0  0  0  0
  4 18  1  0  0  0  0
  5 19  1  0  0  0  0
  5 20  1  0  0  0  0
  6 21  1  0  0  0  0
  6 22  1  0  0  0  0
  7 23  1  0  0  0  0
  7 24  1  0  0  0  0
  8 25  1  0  0  0  0
  8 26  1  0  0  0  0
  8 27  1  0  0  0  0
  9 28  1  0  0  0  0
  9 29  1  0  0  0  0
 10 30  1  0  0  0  0
 10 31  1  0  0  0  0
 10 32  1  0  0  0  0
M  END