101
  Mrv0541 07151418403D          

 32 31  0  0  0  0            999 V2000
    3.5633   -1.4570    0.0352 C   0  0  0  0  0  0  0  0  0  0  0  0
    2.0400   -1.4291   -0.1057 C   0  0  1  0  0  0  0  0  0  0  0  0
    1.5153   -0.0510    0.3020 C   0  0  1  0  0  0  0  0  0  0  0  0
   -0.0080   -0.0231    0.1612 C   0  0  2  0  0  0  0  0  0  0  0  0
   -0.5327    1.3551    0.5689 C   0  0  2  0  0  0  0  0  0  0  0  0
   -2.0560    1.3829    0.4281 C   0  0  2  0  0  0  0  0  0  0  0  0
   -2.5807    2.7611    0.8358 C   0  0  0  0  0  0  0  0  0  0  0  0
    1.6571   -1.7109   -1.5599 C   0  0  0  0  0  0  0  0  0  0  0  0
    1.8982    0.2308    1.7563 C   0  0  0  0  0  0  0  0  0  0  0  0
    0.0828    2.4236   -0.3368 C   0  0  0  0  0  0  0  0  0  0  0  0
    3.9371   -2.4388   -0.2553 H   0  0  0  0  0  0  0  0  0  0  0  0
    3.8361   -1.2563    1.0712 H   0  0  0  0  0  0  0  0  0  0  0  0
    4.0018   -0.6958   -0.6101 H   0  0  0  0  0  0  0  0  0  0  0  0
    1.6015   -2.1904    0.5395 H   0  0  0  0  0  0  0  0  0  0  0  0
    1.9538    0.7103   -0.3432 H   0  0  0  0  0  0  0  0  0  0  0  0
   -0.4465   -0.7843    0.8064 H   0  0  0  0  0  0  0  0  0  0  0  0
   -0.2808   -0.2238   -0.8749 H   0  0  0  0  0  0  0  0  0  0  0  0
   -0.2599    1.5558    1.6050 H   0  0  0  0  0  0  0  0  0  0  0  0
   -2.4945    0.6217    1.0733 H   0  0  0  0  0  0  0  0  0  0  0  0
   -2.3288    1.1822   -0.6080 H   0  0  0  0  0  0  0  0  0  0  0  0
   -3.6659    2.7809    0.7354 H   0  0  0  0  0  0  0  0  0  0  0  0
   -2.3079    2.9618    1.8718 H   0  0  0  0  0  0  0  0  0  0  0  0
   -2.1422    3.5223    0.1906 H   0  0  0  0  0  0  0  0  0  0  0  0
    0.5719   -1.6910   -1.6603 H   0  0  0  0  0  0  0  0  0  0  0  0
    2.0309   -2.6927   -1.8504 H   0  0  0  0  0  0  0  0  0  0  0  0
    2.0956   -0.9497   -2.2052 H   0  0  0  0  0  0  0  0  0  0  0  0
    1.5244    1.2126    2.0468 H   0  0  0  0  0  0  0  0  0  0  0  0
    1.4597   -0.5304    2.4015 H   0  0  0  0  0  0  0  0  0  0  0  0
    2.9834    0.2109    1.8566 H   0  0  0  0  0  0  0  0  0  0  0  0
   -0.2910    3.4054   -0.0463 H   0  0  0  0  0  0  0  0  0  0  0  0
   -0.1900    2.2228   -1.3728 H   0  0  0  0  0  0  0  0  0  0  0  0
    1.1680    2.4037   -0.2364 H   0  0  0  0  0  0  0  0  0  0  0  0
  1  2  1  0  0  0  0
  2  3  1  0  0  0  0
  3  4  1  0  0  0  0
  4  5  1  0  0  0  0
  5  6  1  0  0  0  0
  6  7  1  0  0  0  0
  2  8  1  0  0  0  0
  3  9  1  0  0  0  0
  5 10  1  0  0  0  0
  1 11  1  0  0  0  0
  1 12  1  0  0  0  0
  1 13  1  0  0  0  0
  2 14  1  0  0  0  0
  3 15  1  0  0  0  0
  4 16  1  0  0  0  0
  4 17  1  0  0  0  0
  5 18  1  0  0  0  0
  6 19  1  0  0  0  0
  6 20  1  0  0  0  0
  7 21  1  0  0  0  0
  7 22  1  0  0  0  0
  7 23  1  0  0  0  0
  8 24  1  0  0  0  0
  8 25  1  0  0  0  0
  8 26  1  0  0  0  0
  9 27  1  0  0  0  0
  9 28  1  0  0  0  0
  9 29  1  0  0  0  0
 10 30  1  0  0  0  0
 10 31  1  0  0  0  0
 10 32  1  0  0  0  0
M  END