103
  Mrv0541 07151418403D          

 32 31  0  0  0  0            999 V2000
    3.7633   -1.3884    0.0432 C   0  0  0  0  0  0  0  0  0  0  0  0
    2.2130   -1.5481   -0.0863 C   0  0  1  0  0  0  0  0  0  0  0  0
    1.4486   -0.1541   -0.1036 C   0  0  2  0  0  0  0  0  0  0  0  0
   -0.1525   -0.0767   -0.0485 C   0  0  2  0  0  0  0  0  0  0  0  0
   -0.6230    1.4498    0.0205 C   0  0  2  0  0  0  0  0  0  0  0  0
   -2.1769    1.7144    0.0866 C   0  0  1  0  0  0  0  0  0  0  0  0
   -2.6235    3.1841    0.0669 C   0  0  0  0  0  0  0  0  0  0  0  0
    1.9374   -2.5104   -1.2921 C   0  0  0  0  0  0  0  0  0  0  0  0
   -0.6101   -0.7966    1.2683 C   0  0  0  0  0  0  0  0  0  0  0  0
   -0.7835   -0.7430   -1.3317 C   0  0  0  0  0  0  0  0  0  0  0  0
    4.2370   -2.3754    0.1099 H   0  0  0  0  0  0  0  0  0  0  0  0
    4.1762   -0.8727   -0.8284 H   0  0  0  0  0  0  0  0  0  0  0  0
    4.0346   -0.8454    0.9475 H   0  0  0  0  0  0  0  0  0  0  0  0
    1.9170   -2.0764    0.8247 H   0  0  0  0  0  0  0  0  0  0  0  0
    1.8080    0.4303   -0.9624 H   0  0  0  0  0  0  0  0  0  0  0  0
    1.8112    0.3889    0.7811 H   0  0  0  0  0  0  0  0  0  0  0  0
   -0.2196    1.9828   -0.8567 H   0  0  0  0  0  0  0  0  0  0  0  0
   -0.1737    1.9212    0.9040 H   0  0  0  0  0  0  0  0  0  0  0  0
   -2.6868    1.3112   -0.7902 H   0  0  0  0  0  0  0  0  0  0  0  0
   -2.5943    1.2271    0.9723 H   0  0  0  0  0  0  0  0  0  0  0  0
   -3.7176    3.2000    0.0612 H   0  0  0  0  0  0  0  0  0  0  0  0
   -2.2583    3.6651   -0.8461 H   0  0  0  0  0  0  0  0  0  0  0  0
   -2.2525    3.7006    0.9507 H   0  0  0  0  0  0  0  0  0  0  0  0
    1.0013   -3.0402   -1.1564 H   0  0  0  0  0  0  0  0  0  0  0  0
    2.7377   -3.2701   -1.3790 H   0  0  0  0  0  0  0  0  0  0  0  0
    1.9020   -1.9430   -2.2309 H   0  0  0  0  0  0  0  0  0  0  0  0
   -1.6887   -0.8342    1.3608 H   0  0  0  0  0  0  0  0  0  0  0  0
   -0.2769   -1.8272    1.3024 H   0  0  0  0  0  0  0  0  0  0  0  0
   -0.2113   -0.2850    2.1445 H   0  0  0  0  0  0  0  0  0  0  0  0
   -1.8357   -0.4472   -1.5001 H   0  0  0  0  0  0  0  0  0  0  0  0
   -0.8155   -1.8186   -1.2897 H   0  0  0  0  0  0  0  0  0  0  0  0
   -0.2208   -0.4142   -2.2054 H   0  0  0  0  0  0  0  0  0  0  0  0
  1  2  1  0  0  0  0
  2  3  1  0  0  0  0
  3  4  1  0  0  0  0
  4  5  1  0  0  0  0
  5  6  1  0  0  0  0
  6  7  1  0  0  0  0
  2  8  1  0  0  0  0
  4  9  1  0  0  0  0
  4 10  1  0  0  0  0
  1 11  1  0  0  0  0
  1 12  1  0  0  0  0
  1 13  1  0  0  0  0
  2 14  1  0  0  0  0
  3 15  1  0  0  0  0
  3 16  1  0  0  0  0
  5 17  1  0  0  0  0
  5 18  1  0  0  0  0
  6 19  1  0  0  0  0
  6 20  1  0  0  0  0
  7 21  1  0  0  0  0
  7 22  1  0  0  0  0
  7 23  1  0  0  0  0
  8 24  1  0  0  0  0
  8 25  1  0  0  0  0
  8 26  1  0  0  0  0
  9 27  1  0  0  0  0
  9 28  1  0  0  0  0
  9 29  1  0  0  0  0
 10 30  1  0  0  0  0
 10 31  1  0  0  0  0
 10 32  1  0  0  0  0
M  END