104
  Mrv0541 07151418403D          

 32 31  0  0  0  0            999 V2000
    3.5727   -1.4374    0.3431 C   0  0  0  0  0  0  0  0  0  0  0  0
    2.1068   -1.3150   -0.0779 C   0  0  1  0  0  0  0  0  0  0  0  0
    1.5021   -0.0532    0.5410 C   0  0  1  0  0  0  0  0  0  0  0  0
    0.0362    0.0691    0.1200 C   0  0  2  0  0  0  0  0  0  0  0  0
   -0.5685    1.3309    0.7388 C   0  0  2  0  0  0  0  0  0  0  0  0
   -2.0344    1.4532    0.3178 C   0  0  2  0  0  0  0  0  0  0  0  0
   -2.6391    2.7151    0.9367 C   0  0  0  0  0  0  0  0  0  0  0  0
    2.0198   -1.2272   -1.6029 C   0  0  0  0  0  0  0  0  0  0  0  0
   -0.7378   -1.1582    0.6051 C   0  0  0  0  0  0  0  0  0  0  0  0
    0.2056    2.5582    0.2537 C   0  0  0  0  0  0  0  0  0  0  0  0
    4.0035   -2.3363   -0.0978 H   0  0  0  0  0  0  0  0  0  0  0  0
    3.6347   -1.4999    1.4296 H   0  0  0  0  0  0  0  0  0  0  0  0
    4.1242   -0.5630   -0.0025 H   0  0  0  0  0  0  0  0  0  0  0  0
    1.5554   -2.1894    0.2678 H   0  0  0  0  0  0  0  0  0  0  0  0
    1.5641   -0.1158    1.6274 H   0  0  0  0  0  0  0  0  0  0  0  0
    2.0536    0.8211    0.1953 H   0  0  0  0  0  0  0  0  0  0  0  0
   -0.0257    0.1317   -0.9665 H   0  0  0  0  0  0  0  0  0  0  0  0
   -0.5065    1.2683    1.8253 H   0  0  0  0  0  0  0  0  0  0  0  0
   -2.5858    0.5789    0.6634 H   0  0  0  0  0  0  0  0  0  0  0  0
   -2.0963    1.5158   -0.7686 H   0  0  0  0  0  0  0  0  0  0  0  0
   -3.6834    2.8022    0.6367 H   0  0  0  0  0  0  0  0  0  0  0  0
   -2.5771    2.6525    2.0231 H   0  0  0  0  0  0  0  0  0  0  0  0
   -2.0877    3.5894    0.5910 H   0  0  0  0  0  0  0  0  0  0  0  0
    0.9755   -1.1401   -1.9028 H   0  0  0  0  0  0  0  0  0  0  0  0
    2.4507   -2.1262   -2.0438 H   0  0  0  0  0  0  0  0  0  0  0  0
    2.5713   -0.3529   -1.9485 H   0  0  0  0  0  0  0  0  0  0  0  0
   -1.7821   -1.0711    0.3052 H   0  0  0  0  0  0  0  0  0  0  0  0
   -0.6759   -1.2208    1.6916 H   0  0  0  0  0  0  0  0  0  0  0  0
   -0.3070   -2.0572    0.1642 H   0  0  0  0  0  0  0  0  0  0  0  0
   -0.2253    3.4572    0.6945 H   0  0  0  0  0  0  0  0  0  0  0  0
    0.1436    2.6208   -0.8328 H   0  0  0  0  0  0  0  0  0  0  0  0
    1.2499    2.4711    0.5536 H   0  0  0  0  0  0  0  0  0  0  0  0
  1  2  1  0  0  0  0
  2  3  1  0  0  0  0
  3  4  1  0  0  0  0
  4  5  1  0  0  0  0
  5  6  1  0  0  0  0
  6  7  1  0  0  0  0
  2  8  1  0  0  0  0
  4  9  1  0  0  0  0
  5 10  1  0  0  0  0
  1 11  1  0  0  0  0
  1 12  1  0  0  0  0
  1 13  1  0  0  0  0
  2 14  1  0  0  0  0
  3 15  1  0  0  0  0
  3 16  1  0  0  0  0
  4 17  1  0  0  0  0
  5 18  1  0  0  0  0
  6 19  1  0  0  0  0
  6 20  1  0  0  0  0
  7 21  1  0  0  0  0
  7 22  1  0  0  0  0
  7 23  1  0  0  0  0
  8 24  1  0  0  0  0
  8 25  1  0  0  0  0
  8 26  1  0  0  0  0
  9 27  1  0  0  0  0
  9 28  1  0  0  0  0
  9 29  1  0  0  0  0
 10 30  1  0  0  0  0
 10 31  1  0  0  0  0
 10 32  1  0  0  0  0
M  END