105
  Mrv0541 07151418403D          

 32 31  0  0  0  0            999 V2000
    3.3805   -1.6236   -0.1286 C   0  0  0  0  0  0  0  0  0  0  0  0
    1.8641   -1.4207   -0.1142 C   0  0  1  0  0  0  0  0  0  0  0  0
    1.5488    0.0489    0.1718 C   0  0  1  0  0  0  0  0  0  0  0  0
    0.0324    0.2518    0.1862 C   0  0  2  0  0  0  0  0  0  0  0  0
   -0.2829    1.7214    0.4722 C   0  0  1  0  0  0  0  0  0  0  0  0
   -1.7993    1.9242    0.4866 C   0  0  1  0  0  0  0  0  0  0  0  0
   -2.1145    3.3938    0.7726 C   0  0  0  0  0  0  0  0  0  0  0  0
    1.2844   -1.8112   -1.4752 C   0  0  0  0  0  0  0  0  0  0  0  0
   -0.5890   -0.6245    1.2756 C   0  0  0  0  0  0  0  0  0  0  0  0
   -2.3790    1.5337   -0.8744 C   0  0  0  0  0  0  0  0  0  0  0  0
    3.6051   -2.6705   -0.3323 H   0  0  0  0  0  0  0  0  0  0  0  0
    3.7935   -1.3454    0.8410 H   0  0  0  0  0  0  0  0  0  0  0  0
    3.8232   -0.9993   -0.9047 H   0  0  0  0  0  0  0  0  0  0  0  0
    1.4214   -2.0450    0.6619 H   0  0  0  0  0  0  0  0  0  0  0  0
    1.9618    0.3271    1.1414 H   0  0  0  0  0  0  0  0  0  0  0  0
    1.9916    0.6732   -0.6043 H   0  0  0  0  0  0  0  0  0  0  0  0
   -0.3806   -0.0264   -0.7834 H   0  0  0  0  0  0  0  0  0  0  0  0
    0.1301    1.9995    1.4418 H   0  0  0  0  0  0  0  0  0  0  0  0
    0.1599    2.3456   -0.3039 H   0  0  0  0  0  0  0  0  0  0  0  0
   -2.2420    1.2999    1.2627 H   0  0  0  0  0  0  0  0  0  0  0  0
   -3.1949    3.5383    0.7828 H   0  0  0  0  0  0  0  0  0  0  0  0
   -1.7015    3.6720    1.7422 H   0  0  0  0  0  0  0  0  0  0  0  0
   -1.6718    4.0181   -0.0035 H   0  0  0  0  0  0  0  0  0  0  0  0
    0.2040   -1.6666   -1.4649 H   0  0  0  0  0  0  0  0  0  0  0  0
    1.5090   -2.8581   -1.6789 H   0  0  0  0  0  0  0  0  0  0  0  0
    1.7271   -1.1869   -2.2513 H   0  0  0  0  0  0  0  0  0  0  0  0
   -1.6694   -0.4800    1.2859 H   0  0  0  0  0  0  0  0  0  0  0  0
   -0.3645   -1.6715    1.0719 H   0  0  0  0  0  0  0  0  0  0  0  0
   -0.1760   -0.3464    2.2452 H   0  0  0  0  0  0  0  0  0  0  0  0
   -3.4593    1.6783   -0.8642 H   0  0  0  0  0  0  0  0  0  0  0  0
   -2.1544    0.4868   -1.0782 H   0  0  0  0  0  0  0  0  0  0  0  0
   -1.9363    2.1580   -1.6506 H   0  0  0  0  0  0  0  0  0  0  0  0
  1  2  1  0  0  0  0
  2  3  1  0  0  0  0
  3  4  1  0  0  0  0
  4  5  1  0  0  0  0
  5  6  1  0  0  0  0
  6  7  1  0  0  0  0
  2  8  1  0  0  0  0
  4  9  1  0  0  0  0
  6 10  1  0  0  0  0
  1 11  1  0  0  0  0
  1 12  1  0  0  0  0
  1 13  1  0  0  0  0
  2 14  1  0  0  0  0
  3 15  1  0  0  0  0
  3 16  1  0  0  0  0
  4 17  1  0  0  0  0
  5 18  1  0  0  0  0
  5 19  1  0  0  0  0
  6 20  1  0  0  0  0
  7 21  1  0  0  0  0
  7 22  1  0  0  0  0
  7 23  1  0  0  0  0
  8 24  1  0  0  0  0
  8 25  1  0  0  0  0
  8 26  1  0  0  0  0
  9 27  1  0  0  0  0
  9 28  1  0  0  0  0
  9 29  1  0  0  0  0
 10 30  1  0  0  0  0
 10 31  1  0  0  0  0
 10 32  1  0  0  0  0
M  END