106
  Mrv0541 07151418403D          

 32 31  0  0  0  0            999 V2000
    1.4450   -2.2840   -1.0410 C   0  0  0  0  0  0  0  0  0  0  0  0
    2.2950   -1.0819   -0.6246 C   0  0  1  0  0  0  0  0  0  0  0  0
    1.4450   -0.1202    0.2082 C   0  0  1  0  0  0  0  0  0  0  0  0
    2.2950    1.0819    0.6246 C   0  0  2  0  0  0  0  0  0  0  0  0
    1.4450    2.0435    1.4574 C   0  0  2  0  0  0  0  0  0  0  0  0
    2.2950    3.2456    1.8739 C   0  0  2  0  0  0  0  0  0  0  0  0
    1.4450    4.2073    2.7067 C   0  0  0  0  0  0  0  0  0  0  0  0
    3.4850   -1.5627    0.2082 C   0  0  0  0  0  0  0  0  0  0  0  0
    0.9350    1.3223    2.7067 C   0  0  0  0  0  0  0  0  0  0  0  0
    0.2550    2.5244    0.6246 C   0  0  0  0  0  0  0  0  0  0  0  0
    2.0506   -2.9691   -1.6344 H   0  0  0  0  0  0  0  0  0  0  0  0
    0.5972   -1.9414   -1.6344 H   0  0  0  0  0  0  0  0  0  0  0  0
    1.0817   -2.7978   -0.1511 H   0  0  0  0  0  0  0  0  0  0  0  0
    2.6583   -0.5680   -1.5146 H   0  0  0  0  0  0  0  0  0  0  0  0
    0.5972    0.2223   -0.3851 H   0  0  0  0  0  0  0  0  0  0  0  0
    1.0817   -0.6340    1.0982 H   0  0  0  0  0  0  0  0  0  0  0  0
    2.6583    1.5957   -0.2654 H   0  0  0  0  0  0  0  0  0  0  0  0
    3.1428    0.7393    1.2179 H   0  0  0  0  0  0  0  0  0  0  0  0
    2.6583    3.7595    0.9839 H   0  0  0  0  0  0  0  0  0  0  0  0
    3.1428    2.9031    2.4672 H   0  0  0  0  0  0  0  0  0  0  0  0
    2.0506    5.0637    3.0033 H   0  0  0  0  0  0  0  0  0  0  0  0
    0.5972    4.5498    2.1134 H   0  0  0  0  0  0  0  0  0  0  0  0
    1.0817    3.6935    3.5967 H   0  0  0  0  0  0  0  0  0  0  0  0
    4.0906   -0.7063    0.5049 H   0  0  0  0  0  0  0  0  0  0  0  0
    3.1217   -2.0765    1.0982 H   0  0  0  0  0  0  0  0  0  0  0  0
    4.0906   -2.2478   -0.3851 H   0  0  0  0  0  0  0  0  0  0  0  0
    0.3294    2.0074    3.3000 H   0  0  0  0  0  0  0  0  0  0  0  0
    0.3294    0.4659    2.4100 H   0  0  0  0  0  0  0  0  0  0  0  0
    1.7828    0.9797    3.3000 H   0  0  0  0  0  0  0  0  0  0  0  0
   -0.3506    3.2095    1.2179 H   0  0  0  0  0  0  0  0  0  0  0  0
   -0.3506    1.6680    0.3280 H   0  0  0  0  0  0  0  0  0  0  0  0
    0.6183    3.0382   -0.2654 H   0  0  0  0  0  0  0  0  0  0  0  0
  1  2  1  0  0  0  0
  2  3  1  0  0  0  0
  3  4  1  0  0  0  0
  4  5  1  0  0  0  0
  5  6  1  0  0  0  0
  6  7  1  0  0  0  0
  2  8  1  0  0  0  0
  5  9  1  0  0  0  0
  5 10  1  0  0  0  0
  1 11  1  0  0  0  0
  1 12  1  0  0  0  0
  1 13  1  0  0  0  0
  2 14  1  0  0  0  0
  3 15  1  0  0  0  0
  3 16  1  0  0  0  0
  4 17  1  0  0  0  0
  4 18  1  0  0  0  0
  6 19  1  0  0  0  0
  6 20  1  0  0  0  0
  7 21  1  0  0  0  0
  7 22  1  0  0  0  0
  7 23  1  0  0  0  0
  8 24  1  0  0  0  0
  8 25  1  0  0  0  0
  8 26  1  0  0  0  0
  9 27  1  0  0  0  0
  9 28  1  0  0  0  0
  9 29  1  0  0  0  0
 10 30  1  0  0  0  0
 10 31  1  0  0  0  0
 10 32  1  0  0  0  0
M  END