107
  Mrv0541 07151418403D          

 32 31  0  0  0  0            999 V2000
    2.7804   -2.4244   -0.7287 C   0  0  0  0  0  0  0  0  0  0  0  0
    2.2159   -1.2166    0.0219 C   0  0  1  0  0  0  0  0  0  0  0  0
    0.8234   -0.8854   -0.5186 C   0  0  1  0  0  0  0  0  0  0  0  0
    0.2589    0.3223    0.2321 C   0  0  1  0  0  0  0  0  0  0  0  0
   -1.1336    0.6535   -0.3085 C   0  0  2  0  0  0  0  0  0  0  0  0
   -1.6981    1.8613    0.4422 C   0  0  1  0  0  0  0  0  0  0  0  0
   -3.0906    2.1925   -0.0984 C   0  0  0  0  0  0  0  0  0  0  0  0
    0.9197   -0.5593   -2.0104 C   0  0  0  0  0  0  0  0  0  0  0  0
   -0.1008   -2.0881   -0.3181 C   0  0  0  0  0  0  0  0  0  0  0  0
    0.1626   -0.0038    1.7238 C   0  0  0  0  0  0  0  0  0  0  0  0
    3.7725   -2.6603   -0.3436 H   0  0  0  0  0  0  0  0  0  0  0  0
    2.1220   -3.2812   -0.5859 H   0  0  0  0  0  0  0  0  0  0  0  0
    2.8490   -2.1921   -1.7915 H   0  0  0  0  0  0  0  0  0  0  0  0
    2.1473   -1.4490    1.0847 H   0  0  0  0  0  0  0  0  0  0  0  0
    2.8744   -0.3598   -0.1209 H   0  0  0  0  0  0  0  0  0  0  0  0
    0.9173    1.1791    0.0892 H   0  0  0  0  0  0  0  0  0  0  0  0
   -1.7920   -0.2033   -0.1657 H   0  0  0  0  0  0  0  0  0  0  0  0
   -1.0650    0.8858   -1.3713 H   0  0  0  0  0  0  0  0  0  0  0  0
   -1.7667    1.6289    1.5049 H   0  0  0  0  0  0  0  0  0  0  0  0
   -1.0397    2.7181    0.2993 H   0  0  0  0  0  0  0  0  0  0  0  0
   -3.4928    3.0529    0.4364 H   0  0  0  0  0  0  0  0  0  0  0  0
   -3.7490    1.3356    0.0444 H   0  0  0  0  0  0  0  0  0  0  0  0
   -3.0220    2.4248   -1.1611 H   0  0  0  0  0  0  0  0  0  0  0  0
   -0.0723   -0.3234   -2.3955 H   0  0  0  0  0  0  0  0  0  0  0  0
    1.3219   -1.4198   -2.5452 H   0  0  0  0  0  0  0  0  0  0  0  0
    1.5782    0.2975   -2.1532 H   0  0  0  0  0  0  0  0  0  0  0  0
   -1.0928   -1.8522   -0.7033 H   0  0  0  0  0  0  0  0  0  0  0  0
   -0.1694   -2.3205    0.7446 H   0  0  0  0  0  0  0  0  0  0  0  0
    0.3014   -2.9486   -0.8529 H   0  0  0  0  0  0  0  0  0  0  0  0
   -0.2396    0.8566    2.2586 H   0  0  0  0  0  0  0  0  0  0  0  0
   -0.4959   -0.8606    1.8666 H   0  0  0  0  0  0  0  0  0  0  0  0
    1.1546   -0.2398    2.1089 H   0  0  0  0  0  0  0  0  0  0  0  0
  1  2  1  0  0  0  0
  2  3  1  0  0  0  0
  3  4  1  0  0  0  0
  4  5  1  0  0  0  0
  5  6  1  0  0  0  0
  6  7  1  0  0  0  0
  3  8  1  0  0  0  0
  3  9  1  0  0  0  0
  4 10  1  0  0  0  0
  1 11  1  0  0  0  0
  1 12  1  0  0  0  0
  1 13  1  0  0  0  0
  2 14  1  0  0  0  0
  2 15  1  0  0  0  0
  4 16  1  0  0  0  0
  5 17  1  0  0  0  0
  5 18  1  0  0  0  0
  6 19  1  0  0  0  0
  6 20  1  0  0  0  0
  7 21  1  0  0  0  0
  7 22  1  0  0  0  0
  7 23  1  0  0  0  0
  8 24  1  0  0  0  0
  8 25  1  0  0  0  0
  8 26  1  0  0  0  0
  9 27  1  0  0  0  0
  9 28  1  0  0  0  0
  9 29  1  0  0  0  0
 10 30  1  0  0  0  0
 10 31  1  0  0  0  0
 10 32  1  0  0  0  0
M  END