108
  Mrv0541 07151418403D          

 32 31  0  0  0  0            999 V2000
    3.1137   -2.4895   -0.6597 C   0  0  0  0  0  0  0  0  0  0  0  0
    2.3169   -1.2745   -0.0153 C   0  0  1  0  0  0  0  0  0  0  0  0
    0.8597   -0.9894   -0.5880 C   0  0  1  0  0  0  0  0  0  0  0  0
    0.1948    0.2532    0.1916 C   0  0  1  0  0  0  0  0  0  0  0  0
   -1.2802    0.6910   -0.2198 C   0  0  2  0  0  0  0  0  0  0  0  0
   -1.7802    1.9719    0.5053 C   0  0  1  0  0  0  0  0  0  0  0  0
   -3.1825    2.4566   -0.0341 C   0  0  0  0  0  0  0  0  0  0  0  0
    0.9239   -0.5983   -2.1271 C   0  0  0  0  0  0  0  0  0  0  0  0
    0.0781   -2.3574   -0.3827 C   0  0  0  0  0  0  0  0  0  0  0  0
   -2.3801   -0.4276   -0.0960 C   0  0  0  0  0  0  0  0  0  0  0  0
    4.1006   -2.6104   -0.2130 H   0  0  0  0  0  0  0  0  0  0  0  0
    2.6430   -3.4595   -0.5115 H   0  0  0  0  0  0  0  0  0  0  0  0
    3.2226   -2.3403   -1.7356 H   0  0  0  0  0  0  0  0  0  0  0  0
    2.2719   -1.4425    1.0653 H   0  0  0  0  0  0  0  0  0  0  0  0
    2.9485   -0.3894   -0.1010 H   0  0  0  0  0  0  0  0  0  0  0  0
    0.2182    0.0984    1.2726 H   0  0  0  0  0  0  0  0  0  0  0  0
    0.8516    1.1240    0.1025 H   0  0  0  0  0  0  0  0  0  0  0  0
   -1.2433    1.0181   -1.2481 H   0  0  0  0  0  0  0  0  0  0  0  0
   -1.8183    1.7976    1.5785 H   0  0  0  0  0  0  0  0  0  0  0  0
   -1.0743    2.7920    0.3502 H   0  0  0  0  0  0  0  0  0  0  0  0
   -3.4804    3.3910    0.4273 H   0  0  0  0  0  0  0  0  0  0  0  0
   -4.0108    1.7835    0.1787 H   0  0  0  0  0  0  0  0  0  0  0  0
   -3.1306    2.5703   -1.1218 H   0  0  0  0  0  0  0  0  0  0  0  0
   -0.0482   -0.3619   -2.5531 H   0  0  0  0  0  0  0  0  0  0  0  0
    1.3087   -1.3992   -2.7528 H   0  0  0  0  0  0  0  0  0  0  0  0
    1.5560    0.2756   -2.2874 H   0  0  0  0  0  0  0  0  0  0  0  0
   -0.8017   -2.4768   -0.9974 H   0  0  0  0  0  0  0  0  0  0  0  0
   -0.2087   -2.5189    0.6548 H   0  0  0  0  0  0  0  0  0  0  0  0
    0.6050   -3.2688   -0.6203 H   0  0  0  0  0  0  0  0  0  0  0  0
   -3.4110   -0.1281   -0.1943 H   0  0  0  0  0  0  0  0  0  0  0  0
   -2.3482   -0.8873    0.8823 H   0  0  0  0  0  0  0  0  0  0  0  0
   -2.3248   -1.1953   -0.8520 H   0  0  0  0  0  0  0  0  0  0  0  0
  1  2  1  0  0  0  0
  2  3  1  0  0  0  0
  3  4  1  0  0  0  0
  4  5  1  0  0  0  0
  5  6  1  0  0  0  0
  6  7  1  0  0  0  0
  3  8  1  0  0  0  0
  3  9  1  0  0  0  0
  5 10  1  0  0  0  0
  1 11  1  0  0  0  0
  1 12  1  0  0  0  0
  1 13  1  0  0  0  0
  2 14  1  0  0  0  0
  2 15  1  0  0  0  0
  4 16  1  0  0  0  0
  4 17  1  0  0  0  0
  5 18  1  0  0  0  0
  6 19  1  0  0  0  0
  6 20  1  0  0  0  0
  7 21  1  0  0  0  0
  7 22  1  0  0  0  0
  7 23  1  0  0  0  0
  8 24  1  0  0  0  0
  8 25  1  0  0  0  0
  8 26  1  0  0  0  0
  9 27  1  0  0  0  0
  9 28  1  0  0  0  0
  9 29  1  0  0  0  0
 10 30  1  0  0  0  0
 10 31  1  0  0  0  0
 10 32  1  0  0  0  0
M  END