109
  Mrv0541 07151418403D          

 32 31  0  0  0  0            999 V2000
    3.1500   -1.9224   -0.7376 C   0  0  0  0  0  0  0  0  0  0  0  0
    2.3944   -1.0341    0.2528 C   0  0  1  0  0  0  0  0  0  0  0  0
    1.3291   -0.2290   -0.4942 C   0  0  1  0  0  0  0  0  0  0  0  0
    0.5735    0.6593    0.4962 C   0  0  1  0  0  0  0  0  0  0  0  0
   -0.4918    1.4644   -0.2508 C   0  0  2  0  0  0  0  0  0  0  0  0
   -1.2474    2.3527    0.7396 C   0  0  1  0  0  0  0  0  0  0  0  0
   -2.3127    3.1578   -0.0073 C   0  0  0  0  0  0  0  0  0  0  0  0
    2.0012    0.6460   -1.5542 C   0  0  0  0  0  0  0  0  0  0  0  0
   -0.0985   -0.2157    1.5562 C   0  0  0  0  0  0  0  0  0  0  0  0
    1.5552    1.6176    1.1736 C   0  0  0  0  0  0  0  0  0  0  0  0
    3.9089   -2.4959   -0.2055 H   0  0  0  0  0  0  0  0  0  0  0  0
    2.4506   -2.6051   -1.2202 H   0  0  0  0  0  0  0  0  0  0  0  0
    3.6288   -1.2990   -1.4928 H   0  0  0  0  0  0  0  0  0  0  0  0
    1.9156   -1.6575    1.0079 H   0  0  0  0  0  0  0  0  0  0  0  0
    3.0938   -0.3514    0.7353 H   0  0  0  0  0  0  0  0  0  0  0  0
    0.6297   -0.9117   -0.9768 H   0  0  0  0  0  0  0  0  0  0  0  0
   -1.1912    0.7817   -0.7333 H   0  0  0  0  0  0  0  0  0  0  0  0
   -0.0130    2.0878   -1.0059 H   0  0  0  0  0  0  0  0  0  0  0  0
   -1.7262    1.7293    1.4948 H   0  0  0  0  0  0  0  0  0  0  0  0
   -0.5480    3.0354    1.2222 H   0  0  0  0  0  0  0  0  0  0  0  0
   -2.8510    3.7906    0.6982 H   0  0  0  0  0  0  0  0  0  0  0  0
   -3.0121    2.4751   -0.4899 H   0  0  0  0  0  0  0  0  0  0  0  0
   -1.8339    3.7811   -0.7625 H   0  0  0  0  0  0  0  0  0  0  0  0
    1.2423    1.2196   -2.0863 H   0  0  0  0  0  0  0  0  0  0  0  0
    2.5395    0.0132   -2.2597 H   0  0  0  0  0  0  0  0  0  0  0  0
    2.7006    1.3287   -1.0716 H   0  0  0  0  0  0  0  0  0  0  0  0
   -0.6369    0.4171    2.2617 H   0  0  0  0  0  0  0  0  0  0  0  0
   -0.7979   -0.8984    1.0736 H   0  0  0  0  0  0  0  0  0  0  0  0
    0.6604   -0.7893    2.0883 H   0  0  0  0  0  0  0  0  0  0  0  0
    1.0169    2.2504    1.8791 H   0  0  0  0  0  0  0  0  0  0  0  0
    2.0340    2.2410    0.4184 H   0  0  0  0  0  0  0  0  0  0  0  0
    2.3142    1.0440    1.7057 H   0  0  0  0  0  0  0  0  0  0  0  0
  1  2  1  0  0  0  0
  2  3  1  0  0  0  0
  3  4  1  0  0  0  0
  4  5  1  0  0  0  0
  5  6  1  0  0  0  0
  6  7  1  0  0  0  0
  3  8  1  0  0  0  0
  4  9  1  0  0  0  0
  4 10  1  0  0  0  0
  1 11  1  0  0  0  0
  1 12  1  0  0  0  0
  1 13  1  0  0  0  0
  2 14  1  0  0  0  0
  2 15  1  0  0  0  0
  3 16  1  0  0  0  0
  5 17  1  0  0  0  0
  5 18  1  0  0  0  0
  6 19  1  0  0  0  0
  6 20  1  0  0  0  0
  7 21  1  0  0  0  0
  7 22  1  0  0  0  0
  7 23  1  0  0  0  0
  8 24  1  0  0  0  0
  8 25  1  0  0  0  0
  8 26  1  0  0  0  0
  9 27  1  0  0  0  0
  9 28  1  0  0  0  0
  9 29  1  0  0  0  0
 10 30  1  0  0  0  0
 10 31  1  0  0  0  0
 10 32  1  0  0  0  0
M  END