110
  Mrv0541 07151418403D          

 32 31  0  0  0  0            999 V2000
    3.0229   -1.9957   -0.8983 C   0  0  0  0  0  0  0  0  0  0  0  0
    2.1985   -1.2292    0.1379 C   0  0  1  0  0  0  0  0  0  0  0  0
    1.4909   -0.0547   -0.5408 C   0  0  1  0  0  0  0  0  0  0  0  0
    0.6665    0.7118    0.4954 C   0  0  1  0  0  0  0  0  0  0  0  0
   -0.0410    1.8864   -0.1833 C   0  0  2  0  0  0  0  0  0  0  0  0
   -0.8655    2.6529    0.8529 C   0  0  1  0  0  0  0  0  0  0  0  0
   -1.5730    3.8274    0.1742 C   0  0  0  0  0  0  0  0  0  0  0  0
    2.5327    0.8811   -1.1571 C   0  0  0  0  0  0  0  0  0  0  0  0
   -0.3753   -0.2239    1.1117 C   0  0  0  0  0  0  0  0  0  0  0  0
   -0.9660    1.3587   -1.2819 C   0  0  0  0  0  0  0  0  0  0  0  0
    3.5270   -2.8325   -0.4148 H   0  0  0  0  0  0  0  0  0  0  0  0
    2.3639   -2.3716   -1.6810 H   0  0  0  0  0  0  0  0  0  0  0  0
    3.7651   -1.3291   -1.3374 H   0  0  0  0  0  0  0  0  0  0  0  0
    1.4562   -1.8959    0.5770 H   0  0  0  0  0  0  0  0  0  0  0  0
    2.8574   -0.8533    0.9206 H   0  0  0  0  0  0  0  0  0  0  0  0
    0.8320   -0.4306   -1.3235 H   0  0  0  0  0  0  0  0  0  0  0  0
    1.3254    1.0877    1.2781 H   0  0  0  0  0  0  0  0  0  0  0  0
    0.7012    2.5530   -0.6224 H   0  0  0  0  0  0  0  0  0  0  0  0
   -1.6077    1.9862    1.2920 H   0  0  0  0  0  0  0  0  0  0  0  0
   -0.2065    3.0288    1.6356 H   0  0  0  0  0  0  0  0  0  0  0  0
   -2.1603    4.3735    0.9124 H   0  0  0  0  0  0  0  0  0  0  0  0
   -2.2320    3.4515   -0.6085 H   0  0  0  0  0  0  0  0  0  0  0  0
   -0.8308    4.4941   -0.2649 H   0  0  0  0  0  0  0  0  0  0  0  0
    2.0287    1.7179   -1.6406 H   0  0  0  0  0  0  0  0  0  0  0  0
    3.1201    0.3351   -1.8953 H   0  0  0  0  0  0  0  0  0  0  0  0
    3.1917    1.2570   -0.3744 H   0  0  0  0  0  0  0  0  0  0  0  0
   -0.9627    0.3221    1.8500 H   0  0  0  0  0  0  0  0  0  0  0  0
   -1.0343   -0.5999    0.3291 H   0  0  0  0  0  0  0  0  0  0  0  0
    0.1287   -1.0607    1.5953 H   0  0  0  0  0  0  0  0  0  0  0  0
   -1.4701    2.1955   -1.7654 H   0  0  0  0  0  0  0  0  0  0  0  0
   -1.7082    0.6921   -0.8428 H   0  0  0  0  0  0  0  0  0  0  0  0
   -0.3787    0.8127   -2.0201 H   0  0  0  0  0  0  0  0  0  0  0  0
  1  2  1  0  0  0  0
  2  3  1  0  0  0  0
  3  4  1  0  0  0  0
  4  5  1  0  0  0  0
  5  6  1  0  0  0  0
  6  7  1  0  0  0  0
  3  8  1  0  0  0  0
  4  9  1  0  0  0  0
  5 10  1  0  0  0  0
  1 11  1  0  0  0  0
  1 12  1  0  0  0  0
  1 13  1  0  0  0  0
  2 14  1  0  0  0  0
  2 15  1  0  0  0  0
  3 16  1  0  0  0  0
  4 17  1  0  0  0  0
  5 18  1  0  0  0  0
  6 19  1  0  0  0  0
  6 20  1  0  0  0  0
  7 21  1  0  0  0  0
  7 22  1  0  0  0  0
  7 23  1  0  0  0  0
  8 24  1  0  0  0  0
  8 25  1  0  0  0  0
  8 26  1  0  0  0  0
  9 27  1  0  0  0  0
  9 28  1  0  0  0  0
  9 29  1  0  0  0  0
 10 30  1  0  0  0  0
 10 31  1  0  0  0  0
 10 32  1  0  0  0  0
M  END