111
  Mrv0541 07151418403D          

 32 31  0  0  0  0            999 V2000
    3.3961    1.0668   -1.2264 C   0  0  0  0  0  0  0  0  0  0  0  0
    2.7953   -0.1958   -0.6053 C   0  0  1  0  0  0  0  0  0  0  0  0
    1.4138    0.1256   -0.0316 C   0  0  1  0  0  0  0  0  0  0  0  0
    0.5005    0.6272   -1.1520 C   0  0  2  0  0  0  0  0  0  0  0  0
   -0.8810    0.9486   -0.5783 C   0  0  1  0  0  0  0  0  0  0  0  0
   -1.7944    1.4502   -1.6986 C   0  0  2  0  0  0  0  0  0  0  0  0
   -3.1758    1.7716   -1.1249 C   0  0  0  0  0  0  0  0  0  0  0  0
    0.8131   -1.1370    0.5894 C   0  0  1  0  0  0  0  0  0  0  0  0
    1.7264   -1.6385    1.7097 C   0  0  0  0  0  0  0  0  0  0  0  0
    2.6626   -1.2785   -1.6783 C   0  0  0  0  0  0  0  0  0  0  0  0
    4.3802    0.8378   -1.6351 H   0  0  0  0  0  0  0  0  0  0  0  0
    2.7454    1.4241   -2.0245 H   0  0  0  0  0  0  0  0  0  0  0  0
    3.4906    1.8381   -0.4620 H   0  0  0  0  0  0  0  0  0  0  0  0
    3.4460   -0.5531    0.1928 H   0  0  0  0  0  0  0  0  0  0  0  0
    1.5083    0.8969    0.7328 H   0  0  0  0  0  0  0  0  0  0  0  0
    0.4059   -0.1441   -1.9164 H   0  0  0  0  0  0  0  0  0  0  0  0
    0.9285    1.5267   -1.5944 H   0  0  0  0  0  0  0  0  0  0  0  0
   -1.3090    0.0491   -0.1358 H   0  0  0  0  0  0  0  0  0  0  0  0
   -0.7865    1.7199    0.1861 H   0  0  0  0  0  0  0  0  0  0  0  0
   -1.8889    0.6789   -2.4630 H   0  0  0  0  0  0  0  0  0  0  0  0
   -1.3664    2.3497   -2.1411 H   0  0  0  0  0  0  0  0  0  0  0  0
   -3.8265    2.1289   -1.9231 H   0  0  0  0  0  0  0  0  0  0  0  0
   -3.6038    0.8721   -0.6825 H   0  0  0  0  0  0  0  0  0  0  0  0
   -3.0813    2.5429   -0.3605 H   0  0  0  0  0  0  0  0  0  0  0  0
   -0.1711   -0.9080    0.9981 H   0  0  0  0  0  0  0  0  0  0  0  0
    0.7185   -1.9083   -0.1750 H   0  0  0  0  0  0  0  0  0  0  0  0
    1.2984   -2.5381    2.1522 H   0  0  0  0  0  0  0  0  0  0  0  0
    1.8209   -0.8673    2.4741 H   0  0  0  0  0  0  0  0  0  0  0  0
    2.7106   -1.8676    1.3010 H   0  0  0  0  0  0  0  0  0  0  0  0
    2.2346   -2.1780   -1.2358 H   0  0  0  0  0  0  0  0  0  0  0  0
    2.0119   -0.9212   -2.4764 H   0  0  0  0  0  0  0  0  0  0  0  0
    3.6468   -1.5075   -2.0870 H   0  0  0  0  0  0  0  0  0  0  0  0
  1  2  1  0  0  0  0
  2  3  1  0  0  0  0
  3  4  1  0  0  0  0
  4  5  1  0  0  0  0
  5  6  1  0  0  0  0
  6  7  1  0  0  0  0
  8  9  1  0  0  0  0
  3  8  1  0  0  0  0
  2 10  1  0  0  0  0
  1 11  1  0  0  0  0
  1 12  1  0  0  0  0
  1 13  1  0  0  0  0
  2 14  1  0  0  0  0
  3 15  1  0  0  0  0
  4 16  1  0  0  0  0
  4 17  1  0  0  0  0
  5 18  1  0  0  0  0
  5 19  1  0  0  0  0
  6 20  1  0  0  0  0
  6 21  1  0  0  0  0
  7 22  1  0  0  0  0
  7 23  1  0  0  0  0
  7 24  1  0  0  0  0
  8 25  1  0  0  0  0
  8 26  1  0  0  0  0
  9 27  1  0  0  0  0
  9 28  1  0  0  0  0
  9 29  1  0  0  0  0
 10 30  1  0  0  0  0
 10 31  1  0  0  0  0
 10 32  1  0  0  0  0
M  END