112
  Mrv0541 07151418403D          

 32 31  0  0  0  0            999 V2000
   -1.0868    3.1865   -1.9419 C   0  0  0  0  0  0  0  0  0  0  0  0
   -1.1896    2.1696   -0.8033 C   0  0  2  0  0  0  0  0  0  0  0  0
    0.1376    1.4208   -0.6669 C   0  0  1  0  0  0  0  0  0  0  0  0
    0.0347    0.4039    0.4717 C   0  0  1  0  0  0  0  0  0  0  0  0
    1.3619   -0.3449    0.6081 C   0  0  2  0  0  0  0  0  0  0  0  0
    1.6729   -1.0742   -0.7004 C   0  0  1  0  0  0  0  0  0  0  0  0
    3.0001   -1.8231   -0.5640 C   0  0  0  0  0  0  0  0  0  0  0  0
   -0.2763    1.1332    1.7803 C   0  0  2  0  0  0  0  0  0  0  0  0
   -0.3792    0.1163    2.9188 C   0  0  0  0  0  0  0  0  0  0  0  0
   -2.3087    1.1723   -1.1098 C   0  0  0  0  0  0  0  0  0  0  0  0
   -2.0323    3.7200   -2.0391 H   0  0  0  0  0  0  0  0  0  0  0  0
   -0.8652    2.6669   -2.8741 H   0  0  0  0  0  0  0  0  0  0  0  0
   -0.2895    3.8970   -1.7235 H   0  0  0  0  0  0  0  0  0  0  0  0
   -1.4112    2.6892    0.1289 H   0  0  0  0  0  0  0  0  0  0  0  0
    0.3591    0.9012   -1.5991 H   0  0  0  0  0  0  0  0  0  0  0  0
    0.9348    2.1313   -0.4485 H   0  0  0  0  0  0  0  0  0  0  0  0
   -0.7626   -0.3066    0.2533 H   0  0  0  0  0  0  0  0  0  0  0  0
    1.2886   -1.0694    1.4193 H   0  0  0  0  0  0  0  0  0  0  0  0
    2.1592    0.3655    0.8265 H   0  0  0  0  0  0  0  0  0  0  0  0
    0.8756   -1.7847   -0.9188 H   0  0  0  0  0  0  0  0  0  0  0  0
    1.7462   -0.3498   -1.5116 H   0  0  0  0  0  0  0  0  0  0  0  0
    3.2217   -2.3426   -1.4962 H   0  0  0  0  0  0  0  0  0  0  0  0
    2.9268   -2.5475    0.2472 H   0  0  0  0  0  0  0  0  0  0  0  0
    3.7974   -1.1126   -0.3456 H   0  0  0  0  0  0  0  0  0  0  0  0
   -1.2218    1.6667    1.6830 H   0  0  0  0  0  0  0  0  0  0  0  0
    0.5210    1.8437    1.9986 H   0  0  0  0  0  0  0  0  0  0  0  0
   -0.6007    0.6358    3.8511 H   0  0  0  0  0  0  0  0  0  0  0  0
   -1.1764   -0.5942    2.7005 H   0  0  0  0  0  0  0  0  0  0  0  0
    0.5664   -0.4172    3.0160 H   0  0  0  0  0  0  0  0  0  0  0  0
   -2.3820    0.4479   -0.2987 H   0  0  0  0  0  0  0  0  0  0  0  0
   -3.2543    1.7058   -1.2070 H   0  0  0  0  0  0  0  0  0  0  0  0
   -2.0872    0.6528   -2.0420 H   0  0  0  0  0  0  0  0  0  0  0  0
  1  2  1  0  0  0  0
  2  3  1  0  0  0  0
  3  4  1  0  0  0  0
  4  5  1  0  0  0  0
  5  6  1  0  0  0  0
  6  7  1  0  0  0  0
  8  9  1  0  0  0  0
  4  8  1  0  0  0  0
  2 10  1  0  0  0  0
  1 11  1  0  0  0  0
  1 12  1  0  0  0  0
  1 13  1  0  0  0  0
  2 14  1  0  0  0  0
  3 15  1  0  0  0  0
  3 16  1  0  0  0  0
  4 17  1  0  0  0  0
  5 18  1  0  0  0  0
  5 19  1  0  0  0  0
  6 20  1  0  0  0  0
  6 21  1  0  0  0  0
  7 22  1  0  0  0  0
  7 23  1  0  0  0  0
  7 24  1  0  0  0  0
  8 25  1  0  0  0  0
  8 26  1  0  0  0  0
  9 27  1  0  0  0  0
  9 28  1  0  0  0  0
  9 29  1  0  0  0  0
 10 30  1  0  0  0  0
 10 31  1  0  0  0  0
 10 32  1  0  0  0  0
M  END