116
  Mrv0541 07151418403D          

 32 31  0  0  0  0            999 V2000
    2.0758   -2.3488    1.3801 C   0  0  0  0  0  0  0  0  0  0  0  0
    1.7549   -1.3783    0.2416 C   0  0  2  0  0  0  0  0  0  0  0  0
    0.6578   -0.4107    0.6902 C   0  0  2  0  0  0  0  0  0  0  0  0
    0.3369    0.5598   -0.4483 C   0  0  2  0  0  0  0  0  0  0  0  0
   -0.7601    1.5273    0.0003 C   0  0  1  0  0  0  0  0  0  0  0  0
   -1.0810    2.4978   -1.1381 C   0  0  2  0  0  0  0  0  0  0  0  0
    0.1770    3.2877   -1.5047 C   0  0  0  0  0  0  0  0  0  0  0  0
   -2.0181    0.7373    0.3669 C   0  0  1  0  0  0  0  0  0  0  0  0
   -3.1152    1.7048    0.8154 C   0  0  0  0  0  0  0  0  0  0  0  0
    1.1396    0.3762    1.9106 C   0  0  0  0  0  0  0  0  0  0  0  0
    2.8574   -3.0380    1.0605 H   0  0  0  0  0  0  0  0  0  0  0  0
    1.1796   -2.9115    1.6412 H   0  0  0  0  0  0  0  0  0  0  0  0
    2.4190   -1.7881    2.2495 H   0  0  0  0  0  0  0  0  0  0  0  0
    1.4117   -1.9389   -0.6279 H   0  0  0  0  0  0  0  0  0  0  0  0
    2.6511   -0.8155   -0.0195 H   0  0  0  0  0  0  0  0  0  0  0  0
   -0.2384   -0.9735    0.9513 H   0  0  0  0  0  0  0  0  0  0  0  0
   -0.0063   -0.0009   -1.3178 H   0  0  0  0  0  0  0  0  0  0  0  0
    1.2332    1.1225   -0.7094 H   0  0  0  0  0  0  0  0  0  0  0  0
   -0.4169    2.0879    0.8698 H   0  0  0  0  0  0  0  0  0  0  0  0
   -1.8626    3.1870   -0.8186 H   0  0  0  0  0  0  0  0  0  0  0  0
   -1.4242    1.9371   -2.0076 H   0  0  0  0  0  0  0  0  0  0  0  0
   -0.0516    3.9791   -2.3158 H   0  0  0  0  0  0  0  0  0  0  0  0
    0.5202    3.8483   -0.6352 H   0  0  0  0  0  0  0  0  0  0  0  0
    0.9586    2.5984   -1.8243 H   0  0  0  0  0  0  0  0  0  0  0  0
   -2.3613    0.1767   -0.5026 H   0  0  0  0  0  0  0  0  0  0  0  0
   -1.7895    0.0459    1.1779 H   0  0  0  0  0  0  0  0  0  0  0  0
   -4.0114    1.1421    1.0766 H   0  0  0  0  0  0  0  0  0  0  0  0
   -3.3438    2.3962    0.0044 H   0  0  0  0  0  0  0  0  0  0  0  0
   -2.7720    2.2655    1.6849 H   0  0  0  0  0  0  0  0  0  0  0  0
    0.3580    1.0655    2.2302 H   0  0  0  0  0  0  0  0  0  0  0  0
    1.3682   -0.3152    2.7217 H   0  0  0  0  0  0  0  0  0  0  0  0
    2.0358    0.9390    1.6495 H   0  0  0  0  0  0  0  0  0  0  0  0
  1  2  1  0  0  0  0
  2  3  1  0  0  0  0
  3  4  1  0  0  0  0
  4  5  1  0  0  0  0
  5  6  1  0  0  0  0
  6  7  1  0  0  0  0
  8  9  1  0  0  0  0
  5  8  1  0  0  0  0
  3 10  1  0  0  0  0
  1 11  1  0  0  0  0
  1 12  1  0  0  0  0
  1 13  1  0  0  0  0
  2 14  1  0  0  0  0
  2 15  1  0  0  0  0
  3 16  1  0  0  0  0
  4 17  1  0  0  0  0
  4 18  1  0  0  0  0
  5 19  1  0  0  0  0
  6 20  1  0  0  0  0
  6 21  1  0  0  0  0
  7 22  1  0  0  0  0
  7 23  1  0  0  0  0
  7 24  1  0  0  0  0
  8 25  1  0  0  0  0
  8 26  1  0  0  0  0
  9 27  1  0  0  0  0
  9 28  1  0  0  0  0
  9 29  1  0  0  0  0
 10 30  1  0  0  0  0
 10 31  1  0  0  0  0
 10 32  1  0  0  0  0
M  END