122
  Mrv0541 07151418403D          

 32 31  0  0  0  0            999 V2000
    3.6536   -1.2881   -1.5450 C   0  0  0  0  0  0  0  0  0  0  0  0
    2.5356   -1.2155   -0.4269 C   0  0  2  0  0  0  0  0  0  0  0  0
    1.6572    0.1373   -0.5818 C   0  0  1  0  0  0  0  0  0  0  0  0
    0.4177    0.2614    0.4260 C   0  0  1  0  0  0  0  0  0  0  0  0
   -0.4033    1.5938    0.2672 C   0  0  2  0  0  0  0  0  0  0  0  0
   -1.4978    1.7744    1.3574 C   0  0  0  0  0  0  0  0  0  0  0  0
    3.2057   -1.2867    0.9967 C   0  0  0  0  0  0  0  0  0  0  0  0
    1.7876   -2.5942   -0.6777 C   0  0  0  0  0  0  0  0  0  0  0  0
    2.5595    1.4569   -0.5614 C   0  0  0  0  0  0  0  0  0  0  0  0
   -0.6262   -0.9210    0.4134 C   0  0  0  0  0  0  0  0  0  0  0  0
    4.2071   -2.2272   -1.4820 H   0  0  0  0  0  0  0  0  0  0  0  0
    3.2080   -1.2430   -2.5397 H   0  0  0  0  0  0  0  0  0  0  0  0
    4.3978   -0.5067   -1.4733 H   0  0  0  0  0  0  0  0  0  0  0  0
    1.2272    0.1460   -1.5876 H   0  0  0  0  0  0  0  0  0  0  0  0
    0.8307    0.3214    1.4248 H   0  0  0  0  0  0  0  0  0  0  0  0
   -0.8193    1.6429   -0.7379 H   0  0  0  0  0  0  0  0  0  0  0  0
    0.2287    2.4677    0.4076 H   0  0  0  0  0  0  0  0  0  0  0  0
   -1.9585    2.7596    1.2534 H   0  0  0  0  0  0  0  0  0  0  0  0
   -2.3200    1.0661    1.3050 H   0  0  0  0  0  0  0  0  0  0  0  0
   -1.0218    1.6914    2.3416 H   0  0  0  0  0  0  0  0  0  0  0  0
    2.4634   -1.2646    1.7967 H   0  0  0  0  0  0  0  0  0  0  0  0
    3.7706   -2.2149    1.1165 H   0  0  0  0  0  0  0  0  0  0  0  0
    3.8929   -0.4633    1.1706 H   0  0  0  0  0  0  0  0  0  0  0  0
    1.2179   -2.9658    0.1646 H   0  0  0  0  0  0  0  0  0  0  0  0
    1.1226   -2.5461   -1.5381 H   0  0  0  0  0  0  0  0  0  0  0  0
    2.4621   -3.4291   -0.9012 H   0  0  0  0  0  0  0  0  0  0  0  0
    2.0264    2.3953   -0.8121 H   0  0  0  0  0  0  0  0  0  0  0  0
    3.0092    1.6113    0.4277 H   0  0  0  0  0  0  0  0  0  0  0  0
    3.3878    1.4454   -1.2931 H   0  0  0  0  0  0  0  0  0  0  0  0
   -1.5226   -0.7874    0.9873 H   0  0  0  0  0  0  0  0  0  0  0  0
   -0.9769   -1.1157   -0.5999 H   0  0  0  0  0  0  0  0  0  0  0  0
   -0.2700   -1.8256    0.8701 H   0  0  0  0  0  0  0  0  0  0  0  0
  1  2  1  0  0  0  0
  2  3  1  0  0  0  0
  3  4  1  0  0  0  0
  4  5  1  0  0  0  0
  5  6  1  0  0  0  0
  2  7  1  0  0  0  0
  2  8  1  0  0  0  0
  3  9  1  0  0  0  0
  4 10  1  0  0  0  0
  1 11  1  0  0  0  0
  1 12  1  0  0  0  0
  1 13  1  0  0  0  0
  3 14  1  0  0  0  0
  4 15  1  0  0  0  0
  5 16  1  0  0  0  0
  5 17  1  0  0  0  0
  6 18  1  0  0  0  0
  6 19  1  0  0  0  0
  6 20  1  0  0  0  0
  7 21  1  0  0  0  0
  7 22  1  0  0  0  0
  7 23  1  0  0  0  0
  8 24  1  0  0  0  0
  8 25  1  0  0  0  0
  8 26  1  0  0  0  0
  9 27  1  0  0  0  0
  9 28  1  0  0  0  0
  9 29  1  0  0  0  0
 10 30  1  0  0  0  0
 10 31  1  0  0  0  0
 10 32  1  0  0  0  0
M  END