123
  Mrv0541 07151418403D          

 32 31  0  0  0  0            999 V2000
    3.4073   -0.9358   -1.6170 C   0  0  0  0  0  0  0  0  0  0  0  0
    2.3049   -1.1632   -0.5807 C   0  0  2  0  0  0  0  0  0  0  0  0
    1.4143    0.0784   -0.5026 C   0  0  1  0  0  0  0  0  0  0  0  0
    0.3119   -0.1490    0.5337 C   0  0  1  0  0  0  0  0  0  0  0  0
   -0.5786    1.0926    0.6117 C   0  0  2  0  0  0  0  0  0  0  0  0
   -1.6810    0.8652    1.6481 C   0  0  0  0  0  0  0  0  0  0  0  0
    2.9374   -1.4240    0.7878 C   0  0  0  0  0  0  0  0  0  0  0  0
    1.4607   -2.3714   -0.9910 C   0  0  0  0  0  0  0  0  0  0  0  0
    2.2586    1.2866   -0.0923 C   0  0  0  0  0  0  0  0  0  0  0  0
   -1.2111    1.3535   -0.7568 C   0  0  0  0  0  0  0  0  0  0  0  0
    4.0418   -1.8203   -1.6726 H   0  0  0  0  0  0  0  0  0  0  0  0
    2.9567   -0.7500   -2.5920 H   0  0  0  0  0  0  0  0  0  0  0  0
    4.0088   -0.0750   -1.3247 H   0  0  0  0  0  0  0  0  0  0  0  0
    0.9637    0.2643   -1.4776 H   0  0  0  0  0  0  0  0  0  0  0  0
   -0.2895   -1.0097    0.2414 H   0  0  0  0  0  0  0  0  0  0  0  0
    0.7625   -0.3348    1.5086 H   0  0  0  0  0  0  0  0  0  0  0  0
    0.0228    1.9534    0.9040 H   0  0  0  0  0  0  0  0  0  0  0  0
   -2.3155    1.7498    1.7037 H   0  0  0  0  0  0  0  0  0  0  0  0
   -2.2825    0.0045    1.3558 H   0  0  0  0  0  0  0  0  0  0  0  0
   -1.2304    0.6794    2.6230 H   0  0  0  0  0  0  0  0  0  0  0  0
    2.1520   -1.5861    1.5261 H   0  0  0  0  0  0  0  0  0  0  0  0
    3.5389   -0.5633    1.0801 H   0  0  0  0  0  0  0  0  0  0  0  0
    3.5719   -2.3086    0.7322 H   0  0  0  0  0  0  0  0  0  0  0  0
    0.6753   -2.5334   -0.2527 H   0  0  0  0  0  0  0  0  0  0  0  0
    1.0101   -2.1856   -1.9659 H   0  0  0  0  0  0  0  0  0  0  0  0
    2.0951   -3.2560   -1.0466 H   0  0  0  0  0  0  0  0  0  0  0  0
    1.6241    2.1712   -0.0367 H   0  0  0  0  0  0  0  0  0  0  0  0
    2.7092    1.1008    0.8826 H   0  0  0  0  0  0  0  0  0  0  0  0
    3.0440    1.4487   -0.8306 H   0  0  0  0  0  0  0  0  0  0  0  0
   -1.8456    2.2380   -0.7012 H   0  0  0  0  0  0  0  0  0  0  0  0
   -1.8126    0.4927   -1.0491 H   0  0  0  0  0  0  0  0  0  0  0  0
   -0.4258    1.5155   -1.4951 H   0  0  0  0  0  0  0  0  0  0  0  0
  1  2  1  0  0  0  0
  2  3  1  0  0  0  0
  3  4  1  0  0  0  0
  4  5  1  0  0  0  0
  5  6  1  0  0  0  0
  2  7  1  0  0  0  0
  2  8  1  0  0  0  0
  3  9  1  0  0  0  0
  5 10  1  0  0  0  0
  1 11  1  0  0  0  0
  1 12  1  0  0  0  0
  1 13  1  0  0  0  0
  3 14  1  0  0  0  0
  4 15  1  0  0  0  0
  4 16  1  0  0  0  0
  5 17  1  0  0  0  0
  6 18  1  0  0  0  0
  6 19  1  0  0  0  0
  6 20  1  0  0  0  0
  7 21  1  0  0  0  0
  7 22  1  0  0  0  0
  7 23  1  0  0  0  0
  8 24  1  0  0  0  0
  8 25  1  0  0  0  0
  8 26  1  0  0  0  0
  9 27  1  0  0  0  0
  9 28  1  0  0  0  0
  9 29  1  0  0  0  0
 10 30  1  0  0  0  0
 10 31  1  0  0  0  0
 10 32  1  0  0  0  0
M  END