124
  Mrv0541 07151418403D          

 32 31  0  0  0  0            999 V2000
    1.9962   -2.7984   -1.3315 C   0  0  0  0  0  0  0  0  0  0  0  0
    2.3197   -1.4832   -0.5650 C   0  0  2  0  0  0  0  0  0  0  0  0
    1.0762   -0.4486   -0.6752 C   0  0  2  0  0  0  0  0  0  0  0  0
    1.1153    0.9982   -0.0096 C   0  0  1  0  0  0  0  0  0  0  0  0
   -0.2314    1.8110   -0.1779 C   0  0  2  0  0  0  0  0  0  0  0  0
   -0.2744    3.2267    0.5038 C   0  0  0  0  0  0  0  0  0  0  0  0
    3.6135   -0.9034   -1.2138 C   0  0  0  0  0  0  0  0  0  0  0  0
    2.6795   -1.9594    0.8934 C   0  0  0  0  0  0  0  0  0  0  0  0
    1.3640    0.8992    1.5436 C   0  0  0  0  0  0  0  0  0  0  0  0
    2.2142    1.8640   -0.6825 C   0  0  0  0  0  0  0  0  0  0  0  0
    2.8353   -3.5056   -1.2800 H   0  0  0  0  0  0  0  0  0  0  0  0
    1.1406   -3.3062   -0.8961 H   0  0  0  0  0  0  0  0  0  0  0  0
    1.7998   -2.6241   -2.3823 H   0  0  0  0  0  0  0  0  0  0  0  0
    0.2130   -0.9659   -0.2669 H   0  0  0  0  0  0  0  0  0  0  0  0
    0.8161   -0.3613   -1.7275 H   0  0  0  0  0  0  0  0  0  0  0  0
   -1.0474    1.2404    0.2510 H   0  0  0  0  0  0  0  0  0  0  0  0
   -0.4857    1.9629   -1.2327 H   0  0  0  0  0  0  0  0  0  0  0  0
   -1.1975    3.7484    0.3190 H   0  0  0  0  0  0  0  0  0  0  0  0
   -0.1886    3.2082    1.5784 H   0  0  0  0  0  0  0  0  0  0  0  0
    0.5482    3.8379    0.1312 H   0  0  0  0  0  0  0  0  0  0  0  0
    4.0372   -0.1143   -0.6149 H   0  0  0  0  0  0  0  0  0  0  0  0
    3.4465   -0.4917   -2.1903 H   0  0  0  0  0  0  0  0  0  0  0  0
    4.3959   -1.6375   -1.3386 H   0  0  0  0  0  0  0  0  0  0  0  0
    3.2450   -1.2369    1.4962 H   0  0  0  0  0  0  0  0  0  0  0  0
    1.7797   -2.2228    1.4377 H   0  0  0  0  0  0  0  0  0  0  0  0
    3.2916   -2.8656    0.8911 H   0  0  0  0  0  0  0  0  0  0  0  0
    1.2101    1.8155    2.1076 H   0  0  0  0  0  0  0  0  0  0  0  0
    0.6526    0.1804    1.9712 H   0  0  0  0  0  0  0  0  0  0  0  0
    2.3837    0.6121    1.8105 H   0  0  0  0  0  0  0  0  0  0  0  0
    2.2328    2.8510   -0.2204 H   0  0  0  0  0  0  0  0  0  0  0  0
    1.9970    1.9647   -1.7459 H   0  0  0  0  0  0  0  0  0  0  0  0
    3.1844    1.3841   -0.5537 H   0  0  0  0  0  0  0  0  0  0  0  0
  1  2  1  0  0  0  0
  2  3  1  0  0  0  0
  3  4  1  0  0  0  0
  4  5  1  0  0  0  0
  5  6  1  0  0  0  0
  2  7  1  0  0  0  0
  2  8  1  0  0  0  0
  4  9  1  0  0  0  0
  4 10  1  0  0  0  0
  1 11  1  0  0  0  0
  1 12  1  0  0  0  0
  1 13  1  0  0  0  0
  3 14  1  0  0  0  0
  3 15  1  0  0  0  0
  5 16  1  0  0  0  0
  5 17  1  0  0  0  0
  6 18  1  0  0  0  0
  6 19  1  0  0  0  0
  6 20  1  0  0  0  0
  7 21  1  0  0  0  0
  7 22  1  0  0  0  0
  7 23  1  0  0  0  0
  8 24  1  0  0  0  0
  8 25  1  0  0  0  0
  8 26  1  0  0  0  0
  9 27  1  0  0  0  0
  9 28  1  0  0  0  0
  9 29  1  0  0  0  0
 10 30  1  0  0  0  0
 10 31  1  0  0  0  0
 10 32  1  0  0  0  0
M  END