125
  Mrv0541 07151418403D          

 32 31  0  0  0  0            999 V2000
    2.0248   -2.7909   -1.3404 C   0  0  0  0  0  0  0  0  0  0  0  0
    2.3041   -1.4603   -0.5488 C   0  0  2  0  0  0  0  0  0  0  0  0
    1.0095   -0.5409   -0.6244 C   0  0  2  0  0  0  0  0  0  0  0  0
    1.0478    0.8887    0.0439 C   0  0  1  0  0  0  0  0  0  0  0  0
   -0.2245    1.7890   -0.2236 C   0  0  1  0  0  0  0  0  0  0  0  0
   -0.1083    3.2075    0.4190 C   0  0  0  0  0  0  0  0  0  0  0  0
    3.5091   -0.7176   -1.1954 C   0  0  0  0  0  0  0  0  0  0  0  0
    2.6776   -1.9316    0.9032 C   0  0  0  0  0  0  0  0  0  0  0  0
    1.3104    0.8178    1.5887 C   0  0  0  0  0  0  0  0  0  0  0  0
   -0.5622    1.9960   -1.7260 C   0  0  0  0  0  0  0  0  0  0  0  0
    2.8834   -3.4585   -1.2912 H   0  0  0  0  0  0  0  0  0  0  0  0
    1.1792   -3.3266   -0.9184 H   0  0  0  0  0  0  0  0  0  0  0  0
    1.8189   -2.6034   -2.3919 H   0  0  0  0  0  0  0  0  0  0  0  0
    0.1425   -1.0824   -0.2484 H   0  0  0  0  0  0  0  0  0  0  0  0
    0.8084   -0.4071   -1.6885 H   0  0  0  0  0  0  0  0  0  0  0  0
    1.8834    1.4280   -0.3856 H   0  0  0  0  0  0  0  0  0  0  0  0
   -1.0943    1.2823    0.1856 H   0  0  0  0  0  0  0  0  0  0  0  0
   -0.9626    3.8607    0.2080 H   0  0  0  0  0  0  0  0  0  0  0  0
   -0.0884    3.1743    1.4972 H   0  0  0  0  0  0  0  0  0  0  0  0
    0.8040    3.7081    0.0813 H   0  0  0  0  0  0  0  0  0  0  0  0
    3.7240    0.2188   -0.6826 H   0  0  0  0  0  0  0  0  0  0  0  0
    3.3068   -0.4767   -2.2376 H   0  0  0  0  0  0  0  0  0  0  0  0
    4.4156   -1.3251   -1.1668 H   0  0  0  0  0  0  0  0  0  0  0  0
    3.2585   -1.2334    1.4889 H   0  0  0  0  0  0  0  0  0  0  0  0
    1.7932   -2.2591    1.4469 H   0  0  0  0  0  0  0  0  0  0  0  0
    3.2875   -2.8249    0.8728 H   0  0  0  0  0  0  0  0  0  0  0  0
    1.2264    1.7040    2.1457 H   0  0  0  0  0  0  0  0  0  0  0  0
    0.6262    0.1277    2.0662 H   0  0  0  0  0  0  0  0  0  0  0  0
    2.3303    0.5707    1.8219 H   0  0  0  0  0  0  0  0  0  0  0  0
   -1.4479    2.6249   -1.8161 H   0  0  0  0  0  0  0  0  0  0  0  0
   -0.7540    1.0294   -2.1918 H   0  0  0  0  0  0  0  0  0  0  0  0
    0.2785    2.4789   -2.2242 H   0  0  0  0  0  0  0  0  0  0  0  0
  1  2  1  0  0  0  0
  2  3  1  0  0  0  0
  3  4  1  0  0  0  0
  4  5  1  0  0  0  0
  5  6  1  0  0  0  0
  2  7  1  0  0  0  0
  2  8  1  0  0  0  0
  4  9  1  0  0  0  0
  5 10  1  0  0  0  0
  1 11  1  0  0  0  0
  1 12  1  0  0  0  0
  1 13  1  0  0  0  0
  3 14  1  0  0  0  0
  3 15  1  0  0  0  0
  4 16  1  0  0  0  0
  5 17  1  0  0  0  0
  6 18  1  0  0  0  0
  6 19  1  0  0  0  0
  6 20  1  0  0  0  0
  7 21  1  0  0  0  0
  7 22  1  0  0  0  0
  7 23  1  0  0  0  0
  8 24  1  0  0  0  0
  8 25  1  0  0  0  0
  8 26  1  0  0  0  0
  9 27  1  0  0  0  0
  9 28  1  0  0  0  0
  9 29  1  0  0  0  0
 10 30  1  0  0  0  0
 10 31  1  0  0  0  0
 10 32  1  0  0  0  0
M  END