128
  Mrv0541 07151418403D          

 32 31  0  0  0  0            999 V2000
    3.0092   -2.0057    0.5493 C   0  0  0  0  0  0  0  0  0  0  0  0
    2.7402   -0.5699   -0.0669 C   0  0  2  0  0  0  0  0  0  0  0  0
    1.9115   -0.5521   -1.4294 C   0  0  2  0  0  0  0  0  0  0  0  0
    1.6203    0.9363   -1.9285 C   0  0  1  0  0  0  0  0  0  0  0  0
    0.7889    1.1862   -3.2476 C   0  0  1  0  0  0  0  0  0  0  0  0
    0.5343    2.7101   -3.4542 C   0  0  0  0  0  0  0  0  0  0  0  0
    4.1108    0.1948   -0.1176 C   0  0  0  0  0  0  0  0  0  0  0  0
    0.4980   -1.2275   -1.2153 C   0  0  0  0  0  0  0  0  0  0  0  0
    2.7247   -1.3885   -2.4823 C   0  0  0  0  0  0  0  0  0  0  0  0
    1.4000    0.6557   -4.5802 C   0  0  0  0  0  0  0  0  0  0  0  0
    3.5030   -1.9508    1.5129 H   0  0  0  0  0  0  0  0  0  0  0  0
    2.0736   -2.5417    0.6856 H   0  0  0  0  0  0  0  0  0  0  0  0
    3.6588   -2.6054   -0.0754 H   0  0  0  0  0  0  0  0  0  0  0  0
    2.1538   -0.0413    0.7043 H   0  0  0  0  0  0  0  0  0  0  0  0
    1.0788    1.4460   -1.1122 H   0  0  0  0  0  0  0  0  0  0  0  0
    2.5577    1.4890   -2.0109 H   0  0  0  0  0  0  0  0  0  0  0  0
   -0.1995    0.7577   -3.1256 H   0  0  0  0  0  0  0  0  0  0  0  0
   -0.0768    2.8990   -4.3518 H   0  0  0  0  0  0  0  0  0  0  0  0
   -0.0136    3.1527   -2.6099 H   0  0  0  0  0  0  0  0  0  0  0  0
    1.4710    3.2684   -3.5836 H   0  0  0  0  0  0  0  0  0  0  0  0
    3.9795    1.2537   -0.3375 H   0  0  0  0  0  0  0  0  0  0  0  0
    4.7449   -0.2357   -0.8900 H   0  0  0  0  0  0  0  0  0  0  0  0
    4.6322    0.1517    0.8360 H   0  0  0  0  0  0  0  0  0  0  0  0
   -0.1088   -1.1971   -2.1200 H   0  0  0  0  0  0  0  0  0  0  0  0
   -0.0816   -0.7225   -0.4268 H   0  0  0  0  0  0  0  0  0  0  0  0
    0.5780   -2.2811   -0.9390 H   0  0  0  0  0  0  0  0  0  0  0  0
    2.0951   -1.8195   -3.2493 H   0  0  0  0  0  0  0  0  0  0  0  0
    3.1841   -2.2593   -2.1000 H   0  0  0  0  0  0  0  0  0  0  0  0
    3.5430   -0.8011   -2.8637 H   0  0  0  0  0  0  0  0  0  0  0  0
    0.8439    1.0400   -5.4346 H   0  0  0  0  0  0  0  0  0  0  0  0
    1.3882   -0.4353   -4.6878 H   0  0  0  0  0  0  0  0  0  0  0  0
    2.4182    1.0339   -4.6717 H   0  0  0  0  0  0  0  0  0  0  0  0
  1  2  1  0  0  0  0
  2  3  1  0  0  0  0
  3  4  1  0  0  0  0
  4  5  1  0  0  0  0
  5  6  1  0  0  0  0
  2  7  1  0  0  0  0
  3  8  1  0  0  0  0
  3  9  1  0  0  0  0
  5 10  1  0  0  0  0
  1 11  1  0  0  0  0
  1 12  1  0  0  0  0
  1 13  1  0  0  0  0
  2 14  1  0  0  0  0
  4 15  1  0  0  0  0
  4 16  1  0  0  0  0
  5 17  1  0  0  0  0
  6 18  1  0  0  0  0
  6 19  1  0  0  0  0
  6 20  1  0  0  0  0
  7 21  1  0  0  0  0
  7 22  1  0  0  0  0
  7 23  1  0  0  0  0
  8 24  1  0  0  0  0
  8 25  1  0  0  0  0
  8 26  1  0  0  0  0
  9 27  1  0  0  0  0
  9 28  1  0  0  0  0
  9 29  1  0  0  0  0
 10 30  1  0  0  0  0
 10 31  1  0  0  0  0
 10 32  1  0  0  0  0
M  END