132
  Mrv0541 07151418403D          

 32 31  0  0  0  0            999 V2000
   -0.1474    1.5033   -1.4923 C   0  0  0  0  0  0  0  0  0  0  0  0
    0.4154    0.6215   -0.3221 C   0  0  1  0  0  0  0  0  0  0  0  0
    1.6341   -0.3225   -0.8006 C   0  0  1  0  0  0  0  0  0  0  0  0
    2.7822    0.5454   -1.4184 C   0  0  1  0  0  0  0  0  0  0  0  0
    3.9581   -0.2564   -2.0070 C   0  0  2  0  0  0  0  0  0  0  0  0
    5.0276    0.6840   -2.5461 C   0  0  0  0  0  0  0  0  0  0  0  0
    2.2377   -1.2893    0.3150 C   0  0  2  0  0  0  0  0  0  0  0  0
    1.2974   -2.3414    0.9327 C   0  0  0  0  0  0  0  0  0  0  0  0
    0.8894    1.5456    0.8622 C   0  0  0  0  0  0  0  0  0  0  0  0
   -0.8816   -0.1864    0.0721 C   0  0  0  0  0  0  0  0  0  0  0  0
   -0.9871    2.1283   -1.1744 H   0  0  0  0  0  0  0  0  0  0  0  0
   -0.4672    0.8842   -2.3396 H   0  0  0  0  0  0  0  0  0  0  0  0
    0.5983    2.1985   -1.8543 H   0  0  0  0  0  0  0  0  0  0  0  0
    1.2538   -0.9594   -1.6151 H   0  0  0  0  0  0  0  0  0  0  0  0
    2.4178    1.1566   -2.2418 H   0  0  0  0  0  0  0  0  0  0  0  0
    3.1959    1.2072   -0.6644 H   0  0  0  0  0  0  0  0  0  0  0  0
    3.5801   -0.9249   -2.7837 H   0  0  0  0  0  0  0  0  0  0  0  0
    4.4586   -0.8359   -1.2366 H   0  0  0  0  0  0  0  0  0  0  0  0
    5.8595    0.0872   -2.9266 H   0  0  0  0  0  0  0  0  0  0  0  0
    4.6251    1.3076   -3.3483 H   0  0  0  0  0  0  0  0  0  0  0  0
    5.3971    1.3298   -1.7416 H   0  0  0  0  0  0  0  0  0  0  0  0
    2.6919   -0.6761    1.1016 H   0  0  0  0  0  0  0  0  0  0  0  0
    3.0389   -1.8777   -0.1083 H   0  0  0  0  0  0  0  0  0  0  0  0
    1.8470   -3.0417    1.5695 H   0  0  0  0  0  0  0  0  0  0  0  0
    0.5807   -1.8467    1.5663 H   0  0  0  0  0  0  0  0  0  0  0  0
    0.7868   -2.8842    0.1391 H   0  0  0  0  0  0  0  0  0  0  0  0
    1.2927    0.9673    1.6917 H   0  0  0  0  0  0  0  0  0  0  0  0
    0.0757    2.1544    1.2438 H   0  0  0  0  0  0  0  0  0  0  0  0
    1.6670    2.2245    0.5222 H   0  0  0  0  0  0  0  0  0  0  0  0
   -0.9727   -0.3972    1.1337 H   0  0  0  0  0  0  0  0  0  0  0  0
   -1.7643    0.3552   -0.2679 H   0  0  0  0  0  0  0  0  0  0  0  0
   -0.8722   -1.1242   -0.4833 H   0  0  0  0  0  0  0  0  0  0  0  0
  1  2  1  0  0  0  0
  2  3  1  0  0  0  0
  3  4  1  0  0  0  0
  4  5  1  0  0  0  0
  5  6  1  0  0  0  0
  7  8  1  0  0  0  0
  3  7  1  0  0  0  0
  2  9  1  0  0  0  0
  2 10  1  0  0  0  0
  1 11  1  0  0  0  0
  1 12  1  0  0  0  0
  1 13  1  0  0  0  0
  3 14  1  0  0  0  0
  4 15  1  0  0  0  0
  4 16  1  0  0  0  0
  5 17  1  0  0  0  0
  5 18  1  0  0  0  0
  6 19  1  0  0  0  0
  6 20  1  0  0  0  0
  6 21  1  0  0  0  0
  7 22  1  0  0  0  0
  7 23  1  0  0  0  0
  8 24  1  0  0  0  0
  8 25  1  0  0  0  0
  8 26  1  0  0  0  0
  9 27  1  0  0  0  0
  9 28  1  0  0  0  0
  9 29  1  0  0  0  0
 10 30  1  0  0  0  0
 10 31  1  0  0  0  0
 10 32  1  0  0  0  0
M  END