137
  Mrv0541 07151418403D          

 32 31  0  0  0  0            999 V2000
    2.1619    2.4698    0.2029 C   0  0  0  0  0  0  0  0  0  0  0  0
    1.3599    1.2796    0.7314 C   0  0  2  0  0  0  0  0  0  0  0  0
    0.7591    0.4445   -0.4534 C   0  0  1  0  0  0  0  0  0  0  0  0
   -0.0811   -0.8525   -0.0858 C   0  0  1  0  0  0  0  0  0  0  0  0
   -0.5942   -1.5263   -1.4033 C   0  0  2  0  0  0  0  0  0  0  0  0
   -1.5450   -0.6446   -2.2543 C   0  0  0  0  0  0  0  0  0  0  0  0
    0.8701   -1.8255    0.7093 C   0  0  2  0  0  0  0  0  0  0  0  0
    0.1833   -3.1075    1.2156 C   0  0  0  0  0  0  0  0  0  0  0  0
    0.2908    1.8836    1.7039 C   0  0  0  0  0  0  0  0  0  0  0  0
   -1.3898   -0.5582    0.7689 C   0  0  0  0  0  0  0  0  0  0  0  0
    2.5808    3.0043    1.0582 H   0  0  0  0  0  0  0  0  0  0  0  0
    1.5028    3.1317   -0.3638 H   0  0  0  0  0  0  0  0  0  0  0  0
    2.9732    2.1225   -0.4305 H   0  0  0  0  0  0  0  0  0  0  0  0
    2.0628    0.6594    1.2920 H   0  0  0  0  0  0  0  0  0  0  0  0
    0.1589    1.1526   -1.0210 H   0  0  0  0  0  0  0  0  0  0  0  0
    1.5777    0.1475   -1.1380 H   0  0  0  0  0  0  0  0  0  0  0  0
   -1.1837   -2.4116   -1.1612 H   0  0  0  0  0  0  0  0  0  0  0  0
    0.2551   -1.8629   -2.0027 H   0  0  0  0  0  0  0  0  0  0  0  0
   -1.9012   -1.2162   -3.1001 H   0  0  0  0  0  0  0  0  0  0  0  0
   -2.4237   -0.3379   -1.6837 H   0  0  0  0  0  0  0  0  0  0  0  0
   -1.0348    0.2430   -2.6201 H   0  0  0  0  0  0  0  0  0  0  0  0
    1.2596   -1.3549    1.6170 H   0  0  0  0  0  0  0  0  0  0  0  0
    1.7447   -2.0856    0.0950 H   0  0  0  0  0  0  0  0  0  0  0  0
    0.8882   -3.7150    1.7676 H   0  0  0  0  0  0  0  0  0  0  0  0
   -0.6311   -2.8524    1.8937 H   0  0  0  0  0  0  0  0  0  0  0  0
   -0.2031   -3.6857    0.3810 H   0  0  0  0  0  0  0  0  0  0  0  0
   -0.1033    1.1416    2.3413 H   0  0  0  0  0  0  0  0  0  0  0  0
   -0.5268    2.3630    1.1421 H   0  0  0  0  0  0  0  0  0  0  0  0
    0.7152    2.5324    2.4734 H   0  0  0  0  0  0  0  0  0  0  0  0
   -2.1022   -1.3891    0.8234 H   0  0  0  0  0  0  0  0  0  0  0  0
   -1.8994    0.3554    0.4251 H   0  0  0  0  0  0  0  0  0  0  0  0
   -1.1575   -0.4587    1.7974 H   0  0  0  0  0  0  0  0  0  0  0  0
  1  2  1  0  0  0  0
  2  3  1  0  0  0  0
  3  4  1  0  0  0  0
  4  5  1  0  0  0  0
  5  6  1  0  0  0  0
  7  8  1  0  0  0  0
  4  7  1  0  0  0  0
  2  9  1  0  0  0  0
  4 10  1  0  0  0  0
  1 11  1  0  0  0  0
  1 12  1  0  0  0  0
  1 13  1  0  0  0  0
  2 14  1  0  0  0  0
  3 15  1  0  0  0  0
  3 16  1  0  0  0  0
  5 17  1  0  0  0  0
  5 18  1  0  0  0  0
  6 19  1  0  0  0  0
  6 20  1  0  0  0  0
  6 21  1  0  0  0  0
  7 22  1  0  0  0  0
  7 23  1  0  0  0  0
  8 24  1  0  0  0  0
  8 25  1  0  0  0  0
  8 26  1  0  0  0  0
  9 27  1  0  0  0  0
  9 28  1  0  0  0  0
  9 29  1  0  0  0  0
 10 30  1  0  0  0  0
 10 31  1  0  0  0  0
 10 32  1  0  0  0  0
M  END