139
  Mrv0541 07151418403D          

 32 31  0  0  0  0            999 V2000
    3.6320   -1.2456    0.3400 C   0  0  0  0  0  0  0  0  0  0  0  0
    2.1081   -1.3460    0.0550 C   0  0  2  0  0  0  0  0  0  0  0  0
    1.2959    0.0185   -0.0330 C   0  0  2  0  0  0  0  0  0  0  0  0
   -0.2778   -0.1775   -0.3573 C   0  0  1  0  0  0  0  0  0  0  0  0
   -1.1572    1.1479   -0.3971 C   0  0  2  0  0  0  0  0  0  0  0  0
   -1.2152    2.0566    0.8585 C   0  0  0  0  0  0  0  0  0  0  0  0
   -0.5303   -1.0079   -1.6842 C   0  0  1  0  0  0  0  0  0  0  0  0
   -2.0000   -1.3838   -2.0361 C   0  0  0  0  0  0  0  0  0  0  0  0
    1.9371    0.9400   -1.1414 C   0  0  0  0  0  0  0  0  0  0  0  0
    1.4813    0.6211    1.4098 C   0  0  0  0  0  0  0  0  0  0  0  0
    4.0830   -2.2415    0.4111 H   0  0  0  0  0  0  0  0  0  0  0  0
    3.8448   -0.7375    1.2825 H   0  0  0  0  0  0  0  0  0  0  0  0
    4.1477   -0.7044   -0.4614 H   0  0  0  0  0  0  0  0  0  0  0  0
    1.6711   -1.9969    0.8229 H   0  0  0  0  0  0  0  0  0  0  0  0
    2.0396   -1.8829   -0.8893 H   0  0  0  0  0  0  0  0  0  0  0  0
   -0.7029   -0.7839    0.4340 H   0  0  0  0  0  0  0  0  0  0  0  0
   -2.2040    0.8968   -0.5542 H   0  0  0  0  0  0  0  0  0  0  0  0
   -0.8649    1.7740   -1.2439 H   0  0  0  0  0  0  0  0  0  0  0  0
   -2.0237    2.7735    0.7337 H   0  0  0  0  0  0  0  0  0  0  0  0
   -1.4444    1.4525    1.7472 H   0  0  0  0  0  0  0  0  0  0  0  0
   -0.2968    2.6345    1.0086 H   0  0  0  0  0  0  0  0  0  0  0  0
   -0.1245   -0.4786   -2.5489 H   0  0  0  0  0  0  0  0  0  0  0  0
   -0.0201   -1.9615   -1.6201 H   0  0  0  0  0  0  0  0  0  0  0  0
   -2.0203   -2.0220   -2.9287 H   0  0  0  0  0  0  0  0  0  0  0  0
   -2.5969   -0.5028   -2.2573 H   0  0  0  0  0  0  0  0  0  0  0  0
   -2.4577   -1.9374   -1.2131 H   0  0  0  0  0  0  0  0  0  0  0  0
    1.3974    1.8760   -1.2635 H   0  0  0  0  0  0  0  0  0  0  0  0
    1.9423    0.4276   -2.1070 H   0  0  0  0  0  0  0  0  0  0  0  0
    2.9708    1.2055   -0.9094 H   0  0  0  0  0  0  0  0  0  0  0  0
    1.8555    1.6436    1.4155 H   0  0  0  0  0  0  0  0  0  0  0  0
    0.5333    0.5781    1.9460 H   0  0  0  0  0  0  0  0  0  0  0  0
    2.2273    0.0205    1.9302 H   0  0  0  0  0  0  0  0  0  0  0  0
  1  2  1  0  0  0  0
  2  3  1  0  0  0  0
  3  4  1  0  0  0  0
  4  5  1  0  0  0  0
  5  6  1  0  0  0  0
  7  8  1  0  0  0  0
  4  7  1  0  0  0  0
  3  9  1  0  0  0  0
  3 10  1  0  0  0  0
  1 11  1  0  0  0  0
  1 12  1  0  0  0  0
  1 13  1  0  0  0  0
  2 14  1  0  0  0  0
  2 15  1  0  0  0  0
  4 16  1  0  0  0  0
  5 17  1  0  0  0  0
  5 18  1  0  0  0  0
  6 19  1  0  0  0  0
  6 20  1  0  0  0  0
  6 21  1  0  0  0  0
  7 22  1  0  0  0  0
  7 23  1  0  0  0  0
  8 24  1  0  0  0  0
  8 25  1  0  0  0  0
  8 26  1  0  0  0  0
  9 27  1  0  0  0  0
  9 28  1  0  0  0  0
  9 29  1  0  0  0  0
 10 30  1  0  0  0  0
 10 31  1  0  0  0  0
 10 32  1  0  0  0  0
M  END