142
  Mrv0541 07151418403D          

 32 31  0  0  0  0            999 V2000
    5.4836    1.8378   -0.9825 C   0  0  0  0  0  0  0  0  0  0  0  0
    3.9631    1.6865   -0.9034 C   0  0  2  0  0  0  0  0  0  0  0  0
    3.6164    0.3019   -0.3523 C   0  0  1  0  0  0  0  0  0  0  0  0
    2.0960    0.1506   -0.2732 C   0  0  1  0  0  0  0  0  0  0  0  0
    1.7492   -1.2339    0.2779 C   0  0  1  0  0  0  0  0  0  0  0  0
    0.2288   -1.3852    0.3570 C   0  0  0  0  0  0  0  0  0  0  0  0
    4.1884   -0.7734   -1.2782 C   0  0  2  0  0  0  0  0  0  0  0  0
    3.5868   -0.6156   -2.6761 C   0  0  0  0  0  0  0  0  0  0  0  0
    1.5239    1.2260    0.6527 C   0  0  2  0  0  0  0  0  0  0  0  0
    2.1256    1.0681    2.0505 C   0  0  0  0  0  0  0  0  0  0  0  0
    5.7306    2.8242   -1.3751 H   0  0  0  0  0  0  0  0  0  0  0  0
    5.8911    1.0717   -1.6422 H   0  0  0  0  0  0  0  0  0  0  0  0
    5.9122    1.7253    0.0133 H   0  0  0  0  0  0  0  0  0  0  0  0
    3.5345    1.7989   -1.8993 H   0  0  0  0  0  0  0  0  0  0  0  0
    3.5556    2.4526   -0.2438 H   0  0  0  0  0  0  0  0  0  0  0  0
    4.0450    0.1894    0.6435 H   0  0  0  0  0  0  0  0  0  0  0  0
    1.6673    0.2631   -1.2690 H   0  0  0  0  0  0  0  0  0  0  0  0
    2.1567   -2.0000   -0.3817 H   0  0  0  0  0  0  0  0  0  0  0  0
    2.1779   -1.3464    1.2737 H   0  0  0  0  0  0  0  0  0  0  0  0
   -0.0182   -2.3716    0.7496 H   0  0  0  0  0  0  0  0  0  0  0  0
   -0.1999   -1.2728   -0.6388 H   0  0  0  0  0  0  0  0  0  0  0  0
   -0.1787   -0.6191    1.0167 H   0  0  0  0  0  0  0  0  0  0  0  0
    3.9414   -1.7598   -0.8856 H   0  0  0  0  0  0  0  0  0  0  0  0
    5.2716   -0.6656   -1.3346 H   0  0  0  0  0  0  0  0  0  0  0  0
    3.9943   -1.3817   -3.3357 H   0  0  0  0  0  0  0  0  0  0  0  0
    2.5036   -0.7234   -2.6197 H   0  0  0  0  0  0  0  0  0  0  0  0
    3.8338    0.3708   -3.0687 H   0  0  0  0  0  0  0  0  0  0  0  0
    0.4407    1.1182    0.7091 H   0  0  0  0  0  0  0  0  0  0  0  0
    1.7710    2.2124    0.2601 H   0  0  0  0  0  0  0  0  0  0  0  0
    1.7181    1.8342    2.7102 H   0  0  0  0  0  0  0  0  0  0  0  0
    1.8786    0.0817    2.4432 H   0  0  0  0  0  0  0  0  0  0  0  0
    3.2088    1.1759    1.9942 H   0  0  0  0  0  0  0  0  0  0  0  0
  1  2  1  0  0  0  0
  2  3  1  0  0  0  0
  3  4  1  0  0  0  0
  4  5  1  0  0  0  0
  5  6  1  0  0  0  0
  7  8  1  0  0  0  0
  3  7  1  0  0  0  0
  9 10  1  0  0  0  0
  4  9  1  0  0  0  0
  1 11  1  0  0  0  0
  1 12  1  0  0  0  0
  1 13  1  0  0  0  0
  2 14  1  0  0  0  0
  2 15  1  0  0  0  0
  3 16  1  0  0  0  0
  4 17  1  0  0  0  0
  5 18  1  0  0  0  0
  5 19  1  0  0  0  0
  6 20  1  0  0  0  0
  6 21  1  0  0  0  0
  6 22  1  0  0  0  0
  7 23  1  0  0  0  0
  7 24  1  0  0  0  0
  8 25  1  0  0  0  0
  8 26  1  0  0  0  0
  8 27  1  0  0  0  0
  9 28  1  0  0  0  0
  9 29  1  0  0  0  0
 10 30  1  0  0  0  0
 10 31  1  0  0  0  0
 10 32  1  0  0  0  0
M  END