143
  Mrv0541 07151418403D          

 32 31  0  0  0  0            999 V2000
    0.0613    1.4879   -1.5455 C   0  0  0  0  0  0  0  0  0  0  0  0
    0.6563    0.0994   -1.1637 C   0  0  2  0  0  0  0  0  0  0  0  0
    1.7385    0.1131    0.0157 C   0  0  1  0  0  0  0  0  0  0  0  0
    1.1964    0.9069    1.2579 C   0  0  2  0  0  0  0  0  0  0  0  0
    2.2113    1.1049    2.4057 C   0  0  1  0  0  0  0  0  0  0  0  0
    1.5837    1.8211    3.6134 C   0  0  0  0  0  0  0  0  0  0  0  0
    3.1129   -2.0830   -0.6103 C   0  0  0  0  0  0  0  0  0  0  0  0
    2.2865   -1.3069    0.4467 C   0  0  2  0  0  0  0  0  0  0  0  0
    1.1993   -2.2229    1.0602 C   0  0  0  0  0  0  0  0  0  0  0  0
    1.1699   -0.4715   -2.5372 C   0  0  0  0  0  0  0  0  0  0  0  0
   -0.6876    1.4106   -2.3459 H   0  0  0  0  0  0  0  0  0  0  0  0
   -0.4565    1.9397   -0.7101 H   0  0  0  0  0  0  0  0  0  0  0  0
    0.8378    2.1720   -1.8861 H   0  0  0  0  0  0  0  0  0  0  0  0
   -0.1960   -0.5075   -0.8449 H   0  0  0  0  0  0  0  0  0  0  0  0
    2.5772    0.7076   -0.3602 H   0  0  0  0  0  0  0  0  0  0  0  0
    0.2926    0.4265    1.6312 H   0  0  0  0  0  0  0  0  0  0  0  0
    0.9052    1.9153    0.9703 H   0  0  0  0  0  0  0  0  0  0  0  0
    2.5829    0.1656    2.7951 H   0  0  0  0  0  0  0  0  0  0  0  0
    3.0565    1.6807    2.0373 H   0  0  0  0  0  0  0  0  0  0  0  0
    2.3323    1.9485    4.3896 H   0  0  0  0  0  0  0  0  0  0  0  0
    0.7706    1.2137    4.0069 H   0  0  0  0  0  0  0  0  0  0  0  0
    1.1964    2.7946    3.3251 H   0  0  0  0  0  0  0  0  0  0  0  0
    3.8352   -1.4552   -1.1126 H   0  0  0  0  0  0  0  0  0  0  0  0
    2.4875   -2.5591   -1.3499 H   0  0  0  0  0  0  0  0  0  0  0  0
    3.6973   -2.8701   -0.1650 H   0  0  0  0  0  0  0  0  0  0  0  0
    3.0476   -1.1582    1.1985 H   0  0  0  0  0  0  0  0  0  0  0  0
    0.7520   -1.7678    1.9297 H   0  0  0  0  0  0  0  0  0  0  0  0
    0.4141   -2.3987    0.3388 H   0  0  0  0  0  0  0  0  0  0  0  0
    1.6029   -3.1726    1.3676 H   0  0  0  0  0  0  0  0  0  0  0  0
    0.9585   -1.5698   -2.6415 H   0  0  0  0  0  0  0  0  0  0  0  0
    0.6948    0.0693   -3.3558 H   0  0  0  0  0  0  0  0  0  0  0  0
    2.2408   -0.2837   -2.6147 H   0  0  0  0  0  0  0  0  0  0  0  0
  1  2  1  0  0  0  0
  2  3  1  0  0  0  0
  3  4  1  0  0  0  0
  4  5  1  0  0  0  0
  5  6  1  0  0  0  0
  7  8  1  0  0  0  0
  8  9  1  0  0  0  0
  3  8  1  0  0  0  0
  2 10  1  0  0  0  0
  1 11  1  0  0  0  0
  1 12  1  0  0  0  0
  1 13  1  0  0  0  0
  2 14  1  0  0  0  0
  3 15  1  0  0  0  0
  4 16  1  0  0  0  0
  4 17  1  0  0  0  0
  5 18  1  0  0  0  0
  5 19  1  0  0  0  0
  6 20  1  0  0  0  0
  6 21  1  0  0  0  0
  6 22  1  0  0  0  0
  7 23  1  0  0  0  0
  7 24  1  0  0  0  0
  7 25  1  0  0  0  0
  8 26  1  0  0  0  0
  9 27  1  0  0  0  0
  9 28  1  0  0  0  0
  9 29  1  0  0  0  0
 10 30  1  0  0  0  0
 10 31  1  0  0  0  0
 10 32  1  0  0  0  0
M  END