144
  Mrv0541 07151418403D          

 32 31  0  0  0  0            999 V2000
    3.1000    0.4319    0.3332 C   0  0  0  0  0  0  0  0  0  0  0  0
    1.7811    0.2567   -0.5122 C   0  0  1  0  0  0  0  0  0  0  0  0
    0.4298    0.4217    0.4072 C   0  0  2  0  0  0  0  0  0  0  0  0
   -0.9463    0.2492   -0.4385 C   0  0  2  0  0  0  0  0  0  0  0  0
   -2.2562    0.5068    0.3616 C   0  0  0  0  0  0  0  0  0  0  0  0
    1.8267    1.3139   -1.6841 C   0  0  0  0  0  0  0  0  0  0  0  0
    2.0137   -1.1645   -1.1947 C   0  0  0  0  0  0  0  0  0  0  0  0
    0.4230    1.8558    1.0901 C   0  0  0  0  0  0  0  0  0  0  0  0
    0.4224   -0.6123    1.6175 C   0  0  0  0  0  0  0  0  0  0  0  0
   -1.2058   -1.1152   -1.1932 C   0  0  0  0  0  0  0  0  0  0  0  0
    3.9933    0.3203   -0.2784 H   0  0  0  0  0  0  0  0  0  0  0  0
    3.1768   -0.3145    1.1223 H   0  0  0  0  0  0  0  0  0  0  0  0
    3.1834    1.4150    0.7907 H   0  0  0  0  0  0  0  0  0  0  0  0
   -0.9620    1.0164   -1.2173 H   0  0  0  0  0  0  0  0  0  0  0  0
   -3.1326    0.4395   -0.2800 H   0  0  0  0  0  0  0  0  0  0  0  0
   -2.3660   -0.2255    1.1557 H   0  0  0  0  0  0  0  0  0  0  0  0
   -2.2887    1.5071    0.7896 H   0  0  0  0  0  0  0  0  0  0  0  0
    0.9676    1.2392   -2.3478 H   0  0  0  0  0  0  0  0  0  0  0  0
    1.8541    2.3404   -1.3092 H   0  0  0  0  0  0  0  0  0  0  0  0
    2.7128    1.1881   -2.3042 H   0  0  0  0  0  0  0  0  0  0  0  0
    1.4465   -1.3249   -2.0999 H   0  0  0  0  0  0  0  0  0  0  0  0
    1.8179   -1.9835   -0.5152 H   0  0  0  0  0  0  0  0  0  0  0  0
    3.0522   -1.2949   -1.5284 H   0  0  0  0  0  0  0  0  0  0  0  0
   -0.4035    2.0111    1.7854 H   0  0  0  0  0  0  0  0  0  0  0  0
    0.3630    2.6694    0.3685 H   0  0  0  0  0  0  0  0  0  0  0  0
    1.3017    2.0484    1.7036 H   0  0  0  0  0  0  0  0  0  0  0  0
   -0.4373   -0.4732    2.2738 H   0  0  0  0  0  0  0  0  0  0  0  0
    0.4046   -1.6432    1.2776 H   0  0  0  0  0  0  0  0  0  0  0  0
    1.2854   -0.4942    2.2695 H   0  0  0  0  0  0  0  0  0  0  0  0
   -2.2423   -1.1997   -1.5395 H   0  0  0  0  0  0  0  0  0  0  0  0
   -1.0265   -1.9544   -0.5387 H   0  0  0  0  0  0  0  0  0  0  0  0
   -0.6288   -1.2286   -2.0973 H   0  0  0  0  0  0  0  0  0  0  0  0
  1  2  1  0  0  0  0
  2  3  1  0  0  0  0
  3  4  1  0  0  0  0
  4  5  1  0  0  0  0
  2  6  1  0  0  0  0
  2  7  1  0  0  0  0
  3  8  1  0  0  0  0
  3  9  1  0  0  0  0
  4 10  1  0  0  0  0
  1 11  1  0  0  0  0
  1 12  1  0  0  0  0
  1 13  1  0  0  0  0
  4 14  1  0  0  0  0
  5 15  1  0  0  0  0
  5 16  1  0  0  0  0
  5 17  1  0  0  0  0
  6 18  1  0  0  0  0
  6 19  1  0  0  0  0
  6 20  1  0  0  0  0
  7 21  1  0  0  0  0
  7 22  1  0  0  0  0
  7 23  1  0  0  0  0
  8 24  1  0  0  0  0
  8 25  1  0  0  0  0
  8 26  1  0  0  0  0
  9 27  1  0  0  0  0
  9 28  1  0  0  0  0
  9 29  1  0  0  0  0
 10 30  1  0  0  0  0
 10 31  1  0  0  0  0
 10 32  1  0  0  0  0
M  END