146
  Mrv0541 07151418403D          

 32 31  0  0  0  0            999 V2000
   -1.8486    1.5668   -0.6753 C   0  0  0  0  0  0  0  0  0  0  0  0
   -0.3430    1.0735   -0.6890 C   0  0  2  0  0  0  0  0  0  0  0  0
    0.0258    0.1519    0.5988 C   0  0  1  0  0  0  0  0  0  0  0  0
    1.5447   -0.3466    0.6351 C   0  0  2  0  0  0  0  0  0  0  0  0
    2.0866   -1.2361   -0.5230 C   0  0  0  0  0  0  0  0  0  0  0  0
   -0.2433    0.9277    1.9682 C   0  0  2  0  0  0  0  0  0  0  0  0
    0.0212    0.2085    3.3149 C   0  0  0  0  0  0  0  0  0  0  0  0
    0.5657    2.3621   -0.7517 C   0  0  0  0  0  0  0  0  0  0  0  0
   -0.2755    0.3392   -2.0773 C   0  0  0  0  0  0  0  0  0  0  0  0
   -0.8773   -1.1305    0.6418 C   0  0  0  0  0  0  0  0  0  0  0  0
   -2.1082    2.1647   -1.5583 H   0  0  0  0  0  0  0  0  0  0  0  0
   -2.5575    0.7309   -0.6481 H   0  0  0  0  0  0  0  0  0  0  0  0
   -2.0610    2.1963    0.1813 H   0  0  0  0  0  0  0  0  0  0  0  0
    1.7595   -0.9355    1.5279 H   0  0  0  0  0  0  0  0  0  0  0  0
    2.2050    0.5171    0.7037 H   0  0  0  0  0  0  0  0  0  0  0  0
    3.0609   -1.6673   -0.2648 H   0  0  0  0  0  0  0  0  0  0  0  0
    1.4240   -2.0820   -0.7006 H   0  0  0  0  0  0  0  0  0  0  0  0
    2.1994   -0.6659   -1.4408 H   0  0  0  0  0  0  0  0  0  0  0  0
   -1.2811    1.2778    2.0242 H   0  0  0  0  0  0  0  0  0  0  0  0
    0.3746    1.8300    1.9942 H   0  0  0  0  0  0  0  0  0  0  0  0
   -0.2440    0.8594    4.1422 H   0  0  0  0  0  0  0  0  0  0  0  0
   -0.5777   -0.6927    3.3869 H   0  0  0  0  0  0  0  0  0  0  0  0
    1.0687   -0.0424    3.4149 H   0  0  0  0  0  0  0  0  0  0  0  0
    1.6323    2.1108   -0.7772 H   0  0  0  0  0  0  0  0  0  0  0  0
    0.3627    2.9693   -1.6397 H   0  0  0  0  0  0  0  0  0  0  0  0
    0.4052    3.0099    0.1106 H   0  0  0  0  0  0  0  0  0  0  0  0
    0.6403    0.4724   -2.6397 H   0  0  0  0  0  0  0  0  0  0  0  0
   -1.1252    0.6410   -2.6897 H   0  0  0  0  0  0  0  0  0  0  0  0
   -0.4179   -0.7246   -1.8871 H   0  0  0  0  0  0  0  0  0  0  0  0
   -0.6130   -1.7321    1.5115 H   0  0  0  0  0  0  0  0  0  0  0  0
   -1.9245   -0.8354    0.7088 H   0  0  0  0  0  0  0  0  0  0  0  0
   -0.7219   -1.7149   -0.2651 H   0  0  0  0  0  0  0  0  0  0  0  0
  1  2  1  0  0  0  0
  2  3  1  0  0  0  0
  3  4  1  0  0  0  0
  4  5  1  0  0  0  0
  6  7  1  0  0  0  0
  3  6  1  0  0  0  0
  2  8  1  0  0  0  0
  2  9  1  0  0  0  0
  3 10  1  0  0  0  0
  1 11  1  0  0  0  0
  1 12  1  0  0  0  0
  1 13  1  0  0  0  0
  4 14  1  0  0  0  0
  4 15  1  0  0  0  0
  5 16  1  0  0  0  0
  5 17  1  0  0  0  0
  5 18  1  0  0  0  0
  6 19  1  0  0  0  0
  6 20  1  0  0  0  0
  7 21  1  0  0  0  0
  7 22  1  0  0  0  0
  7 23  1  0  0  0  0
  8 24  1  0  0  0  0
  8 25  1  0  0  0  0
  8 26  1  0  0  0  0
  9 27  1  0  0  0  0
  9 28  1  0  0  0  0
  9 29  1  0  0  0  0
 10 30  1  0  0  0  0
 10 31  1  0  0  0  0
 10 32  1  0  0  0  0
M  END