148
  Mrv0541 07151418403D          

 32 31  0  0  0  0            999 V2000
   -1.8784    1.5285   -0.7196 C   0  0  0  0  0  0  0  0  0  0  0  0
   -0.3641    1.1512   -0.6303 C   0  0  2  0  0  0  0  0  0  0  0  0
    0.0497    0.2274    0.6218 C   0  0  1  0  0  0  0  0  0  0  0  0
    1.5888   -0.2776    0.5860 C   0  0  1  0  0  0  0  0  0  0  0  0
    1.9489   -1.1075   -0.6769 C   0  0  0  0  0  0  0  0  0  0  0  0
   -0.2563    0.9895    1.9830 C   0  0  2  0  0  0  0  0  0  0  0  0
    0.0157    0.2315    3.2971 C   0  0  0  0  0  0  0  0  0  0  0  0
    0.4054    2.4945   -0.8439 C   0  0  0  0  0  0  0  0  0  0  0  0
   -0.8776   -1.0780    0.6220 C   0  0  0  0  0  0  0  0  0  0  0  0
    2.7107    0.8110    0.8198 C   0  0  0  0  0  0  0  0  0  0  0  0
   -2.0815    2.0847   -1.6237 H   0  0  0  0  0  0  0  0  0  0  0  0
   -2.5110    0.6563   -0.7532 H   0  0  0  0  0  0  0  0  0  0  0  0
   -2.1565    2.1414    0.1230 H   0  0  0  0  0  0  0  0  0  0  0  0
   -0.1909    0.5714   -1.5412 H   0  0  0  0  0  0  0  0  0  0  0  0
    1.7220   -0.9768    1.4101 H   0  0  0  0  0  0  0  0  0  0  0  0
    2.9866   -1.4124   -0.6546 H   0  0  0  0  0  0  0  0  0  0  0  0
    1.3549   -2.0116   -0.7066 H   0  0  0  0  0  0  0  0  0  0  0  0
    1.7719   -0.5409   -1.5811 H   0  0  0  0  0  0  0  0  0  0  0  0
   -1.3031    1.2908    2.0293 H   0  0  0  0  0  0  0  0  0  0  0  0
    0.3272    1.9092    2.0294 H   0  0  0  0  0  0  0  0  0  0  0  0
   -0.2103    0.8706    4.1426 H   0  0  0  0  0  0  0  0  0  0  0  0
   -0.6088   -0.6524    3.3701 H   0  0  0  0  0  0  0  0  0  0  0  0
    1.0560   -0.0608    3.3672 H   0  0  0  0  0  0  0  0  0  0  0  0
    1.4172    2.3552   -1.1835 H   0  0  0  0  0  0  0  0  0  0  0  0
   -0.0384    3.1186   -1.6199 H   0  0  0  0  0  0  0  0  0  0  0  0
    0.4064    3.1017    0.0538 H   0  0  0  0  0  0  0  0  0  0  0  0
   -0.5970   -1.7906    1.3910 H   0  0  0  0  0  0  0  0  0  0  0  0
   -1.9253   -0.8502    0.7981 H   0  0  0  0  0  0  0  0  0  0  0  0
   -0.8365   -1.6151   -0.3215 H   0  0  0  0  0  0  0  0  0  0  0  0
    3.7175    0.3720    0.9537 H   0  0  0  0  0  0  0  0  0  0  0  0
    2.8230    1.4904   -0.0164 H   0  0  0  0  0  0  0  0  0  0  0  0
    2.4570    1.3896    1.7081 H   0  0  0  0  0  0  0  0  0  0  0  0
  1  2  1  0  0  0  0
  2  3  1  0  0  0  0
  3  4  1  0  0  0  0
  4  5  1  0  0  0  0
  6  7  1  0  0  0  0
  3  6  1  0  0  0  0
  2  8  1  0  0  0  0
  3  9  1  0  0  0  0
  4 10  1  0  0  0  0
  1 11  1  0  0  0  0
  1 12  1  0  0  0  0
  1 13  1  0  0  0  0
  2 14  1  0  0  0  0
  4 15  1  0  0  0  0
  5 16  1  0  0  0  0
  5 17  1  0  0  0  0
  5 18  1  0  0  0  0
  6 19  1  0  0  0  0
  6 20  1  0  0  0  0
  7 21  1  0  0  0  0
  7 22  1  0  0  0  0
  7 23  1  0  0  0  0
  8 24  1  0  0  0  0
  8 25  1  0  0  0  0
  8 26  1  0  0  0  0
  9 27  1  0  0  0  0
  9 28  1  0  0  0  0
  9 29  1  0  0  0  0
 10 30  1  0  0  0  0
 10 31  1  0  0  0  0
 10 32  1  0  0  0  0
M  END