149
  Mrv0541 07151418403D          

 32 31  0  0  0  0            999 V2000
   -1.8701    0.7176    1.0981 C   0  0  0  0  0  0  0  0  0  0  0  0
   -0.7273    1.1040    0.1043 C   0  0  2  0  0  0  0  0  0  0  0  0
    0.3963   -0.0278   -0.1276 C   0  0  1  0  0  0  0  0  0  0  0  0
    1.4632    0.3494   -1.2621 C   0  0  2  0  0  0  0  0  0  0  0  0
    2.3970    1.5680   -1.0558 C   0  0  0  0  0  0  0  0  0  0  0  0
    1.1369   -0.2926    1.2513 C   0  0  2  0  0  0  0  0  0  0  0  0
    2.2457   -1.3696    1.2350 C   0  0  0  0  0  0  0  0  0  0  0  0
   -0.3092   -1.3800   -0.5781 C   0  0  2  0  0  0  0  0  0  0  0  0
   -1.1120   -1.3455   -1.9053 C   0  0  0  0  0  0  0  0  0  0  0  0
   -0.2679    2.4965    0.5992 C   0  0  0  0  0  0  0  0  0  0  0  0
   -2.6662    1.4684    1.1540 H   0  0  0  0  0  0  0  0  0  0  0  0
   -2.3523   -0.2190    0.8026 H   0  0  0  0  0  0  0  0  0  0  0  0
   -1.4840    0.5907    2.1075 H   0  0  0  0  0  0  0  0  0  0  0  0
   -1.2014    1.3216   -0.8555 H   0  0  0  0  0  0  0  0  0  0  0  0
    0.9488    0.5636   -2.1869 H   0  0  0  0  0  0  0  0  0  0  0  0
    2.0731   -0.5346   -1.4834 H   0  0  0  0  0  0  0  0  0  0  0  0
    3.2247    1.5949   -1.7587 H   0  0  0  0  0  0  0  0  0  0  0  0
    1.8223    2.4711   -1.1933 H   0  0  0  0  0  0  0  0  0  0  0  0
    2.8663    1.5891   -0.0799 H   0  0  0  0  0  0  0  0  0  0  0  0
    0.4194   -0.6220    2.0077 H   0  0  0  0  0  0  0  0  0  0  0  0
    1.5721    0.6364    1.6306 H   0  0  0  0  0  0  0  0  0  0  0  0
    2.7179   -1.4280    2.2148 H   0  0  0  0  0  0  0  0  0  0  0  0
    1.8194   -2.3452    1.0102 H   0  0  0  0  0  0  0  0  0  0  0  0
    3.0126   -1.1411    0.4967 H   0  0  0  0  0  0  0  0  0  0  0  0
   -0.9635   -1.7614    0.2100 H   0  0  0  0  0  0  0  0  0  0  0  0
    0.4276   -2.1643   -0.7216 H   0  0  0  0  0  0  0  0  0  0  0  0
   -1.5702   -2.3154   -2.0971 H   0  0  0  0  0  0  0  0  0  0  0  0
   -1.8958   -0.5904   -1.8749 H   0  0  0  0  0  0  0  0  0  0  0  0
   -0.4390   -1.1264   -2.7297 H   0  0  0  0  0  0  0  0  0  0  0  0
   -0.0693    3.2295   -0.1819 H   0  0  0  0  0  0  0  0  0  0  0  0
   -1.0063    2.8969    1.2939 H   0  0  0  0  0  0  0  0  0  0  0  0
    0.6388    2.3512    1.1865 H   0  0  0  0  0  0  0  0  0  0  0  0
  1  2  1  0  0  0  0
  2  3  1  0  0  0  0
  3  4  1  0  0  0  0
  4  5  1  0  0  0  0
  6  7  1  0  0  0  0
  3  6  1  0  0  0  0
  8  9  1  0  0  0  0
  3  8  1  0  0  0  0
  2 10  1  0  0  0  0
  1 11  1  0  0  0  0
  1 12  1  0  0  0  0
  1 13  1  0  0  0  0
  2 14  1  0  0  0  0
  4 15  1  0  0  0  0
  4 16  1  0  0  0  0
  5 17  1  0  0  0  0
  5 18  1  0  0  0  0
  5 19  1  0  0  0  0
  6 20  1  0  0  0  0
  6 21  1  0  0  0  0
  7 22  1  0  0  0  0
  7 23  1  0  0  0  0
  7 24  1  0  0  0  0
  8 25  1  0  0  0  0
  8 26  1  0  0  0  0
  9 27  1  0  0  0  0
  9 28  1  0  0  0  0
  9 29  1  0  0  0  0
 10 30  1  0  0  0  0
 10 31  1  0  0  0  0
 10 32  1  0  0  0  0
M  END