150
  Mrv0541 07151418403D          

 32 31  0  0  0  0            999 V2000
   -0.3355   -0.2997   -1.8098 C   0  0  0  0  0  0  0  0  0  0  0  0
    0.1524   -0.2705   -0.3164 C   0  0  1  0  0  0  0  0  0  0  0  0
   -0.0202    1.1244    0.4494 C   0  0  1  0  0  0  0  0  0  0  0  0
    0.4518    1.1352    1.9876 C   0  0  2  0  0  0  0  0  0  0  0  0
   -0.0808    0.0325    2.9325 C   0  0  0  0  0  0  0  0  0  0  0  0
    0.2593    3.7630    0.0138 C   0  0  0  0  0  0  0  0  0  0  0  0
    0.6187    2.3083   -0.4084 C   0  0  1  0  0  0  0  0  0  0  0  0
    2.1509    2.1863   -0.6169 C   0  0  0  0  0  0  0  0  0  0  0  0
   -0.5552   -1.5253    0.2875 C   0  0  0  0  0  0  0  0  0  0  0  0
    0.1651    2.4078    2.8283 C   0  0  0  0  0  0  0  0  0  0  0  0
   -0.1591   -1.2576   -2.3010 H   0  0  0  0  0  0  0  0  0  0  0  0
   -1.4031   -0.1212   -1.8784 H   0  0  0  0  0  0  0  0  0  0  0  0
    0.1634    0.4412   -2.4289 H   0  0  0  0  0  0  0  0  0  0  0  0
    1.2140   -0.5172   -0.3419 H   0  0  0  0  0  0  0  0  0  0  0  0
   -1.0996    1.2941    0.4653 H   0  0  0  0  0  0  0  0  0  0  0  0
    1.5238    1.0421    1.9931 H   0  0  0  0  0  0  0  0  0  0  0  0
    0.1402    0.1617    3.9781 H   0  0  0  0  0  0  0  0  0  0  0  0
   -1.1539   -0.0268    2.9075 H   0  0  0  0  0  0  0  0  0  0  0  0
    0.3765   -0.9226    2.6999 H   0  0  0  0  0  0  0  0  0  0  0  0
   -0.7955    3.8699    0.2358 H   0  0  0  0  0  0  0  0  0  0  0  0
    0.8383    4.1028    0.8650 H   0  0  0  0  0  0  0  0  0  0  0  0
    0.4975    4.4903   -0.7341 H   0  0  0  0  0  0  0  0  0  0  0  0
    0.1570    2.2915   -1.3916 H   0  0  0  0  0  0  0  0  0  0  0  0
    2.3972    1.2562   -1.1056 H   0  0  0  0  0  0  0  0  0  0  0  0
    2.6549    2.2112    0.3361 H   0  0  0  0  0  0  0  0  0  0  0  0
    2.5317    2.9893   -1.2350 H   0  0  0  0  0  0  0  0  0  0  0  0
    0.1175   -2.1571    0.9008 H   0  0  0  0  0  0  0  0  0  0  0  0
   -1.4055   -1.2077    0.8909 H   0  0  0  0  0  0  0  0  0  0  0  0
   -0.8973   -2.1503   -0.5373 H   0  0  0  0  0  0  0  0  0  0  0  0
    0.5402    2.2658    3.8418 H   0  0  0  0  0  0  0  0  0  0  0  0
   -0.9095    2.5875    2.8605 H   0  0  0  0  0  0  0  0  0  0  0  0
    0.6631    3.2638    2.3731 H   0  0  0  0  0  0  0  0  0  0  0  0
  1  2  1  0  0  0  0
  2  3  1  0  0  0  0
  3  4  1  0  0  0  0
  4  5  1  0  0  0  0
  6  7  1  0  0  0  0
  7  8  1  0  0  0  0
  3  7  1  0  0  0  0
  2  9  1  0  0  0  0
  4 10  1  0  0  0  0
  1 11  1  0  0  0  0
  1 12  1  0  0  0  0
  1 13  1  0  0  0  0
  2 14  1  0  0  0  0
  3 15  1  0  0  0  0
  4 16  1  0  0  0  0
  5 17  1  0  0  0  0
  5 18  1  0  0  0  0
  5 19  1  0  0  0  0
  6 20  1  0  0  0  0
  6 21  1  0  0  0  0
  6 22  1  0  0  0  0
  7 23  1  0  0  0  0
  8 24  1  0  0  0  0
  8 25  1  0  0  0  0
  8 26  1  0  0  0  0
  9 27  1  0  0  0  0
  9 28  1  0  0  0  0
  9 29  1  0  0  0  0
 10 30  1  0  0  0  0
 10 31  1  0  0  0  0
 10 32  1  0  0  0  0
M  END