
  -ISIS-  09230315062D

 25 27  0  0  0  0  0  0  0  0999 V2000
   -0.9348   -0.4000    0.0000 C   0  0  0  0  0  0  0  0  0  0  0  0
   -0.9359   -1.2274    0.0000 C   0  0  0  0  0  0  0  0  0  0  0  0
   -0.2211   -1.6402    0.0000 C   0  0  0  0  0  0  0  0  0  0  0  0
    0.4953   -1.2269    0.0000 C   0  0  0  0  0  0  0  0  0  0  0  0
    0.4925   -0.3964    0.0000 C   0  0  0  0  0  0  0  0  0  0  0  0
   -0.2229    0.0128    0.0000 C   0  0  0  0  0  0  0  0  0  0  0  0
    1.0750   -1.8084    0.0000 C   0  0  0  0  0  0  0  0  0  0  0  0
    1.0708   -2.6334    0.0000 N   0  0  0  0  0  0  0  0  0  0  0  0
    1.7875   -1.3917    0.0000 C   0  0  0  0  0  0  0  0  0  0  0  0
    2.5042   -1.8034    0.0000 C   0  0  0  0  0  0  0  0  0  0  0  0
    3.2162   -1.3874    0.0000 C   0  0  0  0  0  0  0  0  0  0  0  0
    3.2120   -0.5611    0.0000 C   0  0  0  0  0  0  0  0  0  0  0  0
    2.4899   -0.1526    0.0000 C   0  0  0  0  0  0  0  0  0  0  0  0
    1.7808   -0.5709    0.0000 C   0  0  0  0  0  0  0  0  0  0  0  0
    4.0042   -0.3417    0.0000 N   0  0  0  0  0  0  0  0  0  0  0  0
    4.0083   -1.5959    0.0000 N   0  0  3  0  0  0  0  0  0  0  0  0
    4.4125   -1.0542    0.0000 C   0  0  0  0  0  0  0  0  0  0  0  0
    5.2375   -1.0542    0.0000 N   0  0  0  0  0  0  0  0  0  0  0  0
    0.4792   -3.2167    0.0000 O   0  0  0  0  0  0  0  0  0  0  0  0
    4.2167   -2.3917    0.0000 S   0  0  3  0  0  0  0  0  0  0  0  0
    5.0125   -2.1750    0.0000 O   0  0  0  0  0  0  0  0  0  0  0  0
    3.4167   -2.6042    0.0000 O   0  0  0  0  0  0  0  0  0  0  0  0
    4.4292   -3.1875    0.0000 C   0  0  3  0  0  0  0  0  0  0  0  0
    5.2250   -3.4000    0.0000 C   0  0  0  0  0  0  0  0  0  0  0  0
    4.0125   -3.9000    0.0000 C   0  0  0  0  0  0  0  0  0  0  0  0
 11 12  2  0  0  0  0
  6  1  1  0  0  0  0
 12 13  1  0  0  0  0
  1  2  2  0  0  0  0
 13 14  2  0  0  0  0
 14  9  1  0  0  0  0
  4  7  1  0  0  0  0
 12 15  1  0  0  0  0
  3  4  2  0  0  0  0
 11 16  1  0  0  0  0
  7  8  2  0  0  0  0
 15 17  2  0  0  0  0
 17 16  1  0  0  0  0
 17 18  1  0  0  0  0
  8 19  1  0  0  0  0
  7  9  1  0  0  0  0
 16 20  1  0  0  0  0
  4  5  1  0  0  0  0
 20 21  2  0  0  0  0
  9 10  2  0  0  0  0
 20 22  2  0  0  0  0
  2  3  1  0  0  0  0
 20 23  1  0  0  0  0
 10 11  1  0  0  0  0
 23 24  1  0  0  0  0
  5  6  2  0  0  0  0
 23 25  1  0  0  0  0
M  END
$$$$

  -ISIS-  09230315072D

 27 29  0  0  0  0  0  0  0  0999 V2000
   -0.9348   -0.4000    0.0000 C   0  0  0  0  0  0  0  0  0  0  0  0
   -0.9359   -1.2274    0.0000 C   0  0  0  0  0  0  0  0  0  0  0  0
   -0.2211   -1.6402    0.0000 C   0  0  0  0  0  0  0  0  0  0  0  0
    0.4953   -1.2269    0.0000 C   0  0  0  0  0  0  0  0  0  0  0  0
    0.4925   -0.3964    0.0000 C   0  0  0  0  0  0  0  0  0  0  0  0
   -0.2229    0.0128    0.0000 C   0  0  0  0  0  0  0  0  0  0  0  0
    1.0750   -1.8084    0.0000 C   0  0  0  0  0  0  0  0  0  0  0  0
    1.0708   -2.6334    0.0000 C   0  0  0  0  0  0  0  0  0  0  0  0
    1.7875   -1.3917    0.0000 C   0  0  0  0  0  0  0  0  0  0  0  0
    2.5042   -1.8034    0.0000 C   0  0  0  0  0  0  0  0  0  0  0  0
    3.2162   -1.3874    0.0000 C   0  0  0  0  0  0  0  0  0  0  0  0
    3.2120   -0.5611    0.0000 C   0  0  0  0  0  0  0  0  0  0  0  0
    2.4899   -0.1526    0.0000 C   0  0  0  0  0  0  0  0  0  0  0  0
    1.7808   -0.5709    0.0000 C   0  0  0  0  0  0  0  0  0  0  0  0
    4.0042   -0.3417    0.0000 N   0  0  0  0  0  0  0  0  0  0  0  0
    4.0083   -1.5959    0.0000 N   0  0  3  0  0  0  0  0  0  0  0  0
    4.4125   -1.0542    0.0000 C   0  0  0  0  0  0  0  0  0  0  0  0
    5.2375   -1.0542    0.0000 N   0  0  0  0  0  0  0  0  0  0  0  0
    0.4792   -3.2167    0.0000 C   0  0  0  0  0  0  0  0  0  0  0  0
    4.2167   -2.3917    0.0000 S   0  0  3  0  0  0  0  0  0  0  0  0
    5.0125   -2.1750    0.0000 O   0  0  0  0  0  0  0  0  0  0  0  0
    3.4167   -2.6042    0.0000 O   0  0  0  0  0  0  0  0  0  0  0  0
    4.4292   -3.1875    0.0000 C   0  0  3  0  0  0  0  0  0  0  0  0
    5.2250   -3.4000    0.0000 C   0  0  0  0  0  0  0  0  0  0  0  0
    4.0125   -3.9000    0.0000 C   0  0  0  0  0  0  0  0  0  0  0  0
   -0.3458   -3.2125    0.0000 O   0  0  0  0  0  0  0  0  0  0  0  0
    0.8875   -3.9292    0.0000 N   0  0  0  0  0  0  0  0  0  0  0  0
 12 13  1  0  0  0  0
  1  2  2  0  0  0  0
 13 14  2  0  0  0  0
 14  9  1  0  0  0  0
  4  7  1  0  0  0  0
 12 15  1  0  0  0  0
  3  4  2  0  0  0  0
 11 16  1  0  0  0  0
  7  8  2  0  0  0  0
 15 17  2  0  0  0  0
 17 16  1  0  0  0  0
 17 18  1  0  0  0  0
  8 19  1  0  0  0  0
  7  9  1  0  0  0  0
 16 20  1  0  0  0  0
  4  5  1  0  0  0  0
 20 21  2  0  0  0  0
  9 10  2  0  0  0  0
 20 22  2  0  0  0  0
  2  3  1  0  0  0  0
 20 23  1  0  0  0  0
 10 11  1  0  0  0  0
 23 24  1  0  0  0  0
  5  6  2  0  0  0  0
 23 25  1  0  0  0  0
 11 12  2  0  0  0  0
 19 26  2  0  0  0  0
  6  1  1  0  0  0  0
 19 27  1  0  0  0  0
M  END
$$$$

  -ISIS-  09230315072D

 28 30  0  0  0  0  0  0  0  0999 V2000
   -0.9348   -0.4000    0.0000 C   0  0  0  0  0  0  0  0  0  0  0  0
   -0.9359   -1.2274    0.0000 C   0  0  0  0  0  0  0  0  0  0  0  0
   -0.2211   -1.6402    0.0000 C   0  0  0  0  0  0  0  0  0  0  0  0
    0.4953   -1.2269    0.0000 C   0  0  0  0  0  0  0  0  0  0  0  0
    0.4925   -0.3964    0.0000 C   0  0  0  0  0  0  0  0  0  0  0  0
   -0.2229    0.0128    0.0000 C   0  0  0  0  0  0  0  0  0  0  0  0
    1.0750   -1.8084    0.0000 C   0  0  0  0  0  0  0  0  0  0  0  0
    1.0708   -2.6334    0.0000 C   0  0  0  0  0  0  0  0  0  0  0  0
    1.7875   -1.3917    0.0000 C   0  0  0  0  0  0  0  0  0  0  0  0
    2.5042   -1.8034    0.0000 C   0  0  0  0  0  0  0  0  0  0  0  0
    3.2162   -1.3874    0.0000 C   0  0  0  0  0  0  0  0  0  0  0  0
    3.2120   -0.5611    0.0000 C   0  0  0  0  0  0  0  0  0  0  0  0
    2.4899   -0.1526    0.0000 C   0  0  0  0  0  0  0  0  0  0  0  0
    1.7808   -0.5709    0.0000 C   0  0  0  0  0  0  0  0  0  0  0  0
    4.0042   -0.3417    0.0000 N   0  0  0  0  0  0  0  0  0  0  0  0
    4.0083   -1.5959    0.0000 N   0  0  3  0  0  0  0  0  0  0  0  0
    4.4125   -1.0542    0.0000 C   0  0  0  0  0  0  0  0  0  0  0  0
    5.2375   -1.0542    0.0000 N   0  0  0  0  0  0  0  0  0  0  0  0
    0.4792   -3.2167    0.0000 C   0  0  0  0  0  0  0  0  0  0  0  0
    4.2167   -2.3917    0.0000 S   0  0  3  0  0  0  0  0  0  0  0  0
    5.0125   -2.1750    0.0000 O   0  0  0  0  0  0  0  0  0  0  0  0
    3.4167   -2.6042    0.0000 O   0  0  0  0  0  0  0  0  0  0  0  0
    4.4292   -3.1875    0.0000 C   0  0  3  0  0  0  0  0  0  0  0  0
    5.2250   -3.4000    0.0000 C   0  0  0  0  0  0  0  0  0  0  0  0
    4.0125   -3.9000    0.0000 C   0  0  0  0  0  0  0  0  0  0  0  0
   -0.3458   -3.2125    0.0000 O   0  0  0  0  0  0  0  0  0  0  0  0
    0.8875   -3.9292    0.0000 N   0  0  0  0  0  0  0  0  0  0  0  0
   -1.5250    0.1917    0.0000 F   0  0  0  0  0  0  0  0  0  0  0  0
  1  2  2  0  0  0  0
 13 14  2  0  0  0  0
 14  9  1  0  0  0  0
  4  7  1  0  0  0  0
 12 15  1  0  0  0  0
  3  4  2  0  0  0  0
 11 16  1  0  0  0  0
  7  8  2  0  0  0  0
 15 17  2  0  0  0  0
 17 16  1  0  0  0  0
 17 18  1  0  0  0  0
  8 19  1  0  0  0  0
  7  9  1  0  0  0  0
 16 20  1  0  0  0  0
  4  5  1  0  0  0  0
 20 21  2  0  0  0  0
  9 10  2  0  0  0  0
 20 22  2  0  0  0  0
  2  3  1  0  0  0  0
 20 23  1  0  0  0  0
 10 11  1  0  0  0  0
 23 24  1  0  0  0  0
  5  6  2  0  0  0  0
 23 25  1  0  0  0  0
 11 12  2  0  0  0  0
 19 26  2  0  0  0  0
  6  1  1  0  0  0  0
 19 27  1  0  0  0  0
 12 13  1  0  0  0  0
  1 28  1  0  0  0  0
M  END
$$$$

  -ISIS-  09230315072D

 28 30  0  0  0  0  0  0  0  0999 V2000
   -0.9348   -0.4000    0.0000 C   0  0  0  0  0  0  0  0  0  0  0  0
   -0.9359   -1.2274    0.0000 C   0  0  0  0  0  0  0  0  0  0  0  0
   -0.2211   -1.6402    0.0000 C   0  0  0  0  0  0  0  0  0  0  0  0
    0.4953   -1.2269    0.0000 C   0  0  0  0  0  0  0  0  0  0  0  0
    0.4925   -0.3964    0.0000 C   0  0  0  0  0  0  0  0  0  0  0  0
   -0.2229    0.0128    0.0000 C   0  0  0  0  0  0  0  0  0  0  0  0
    1.0750   -1.8084    0.0000 C   0  0  0  0  0  0  0  0  0  0  0  0
    1.0708   -2.6334    0.0000 C   0  0  0  0  0  0  0  0  0  0  0  0
    1.7875   -1.3917    0.0000 C   0  0  0  0  0  0  0  0  0  0  0  0
    2.5042   -1.8034    0.0000 C   0  0  0  0  0  0  0  0  0  0  0  0
    3.2162   -1.3874    0.0000 C   0  0  0  0  0  0  0  0  0  0  0  0
    3.2120   -0.5611    0.0000 C   0  0  0  0  0  0  0  0  0  0  0  0
    2.4899   -0.1526    0.0000 C   0  0  0  0  0  0  0  0  0  0  0  0
    1.7808   -0.5709    0.0000 C   0  0  0  0  0  0  0  0  0  0  0  0
    4.0042   -0.3417    0.0000 N   0  0  0  0  0  0  0  0  0  0  0  0
    4.0083   -1.5959    0.0000 N   0  0  3  0  0  0  0  0  0  0  0  0
    4.4125   -1.0542    0.0000 C   0  0  0  0  0  0  0  0  0  0  0  0
    5.2375   -1.0542    0.0000 N   0  0  0  0  0  0  0  0  0  0  0  0
    0.4792   -3.2167    0.0000 C   0  0  0  0  0  0  0  0  0  0  0  0
    4.2167   -2.3917    0.0000 S   0  0  3  0  0  0  0  0  0  0  0  0
    5.0125   -2.1750    0.0000 O   0  0  0  0  0  0  0  0  0  0  0  0
    3.4167   -2.6042    0.0000 O   0  0  0  0  0  0  0  0  0  0  0  0
    4.4292   -3.1875    0.0000 C   0  0  3  0  0  0  0  0  0  0  0  0
    5.2250   -3.4000    0.0000 C   0  0  0  0  0  0  0  0  0  0  0  0
    4.0125   -3.9000    0.0000 C   0  0  0  0  0  0  0  0  0  0  0  0
   -0.3458   -3.2125    0.0000 O   0  0  0  0  0  0  0  0  0  0  0  0
    0.8875   -3.9292    0.0000 N   0  0  0  0  0  0  0  0  0  0  0  0
   -0.2292    0.8417    0.0000 F   0  0  0  0  0  0  0  0  0  0  0  0
  1  2  2  0  0  0  0
 13 14  2  0  0  0  0
 14  9  1  0  0  0  0
  4  7  1  0  0  0  0
 12 15  1  0  0  0  0
  3  4  2  0  0  0  0
 11 16  1  0  0  0  0
  7  8  2  0  0  0  0
 15 17  2  0  0  0  0
 17 16  1  0  0  0  0
 17 18  1  0  0  0  0
  8 19  1  0  0  0  0
  7  9  1  0  0  0  0
 16 20  1  0  0  0  0
  4  5  1  0  0  0  0
 20 21  2  0  0  0  0
  9 10  2  0  0  0  0
 20 22  2  0  0  0  0
  2  3  1  0  0  0  0
 20 23  1  0  0  0  0
 10 11  1  0  0  0  0
 23 24  1  0  0  0  0
  5  6  2  0  0  0  0
 23 25  1  0  0  0  0
 11 12  2  0  0  0  0
 19 26  2  0  0  0  0
  6  1  1  0  0  0  0
 19 27  1  0  0  0  0
 12 13  1  0  0  0  0
  6 28  1  0  0  0  0
M  END
$$$$

  -ISIS-  09230315072D

 29 31  0  0  0  0  0  0  0  0999 V2000
   -0.9348   -0.4000    0.0000 C   0  0  0  0  0  0  0  0  0  0  0  0
   -0.9359   -1.2274    0.0000 C   0  0  0  0  0  0  0  0  0  0  0  0
   -0.2211   -1.6402    0.0000 C   0  0  0  0  0  0  0  0  0  0  0  0
    0.4953   -1.2269    0.0000 C   0  0  0  0  0  0  0  0  0  0  0  0
    0.4925   -0.3964    0.0000 C   0  0  0  0  0  0  0  0  0  0  0  0
   -0.2229    0.0128    0.0000 C   0  0  0  0  0  0  0  0  0  0  0  0
    1.0750   -1.8084    0.0000 C   0  0  0  0  0  0  0  0  0  0  0  0
    1.0708   -2.6334    0.0000 C   0  0  0  0  0  0  0  0  0  0  0  0
    1.7875   -1.3917    0.0000 C   0  0  0  0  0  0  0  0  0  0  0  0
    2.5042   -1.8034    0.0000 C   0  0  0  0  0  0  0  0  0  0  0  0
    3.2162   -1.3874    0.0000 C   0  0  0  0  0  0  0  0  0  0  0  0
    3.2120   -0.5611    0.0000 C   0  0  0  0  0  0  0  0  0  0  0  0
    2.4899   -0.1526    0.0000 C   0  0  0  0  0  0  0  0  0  0  0  0
    1.7808   -0.5709    0.0000 C   0  0  0  0  0  0  0  0  0  0  0  0
    4.0042   -0.3417    0.0000 N   0  0  0  0  0  0  0  0  0  0  0  0
    4.0083   -1.5959    0.0000 N   0  0  3  0  0  0  0  0  0  0  0  0
    4.4125   -1.0542    0.0000 C   0  0  0  0  0  0  0  0  0  0  0  0
    5.2375   -1.0542    0.0000 N   0  0  0  0  0  0  0  0  0  0  0  0
    0.4792   -3.2167    0.0000 C   0  0  0  0  0  0  0  0  0  0  0  0
    4.2167   -2.3917    0.0000 S   0  0  3  0  0  0  0  0  0  0  0  0
    5.0125   -2.1750    0.0000 O   0  0  0  0  0  0  0  0  0  0  0  0
    3.4167   -2.6042    0.0000 O   0  0  0  0  0  0  0  0  0  0  0  0
    4.4292   -3.1875    0.0000 C   0  0  3  0  0  0  0  0  0  0  0  0
    5.2250   -3.4000    0.0000 C   0  0  0  0  0  0  0  0  0  0  0  0
    4.0125   -3.9000    0.0000 C   0  0  0  0  0  0  0  0  0  0  0  0
   -0.3458   -3.2125    0.0000 O   0  0  0  0  0  0  0  0  0  0  0  0
    0.8875   -3.9292    0.0000 N   0  0  0  0  0  0  0  0  0  0  0  0
    1.2875   -0.1792    0.0000 F   0  0  0  0  0  0  0  0  0  0  0  0
   -1.7375   -1.4375    0.0000 F   0  0  0  0  0  0  0  0  0  0  0  0
 13 14  2  0  0  0  0
 14  9  1  0  0  0  0
  4  7  1  0  0  0  0
 12 15  1  0  0  0  0
  3  4  2  0  0  0  0
 11 16  1  0  0  0  0
  7  8  2  0  0  0  0
 15 17  2  0  0  0  0
 17 16  1  0  0  0  0
 17 18  1  0  0  0  0
  8 19  1  0  0  0  0
  7  9  1  0  0  0  0
 16 20  1  0  0  0  0
  4  5  1  0  0  0  0
 20 21  2  0  0  0  0
  9 10  2  0  0  0  0
 20 22  2  0  0  0  0
  2  3  1  0  0  0  0
 20 23  1  0  0  0  0
 10 11  1  0  0  0  0
 23 24  1  0  0  0  0
  5  6  2  0  0  0  0
 23 25  1  0  0  0  0
 11 12  2  0  0  0  0
 19 26  2  0  0  0  0
  6  1  1  0  0  0  0
 19 27  1  0  0  0  0
 12 13  1  0  0  0  0
  5 28  1  0  0  0  0
  1  2  2  0  0  0  0
  2 29  1  0  0  0  0
M  END
$$$$

  -ISIS-  09230315082D

 30 32  0  0  0  0  0  0  0  0999 V2000
   -0.9348   -0.4000    0.0000 C   0  0  0  0  0  0  0  0  0  0  0  0
   -0.9359   -1.2274    0.0000 C   0  0  0  0  0  0  0  0  0  0  0  0
   -0.2211   -1.6402    0.0000 C   0  0  0  0  0  0  0  0  0  0  0  0
    0.4953   -1.2269    0.0000 C   0  0  0  0  0  0  0  0  0  0  0  0
    0.4925   -0.3964    0.0000 C   0  0  0  0  0  0  0  0  0  0  0  0
   -0.2229    0.0128    0.0000 C   0  0  0  0  0  0  0  0  0  0  0  0
    1.0750   -1.8084    0.0000 C   0  0  0  0  0  0  0  0  0  0  0  0
    1.0708   -2.6334    0.0000 C   0  0  0  0  0  0  0  0  0  0  0  0
    1.7875   -1.3917    0.0000 C   0  0  0  0  0  0  0  0  0  0  0  0
    2.5042   -1.8034    0.0000 C   0  0  0  0  0  0  0  0  0  0  0  0
    3.2162   -1.3874    0.0000 C   0  0  0  0  0  0  0  0  0  0  0  0
    3.2120   -0.5611    0.0000 C   0  0  0  0  0  0  0  0  0  0  0  0
    2.4899   -0.1526    0.0000 C   0  0  0  0  0  0  0  0  0  0  0  0
    1.7808   -0.5709    0.0000 C   0  0  0  0  0  0  0  0  0  0  0  0
    4.0042   -0.3417    0.0000 N   0  0  0  0  0  0  0  0  0  0  0  0
    4.0083   -1.5959    0.0000 N   0  0  3  0  0  0  0  0  0  0  0  0
    4.4125   -1.0542    0.0000 C   0  0  0  0  0  0  0  0  0  0  0  0
    5.2375   -1.0542    0.0000 N   0  0  0  0  0  0  0  0  0  0  0  0
    0.4792   -3.2167    0.0000 C   0  0  0  0  0  0  0  0  0  0  0  0
    4.2167   -2.3917    0.0000 S   0  0  3  0  0  0  0  0  0  0  0  0
    5.0125   -2.1750    0.0000 O   0  0  0  0  0  0  0  0  0  0  0  0
    3.4167   -2.6042    0.0000 O   0  0  0  0  0  0  0  0  0  0  0  0
    4.4292   -3.1875    0.0000 C   0  0  3  0  0  0  0  0  0  0  0  0
    5.2250   -3.4000    0.0000 C   0  0  0  0  0  0  0  0  0  0  0  0
    4.0125   -3.9000    0.0000 C   0  0  0  0  0  0  0  0  0  0  0  0
   -0.3458   -3.2125    0.0000 O   0  0  0  0  0  0  0  0  0  0  0  0
    0.8875   -3.9292    0.0000 N   0  0  0  0  0  0  0  0  0  0  0  0
    1.2875   -0.1792    0.0000 F   0  0  0  0  0  0  0  0  0  0  0  0
   -1.7375   -1.4375    0.0000 F   0  0  0  0  0  0  0  0  0  0  0  0
    0.4708   -4.6417    0.0000 C   0  0  0  0  0  0  0  0  0  0  0  0
 14  9  1  0  0  0  0
  4  7  1  0  0  0  0
 12 15  1  0  0  0  0
  3  4  2  0  0  0  0
 11 16  1  0  0  0  0
  7  8  2  0  0  0  0
 15 17  2  0  0  0  0
 17 16  1  0  0  0  0
 17 18  1  0  0  0  0
  8 19  1  0  0  0  0
  7  9  1  0  0  0  0
 16 20  1  0  0  0  0
  4  5  1  0  0  0  0
 20 21  2  0  0  0  0
  9 10  2  0  0  0  0
 20 22  2  0  0  0  0
  2  3  1  0  0  0  0
 20 23  1  0  0  0  0
 10 11  1  0  0  0  0
 23 24  1  0  0  0  0
  5  6  2  0  0  0  0
 23 25  1  0  0  0  0
 11 12  2  0  0  0  0
 19 26  2  0  0  0  0
  6  1  1  0  0  0  0
 19 27  1  0  0  0  0
 12 13  1  0  0  0  0
  5 28  1  0  0  0  0
  1  2  2  0  0  0  0
  2 29  1  0  0  0  0
 13 14  2  0  0  0  0
 27 30  1  0  0  0  0
M  END
$$$$

  -ISIS-  09230315082D

 28 30  0  0  0  0  0  0  0  0999 V2000
   -0.9348   -0.4000    0.0000 C   0  0  0  0  0  0  0  0  0  0  0  0
   -0.9359   -1.2274    0.0000 C   0  0  0  0  0  0  0  0  0  0  0  0
   -0.2211   -1.6402    0.0000 C   0  0  0  0  0  0  0  0  0  0  0  0
    0.4953   -1.2269    0.0000 C   0  0  0  0  0  0  0  0  0  0  0  0
    0.4925   -0.3964    0.0000 C   0  0  0  0  0  0  0  0  0  0  0  0
   -0.2229    0.0128    0.0000 C   0  0  0  0  0  0  0  0  0  0  0  0
    1.0750   -1.8084    0.0000 C   0  0  0  0  0  0  0  0  0  0  0  0
    1.0708   -2.6334    0.0000 C   0  0  0  0  0  0  0  0  0  0  0  0
    1.7875   -1.3917    0.0000 C   0  0  0  0  0  0  0  0  0  0  0  0
    2.5042   -1.8034    0.0000 C   0  0  0  0  0  0  0  0  0  0  0  0
    3.2162   -1.3874    0.0000 C   0  0  0  0  0  0  0  0  0  0  0  0
    3.2120   -0.5611    0.0000 C   0  0  0  0  0  0  0  0  0  0  0  0
    2.4899   -0.1526    0.0000 C   0  0  0  0  0  0  0  0  0  0  0  0
    1.7808   -0.5709    0.0000 C   0  0  0  0  0  0  0  0  0  0  0  0
    4.0042   -0.3417    0.0000 N   0  0  0  0  0  0  0  0  0  0  0  0
    4.0083   -1.5959    0.0000 N   0  0  3  0  0  0  0  0  0  0  0  0
    4.4125   -1.0542    0.0000 C   0  0  0  0  0  0  0  0  0  0  0  0
    5.2375   -1.0542    0.0000 N   0  0  0  0  0  0  0  0  0  0  0  0
    0.4792   -3.2167    0.0000 C   0  0  0  0  0  0  0  0  0  0  0  0
    4.2167   -2.3917    0.0000 S   0  0  3  0  0  0  0  0  0  0  0  0
    5.0125   -2.1750    0.0000 O   0  0  0  0  0  0  0  0  0  0  0  0
    3.4167   -2.6042    0.0000 O   0  0  0  0  0  0  0  0  0  0  0  0
    4.4292   -3.1875    0.0000 C   0  0  3  0  0  0  0  0  0  0  0  0
    5.2250   -3.4000    0.0000 C   0  0  0  0  0  0  0  0  0  0  0  0
    4.0125   -3.9000    0.0000 C   0  0  0  0  0  0  0  0  0  0  0  0
   -0.3458   -3.2125    0.0000 O   0  0  0  0  0  0  0  0  0  0  0  0
    0.8875   -3.9292    0.0000 N   0  0  0  0  0  0  0  0  0  0  0  0
    0.4708   -4.6417    0.0000 C   0  0  0  0  0  0  0  0  0  0  0  0
  1  2  2  0  0  0  0
 13 14  2  0  0  0  0
 14  9  1  0  0  0  0
  4  7  1  0  0  0  0
 12 15  1  0  0  0  0
  3  4  2  0  0  0  0
 11 16  1  0  0  0  0
  7  8  2  0  0  0  0
 15 17  2  0  0  0  0
 17 16  1  0  0  0  0
 17 18  1  0  0  0  0
  8 19  1  0  0  0  0
  7  9  1  0  0  0  0
 16 20  1  0  0  0  0
  4  5  1  0  0  0  0
 20 21  2  0  0  0  0
  9 10  2  0  0  0  0
 20 22  2  0  0  0  0
  2  3  1  0  0  0  0
 20 23  1  0  0  0  0
 10 11  1  0  0  0  0
 23 24  1  0  0  0  0
  5  6  2  0  0  0  0
 23 25  1  0  0  0  0
 11 12  2  0  0  0  0
 19 26  2  0  0  0  0
  6  1  1  0  0  0  0
 19 27  1  0  0  0  0
 12 13  1  0  0  0  0
 27 28  1  0  0  0  0
M  END
$$$$

  -ISIS-  09230315082D

 30 32  0  0  0  0  0  0  0  0999 V2000
   -0.9348   -0.4000    0.0000 C   0  0  0  0  0  0  0  0  0  0  0  0
   -0.9359   -1.2274    0.0000 C   0  0  0  0  0  0  0  0  0  0  0  0
   -0.2211   -1.6402    0.0000 C   0  0  0  0  0  0  0  0  0  0  0  0
    0.4953   -1.2269    0.0000 C   0  0  0  0  0  0  0  0  0  0  0  0
    0.4925   -0.3964    0.0000 C   0  0  0  0  0  0  0  0  0  0  0  0
   -0.2229    0.0128    0.0000 C   0  0  0  0  0  0  0  0  0  0  0  0
    1.0750   -1.8084    0.0000 C   0  0  0  0  0  0  0  0  0  0  0  0
    1.0708   -2.6334    0.0000 C   0  0  0  0  0  0  0  0  0  0  0  0
    1.7875   -1.3917    0.0000 C   0  0  0  0  0  0  0  0  0  0  0  0
    2.5042   -1.8034    0.0000 C   0  0  0  0  0  0  0  0  0  0  0  0
    3.2162   -1.3874    0.0000 C   0  0  0  0  0  0  0  0  0  0  0  0
    3.2120   -0.5611    0.0000 C   0  0  0  0  0  0  0  0  0  0  0  0
    2.4899   -0.1526    0.0000 C   0  0  0  0  0  0  0  0  0  0  0  0
    1.7808   -0.5709    0.0000 C   0  0  0  0  0  0  0  0  0  0  0  0
    4.0042   -0.3417    0.0000 N   0  0  0  0  0  0  0  0  0  0  0  0
    4.0083   -1.5959    0.0000 N   0  0  3  0  0  0  0  0  0  0  0  0
    4.4125   -1.0542    0.0000 C   0  0  0  0  0  0  0  0  0  0  0  0
    5.2375   -1.0542    0.0000 N   0  0  0  0  0  0  0  0  0  0  0  0
    0.4792   -3.2167    0.0000 C   0  0  0  0  0  0  0  0  0  0  0  0
    4.2167   -2.3917    0.0000 S   0  0  3  0  0  0  0  0  0  0  0  0
    5.0125   -2.1750    0.0000 O   0  0  0  0  0  0  0  0  0  0  0  0
    3.4167   -2.6042    0.0000 O   0  0  0  0  0  0  0  0  0  0  0  0
    4.4292   -3.1875    0.0000 C   0  0  3  0  0  0  0  0  0  0  0  0
    5.2250   -3.4000    0.0000 C   0  0  0  0  0  0  0  0  0  0  0  0
    4.0125   -3.9000    0.0000 C   0  0  0  0  0  0  0  0  0  0  0  0
   -0.3458   -3.2125    0.0000 O   0  0  0  0  0  0  0  0  0  0  0  0
    0.8875   -3.9292    0.0000 N   0  0  0  0  0  0  0  0  0  0  0  0
    0.4708   -4.6417    0.0000 C   0  0  0  0  0  0  0  0  0  0  0  0
    1.2042    0.0208    0.0000 F   0  0  0  0  0  0  0  0  0  0  0  0
   -0.0125    0.8167    0.0000 F   0  0  0  0  0  0  0  0  0  0  0  0
 14  9  1  0  0  0  0
  4  7  1  0  0  0  0
 12 15  1  0  0  0  0
  3  4  2  0  0  0  0
 11 16  1  0  0  0  0
  7  8  2  0  0  0  0
 15 17  2  0  0  0  0
 17 16  1  0  0  0  0
 17 18  1  0  0  0  0
  8 19  1  0  0  0  0
  7  9  1  0  0  0  0
 16 20  1  0  0  0  0
  4  5  1  0  0  0  0
 20 21  2  0  0  0  0
  9 10  2  0  0  0  0
 20 22  2  0  0  0  0
  2  3  1  0  0  0  0
 20 23  1  0  0  0  0
 10 11  1  0  0  0  0
 23 24  1  0  0  0  0
  5  6  2  0  0  0  0
 23 25  1  0  0  0  0
 11 12  2  0  0  0  0
 19 26  2  0  0  0  0
  6  1  1  0  0  0  0
 19 27  1  0  0  0  0
 12 13  1  0  0  0  0
 27 28  1  0  0  0  0
  1  2  2  0  0  0  0
  5 29  1  0  0  0  0
 13 14  2  0  0  0  0
  6 30  1  0  0  0  0
M  END
$$$$

  -ISIS-  09230315092D

 29 31  0  0  0  0  0  0  0  0999 V2000
   -0.9348   -0.4000    0.0000 C   0  0  0  0  0  0  0  0  0  0  0  0
   -0.9359   -1.2274    0.0000 C   0  0  0  0  0  0  0  0  0  0  0  0
   -0.2211   -1.6402    0.0000 C   0  0  0  0  0  0  0  0  0  0  0  0
    0.4953   -1.2269    0.0000 C   0  0  0  0  0  0  0  0  0  0  0  0
    0.4925   -0.3964    0.0000 C   0  0  0  0  0  0  0  0  0  0  0  0
   -0.2229    0.0128    0.0000 C   0  0  0  0  0  0  0  0  0  0  0  0
    1.0750   -1.8084    0.0000 C   0  0  0  0  0  0  0  0  0  0  0  0
    1.0708   -2.6334    0.0000 C   0  0  0  0  0  0  0  0  0  0  0  0
    1.7875   -1.3917    0.0000 C   0  0  0  0  0  0  0  0  0  0  0  0
    2.5042   -1.8034    0.0000 C   0  0  0  0  0  0  0  0  0  0  0  0
    3.2162   -1.3874    0.0000 C   0  0  0  0  0  0  0  0  0  0  0  0
    3.2120   -0.5611    0.0000 C   0  0  0  0  0  0  0  0  0  0  0  0
    2.4899   -0.1526    0.0000 C   0  0  0  0  0  0  0  0  0  0  0  0
    1.7808   -0.5709    0.0000 C   0  0  0  0  0  0  0  0  0  0  0  0
    4.0042   -0.3417    0.0000 N   0  0  0  0  0  0  0  0  0  0  0  0
    4.0083   -1.5959    0.0000 N   0  0  3  0  0  0  0  0  0  0  0  0
    4.4125   -1.0542    0.0000 C   0  0  0  0  0  0  0  0  0  0  0  0
    5.2375   -1.0542    0.0000 N   0  0  0  0  0  0  0  0  0  0  0  0
    0.4792   -3.2167    0.0000 C   0  0  0  0  0  0  0  0  0  0  0  0
    4.2167   -2.3917    0.0000 S   0  0  3  0  0  0  0  0  0  0  0  0
    5.0125   -2.1750    0.0000 O   0  0  0  0  0  0  0  0  0  0  0  0
    3.4167   -2.6042    0.0000 O   0  0  0  0  0  0  0  0  0  0  0  0
    4.4292   -3.1875    0.0000 C   0  0  0  0  0  0  0  0  0  0  0  0
    4.0125   -3.9000    0.0000 C   0  0  0  0  0  0  0  0  0  0  0  0
   -0.3458   -3.2125    0.0000 O   0  0  0  0  0  0  0  0  0  0  0  0
    0.8875   -3.9292    0.0000 N   0  0  0  0  0  0  0  0  0  0  0  0
    0.4708   -4.6417    0.0000 C   0  0  0  0  0  0  0  0  0  0  0  0
   -0.0125    0.8167    0.0000 F   0  0  0  0  0  0  0  0  0  0  0  0
    4.5958   -4.4833    0.0000 C   0  0  0  0  0  0  0  0  0  0  0  0
 13 14  2  0  0  0  0
 14  9  1  0  0  0  0
  4  7  1  0  0  0  0
 12 15  1  0  0  0  0
  3  4  2  0  0  0  0
 11 16  1  0  0  0  0
  7  8  2  0  0  0  0
 15 17  2  0  0  0  0
 17 16  1  0  0  0  0
 17 18  1  0  0  0  0
  8 19  1  0  0  0  0
  7  9  1  0  0  0  0
 16 20  1  0  0  0  0
  4  5  1  0  0  0  0
 20 21  2  0  0  0  0
  9 10  2  0  0  0  0
 20 22  2  0  0  0  0
  2  3  1  0  0  0  0
 20 23  1  0  0  0  0
 10 11  1  0  0  0  0
 23 24  1  0  0  0  0
  5  6  2  0  0  0  0
 19 25  2  0  0  0  0
 11 12  2  0  0  0  0
 19 26  1  0  0  0  0
  6  1  1  0  0  0  0
 26 27  1  0  0  0  0
 12 13  1  0  0  0  0
  6 28  1  0  0  0  0
  1  2  2  0  0  0  0
 24 29  1  0  0  0  0
M  END
$$$$

  -ISIS-  09230315092D

 29 31  0  0  0  0  0  0  0  0999 V2000
   -0.9348   -0.4000    0.0000 C   0  0  0  0  0  0  0  0  0  0  0  0
   -0.9359   -1.2274    0.0000 C   0  0  0  0  0  0  0  0  0  0  0  0
   -0.2211   -1.6402    0.0000 C   0  0  0  0  0  0  0  0  0  0  0  0
    0.4953   -1.2269    0.0000 C   0  0  0  0  0  0  0  0  0  0  0  0
    0.4925   -0.3964    0.0000 C   0  0  0  0  0  0  0  0  0  0  0  0
   -0.2229    0.0128    0.0000 C   0  0  0  0  0  0  0  0  0  0  0  0
    1.0750   -1.8084    0.0000 C   0  0  0  0  0  0  0  0  0  0  0  0
    1.0708   -2.6334    0.0000 C   0  0  0  0  0  0  0  0  0  0  0  0
    1.7875   -1.3917    0.0000 C   0  0  0  0  0  0  0  0  0  0  0  0
    2.5042   -1.8034    0.0000 C   0  0  0  0  0  0  0  0  0  0  0  0
    3.2162   -1.3874    0.0000 C   0  0  0  0  0  0  0  0  0  0  0  0
    3.2120   -0.5611    0.0000 C   0  0  0  0  0  0  0  0  0  0  0  0
    2.4899   -0.1526    0.0000 C   0  0  0  0  0  0  0  0  0  0  0  0
    1.7808   -0.5709    0.0000 C   0  0  0  0  0  0  0  0  0  0  0  0
    4.0042   -0.3417    0.0000 N   0  0  0  0  0  0  0  0  0  0  0  0
    4.0083   -1.5959    0.0000 N   0  0  3  0  0  0  0  0  0  0  0  0
    4.4125   -1.0542    0.0000 C   0  0  0  0  0  0  0  0  0  0  0  0
    5.2375   -1.0542    0.0000 N   0  0  0  0  0  0  0  0  0  0  0  0
    0.4792   -3.2167    0.0000 C   0  0  0  0  0  0  0  0  0  0  0  0
    4.2167   -2.3917    0.0000 S   0  0  3  0  0  0  0  0  0  0  0  0
    5.0125   -2.1750    0.0000 O   0  0  0  0  0  0  0  0  0  0  0  0
    3.4167   -2.6042    0.0000 O   0  0  0  0  0  0  0  0  0  0  0  0
    4.4292   -3.1875    0.0000 C   0  0  3  0  0  0  0  0  0  0  0  0
    4.0125   -3.9000    0.0000 C   0  0  0  0  0  0  0  0  0  0  0  0
   -0.3458   -3.2125    0.0000 O   0  0  0  0  0  0  0  0  0  0  0  0
    0.8875   -3.9292    0.0000 N   0  0  0  0  0  0  0  0  0  0  0  0
   -0.0125    0.8167    0.0000 F   0  0  0  0  0  0  0  0  0  0  0  0
    1.0750    0.1917    0.0000 F   0  0  0  0  0  0  0  0  0  0  0  0
    5.1417   -3.6000    0.0000 C   0  0  0  0  0  0  0  0  0  0  0  0
 13 14  2  0  0  0  0
 14  9  1  0  0  0  0
  4  7  1  0  0  0  0
 12 15  1  0  0  0  0
  3  4  2  0  0  0  0
 11 16  1  0  0  0  0
  7  8  2  0  0  0  0
 15 17  2  0  0  0  0
 17 16  1  0  0  0  0
 17 18  1  0  0  0  0
  8 19  1  0  0  0  0
  7  9  1  0  0  0  0
 16 20  1  0  0  0  0
  4  5  1  0  0  0  0
 20 21  2  0  0  0  0
  9 10  2  0  0  0  0
 20 22  2  0  0  0  0
  2  3  1  0  0  0  0
 20 23  1  0  0  0  0
 10 11  1  0  0  0  0
 23 24  1  0  0  0  0
  5  6  2  0  0  0  0
 19 25  2  0  0  0  0
 11 12  2  0  0  0  0
 19 26  1  0  0  0  0
  6  1  1  0  0  0  0
  6 27  1  0  0  0  0
 12 13  1  0  0  0  0
  5 28  1  0  0  0  0
  1  2  2  0  0  0  0
 23 29  1  0  0  0  0
M  END
$$$$

  -ISIS-  09230315122D

 32 35  0  0  0  0  0  0  0  0999 V2000
   -0.9359   -1.2274    0.0000 C   0  0  0  0  0  0  0  0  0  0  0  0
   -0.2211   -1.6402    0.0000 C   0  0  0  0  0  0  0  0  0  0  0  0
    0.4953   -1.2269    0.0000 C   0  0  0  0  0  0  0  0  0  0  0  0
    0.4925   -0.3964    0.0000 C   0  0  0  0  0  0  0  0  0  0  0  0
    1.0750   -1.8084    0.0000 C   0  0  0  0  0  0  0  0  0  0  0  0
    1.0708   -2.6334    0.0000 C   0  0  0  0  0  0  0  0  0  0  0  0
    1.7875   -1.3917    0.0000 C   0  0  0  0  0  0  0  0  0  0  0  0
    2.5042   -1.8034    0.0000 C   0  0  0  0  0  0  0  0  0  0  0  0
    3.2162   -1.3874    0.0000 C   0  0  0  0  0  0  0  0  0  0  0  0
    3.2120   -0.5611    0.0000 C   0  0  0  0  0  0  0  0  0  0  0  0
    2.4899   -0.1526    0.0000 C   0  0  0  0  0  0  0  0  0  0  0  0
    1.7808   -0.5709    0.0000 C   0  0  0  0  0  0  0  0  0  0  0  0
    4.0042   -0.3417    0.0000 N   0  0  0  0  0  0  0  0  0  0  0  0
    4.0083   -1.5959    0.0000 N   0  0  3  0  0  0  0  0  0  0  0  0
    4.4125   -1.0542    0.0000 C   0  0  0  0  0  0  0  0  0  0  0  0
    5.2375   -1.0542    0.0000 N   0  0  0  0  0  0  0  0  0  0  0  0
    0.4792   -3.2167    0.0000 C   0  0  0  0  0  0  0  0  0  0  0  0
    4.2167   -2.3917    0.0000 S   0  0  3  0  0  0  0  0  0  0  0  0
    5.0125   -2.1750    0.0000 O   0  0  0  0  0  0  0  0  0  0  0  0
    3.4167   -2.6042    0.0000 O   0  0  0  0  0  0  0  0  0  0  0  0
    4.4292   -3.1875    0.0000 C   0  0  3  0  0  0  0  0  0  0  0  0
    4.0125   -3.9000    0.0000 C   0  0  0  0  0  0  0  0  0  0  0  0
   -0.3458   -3.2125    0.0000 O   0  0  0  0  0  0  0  0  0  0  0  0
    0.8875   -3.9292    0.0000 N   0  0  0  0  0  0  0  0  0  0  0  0
    5.1417   -3.6000    0.0000 C   0  0  0  0  0  0  0  0  0  0  0  0
    0.4708   -4.6417    0.0000 C   0  0  0  0  0  0  0  0  0  0  0  0
   -0.9348   -0.4000    0.0000 C   0  0  0  0  0  0  0  0  0  0  0  0
   -0.2239    0.0116    0.0000 C   0  0  0  0  0  0  0  0  0  0  0  0
   -0.2259    0.8312    0.0000 C   0  0  0  0  0  0  0  0  0  0  0  0
   -0.9381    1.2401    0.0000 C   0  0  0  0  0  0  0  0  0  0  0  0
   -1.6497    0.8235    0.0000 C   0  0  0  0  0  0  0  0  0  0  0  0
   -1.6441    0.0053    0.0000 C   0  0  0  0  0  0  0  0  0  0  0  0
  5  6  2  0  0  0  0
 13 15  2  0  0  0  0
 15 14  1  0  0  0  0
 15 16  1  0  0  0  0
  6 17  1  0  0  0  0
  5  7  1  0  0  0  0
 14 18  1  0  0  0  0
  3  4  1  0  0  0  0
 18 19  2  0  0  0  0
  7  8  2  0  0  0  0
 18 20  2  0  0  0  0
  1  2  1  0  0  0  0
 18 21  1  0  0  0  0
  8  9  1  0  0  0  0
 21 22  1  0  0  0  0
  4 28  2  0  0  0  0
 17 23  2  0  0  0  0
  9 10  2  0  0  0  0
 17 24  1  0  0  0  0
 10 11  1  0  0  0  0
 21 25  1  0  0  0  0
 27  1  2  0  0  0  0
 24 26  1  0  0  0  0
 11 12  2  0  0  0  0
 12  7  1  0  0  0  0
 27 28  1  0  0  0  0
  3  5  1  0  0  0  0
 28 29  1  0  0  0  0
 10 13  1  0  0  0  0
 29 30  2  0  0  0  0
  2  3  2  0  0  0  0
 30 31  1  0  0  0  0
  9 14  1  0  0  0  0
 31 32  2  0  0  0  0
 32 27  1  0  0  0  0
M  END
$$$$

  -ISIS-  09230315132D

 31 33  0  0  0  0  0  0  0  0999 V2000
   -0.9359   -1.2274    0.0000 C   0  0  0  0  0  0  0  0  0  0  0  0
   -0.2211   -1.6402    0.0000 C   0  0  0  0  0  0  0  0  0  0  0  0
    0.4953   -1.2269    0.0000 C   0  0  0  0  0  0  0  0  0  0  0  0
    0.4925   -0.3964    0.0000 C   0  0  0  0  0  0  0  0  0  0  0  0
    1.0750   -1.8084    0.0000 C   0  0  0  0  0  0  0  0  0  0  0  0
    1.0708   -2.6334    0.0000 C   0  0  0  0  0  0  0  0  0  0  0  0
    1.7875   -1.3917    0.0000 C   0  0  0  0  0  0  0  0  0  0  0  0
    2.5042   -1.8034    0.0000 C   0  0  0  0  0  0  0  0  0  0  0  0
    3.2162   -1.3874    0.0000 C   0  0  0  0  0  0  0  0  0  0  0  0
    3.2120   -0.5611    0.0000 C   0  0  0  0  0  0  0  0  0  0  0  0
    2.4899   -0.1526    0.0000 C   0  0  0  0  0  0  0  0  0  0  0  0
    1.7808   -0.5709    0.0000 C   0  0  0  0  0  0  0  0  0  0  0  0
    4.0042   -0.3417    0.0000 N   0  0  0  0  0  0  0  0  0  0  0  0
    4.0083   -1.5959    0.0000 N   0  0  3  0  0  0  0  0  0  0  0  0
    4.4125   -1.0542    0.0000 C   0  0  0  0  0  0  0  0  0  0  0  0
    5.2375   -1.0542    0.0000 N   0  0  0  0  0  0  0  0  0  0  0  0
    0.4792   -3.2167    0.0000 C   0  0  0  0  0  0  0  0  0  0  0  0
    4.2167   -2.3917    0.0000 S   0  0  3  0  0  0  0  0  0  0  0  0
    5.0125   -2.1750    0.0000 O   0  0  0  0  0  0  0  0  0  0  0  0
    3.4167   -2.6042    0.0000 O   0  0  0  0  0  0  0  0  0  0  0  0
    4.4292   -3.1875    0.0000 C   0  0  3  0  0  0  0  0  0  0  0  0
    4.0125   -3.9000    0.0000 C   0  0  0  0  0  0  0  0  0  0  0  0
   -0.3458   -3.2125    0.0000 O   0  0  0  0  0  0  0  0  0  0  0  0
    0.8875   -3.9292    0.0000 N   0  0  0  0  0  0  0  0  0  0  0  0
    5.1417   -3.6000    0.0000 C   0  0  0  0  0  0  0  0  0  0  0  0
    0.4708   -4.6417    0.0000 C   0  0  0  0  0  0  0  0  0  0  0  0
   -0.9348   -0.4000    0.0000 C   0  0  0  0  0  0  0  0  0  0  0  0
   -0.2239    0.0116    0.0000 C   0  0  0  0  0  0  0  0  0  0  0  0
    1.0750    0.1917    0.0000 F   0  0  0  0  0  0  0  0  0  0  0  0
   -0.2292    0.8375    0.0000 F   0  0  0  0  0  0  0  0  0  0  0  0
   -1.5250    0.1917    0.0000 F   0  0  0  0  0  0  0  0  0  0  0  0
  9 14  1  0  0  0  0
  5  6  2  0  0  0  0
 13 15  2  0  0  0  0
 15 14  1  0  0  0  0
 15 16  1  0  0  0  0
  6 17  1  0  0  0  0
  5  7  1  0  0  0  0
 14 18  1  0  0  0  0
  3  4  1  0  0  0  0
 18 19  2  0  0  0  0
  7  8  2  0  0  0  0
 18 20  2  0  0  0  0
  1  2  1  0  0  0  0
 18 21  1  0  0  0  0
  8  9  1  0  0  0  0
 21 22  1  0  0  0  0
  4 28  2  0  0  0  0
 17 23  2  0  0  0  0
  9 10  2  0  0  0  0
 17 24  1  0  0  0  0
 10 11  1  0  0  0  0
 21 25  1  0  0  0  0
 27  1  2  0  0  0  0
 24 26  1  0  0  0  0
 11 12  2  0  0  0  0
 12  7  1  0  0  0  0
 27 28  1  0  0  0  0
  3  5  1  0  0  0  0
  4 29  1  0  0  0  0
 10 13  1  0  0  0  0
 28 30  1  0  0  0  0
  2  3  2  0  0  0  0
 27 31  1  0  0  0  0
M  END
$$$$

  -ISIS-  09230315132D

 30 32  0  0  0  0  0  0  0  0999 V2000
   -0.9359   -1.2274    0.0000 C   0  0  0  0  0  0  0  0  0  0  0  0
   -0.2211   -1.6402    0.0000 C   0  0  0  0  0  0  0  0  0  0  0  0
    0.4953   -1.2269    0.0000 C   0  0  0  0  0  0  0  0  0  0  0  0
    0.4925   -0.3964    0.0000 C   0  0  0  0  0  0  0  0  0  0  0  0
    1.0750   -1.8084    0.0000 C   0  0  0  0  0  0  0  0  0  0  0  0
    1.0708   -2.6334    0.0000 C   0  0  0  0  0  0  0  0  0  0  0  0
    1.7875   -1.3917    0.0000 C   0  0  0  0  0  0  0  0  0  0  0  0
    2.5042   -1.8034    0.0000 C   0  0  0  0  0  0  0  0  0  0  0  0
    3.2162   -1.3874    0.0000 C   0  0  0  0  0  0  0  0  0  0  0  0
    3.2120   -0.5611    0.0000 C   0  0  0  0  0  0  0  0  0  0  0  0
    2.4899   -0.1526    0.0000 C   0  0  0  0  0  0  0  0  0  0  0  0
    1.7808   -0.5709    0.0000 C   0  0  0  0  0  0  0  0  0  0  0  0
    4.0042   -0.3417    0.0000 N   0  0  0  0  0  0  0  0  0  0  0  0
    4.0083   -1.5959    0.0000 N   0  0  3  0  0  0  0  0  0  0  0  0
    4.4125   -1.0542    0.0000 C   0  0  0  0  0  0  0  0  0  0  0  0
    5.2375   -1.0542    0.0000 N   0  0  0  0  0  0  0  0  0  0  0  0
    0.4792   -3.2167    0.0000 C   0  0  0  0  0  0  0  0  0  0  0  0
    4.2167   -2.3917    0.0000 S   0  0  3  0  0  0  0  0  0  0  0  0
    5.0125   -2.1750    0.0000 O   0  0  0  0  0  0  0  0  0  0  0  0
    3.4167   -2.6042    0.0000 O   0  0  0  0  0  0  0  0  0  0  0  0
    4.4292   -3.1875    0.0000 C   0  0  3  0  0  0  0  0  0  0  0  0
    4.0125   -3.9000    0.0000 C   0  0  0  0  0  0  0  0  0  0  0  0
   -0.3458   -3.2125    0.0000 O   0  0  0  0  0  0  0  0  0  0  0  0
    0.8875   -3.9292    0.0000 N   0  0  0  0  0  0  0  0  0  0  0  0
    5.1417   -3.6000    0.0000 C   0  0  0  0  0  0  0  0  0  0  0  0
   -0.9348   -0.4000    0.0000 C   0  0  0  0  0  0  0  0  0  0  0  0
   -0.2239    0.0116    0.0000 C   0  0  0  0  0  0  0  0  0  0  0  0
   -0.2292    0.8375    0.0000 F   0  0  0  0  0  0  0  0  0  0  0  0
   -1.6542    0.0167    0.0000 O   0  0  0  0  0  0  0  0  0  0  0  0
   -2.4542   -0.1958    0.0000 C   0  0  0  0  0  0  0  0  0  0  0  0
  2  3  2  0  0  0  0
  9 14  1  0  0  0  0
  5  6  2  0  0  0  0
 13 15  2  0  0  0  0
 15 14  1  0  0  0  0
 15 16  1  0  0  0  0
  6 17  1  0  0  0  0
  5  7  1  0  0  0  0
 14 18  1  0  0  0  0
  3  4  1  0  0  0  0
 18 19  2  0  0  0  0
  7  8  2  0  0  0  0
 18 20  2  0  0  0  0
  1  2  1  0  0  0  0
 18 21  1  0  0  0  0
  8  9  1  0  0  0  0
 21 22  1  0  0  0  0
  4 27  2  0  0  0  0
 17 23  2  0  0  0  0
  9 10  2  0  0  0  0
 17 24  1  0  0  0  0
 10 11  1  0  0  0  0
 21 25  1  0  0  0  0
 26  1  2  0  0  0  0
 11 12  2  0  0  0  0
 26 27  1  0  0  0  0
 12  7  1  0  0  0  0
 27 28  1  0  0  0  0
  3  5  1  0  0  0  0
 26 29  1  0  0  0  0
 10 13  1  0  0  0  0
 29 30  1  0  0  0  0
M  END
$$$$

  -ISIS-  09230315142D

 29 31  0  0  0  0  0  0  0  0999 V2000
   -0.9359   -1.2274    0.0000 C   0  0  0  0  0  0  0  0  0  0  0  0
   -0.2211   -1.6402    0.0000 C   0  0  0  0  0  0  0  0  0  0  0  0
    0.4953   -1.2269    0.0000 C   0  0  0  0  0  0  0  0  0  0  0  0
    0.4925   -0.3964    0.0000 C   0  0  0  0  0  0  0  0  0  0  0  0
    1.0750   -1.8084    0.0000 C   0  0  0  0  0  0  0  0  0  0  0  0
    1.0708   -2.6334    0.0000 C   0  0  0  0  0  0  0  0  0  0  0  0
    1.7875   -1.3917    0.0000 C   0  0  0  0  0  0  0  0  0  0  0  0
    2.5042   -1.8034    0.0000 C   0  0  0  0  0  0  0  0  0  0  0  0
    3.2162   -1.3874    0.0000 C   0  0  0  0  0  0  0  0  0  0  0  0
    3.2120   -0.5611    0.0000 C   0  0  0  0  0  0  0  0  0  0  0  0
    2.4899   -0.1526    0.0000 C   0  0  0  0  0  0  0  0  0  0  0  0
    1.7808   -0.5709    0.0000 C   0  0  0  0  0  0  0  0  0  0  0  0
    4.0042   -0.3417    0.0000 N   0  0  0  0  0  0  0  0  0  0  0  0
    4.0083   -1.5959    0.0000 N   0  0  3  0  0  0  0  0  0  0  0  0
    4.4125   -1.0542    0.0000 C   0  0  0  0  0  0  0  0  0  0  0  0
    5.2375   -1.0542    0.0000 N   0  0  0  0  0  0  0  0  0  0  0  0
    0.4792   -3.2167    0.0000 C   0  0  0  0  0  0  0  0  0  0  0  0
    4.2167   -2.3917    0.0000 S   0  0  3  0  0  0  0  0  0  0  0  0
    5.0125   -2.1750    0.0000 O   0  0  0  0  0  0  0  0  0  0  0  0
    3.4167   -2.6042    0.0000 O   0  0  0  0  0  0  0  0  0  0  0  0
    4.4292   -3.1875    0.0000 C   0  0  3  0  0  0  0  0  0  0  0  0
    4.0125   -3.9000    0.0000 C   0  0  0  0  0  0  0  0  0  0  0  0
   -0.3458   -3.2125    0.0000 O   0  0  0  0  0  0  0  0  0  0  0  0
    0.8875   -3.9292    0.0000 N   0  0  0  0  0  0  0  0  0  0  0  0
    5.1417   -3.6000    0.0000 C   0  0  0  0  0  0  0  0  0  0  0  0
   -0.9348   -0.4000    0.0000 C   0  0  0  0  0  0  0  0  0  0  0  0
   -0.2239    0.0116    0.0000 C   0  0  0  0  0  0  0  0  0  0  0  0
   -0.2292    0.8375    0.0000 F   0  0  0  0  0  0  0  0  0  0  0  0
   -1.6542   -1.6333    0.0000 F   0  0  0  0  0  0  0  0  0  0  0  0
 10 13  1  0  0  0  0
  2  3  2  0  0  0  0
  9 14  1  0  0  0  0
  5  6  2  0  0  0  0
 13 15  2  0  0  0  0
 15 14  1  0  0  0  0
 15 16  1  0  0  0  0
  6 17  1  0  0  0  0
  5  7  1  0  0  0  0
 14 18  1  0  0  0  0
  3  4  1  0  0  0  0
 18 19  2  0  0  0  0
  7  8  2  0  0  0  0
 18 20  2  0  0  0  0
  1  2  1  0  0  0  0
 18 21  1  0  0  0  0
  8  9  1  0  0  0  0
 21 22  1  0  0  0  0
  4 27  2  0  0  0  0
 17 23  2  0  0  0  0
  9 10  2  0  0  0  0
 17 24  1  0  0  0  0
 10 11  1  0  0  0  0
 21 25  1  0  0  0  0
 26  1  2  0  0  0  0
 11 12  2  0  0  0  0
 26 27  1  0  0  0  0
 12  7  1  0  0  0  0
 27 28  1  0  0  0  0
  3  5  1  0  0  0  0
  1 29  1  0  0  0  0
M  END
$$$$

  -ISIS-  09230315142D

 32 34  0  0  0  0  0  0  0  0999 V2000
   -0.9359   -1.2274    0.0000 C   0  0  0  0  0  0  0  0  0  0  0  0
   -0.2211   -1.6402    0.0000 C   0  0  0  0  0  0  0  0  0  0  0  0
    0.4953   -1.2269    0.0000 C   0  0  0  0  0  0  0  0  0  0  0  0
    0.4925   -0.3964    0.0000 C   0  0  0  0  0  0  0  0  0  0  0  0
    1.0750   -1.8084    0.0000 C   0  0  0  0  0  0  0  0  0  0  0  0
    1.0708   -2.6334    0.0000 C   0  0  0  0  0  0  0  0  0  0  0  0
    1.7875   -1.3917    0.0000 C   0  0  0  0  0  0  0  0  0  0  0  0
    2.5042   -1.8034    0.0000 C   0  0  0  0  0  0  0  0  0  0  0  0
    3.2162   -1.3874    0.0000 C   0  0  0  0  0  0  0  0  0  0  0  0
    3.2120   -0.5611    0.0000 C   0  0  0  0  0  0  0  0  0  0  0  0
    2.4899   -0.1526    0.0000 C   0  0  0  0  0  0  0  0  0  0  0  0
    1.7808   -0.5709    0.0000 C   0  0  0  0  0  0  0  0  0  0  0  0
    4.0042   -0.3417    0.0000 N   0  0  0  0  0  0  0  0  0  0  0  0
    4.0083   -1.5959    0.0000 N   0  0  3  0  0  0  0  0  0  0  0  0
    4.4125   -1.0542    0.0000 C   0  0  0  0  0  0  0  0  0  0  0  0
    5.2375   -1.0542    0.0000 N   0  0  0  0  0  0  0  0  0  0  0  0
    0.4792   -3.2167    0.0000 C   0  0  0  0  0  0  0  0  0  0  0  0
    4.2167   -2.3917    0.0000 S   0  0  3  0  0  0  0  0  0  0  0  0
    5.0125   -2.1750    0.0000 O   0  0  0  0  0  0  0  0  0  0  0  0
    3.4167   -2.6042    0.0000 O   0  0  0  0  0  0  0  0  0  0  0  0
    4.4292   -3.1875    0.0000 C   0  0  3  0  0  0  0  0  0  0  0  0
    4.0125   -3.9000    0.0000 C   0  0  0  0  0  0  0  0  0  0  0  0
   -0.3458   -3.2125    0.0000 O   0  0  0  0  0  0  0  0  0  0  0  0
    0.8875   -3.9292    0.0000 N   0  0  0  0  0  0  0  0  0  0  0  0
    5.1417   -3.6000    0.0000 C   0  0  0  0  0  0  0  0  0  0  0  0
   -0.9348   -0.4000    0.0000 C   0  0  0  0  0  0  0  0  0  0  0  0
   -0.2239    0.0116    0.0000 C   0  0  0  0  0  0  0  0  0  0  0  0
   -0.2292    0.8375    0.0000 F   0  0  0  0  0  0  0  0  0  0  0  0
   -1.6542   -1.6333    0.0000 F   0  0  0  0  0  0  0  0  0  0  0  0
    1.2042    0.0208    0.0000 F   0  0  0  0  0  0  0  0  0  0  0  0
   -1.6542    0.0167    0.0000 F   0  0  0  0  0  0  0  0  0  0  0  0
   -0.4417   -2.4333    0.0000 F   0  0  0  0  0  0  0  0  0  0  0  0
  5  6  2  0  0  0  0
 13 15  2  0  0  0  0
 15 14  1  0  0  0  0
 15 16  1  0  0  0  0
  6 17  1  0  0  0  0
  5  7  1  0  0  0  0
 14 18  1  0  0  0  0
  3  4  1  0  0  0  0
 18 19  2  0  0  0  0
  7  8  2  0  0  0  0
 18 20  2  0  0  0  0
  1  2  1  0  0  0  0
 18 21  1  0  0  0  0
  8  9  1  0  0  0  0
 21 22  1  0  0  0  0
  4 27  2  0  0  0  0
 17 23  2  0  0  0  0
  9 10  2  0  0  0  0
 17 24  1  0  0  0  0
 10 11  1  0  0  0  0
 21 25  1  0  0  0  0
 26  1  2  0  0  0  0
 11 12  2  0  0  0  0
 26 27  1  0  0  0  0
 12  7  1  0  0  0  0
 27 28  1  0  0  0  0
  3  5  1  0  0  0  0
  1 29  1  0  0  0  0
 10 13  1  0  0  0  0
  4 30  1  0  0  0  0
  2  3  2  0  0  0  0
 26 31  1  0  0  0  0
  9 14  1  0  0  0  0
  2 32  1  0  0  0  0
M  END
$$$$

  -ISIS-  09230315142D

 28 30  0  0  0  0  0  0  0  0999 V2000
   -0.9359   -1.2274    0.0000 C   0  0  0  0  0  0  0  0  0  0  0  0
   -0.2211   -1.6402    0.0000 C   0  0  0  0  0  0  0  0  0  0  0  0
    0.4953   -1.2269    0.0000 C   0  0  0  0  0  0  0  0  0  0  0  0
    0.4925   -0.3964    0.0000 C   0  0  0  0  0  0  0  0  0  0  0  0
    1.0750   -1.8084    0.0000 C   0  0  0  0  0  0  0  0  0  0  0  0
    1.0708   -2.6334    0.0000 C   0  0  0  0  0  0  0  0  0  0  0  0
    1.7875   -1.3917    0.0000 C   0  0  0  0  0  0  0  0  0  0  0  0
    2.5042   -1.8034    0.0000 C   0  0  0  0  0  0  0  0  0  0  0  0
    3.2162   -1.3874    0.0000 C   0  0  0  0  0  0  0  0  0  0  0  0
    3.2120   -0.5611    0.0000 C   0  0  0  0  0  0  0  0  0  0  0  0
    2.4899   -0.1526    0.0000 C   0  0  0  0  0  0  0  0  0  0  0  0
    1.7808   -0.5709    0.0000 C   0  0  0  0  0  0  0  0  0  0  0  0
    4.0042   -0.3417    0.0000 N   0  0  0  0  0  0  0  0  0  0  0  0
    4.0083   -1.5959    0.0000 N   0  0  3  0  0  0  0  0  0  0  0  0
    4.4125   -1.0542    0.0000 C   0  0  0  0  0  0  0  0  0  0  0  0
    5.2375   -1.0542    0.0000 N   0  0  0  0  0  0  0  0  0  0  0  0
    0.4792   -3.2167    0.0000 C   0  0  0  0  0  0  0  0  0  0  0  0
    4.2167   -2.3917    0.0000 S   0  0  3  0  0  0  0  0  0  0  0  0
    5.0125   -2.1750    0.0000 O   0  0  0  0  0  0  0  0  0  0  0  0
    3.4167   -2.6042    0.0000 O   0  0  0  0  0  0  0  0  0  0  0  0
    4.4292   -3.1875    0.0000 C   0  0  3  0  0  0  0  0  0  0  0  0
    4.0125   -3.9000    0.0000 C   0  0  0  0  0  0  0  0  0  0  0  0
   -0.3458   -3.2125    0.0000 O   0  0  0  0  0  0  0  0  0  0  0  0
    0.8875   -3.9292    0.0000 N   0  0  0  0  0  0  0  0  0  0  0  0
    5.1417   -3.6000    0.0000 C   0  0  0  0  0  0  0  0  0  0  0  0
   -0.9348   -0.4000    0.0000 C   0  0  0  0  0  0  0  0  0  0  0  0
   -0.2239    0.0116    0.0000 C   0  0  0  0  0  0  0  0  0  0  0  0
   -0.2292    0.8375    0.0000 F   0  0  0  0  0  0  0  0  0  0  0  0
  3  5  1  0  0  0  0
 10 13  1  0  0  0  0
  2  3  2  0  0  0  0
  9 14  1  0  0  0  0
  5  6  2  0  0  0  0
 13 15  2  0  0  0  0
 15 14  1  0  0  0  0
 15 16  1  0  0  0  0
  6 17  1  0  0  0  0
  5  7  1  0  0  0  0
 14 18  1  0  0  0  0
  3  4  1  0  0  0  0
 18 19  2  0  0  0  0
  7  8  2  0  0  0  0
 18 20  2  0  0  0  0
  1  2  1  0  0  0  0
 18 21  1  0  0  0  0
  8  9  1  0  0  0  0
 21 22  1  0  0  0  0
  4 27  2  0  0  0  0
 17 23  2  0  0  0  0
  9 10  2  0  0  0  0
 17 24  1  0  0  0  0
 10 11  1  0  0  0  0
 21 25  1  0  0  0  0
 26  1  2  0  0  0  0
 11 12  2  0  0  0  0
 26 27  1  0  0  0  0
 12  7  1  0  0  0  0
 27 28  1  0  0  0  0
M  END
$$$$

  -ISIS-  09230315152D

 30 32  0  0  0  0  0  0  0  0999 V2000
   -0.9359   -1.2274    0.0000 C   0  0  0  0  0  0  0  0  0  0  0  0
   -0.2211   -1.6402    0.0000 C   0  0  0  0  0  0  0  0  0  0  0  0
    0.4953   -1.2269    0.0000 C   0  0  0  0  0  0  0  0  0  0  0  0
    0.4925   -0.3964    0.0000 C   0  0  0  0  0  0  0  0  0  0  0  0
    1.0750   -1.8084    0.0000 C   0  0  0  0  0  0  0  0  0  0  0  0
    1.0708   -2.6334    0.0000 C   0  0  0  0  0  0  0  0  0  0  0  0
    1.7875   -1.3917    0.0000 C   0  0  0  0  0  0  0  0  0  0  0  0
    2.5042   -1.8034    0.0000 C   0  0  0  0  0  0  0  0  0  0  0  0
    3.2162   -1.3874    0.0000 C   0  0  0  0  0  0  0  0  0  0  0  0
    3.2120   -0.5611    0.0000 C   0  0  0  0  0  0  0  0  0  0  0  0
    2.4899   -0.1526    0.0000 C   0  0  0  0  0  0  0  0  0  0  0  0
    1.7808   -0.5709    0.0000 C   0  0  0  0  0  0  0  0  0  0  0  0
    4.0042   -0.3417    0.0000 N   0  0  0  0  0  0  0  0  0  0  0  0
    4.0083   -1.5959    0.0000 N   0  0  3  0  0  0  0  0  0  0  0  0
    4.4125   -1.0542    0.0000 C   0  0  0  0  0  0  0  0  0  0  0  0
    5.2375   -1.0542    0.0000 N   0  0  0  0  0  0  0  0  0  0  0  0
    0.4792   -3.2167    0.0000 C   0  0  0  0  0  0  0  0  0  0  0  0
    4.2167   -2.3917    0.0000 S   0  0  3  0  0  0  0  0  0  0  0  0
    5.0125   -2.1750    0.0000 O   0  0  0  0  0  0  0  0  0  0  0  0
    3.4167   -2.6042    0.0000 O   0  0  0  0  0  0  0  0  0  0  0  0
    4.4292   -3.1875    0.0000 C   0  0  3  0  0  0  0  0  0  0  0  0
    4.0125   -3.9000    0.0000 C   0  0  0  0  0  0  0  0  0  0  0  0
   -0.3458   -3.2125    0.0000 O   0  0  0  0  0  0  0  0  0  0  0  0
    0.8875   -3.9292    0.0000 N   0  0  0  0  0  0  0  0  0  0  0  0
    5.1417   -3.6000    0.0000 C   0  0  0  0  0  0  0  0  0  0  0  0
   -0.9348   -0.4000    0.0000 C   0  0  0  0  0  0  0  0  0  0  0  0
   -0.2239    0.0116    0.0000 C   0  0  0  0  0  0  0  0  0  0  0  0
   -0.2292    0.8375    0.0000 F   0  0  0  0  0  0  0  0  0  0  0  0
   -1.5250    0.1917    0.0000 F   0  0  0  0  0  0  0  0  0  0  0  0
   -1.5250   -1.8083    0.0000 F   0  0  0  0  0  0  0  0  0  0  0  0
  2  3  2  0  0  0  0
  9 14  1  0  0  0  0
  5  6  2  0  0  0  0
 13 15  2  0  0  0  0
 15 14  1  0  0  0  0
 15 16  1  0  0  0  0
  6 17  1  0  0  0  0
  5  7  1  0  0  0  0
 14 18  1  0  0  0  0
  3  4  1  0  0  0  0
 18 19  2  0  0  0  0
  7  8  2  0  0  0  0
 18 20  2  0  0  0  0
  1  2  1  0  0  0  0
 18 21  1  0  0  0  0
  8  9  1  0  0  0  0
 21 22  1  0  0  0  0
  4 27  2  0  0  0  0
 17 23  2  0  0  0  0
  9 10  2  0  0  0  0
 17 24  1  0  0  0  0
 10 11  1  0  0  0  0
 21 25  1  0  0  0  0
 26  1  2  0  0  0  0
 11 12  2  0  0  0  0
 26 27  1  0  0  0  0
 12  7  1  0  0  0  0
 27 28  1  0  0  0  0
  3  5  1  0  0  0  0
 26 29  1  0  0  0  0
 10 13  1  0  0  0  0
  1 30  1  0  0  0  0
M  END
$$$$

  -ISIS-  09230315152D

 29 31  0  0  0  0  0  0  0  0999 V2000
   -0.9359   -1.2274    0.0000 C   0  0  0  0  0  0  0  0  0  0  0  0
   -0.2211   -1.6402    0.0000 C   0  0  0  0  0  0  0  0  0  0  0  0
    0.4953   -1.2269    0.0000 C   0  0  0  0  0  0  0  0  0  0  0  0
    0.4925   -0.3964    0.0000 C   0  0  0  0  0  0  0  0  0  0  0  0
    1.0750   -1.8084    0.0000 C   0  0  0  0  0  0  0  0  0  0  0  0
    1.0708   -2.6334    0.0000 C   0  0  0  0  0  0  0  0  0  0  0  0
    1.7875   -1.3917    0.0000 C   0  0  0  0  0  0  0  0  0  0  0  0
    2.5042   -1.8034    0.0000 C   0  0  0  0  0  0  0  0  0  0  0  0
    3.2162   -1.3874    0.0000 C   0  0  0  0  0  0  0  0  0  0  0  0
    3.2120   -0.5611    0.0000 C   0  0  0  0  0  0  0  0  0  0  0  0
    2.4899   -0.1526    0.0000 C   0  0  0  0  0  0  0  0  0  0  0  0
    1.7808   -0.5709    0.0000 C   0  0  0  0  0  0  0  0  0  0  0  0
    4.0042   -0.3417    0.0000 N   0  0  0  0  0  0  0  0  0  0  0  0
    4.0083   -1.5959    0.0000 N   0  0  3  0  0  0  0  0  0  0  0  0
    4.4125   -1.0542    0.0000 C   0  0  0  0  0  0  0  0  0  0  0  0
    5.2375   -1.0542    0.0000 N   0  0  0  0  0  0  0  0  0  0  0  0
    0.4792   -3.2167    0.0000 C   0  0  0  0  0  0  0  0  0  0  0  0
    4.2167   -2.3917    0.0000 S   0  0  3  0  0  0  0  0  0  0  0  0
    5.0125   -2.1750    0.0000 O   0  0  0  0  0  0  0  0  0  0  0  0
    3.4167   -2.6042    0.0000 O   0  0  0  0  0  0  0  0  0  0  0  0
    4.4292   -3.1875    0.0000 C   0  0  3  0  0  0  0  0  0  0  0  0
    4.0125   -3.9000    0.0000 C   0  0  0  0  0  0  0  0  0  0  0  0
   -0.3458   -3.2125    0.0000 O   0  0  0  0  0  0  0  0  0  0  0  0
    0.8875   -3.9292    0.0000 N   0  0  0  0  0  0  0  0  0  0  0  0
    5.1417   -3.6000    0.0000 C   0  0  0  0  0  0  0  0  0  0  0  0
   -0.9348   -0.4000    0.0000 C   0  0  0  0  0  0  0  0  0  0  0  0
   -0.2239    0.0116    0.0000 C   0  0  0  0  0  0  0  0  0  0  0  0
   -1.5250    0.1917    0.0000 F   0  0  0  0  0  0  0  0  0  0  0  0
   -1.5250   -1.8083    0.0000 F   0  0  0  0  0  0  0  0  0  0  0  0
 10 13  1  0  0  0  0
  2  3  2  0  0  0  0
  9 14  1  0  0  0  0
  5  6  2  0  0  0  0
 13 15  2  0  0  0  0
 15 14  1  0  0  0  0
 15 16  1  0  0  0  0
  6 17  1  0  0  0  0
  5  7  1  0  0  0  0
 14 18  1  0  0  0  0
  3  4  1  0  0  0  0
 18 19  2  0  0  0  0
  7  8  2  0  0  0  0
 18 20  2  0  0  0  0
  1  2  1  0  0  0  0
 18 21  1  0  0  0  0
  8  9  1  0  0  0  0
 21 22  1  0  0  0  0
  4 27  2  0  0  0  0
 17 23  2  0  0  0  0
  9 10  2  0  0  0  0
 17 24  1  0  0  0  0
 10 11  1  0  0  0  0
 21 25  1  0  0  0  0
 26  1  2  0  0  0  0
 11 12  2  0  0  0  0
 26 27  1  0  0  0  0
 12  7  1  0  0  0  0
 26 28  1  0  0  0  0
  3  5  1  0  0  0  0
  1 29  1  0  0  0  0
M  END
$$$$

  -ISIS-  09230315162D

 29 31  0  0  0  0  0  0  0  0999 V2000
   -0.9359   -1.2274    0.0000 C   0  0  0  0  0  0  0  0  0  0  0  0
   -0.2211   -1.6402    0.0000 C   0  0  0  0  0  0  0  0  0  0  0  0
    0.4953   -1.2269    0.0000 C   0  0  0  0  0  0  0  0  0  0  0  0
    0.4925   -0.3964    0.0000 C   0  0  0  0  0  0  0  0  0  0  0  0
    1.0750   -1.8084    0.0000 C   0  0  0  0  0  0  0  0  0  0  0  0
    1.0708   -2.6334    0.0000 C   0  0  0  0  0  0  0  0  0  0  0  0
    1.7875   -1.3917    0.0000 C   0  0  0  0  0  0  0  0  0  0  0  0
    2.5042   -1.8034    0.0000 C   0  0  0  0  0  0  0  0  0  0  0  0
    3.2162   -1.3874    0.0000 C   0  0  0  0  0  0  0  0  0  0  0  0
    3.2120   -0.5611    0.0000 C   0  0  0  0  0  0  0  0  0  0  0  0
    2.4899   -0.1526    0.0000 C   0  0  0  0  0  0  0  0  0  0  0  0
    1.7808   -0.5709    0.0000 C   0  0  0  0  0  0  0  0  0  0  0  0
    4.0042   -0.3417    0.0000 N   0  0  0  0  0  0  0  0  0  0  0  0
    4.0083   -1.5959    0.0000 N   0  0  3  0  0  0  0  0  0  0  0  0
    4.4125   -1.0542    0.0000 C   0  0  0  0  0  0  0  0  0  0  0  0
    5.2375   -1.0542    0.0000 N   0  0  0  0  0  0  0  0  0  0  0  0
    0.4792   -3.2167    0.0000 C   0  0  0  0  0  0  0  0  0  0  0  0
    4.2167   -2.3917    0.0000 S   0  0  3  0  0  0  0  0  0  0  0  0
    5.0125   -2.1750    0.0000 O   0  0  0  0  0  0  0  0  0  0  0  0
    3.4167   -2.6042    0.0000 O   0  0  0  0  0  0  0  0  0  0  0  0
    4.4292   -3.1875    0.0000 C   0  0  3  0  0  0  0  0  0  0  0  0
    4.0125   -3.9000    0.0000 C   0  0  0  0  0  0  0  0  0  0  0  0
   -0.3458   -3.2125    0.0000 O   0  0  0  0  0  0  0  0  0  0  0  0
    0.8875   -3.9292    0.0000 N   0  0  0  0  0  0  0  0  0  0  0  0
    5.1417   -3.6000    0.0000 C   0  0  0  0  0  0  0  0  0  0  0  0
   -0.9348   -0.4000    0.0000 C   0  0  0  0  0  0  0  0  0  0  0  0
   -0.2239    0.0116    0.0000 C   0  0  0  0  0  0  0  0  0  0  0  0
    1.2042    0.0208    0.0000 F   0  0  0  0  0  0  0  0  0  0  0  0
   -1.6542    0.0167    0.0000 F   0  0  0  0  0  0  0  0  0  0  0  0
 10 13  1  0  0  0  0
  2  3  2  0  0  0  0
  9 14  1  0  0  0  0
  5  6  2  0  0  0  0
 13 15  2  0  0  0  0
 15 14  1  0  0  0  0
 15 16  1  0  0  0  0
  6 17  1  0  0  0  0
  5  7  1  0  0  0  0
 14 18  1  0  0  0  0
  3  4  1  0  0  0  0
 18 19  2  0  0  0  0
  7  8  2  0  0  0  0
 18 20  2  0  0  0  0
  1  2  1  0  0  0  0
 18 21  1  0  0  0  0
  8  9  1  0  0  0  0
 21 22  1  0  0  0  0
  4 27  2  0  0  0  0
 17 23  2  0  0  0  0
  9 10  2  0  0  0  0
 17 24  1  0  0  0  0
 10 11  1  0  0  0  0
 21 25  1  0  0  0  0
 26  1  2  0  0  0  0
 11 12  2  0  0  0  0
 26 27  1  0  0  0  0
 12  7  1  0  0  0  0
  4 28  1  0  0  0  0
  3  5  1  0  0  0  0
 26 29  1  0  0  0  0
M  END
$$$$

  -ISIS-  09230315162D

 31 33  0  0  0  0  0  0  0  0999 V2000
   -0.9359   -1.2274    0.0000 C   0  0  0  0  0  0  0  0  0  0  0  0
   -0.2211   -1.6402    0.0000 C   0  0  0  0  0  0  0  0  0  0  0  0
    0.4953   -1.2269    0.0000 C   0  0  0  0  0  0  0  0  0  0  0  0
    0.4925   -0.3964    0.0000 C   0  0  0  0  0  0  0  0  0  0  0  0
    1.0750   -1.8084    0.0000 C   0  0  0  0  0  0  0  0  0  0  0  0
    1.0708   -2.6334    0.0000 C   0  0  0  0  0  0  0  0  0  0  0  0
    1.7875   -1.3917    0.0000 C   0  0  0  0  0  0  0  0  0  0  0  0
    2.5042   -1.8034    0.0000 C   0  0  0  0  0  0  0  0  0  0  0  0
    3.2162   -1.3874    0.0000 C   0  0  0  0  0  0  0  0  0  0  0  0
    3.2120   -0.5611    0.0000 C   0  0  0  0  0  0  0  0  0  0  0  0
    2.4899   -0.1526    0.0000 C   0  0  0  0  0  0  0  0  0  0  0  0
    1.7808   -0.5709    0.0000 C   0  0  0  0  0  0  0  0  0  0  0  0
    4.0042   -0.3417    0.0000 N   0  0  0  0  0  0  0  0  0  0  0  0
    4.0083   -1.5959    0.0000 N   0  0  3  0  0  0  0  0  0  0  0  0
    4.4125   -1.0542    0.0000 C   0  0  0  0  0  0  0  0  0  0  0  0
    5.2375   -1.0542    0.0000 N   0  0  0  0  0  0  0  0  0  0  0  0
    0.4792   -3.2167    0.0000 C   0  0  0  0  0  0  0  0  0  0  0  0
    4.2167   -2.3917    0.0000 S   0  0  3  0  0  0  0  0  0  0  0  0
    5.0125   -2.1750    0.0000 O   0  0  0  0  0  0  0  0  0  0  0  0
    3.4167   -2.6042    0.0000 O   0  0  0  0  0  0  0  0  0  0  0  0
    4.4292   -3.1875    0.0000 C   0  0  3  0  0  0  0  0  0  0  0  0
    4.0125   -3.9000    0.0000 C   0  0  0  0  0  0  0  0  0  0  0  0
   -0.3458   -3.2125    0.0000 O   0  0  0  0  0  0  0  0  0  0  0  0
    0.8875   -3.9292    0.0000 N   0  0  0  0  0  0  0  0  0  0  0  0
    5.1417   -3.6000    0.0000 C   0  0  0  0  0  0  0  0  0  0  0  0
   -0.9348   -0.4000    0.0000 C   0  0  0  0  0  0  0  0  0  0  0  0
   -0.2239    0.0116    0.0000 C   0  0  0  0  0  0  0  0  0  0  0  0
    1.2042    0.0208    0.0000 F   0  0  0  0  0  0  0  0  0  0  0  0
   -0.2292    0.8375    0.0000 F   0  0  0  0  0  0  0  0  0  0  0  0
    0.6708   -4.7250    0.0000 C   0  0  0  0  0  0  0  0  0  0  0  0
    1.2542   -5.3083    0.0000 C   0  0  0  0  0  0  0  0  0  0  0  0
  9 14  1  0  0  0  0
  5  6  2  0  0  0  0
 13 15  2  0  0  0  0
 15 14  1  0  0  0  0
 15 16  1  0  0  0  0
  6 17  1  0  0  0  0
  5  7  1  0  0  0  0
 14 18  1  0  0  0  0
  3  4  1  0  0  0  0
 18 19  2  0  0  0  0
  7  8  2  0  0  0  0
 18 20  2  0  0  0  0
  1  2  1  0  0  0  0
 18 21  1  0  0  0  0
  8  9  1  0  0  0  0
 21 22  1  0  0  0  0
  4 27  2  0  0  0  0
 17 23  2  0  0  0  0
  9 10  2  0  0  0  0
 17 24  1  0  0  0  0
 10 11  1  0  0  0  0
 21 25  1  0  0  0  0
 26  1  2  0  0  0  0
 11 12  2  0  0  0  0
 26 27  1  0  0  0  0
 12  7  1  0  0  0  0
  4 28  1  0  0  0  0
  3  5  1  0  0  0  0
 27 29  1  0  0  0  0
 10 13  1  0  0  0  0
 24 30  1  0  0  0  0
  2  3  2  0  0  0  0
 30 31  1  0  0  0  0
M  END
$$$$

  -ISIS-  09230315172D

 32 34  0  0  0  0  0  0  0  0999 V2000
   -0.9359   -1.2274    0.0000 C   0  0  0  0  0  0  0  0  0  0  0  0
   -0.2211   -1.6402    0.0000 C   0  0  0  0  0  0  0  0  0  0  0  0
    0.4953   -1.2269    0.0000 C   0  0  0  0  0  0  0  0  0  0  0  0
    0.4925   -0.3964    0.0000 C   0  0  0  0  0  0  0  0  0  0  0  0
    1.0750   -1.8084    0.0000 C   0  0  0  0  0  0  0  0  0  0  0  0
    1.0708   -2.6334    0.0000 C   0  0  0  0  0  0  0  0  0  0  0  0
    1.7875   -1.3917    0.0000 C   0  0  0  0  0  0  0  0  0  0  0  0
    2.5042   -1.8034    0.0000 C   0  0  0  0  0  0  0  0  0  0  0  0
    3.2162   -1.3874    0.0000 C   0  0  0  0  0  0  0  0  0  0  0  0
    3.2120   -0.5611    0.0000 C   0  0  0  0  0  0  0  0  0  0  0  0
    2.4899   -0.1526    0.0000 C   0  0  0  0  0  0  0  0  0  0  0  0
    1.7808   -0.5709    0.0000 C   0  0  0  0  0  0  0  0  0  0  0  0
    4.0042   -0.3417    0.0000 N   0  0  0  0  0  0  0  0  0  0  0  0
    4.0083   -1.5959    0.0000 N   0  0  3  0  0  0  0  0  0  0  0  0
    4.4125   -1.0542    0.0000 C   0  0  0  0  0  0  0  0  0  0  0  0
    5.2375   -1.0542    0.0000 N   0  0  0  0  0  0  0  0  0  0  0  0
    0.4792   -3.2167    0.0000 C   0  0  0  0  0  0  0  0  0  0  0  0
    4.2167   -2.3917    0.0000 S   0  0  3  0  0  0  0  0  0  0  0  0
    5.0125   -2.1750    0.0000 O   0  0  0  0  0  0  0  0  0  0  0  0
    3.4167   -2.6042    0.0000 O   0  0  0  0  0  0  0  0  0  0  0  0
    4.4292   -3.1875    0.0000 N   0  0  0  0  0  0  0  0  0  0  0  0
   -0.3458   -3.2125    0.0000 O   0  0  0  0  0  0  0  0  0  0  0  0
    0.8875   -3.9292    0.0000 N   0  0  0  0  0  0  0  0  0  0  0  0
    5.1417   -3.6000    0.0000 C   0  0  0  0  0  0  0  0  0  0  0  0
   -0.9348   -0.4000    0.0000 C   0  0  0  0  0  0  0  0  0  0  0  0
   -0.2239    0.0116    0.0000 C   0  0  0  0  0  0  0  0  0  0  0  0
   -0.2292    0.8375    0.0000 F   0  0  0  0  0  0  0  0  0  0  0  0
    0.6708   -4.7250    0.0000 C   0  0  0  0  0  0  0  0  0  0  0  0
    5.9375   -3.3833    0.0000 O   0  0  0  0  0  0  0  0  0  0  0  0
    4.9250   -4.3958    0.0000 N   0  0  3  0  0  0  0  0  0  0  0  0
    5.5083   -4.9792    0.0000 C   0  0  0  0  0  0  0  0  0  0  0  0
    4.5083   -5.1083    0.0000 C   0  0  0  0  0  0  0  0  0  0  0  0
  5  6  2  0  0  0  0
 13 15  2  0  0  0  0
 15 14  1  0  0  0  0
 15 16  1  0  0  0  0
  6 17  1  0  0  0  0
  5  7  1  0  0  0  0
 14 18  1  0  0  0  0
  3  4  1  0  0  0  0
 18 19  2  0  0  0  0
  7  8  2  0  0  0  0
 18 20  2  0  0  0  0
  1  2  1  0  0  0  0
 18 21  1  0  0  0  0
  8  9  1  0  0  0  0
 17 22  2  0  0  0  0
  4 26  2  0  0  0  0
 17 23  1  0  0  0  0
  9 10  2  0  0  0  0
 21 24  1  0  0  0  0
 10 11  1  0  0  0  0
 25  1  2  0  0  0  0
 25 26  1  0  0  0  0
 11 12  2  0  0  0  0
 26 27  1  0  0  0  0
 12  7  1  0  0  0  0
 23 28  1  0  0  0  0
  3  5  1  0  0  0  0
 24 29  2  0  0  0  0
 10 13  1  0  0  0  0
 24 30  1  0  0  0  0
  2  3  2  0  0  0  0
 30 31  1  0  0  0  0
  9 14  1  0  0  0  0
 30 32  1  0  0  0  0
M  END
$$$$

  -ISIS-  09230315172D

 31 33  0  0  0  0  0  0  0  0999 V2000
   -0.9359   -1.2274    0.0000 C   0  0  0  0  0  0  0  0  0  0  0  0
   -0.2211   -1.6402    0.0000 C   0  0  0  0  0  0  0  0  0  0  0  0
    0.4953   -1.2269    0.0000 C   0  0  0  0  0  0  0  0  0  0  0  0
    0.4925   -0.3964    0.0000 C   0  0  0  0  0  0  0  0  0  0  0  0
    1.0750   -1.8084    0.0000 C   0  0  0  0  0  0  0  0  0  0  0  0
    1.0708   -2.6334    0.0000 C   0  0  0  0  0  0  0  0  0  0  0  0
    1.7875   -1.3917    0.0000 C   0  0  0  0  0  0  0  0  0  0  0  0
    2.5042   -1.8034    0.0000 C   0  0  0  0  0  0  0  0  0  0  0  0
    3.2162   -1.3874    0.0000 C   0  0  0  0  0  0  0  0  0  0  0  0
    3.2120   -0.5611    0.0000 C   0  0  0  0  0  0  0  0  0  0  0  0
    2.4899   -0.1526    0.0000 C   0  0  0  0  0  0  0  0  0  0  0  0
    1.7808   -0.5709    0.0000 C   0  0  0  0  0  0  0  0  0  0  0  0
    4.0042   -0.3417    0.0000 N   0  0  0  0  0  0  0  0  0  0  0  0
    4.0083   -1.5959    0.0000 N   0  0  3  0  0  0  0  0  0  0  0  0
    4.4125   -1.0542    0.0000 C   0  0  0  0  0  0  0  0  0  0  0  0
    5.2375   -1.0542    0.0000 N   0  0  0  0  0  0  0  0  0  0  0  0
    0.4792   -3.2167    0.0000 C   0  0  0  0  0  0  0  0  0  0  0  0
    4.2167   -2.3917    0.0000 S   0  0  3  0  0  0  0  0  0  0  0  0
    5.0125   -2.1750    0.0000 O   0  0  0  0  0  0  0  0  0  0  0  0
    3.4167   -2.6042    0.0000 O   0  0  0  0  0  0  0  0  0  0  0  0
    4.4292   -3.1875    0.0000 N   0  0  0  0  0  0  0  0  0  0  0  0
   -0.3458   -3.2125    0.0000 O   0  0  0  0  0  0  0  0  0  0  0  0
    0.8875   -3.9292    0.0000 N   0  0  0  0  0  0  0  0  0  0  0  0
    5.1417   -3.6000    0.0000 C   0  0  0  0  0  0  0  0  0  0  0  0
   -0.9348   -0.4000    0.0000 C   0  0  0  0  0  0  0  0  0  0  0  0
   -0.2239    0.0116    0.0000 C   0  0  0  0  0  0  0  0  0  0  0  0
   -0.2292    0.8375    0.0000 F   0  0  0  0  0  0  0  0  0  0  0  0
    5.9375   -3.3833    0.0000 O   0  0  0  0  0  0  0  0  0  0  0  0
    4.9250   -4.3958    0.0000 N   0  0  3  0  0  0  0  0  0  0  0  0
    5.5083   -4.9792    0.0000 C   0  0  0  0  0  0  0  0  0  0  0  0
    4.5083   -5.1083    0.0000 C   0  0  0  0  0  0  0  0  0  0  0  0
  9 14  1  0  0  0  0
  5  6  2  0  0  0  0
 13 15  2  0  0  0  0
 15 14  1  0  0  0  0
 15 16  1  0  0  0  0
  6 17  1  0  0  0  0
  5  7  1  0  0  0  0
 14 18  1  0  0  0  0
  3  4  1  0  0  0  0
 18 19  2  0  0  0  0
  7  8  2  0  0  0  0
 18 20  2  0  0  0  0
  1  2  1  0  0  0  0
 18 21  1  0  0  0  0
  8  9  1  0  0  0  0
 17 22  2  0  0  0  0
  4 26  2  0  0  0  0
 17 23  1  0  0  0  0
  9 10  2  0  0  0  0
 21 24  1  0  0  0  0
 10 11  1  0  0  0  0
 25  1  2  0  0  0  0
 25 26  1  0  0  0  0
 11 12  2  0  0  0  0
 26 27  1  0  0  0  0
 12  7  1  0  0  0  0
 24 28  2  0  0  0  0
  3  5  1  0  0  0  0
 24 29  1  0  0  0  0
 10 13  1  0  0  0  0
 29 30  1  0  0  0  0
  2  3  2  0  0  0  0
 29 31  1  0  0  0  0
M  END
$$$$

  -ISIS-  09230315182D

 35 38  0  0  0  0  0  0  0  0999 V2000
   -0.9359   -1.2274    0.0000 C   0  0  0  0  0  0  0  0  0  0  0  0
   -0.2211   -1.6402    0.0000 C   0  0  0  0  0  0  0  0  0  0  0  0
    0.4953   -1.2269    0.0000 C   0  0  0  0  0  0  0  0  0  0  0  0
    0.4925   -0.3964    0.0000 C   0  0  0  0  0  0  0  0  0  0  0  0
    1.0750   -1.8084    0.0000 C   0  0  0  0  0  0  0  0  0  0  0  0
    1.0708   -2.6334    0.0000 C   0  0  0  0  0  0  0  0  0  0  0  0
    1.7875   -1.3917    0.0000 C   0  0  0  0  0  0  0  0  0  0  0  0
    2.5042   -1.8034    0.0000 C   0  0  0  0  0  0  0  0  0  0  0  0
    3.2162   -1.3874    0.0000 C   0  0  0  0  0  0  0  0  0  0  0  0
    3.2120   -0.5611    0.0000 C   0  0  0  0  0  0  0  0  0  0  0  0
    2.4899   -0.1526    0.0000 C   0  0  0  0  0  0  0  0  0  0  0  0
    1.7808   -0.5709    0.0000 C   0  0  0  0  0  0  0  0  0  0  0  0
    4.0042   -0.3417    0.0000 N   0  0  0  0  0  0  0  0  0  0  0  0
    4.0083   -1.5959    0.0000 N   0  0  3  0  0  0  0  0  0  0  0  0
    4.4125   -1.0542    0.0000 C   0  0  0  0  0  0  0  0  0  0  0  0
    5.2375   -1.0542    0.0000 N   0  0  0  0  0  0  0  0  0  0  0  0
    0.4792   -3.2167    0.0000 C   0  0  0  0  0  0  0  0  0  0  0  0
    4.2167   -2.3917    0.0000 S   0  0  3  0  0  0  0  0  0  0  0  0
    5.0125   -2.1750    0.0000 O   0  0  0  0  0  0  0  0  0  0  0  0
    3.4167   -2.6042    0.0000 O   0  0  0  0  0  0  0  0  0  0  0  0
    4.4292   -3.1875    0.0000 N   0  0  0  0  0  0  0  0  0  0  0  0
   -0.3458   -3.2125    0.0000 O   0  0  0  0  0  0  0  0  0  0  0  0
    0.8875   -3.9292    0.0000 N   0  0  0  0  0  0  0  0  0  0  0  0
    5.1417   -3.6000    0.0000 C   0  0  0  0  0  0  0  0  0  0  0  0
   -0.9348   -0.4000    0.0000 C   0  0  0  0  0  0  0  0  0  0  0  0
   -0.2239    0.0116    0.0000 C   0  0  0  0  0  0  0  0  0  0  0  0
   -0.2292    0.8375    0.0000 F   0  0  0  0  0  0  0  0  0  0  0  0
    5.9375   -3.3833    0.0000 O   0  0  0  0  0  0  0  0  0  0  0  0
    4.9250   -4.3958    0.0000 N   0  0  3  0  0  0  0  0  0  0  0  0
    0.4708   -4.6417    0.0000 C   0  0  0  0  0  0  0  0  0  0  0  0
    4.1260   -4.6044    0.0000 C   0  0  0  0  0  0  0  0  0  0  0  0
    3.9084   -5.3963    0.0000 C   0  0  0  0  0  0  0  0  0  0  0  0
    4.4865   -5.9851    0.0000 O   0  0  0  0  0  0  0  0  0  0  0  0
    5.2855   -5.7765    0.0000 C   0  0  0  0  0  0  0  0  0  0  0  0
    5.5064   -4.9791    0.0000 C   0  0  0  0  0  0  0  0  0  0  0  0
 15 16  1  0  0  0  0
  6 17  1  0  0  0  0
  5  7  1  0  0  0  0
 14 18  1  0  0  0  0
  3  4  1  0  0  0  0
 18 19  2  0  0  0  0
  7  8  2  0  0  0  0
 18 20  2  0  0  0  0
  1  2  1  0  0  0  0
 18 21  1  0  0  0  0
  8  9  1  0  0  0  0
 17 22  2  0  0  0  0
  4 26  2  0  0  0  0
 17 23  1  0  0  0  0
  9 10  2  0  0  0  0
 21 24  1  0  0  0  0
 10 11  1  0  0  0  0
 25  1  2  0  0  0  0
 25 26  1  0  0  0  0
 11 12  2  0  0  0  0
 26 27  1  0  0  0  0
 12  7  1  0  0  0  0
 24 28  2  0  0  0  0
  3  5  1  0  0  0  0
 24 29  1  0  0  0  0
 10 13  1  0  0  0  0
 23 30  1  0  0  0  0
 29 31  1  0  0  0  0
  2  3  2  0  0  0  0
  9 14  1  0  0  0  0
  5  6  2  0  0  0  0
 13 15  2  0  0  0  0
 15 14  1  0  0  0  0
 29 35  1  0  0  0  0
 31 32  1  0  0  0  0
 32 33  1  0  0  0  0
 33 34  1  0  0  0  0
 34 35  1  0  0  0  0
M  END
$$$$

  -ISIS-  09230315192D

 34 37  0  0  0  0  0  0  0  0999 V2000
   -0.9359   -1.2274    0.0000 C   0  0  0  0  0  0  0  0  0  0  0  0
   -0.2211   -1.6402    0.0000 C   0  0  0  0  0  0  0  0  0  0  0  0
    0.4953   -1.2269    0.0000 C   0  0  0  0  0  0  0  0  0  0  0  0
    0.4925   -0.3964    0.0000 C   0  0  0  0  0  0  0  0  0  0  0  0
    1.0750   -1.8084    0.0000 C   0  0  0  0  0  0  0  0  0  0  0  0
    1.0708   -2.6334    0.0000 C   0  0  0  0  0  0  0  0  0  0  0  0
    1.7875   -1.3917    0.0000 C   0  0  0  0  0  0  0  0  0  0  0  0
    2.5042   -1.8034    0.0000 C   0  0  0  0  0  0  0  0  0  0  0  0
    3.2162   -1.3874    0.0000 C   0  0  0  0  0  0  0  0  0  0  0  0
    3.2120   -0.5611    0.0000 C   0  0  0  0  0  0  0  0  0  0  0  0
    2.4899   -0.1526    0.0000 C   0  0  0  0  0  0  0  0  0  0  0  0
    1.7808   -0.5709    0.0000 C   0  0  0  0  0  0  0  0  0  0  0  0
    4.0042   -0.3417    0.0000 N   0  0  0  0  0  0  0  0  0  0  0  0
    4.0083   -1.5959    0.0000 N   0  0  3  0  0  0  0  0  0  0  0  0
    4.4125   -1.0542    0.0000 C   0  0  0  0  0  0  0  0  0  0  0  0
    5.2375   -1.0542    0.0000 N   0  0  0  0  0  0  0  0  0  0  0  0
    0.4792   -3.2167    0.0000 C   0  0  0  0  0  0  0  0  0  0  0  0
    4.2167   -2.3917    0.0000 S   0  0  3  0  0  0  0  0  0  0  0  0
    5.0125   -2.1750    0.0000 O   0  0  0  0  0  0  0  0  0  0  0  0
    3.4167   -2.6042    0.0000 O   0  0  0  0  0  0  0  0  0  0  0  0
    4.4292   -3.1875    0.0000 N   0  0  0  0  0  0  0  0  0  0  0  0
   -0.3458   -3.2125    0.0000 O   0  0  0  0  0  0  0  0  0  0  0  0
    0.8875   -3.9292    0.0000 N   0  0  0  0  0  0  0  0  0  0  0  0
    5.1417   -3.6000    0.0000 C   0  0  0  0  0  0  0  0  0  0  0  0
   -0.9348   -0.4000    0.0000 C   0  0  0  0  0  0  0  0  0  0  0  0
   -0.2239    0.0116    0.0000 C   0  0  0  0  0  0  0  0  0  0  0  0
   -0.2292    0.8375    0.0000 F   0  0  0  0  0  0  0  0  0  0  0  0
    5.9375   -3.3833    0.0000 O   0  0  0  0  0  0  0  0  0  0  0  0
    4.9250   -4.3958    0.0000 N   0  0  3  0  0  0  0  0  0  0  0  0
    0.4708   -4.6417    0.0000 C   0  0  0  0  0  0  0  0  0  0  0  0
    4.3135   -4.6336    0.0000 C   0  0  0  0  0  0  0  0  0  0  0  0
    4.0959   -5.4254    0.0000 C   0  0  0  0  0  0  0  0  0  0  0  0
    5.4147   -4.9499    0.0000 C   0  0  0  0  0  0  0  0  0  0  0  0
    5.1958   -5.7417    0.0000 C   0  0  0  0  0  0  0  0  0  0  0  0
 15 14  1  0  0  0  0
 15 16  1  0  0  0  0
  6 17  1  0  0  0  0
  5  7  1  0  0  0  0
 14 18  1  0  0  0  0
  3  4  1  0  0  0  0
 18 19  2  0  0  0  0
  7  8  2  0  0  0  0
 18 20  2  0  0  0  0
  1  2  1  0  0  0  0
 18 21  1  0  0  0  0
  8  9  1  0  0  0  0
 17 22  2  0  0  0  0
  4 26  2  0  0  0  0
 17 23  1  0  0  0  0
  9 10  2  0  0  0  0
 21 24  1  0  0  0  0
 10 11  1  0  0  0  0
 25  1  2  0  0  0  0
 25 26  1  0  0  0  0
 11 12  2  0  0  0  0
 26 27  1  0  0  0  0
 12  7  1  0  0  0  0
 24 28  2  0  0  0  0
  3  5  1  0  0  0  0
 24 29  1  0  0  0  0
 10 13  1  0  0  0  0
 23 30  1  0  0  0  0
 29 31  1  0  0  0  0
  2  3  2  0  0  0  0
  9 14  1  0  0  0  0
  5  6  2  0  0  0  0
 29 33  1  0  0  0  0
 31 32  1  0  0  0  0
 33 34  1  0  0  0  0
 13 15  2  0  0  0  0
 32 34  1  0  0  0  0
M  END
$$$$

  -ISIS-  09230315192D

 34 37  0  0  0  0  0  0  0  0999 V2000
   -0.9359   -1.2274    0.0000 C   0  0  0  0  0  0  0  0  0  0  0  0
   -0.2211   -1.6402    0.0000 C   0  0  0  0  0  0  0  0  0  0  0  0
    0.4953   -1.2269    0.0000 C   0  0  0  0  0  0  0  0  0  0  0  0
    0.4925   -0.3964    0.0000 C   0  0  0  0  0  0  0  0  0  0  0  0
    1.0750   -1.8084    0.0000 C   0  0  0  0  0  0  0  0  0  0  0  0
    1.0708   -2.6334    0.0000 C   0  0  0  0  0  0  0  0  0  0  0  0
    1.7875   -1.3917    0.0000 C   0  0  0  0  0  0  0  0  0  0  0  0
    2.5042   -1.8034    0.0000 C   0  0  0  0  0  0  0  0  0  0  0  0
    3.2162   -1.3874    0.0000 C   0  0  0  0  0  0  0  0  0  0  0  0
    3.2120   -0.5611    0.0000 C   0  0  0  0  0  0  0  0  0  0  0  0
    2.4899   -0.1526    0.0000 C   0  0  0  0  0  0  0  0  0  0  0  0
    1.7808   -0.5709    0.0000 C   0  0  0  0  0  0  0  0  0  0  0  0
    4.0042   -0.3417    0.0000 N   0  0  0  0  0  0  0  0  0  0  0  0
    4.0083   -1.5959    0.0000 N   0  0  3  0  0  0  0  0  0  0  0  0
    4.4125   -1.0542    0.0000 C   0  0  0  0  0  0  0  0  0  0  0  0
    5.2375   -1.0542    0.0000 N   0  0  0  0  0  0  0  0  0  0  0  0
    0.4792   -3.2167    0.0000 C   0  0  0  0  0  0  0  0  0  0  0  0
    4.2167   -2.3917    0.0000 S   0  0  3  0  0  0  0  0  0  0  0  0
    5.0125   -2.1750    0.0000 O   0  0  0  0  0  0  0  0  0  0  0  0
    3.4167   -2.6042    0.0000 O   0  0  0  0  0  0  0  0  0  0  0  0
    4.4292   -3.1875    0.0000 N   0  0  0  0  0  0  0  0  0  0  0  0
   -0.3458   -3.2125    0.0000 O   0  0  0  0  0  0  0  0  0  0  0  0
    0.8875   -3.9292    0.0000 N   0  0  0  0  0  0  0  0  0  0  0  0
    5.1417   -3.6000    0.0000 C   0  0  0  0  0  0  0  0  0  0  0  0
   -0.9348   -0.4000    0.0000 C   0  0  0  0  0  0  0  0  0  0  0  0
   -0.2239    0.0116    0.0000 C   0  0  0  0  0  0  0  0  0  0  0  0
   -0.2292    0.8375    0.0000 F   0  0  0  0  0  0  0  0  0  0  0  0
    5.9375   -3.3833    0.0000 O   0  0  0  0  0  0  0  0  0  0  0  0
    4.9250   -4.3958    0.0000 N   0  0  3  0  0  0  0  0  0  0  0  0
    4.1260   -4.6044    0.0000 C   0  0  0  0  0  0  0  0  0  0  0  0
    3.9084   -5.3963    0.0000 C   0  0  0  0  0  0  0  0  0  0  0  0
    4.4865   -5.9851    0.0000 O   0  0  0  0  0  0  0  0  0  0  0  0
    5.2855   -5.7765    0.0000 C   0  0  0  0  0  0  0  0  0  0  0  0
    5.5064   -4.9791    0.0000 C   0  0  0  0  0  0  0  0  0  0  0  0
 15 14  1  0  0  0  0
 15 16  1  0  0  0  0
  6 17  1  0  0  0  0
  5  7  1  0  0  0  0
 14 18  1  0  0  0  0
  3  4  1  0  0  0  0
 18 19  2  0  0  0  0
  7  8  2  0  0  0  0
 18 20  2  0  0  0  0
  1  2  1  0  0  0  0
 18 21  1  0  0  0  0
  8  9  1  0  0  0  0
 17 22  2  0  0  0  0
  4 26  2  0  0  0  0
 17 23  1  0  0  0  0
  9 10  2  0  0  0  0
 21 24  1  0  0  0  0
 10 11  1  0  0  0  0
 25  1  2  0  0  0  0
 25 26  1  0  0  0  0
 11 12  2  0  0  0  0
 26 27  1  0  0  0  0
 12  7  1  0  0  0  0
 24 28  2  0  0  0  0
  3  5  1  0  0  0  0
 24 29  1  0  0  0  0
 29 30  1  0  0  0  0
 10 13  1  0  0  0  0
  2  3  2  0  0  0  0
  9 14  1  0  0  0  0
  5  6  2  0  0  0  0
 13 15  2  0  0  0  0
 29 34  1  0  0  0  0
 30 31  1  0  0  0  0
 31 32  1  0  0  0  0
 32 33  1  0  0  0  0
 33 34  1  0  0  0  0
M  END
$$$$

  -ISIS-  09230315202D

 27 29  0  0  0  0  0  0  0  0999 V2000
   -0.9359   -1.2274    0.0000 C   0  0  0  0  0  0  0  0  0  0  0  0
   -0.2211   -1.6402    0.0000 C   0  0  0  0  0  0  0  0  0  0  0  0
    0.4953   -1.2269    0.0000 C   0  0  0  0  0  0  0  0  0  0  0  0
    0.4925   -0.3964    0.0000 C   0  0  0  0  0  0  0  0  0  0  0  0
    1.0750   -1.8084    0.0000 C   0  0  0  0  0  0  0  0  0  0  0  0
    1.0708   -2.6334    0.0000 C   0  0  0  0  0  0  0  0  0  0  0  0
    1.7875   -1.3917    0.0000 C   0  0  0  0  0  0  0  0  0  0  0  0
    2.5042   -1.8034    0.0000 C   0  0  0  0  0  0  0  0  0  0  0  0
    3.2162   -1.3874    0.0000 C   0  0  0  0  0  0  0  0  0  0  0  0
    3.2120   -0.5611    0.0000 C   0  0  0  0  0  0  0  0  0  0  0  0
    2.4899   -0.1526    0.0000 C   0  0  0  0  0  0  0  0  0  0  0  0
    1.7808   -0.5709    0.0000 C   0  0  0  0  0  0  0  0  0  0  0  0
    4.0042   -0.3417    0.0000 N   0  0  0  0  0  0  0  0  0  0  0  0
    4.0083   -1.5959    0.0000 N   0  0  3  0  0  0  0  0  0  0  0  0
    4.4125   -1.0542    0.0000 C   0  0  0  0  0  0  0  0  0  0  0  0
    5.2375   -1.0542    0.0000 N   0  0  0  0  0  0  0  0  0  0  0  0
    0.4792   -3.2167    0.0000 C   0  0  0  0  0  0  0  0  0  0  0  0
   -0.3458   -3.2125    0.0000 O   0  0  0  0  0  0  0  0  0  0  0  0
    0.8875   -3.9292    0.0000 N   0  0  0  0  0  0  0  0  0  0  0  0
   -0.9348   -0.4000    0.0000 C   0  0  0  0  0  0  0  0  0  0  0  0
   -0.2239    0.0116    0.0000 C   0  0  0  0  0  0  0  0  0  0  0  0
   -0.2292    0.8375    0.0000 F   0  0  0  0  0  0  0  0  0  0  0  0
    1.0750    0.1917    0.0000 F   0  0  0  0  0  0  0  0  0  0  0  0
    0.6708   -4.7250    0.0000 C   0  0  0  0  0  0  0  0  0  0  0  0
    4.2167   -2.3917    0.0000 C   0  0  3  0  0  0  0  0  0  0  0  0
    3.8000   -3.1042    0.0000 C   0  0  0  0  0  0  0  0  0  0  0  0
    4.9292   -2.8042    0.0000 C   0  0  0  0  0  0  0  0  0  0  0  0
 12  7  1  0  0  0  0
  3  5  1  0  0  0  0
 10 13  1  0  0  0  0
  2  3  2  0  0  0  0
  9 14  1  0  0  0  0
  5  6  2  0  0  0  0
 13 15  2  0  0  0  0
 15 14  1  0  0  0  0
 15 16  1  0  0  0  0
  6 17  1  0  0  0  0
  5  7  1  0  0  0  0
 17 18  2  0  0  0  0
  3  4  1  0  0  0  0
 17 19  1  0  0  0  0
  7  8  2  0  0  0  0
  1  2  1  0  0  0  0
 20 21  1  0  0  0  0
  8  9  1  0  0  0  0
 21 22  1  0  0  0  0
  4 21  2  0  0  0  0
  4 23  1  0  0  0  0
  9 10  2  0  0  0  0
 19 24  1  0  0  0  0
 10 11  1  0  0  0  0
 14 25  1  0  0  0  0
 20  1  2  0  0  0  0
 25 26  1  0  0  0  0
 11 12  2  0  0  0  0
 25 27  1  0  0  0  0
M  END
$$$$

  -ISIS-  09230315202D

 26 28  0  0  0  0  0  0  0  0999 V2000
   -0.9359   -1.2274    0.0000 C   0  0  0  0  0  0  0  0  0  0  0  0
   -0.2211   -1.6402    0.0000 C   0  0  0  0  0  0  0  0  0  0  0  0
    0.4953   -1.2269    0.0000 C   0  0  0  0  0  0  0  0  0  0  0  0
    0.4925   -0.3964    0.0000 C   0  0  0  0  0  0  0  0  0  0  0  0
    1.0750   -1.8084    0.0000 C   0  0  0  0  0  0  0  0  0  0  0  0
    1.0708   -2.6334    0.0000 C   0  0  0  0  0  0  0  0  0  0  0  0
    1.7875   -1.3917    0.0000 C   0  0  0  0  0  0  0  0  0  0  0  0
    2.5042   -1.8034    0.0000 C   0  0  0  0  0  0  0  0  0  0  0  0
    3.2162   -1.3874    0.0000 C   0  0  0  0  0  0  0  0  0  0  0  0
    3.2120   -0.5611    0.0000 C   0  0  0  0  0  0  0  0  0  0  0  0
    2.4899   -0.1526    0.0000 C   0  0  0  0  0  0  0  0  0  0  0  0
    1.7808   -0.5709    0.0000 C   0  0  0  0  0  0  0  0  0  0  0  0
    4.0042   -0.3417    0.0000 N   0  0  0  0  0  0  0  0  0  0  0  0
    4.0083   -1.5959    0.0000 N   0  0  3  0  0  0  0  0  0  0  0  0
    4.4125   -1.0542    0.0000 C   0  0  0  0  0  0  0  0  0  0  0  0
    5.2375   -1.0542    0.0000 N   0  0  0  0  0  0  0  0  0  0  0  0
    0.4792   -3.2167    0.0000 C   0  0  0  0  0  0  0  0  0  0  0  0
   -0.3458   -3.2125    0.0000 O   0  0  0  0  0  0  0  0  0  0  0  0
    0.8875   -3.9292    0.0000 N   0  0  0  0  0  0  0  0  0  0  0  0
   -0.9348   -0.4000    0.0000 C   0  0  0  0  0  0  0  0  0  0  0  0
   -0.2239    0.0116    0.0000 C   0  0  0  0  0  0  0  0  0  0  0  0
   -0.2292    0.8375    0.0000 F   0  0  0  0  0  0  0  0  0  0  0  0
    1.0750    0.1917    0.0000 F   0  0  0  0  0  0  0  0  0  0  0  0
    4.2167   -2.3917    0.0000 C   0  0  3  0  0  0  0  0  0  0  0  0
    3.8000   -3.1042    0.0000 C   0  0  0  0  0  0  0  0  0  0  0  0
    4.9292   -2.8042    0.0000 C   0  0  0  0  0  0  0  0  0  0  0  0
 11 12  2  0  0  0  0
 12  7  1  0  0  0  0
  3  5  1  0  0  0  0
 10 13  1  0  0  0  0
  2  3  2  0  0  0  0
  9 14  1  0  0  0  0
  5  6  2  0  0  0  0
 13 15  2  0  0  0  0
 15 14  1  0  0  0  0
 15 16  1  0  0  0  0
  6 17  1  0  0  0  0
  5  7  1  0  0  0  0
 17 18  2  0  0  0  0
  3  4  1  0  0  0  0
 17 19  1  0  0  0  0
  7  8  2  0  0  0  0
  1  2  1  0  0  0  0
 20 21  1  0  0  0  0
  8  9  1  0  0  0  0
 21 22  1  0  0  0  0
  4 21  2  0  0  0  0
  4 23  1  0  0  0  0
  9 10  2  0  0  0  0
 14 24  1  0  0  0  0
 10 11  1  0  0  0  0
 24 25  1  0  0  0  0
 20  1  2  0  0  0  0
 24 26  1  0  0  0  0
M  END
$$$$

  -ISIS-  09230315212D

 28 31  0  0  0  0  0  0  0  0999 V2000
    4.0042   -1.5958    0.0000 N   0  0  3  0  0  0  0  0  0  0  0  0
   -0.9359   -1.2274    0.0000 C   0  0  0  0  0  0  0  0  0  0  0  0
   -0.2211   -1.6402    0.0000 C   0  0  0  0  0  0  0  0  0  0  0  0
    0.4953   -1.2269    0.0000 C   0  0  0  0  0  0  0  0  0  0  0  0
    0.4925   -0.3964    0.0000 C   0  0  0  0  0  0  0  0  0  0  0  0
    1.0750   -1.8084    0.0000 C   0  0  0  0  0  0  0  0  0  0  0  0
    1.0708   -2.6334    0.0000 C   0  0  0  0  0  0  0  0  0  0  0  0
    1.7875   -1.3917    0.0000 C   0  0  0  0  0  0  0  0  0  0  0  0
    2.5042   -1.8034    0.0000 C   0  0  0  0  0  0  0  0  0  0  0  0
    3.2162   -1.3874    0.0000 C   0  0  0  0  0  0  0  0  0  0  0  0
    3.2120   -0.5611    0.0000 C   0  0  0  0  0  0  0  0  0  0  0  0
    2.4899   -0.1526    0.0000 C   0  0  0  0  0  0  0  0  0  0  0  0
    1.7808   -0.5709    0.0000 C   0  0  0  0  0  0  0  0  0  0  0  0
    4.0042   -0.3417    0.0000 N   0  0  0  0  0  0  0  0  0  0  0  0
    4.4125   -1.0542    0.0000 C   0  0  0  0  0  0  0  0  0  0  0  0
    5.2375   -1.0542    0.0000 N   0  0  0  0  0  0  0  0  0  0  0  0
    0.4792   -3.2167    0.0000 C   0  0  0  0  0  0  0  0  0  0  0  0
   -0.3458   -3.2125    0.0000 O   0  0  0  0  0  0  0  0  0  0  0  0
    0.8875   -3.9292    0.0000 N   0  0  0  0  0  0  0  0  0  0  0  0
   -0.9348   -0.4000    0.0000 C   0  0  0  0  0  0  0  0  0  0  0  0
   -0.2239    0.0116    0.0000 C   0  0  0  0  0  0  0  0  0  0  0  0
    1.0750    0.1917    0.0000 F   0  0  0  0  0  0  0  0  0  0  0  0
    0.6708   -4.7250    0.0000 C   0  0  0  0  0  0  0  0  0  0  0  0
    4.2167   -2.3917    0.0000 C   0  0  3  0  0  0  0  0  0  0  0  0
    3.7046   -2.8993    0.0000 C   0  0  0  0  0  0  0  0  0  0  0  0
    4.5780   -3.7817    0.0000 C   0  0  0  0  0  0  0  0  0  0  0  0
    5.0892   -3.2757    0.0000 C   0  0  0  0  0  0  0  0  0  0  0  0
    4.9081   -2.5763    0.0000 C   0  0  0  0  0  0  0  0  0  0  0  0
  4  6  1  0  0  0  0
 11 14  1  0  0  0  0
  3  4  2  0  0  0  0
 10  1  1  0  0  0  0
  6  7  2  0  0  0  0
 14 15  2  0  0  0  0
 15  1  1  0  0  0  0
 15 16  1  0  0  0  0
  7 17  1  0  0  0  0
  6  8  1  0  0  0  0
 17 18  2  0  0  0  0
  4  5  1  0  0  0  0
 17 19  1  0  0  0  0
  8  9  2  0  0  0  0
  2  3  1  0  0  0  0
 20 21  1  0  0  0  0
  9 10  1  0  0  0  0
  5 22  1  0  0  0  0
  5 21  2  0  0  0  0
 19 23  1  0  0  0  0
 10 11  2  0  0  0  0
  1 24  1  0  0  0  0
 24 25  1  0  0  0  0
 11 12  1  0  0  0  0
 20  2  2  0  0  0  0
 12 13  2  0  0  0  0
 13  8  1  0  0  0  0
 26 27  1  0  0  0  0
 27 28  1  0  0  0  0
 28 24  1  0  0  0  0
 25 26  1  0  0  0  0
M  END
$$$$
